# generated using pymatgen
data_YEr5(PtRh8)2
_symmetry_space_group_name_H-M   'P 1'
_cell_length_a   5.27059200
_cell_length_b   5.27059188
_cell_length_c   17.53146800
_cell_angle_alpha   90.00000000
_cell_angle_beta   90.00000000
_cell_angle_gamma   119.99998822
_symmetry_Int_Tables_number   1
_chemical_formula_structural   YEr5(PtRh8)2
_chemical_formula_sum   'Y1 Er5 Pt2 Rh16'
_cell_volume   421.76229658
_cell_formula_units_Z   1
loop_
 _symmetry_equiv_pos_site_id
 _symmetry_equiv_pos_as_xyz
  1  'x, y, z'
loop_
 _atom_site_type_symbol
 _atom_site_label
 _atom_site_symmetry_multiplicity
 _atom_site_fract_x
 _atom_site_fract_y
 _atom_site_fract_z
 _atom_site_occupancy
  Y  Y0  1  0.666667  0.333333  0.250000  1
  Er  Er1  1  0.333333  0.666667  0.956895  1
  Er  Er2  1  0.666667  0.333333  0.043036  1
  Er  Er3  1  0.666667  0.333333  0.456964  1
  Er  Er4  1  0.333333  0.666667  0.543105  1
  Er  Er5  1  0.333333  0.666667  0.750000  1
  Pt  Pt6  1  0.000000  0.000000  0.500045  1
  Pt  Pt7  1  0.000000  0.000000  0.999955  1
  Rh  Rh8  1  0.167875  0.832125  0.373844  1
  Rh  Rh9  1  0.167875  0.335751  0.373844  1
  Rh  Rh10  1  0.664249  0.832125  0.373844  1
  Rh  Rh11  1  0.832035  0.167965  0.626212  1
  Rh  Rh12  1  0.832035  0.664069  0.626212  1
  Rh  Rh13  1  0.335931  0.167965  0.626212  1
  Rh  Rh14  1  0.832035  0.167965  0.873788  1
  Rh  Rh15  1  0.832035  0.664069  0.873788  1
  Rh  Rh16  1  0.335931  0.167965  0.873788  1
  Rh  Rh17  1  0.167875  0.832125  0.126156  1
  Rh  Rh18  1  0.167875  0.335751  0.126156  1
  Rh  Rh19  1  0.664249  0.832125  0.126156  1
  Rh  Rh20  1  0.333333  0.666667  0.250000  1
  Rh  Rh21  1  0.666667  0.333333  0.750000  1
  Rh  Rh22  1  0.000000  0.000000  0.250000  1
  Rh  Rh23  1  0.000000  0.000000  0.750000  1
