# generated using pymatgen
data_CsZrH5
_symmetry_space_group_name_H-M   'P 1'
_cell_length_a   12.05430700
_cell_length_b   7.62762300
_cell_length_c   5.69821500
_cell_angle_alpha   90.00000000
_cell_angle_beta   90.00000000
_cell_angle_gamma   90.00000000
_symmetry_Int_Tables_number   1
_chemical_formula_structural   CsZrH5
_chemical_formula_sum   'Cs4 Zr4 H20'
_cell_volume   523.92642005
_cell_formula_units_Z   4
loop_
 _symmetry_equiv_pos_site_id
 _symmetry_equiv_pos_as_xyz
  1  'x, y, z'
loop_
 _atom_site_type_symbol
 _atom_site_label
 _atom_site_symmetry_multiplicity
 _atom_site_fract_x
 _atom_site_fract_y
 _atom_site_fract_z
 _atom_site_occupancy
  Cs  Cs0  1  0.676841  0.076900  0.329440  1
  Cs  Cs1  1  0.176841  0.423099  0.329440  1
  Cs  Cs2  1  0.823159  0.576900  0.829440  1
  Cs  Cs3  1  0.323159  0.923100  0.829440  1
  Zr  Zr4  1  0.518356  0.584078  0.310015  1
  Zr  Zr5  1  0.018356  0.915922  0.310015  1
  Zr  Zr6  1  0.981644  0.084077  0.810014  1
  Zr  Zr7  1  0.481644  0.415923  0.810014  1
  H  H8  1  0.330690  0.328356  0.776275  1
  H  H9  1  0.830690  0.171644  0.776275  1
  H  H10  1  0.938703  0.693837  0.283268  1
  H  H11  1  0.438703  0.806162  0.283268  1
  H  H12  1  0.575539  0.390657  0.102334  1
  H  H13  1  0.075538  0.109343  0.102334  1
  H  H14  1  0.398551  0.481478  0.105431  1
  H  H15  1  0.898551  0.018523  0.105431  1
  H  H16  1  0.970389  0.141355  0.460235  1
  H  H17  1  0.470389  0.358646  0.460235  1
  H  H18  1  0.169310  0.828356  0.276274  1
  H  H19  1  0.669310  0.671643  0.276274  1
  H  H20  1  0.561298  0.193837  0.783270  1
  H  H21  1  0.061298  0.306162  0.783270  1
  H  H22  1  0.924462  0.890656  0.602334  1
  H  H23  1  0.424462  0.609344  0.602334  1
  H  H24  1  0.101449  0.981477  0.605431  1
  H  H25  1  0.601449  0.518523  0.605431  1
  H  H26  1  0.529611  0.641355  0.960237  1
  H  H27  1  0.029611  0.858646  0.960237  1
