# generated using pymatgen
data_Dy3Y13Cd2(Ni2Ag)2
_symmetry_space_group_name_H-M   'P 1'
_cell_length_a   9.54566650
_cell_length_b   9.54871896
_cell_length_c   9.53982700
_cell_angle_alpha   60.03080319
_cell_angle_beta   60.02023772
_cell_angle_gamma   60.00521094
_symmetry_Int_Tables_number   1
_chemical_formula_structural   Dy3Y13Cd2(Ni2Ag)2
_chemical_formula_sum   'Dy3 Y13 Cd2 Ni4 Ag2'
_cell_volume   615.12218909
_cell_formula_units_Z   1
loop_
 _symmetry_equiv_pos_site_id
 _symmetry_equiv_pos_as_xyz
  1  'x, y, z'
loop_
 _atom_site_type_symbol
 _atom_site_label
 _atom_site_symmetry_multiplicity
 _atom_site_fract_x
 _atom_site_fract_y
 _atom_site_fract_z
 _atom_site_occupancy
  Dy  Dy0  1  0.598744  0.598710  0.598212  1
  Dy  Dy1  1  0.598744  0.598710  0.204334  1
  Dy  Dy2  1  0.600770  0.200071  0.599580  1
  Y  Y3  1  0.198410  0.601352  0.600119  1
  Y  Y4  1  0.060991  0.439207  0.439855  1
  Y  Y5  1  0.439382  0.061063  0.059696  1
  Y  Y6  1  0.439382  0.061063  0.439858  1
  Y  Y7  1  0.060991  0.439207  0.059947  1
  Y  Y8  1  0.440175  0.440015  0.059905  1
  Y  Y9  1  0.060944  0.061230  0.438913  1
  Y  Y10  1  0.183620  0.813560  0.814565  1
  Y  Y11  1  0.813187  0.183629  0.188785  1
  Y  Y12  1  0.813187  0.183629  0.814399  1
  Y  Y13  1  0.183620  0.813560  0.188255  1
  Y  Y14  1  0.812900  0.813032  0.187034  1
  Y  Y15  1  0.186172  0.185807  0.814010  1
  Cd  Cd16  1  0.831495  0.509461  0.829521  1
  Cd  Cd17  1  0.509539  0.831462  0.829499  1
  Ni  Ni18  1  0.394200  0.392803  0.393220  1
  Ni  Ni19  1  0.394200  0.392803  0.819778  1
  Ni  Ni20  1  0.393180  0.821137  0.392841  1
  Ni  Ni21  1  0.820419  0.392476  0.393552  1
  Ag  Ag22  1  0.832872  0.833004  0.831438  1
  Ag  Ag23  1  0.832872  0.833004  0.502685  1
