# generated using pymatgen
data_SmTmNi6(BPt)2
_symmetry_space_group_name_H-M   'P 1'
_cell_length_a   5.09817300
_cell_length_b   5.09436243
_cell_length_c   7.16127100
_cell_angle_alpha   90.00000000
_cell_angle_beta   90.00000000
_cell_angle_gamma   120.02474017
_symmetry_Int_Tables_number   1
_chemical_formula_structural   SmTmNi6(BPt)2
_chemical_formula_sum   'Sm1 Tm1 Ni6 B2 Pt2'
_cell_volume   161.03371972
_cell_formula_units_Z   1
loop_
 _symmetry_equiv_pos_site_id
 _symmetry_equiv_pos_as_xyz
  1  'x, y, z'
loop_
 _atom_site_type_symbol
 _atom_site_label
 _atom_site_symmetry_multiplicity
 _atom_site_fract_x
 _atom_site_fract_y
 _atom_site_fract_z
 _atom_site_occupancy
  Sm  Sm0  1  0.999983  0.000000  0.000000  1
  Tm  Tm1  1  0.999985  0.000000  0.500000  1
  Ni  Ni2  1  0.499980  0.000000  0.306640  1
  Ni  Ni3  1  0.499985  0.500000  0.306696  1
  Ni  Ni4  1  0.999984  0.500000  0.306696  1
  Ni  Ni5  1  0.499980  0.000000  0.693360  1
  Ni  Ni6  1  0.499985  0.500000  0.693304  1
  Ni  Ni7  1  0.999984  0.500000  0.693304  1
  B  B8  1  0.333297  0.666623  0.500000  1
  B  B9  1  0.666673  0.333377  0.500000  1
  Pt  Pt10  1  0.333296  0.666632  0.000000  1
  Pt  Pt11  1  0.666664  0.333368  0.000000  1
