# generated using pymatgen
data_Lu5Ni2P12Ir17
_symmetry_space_group_name_H-M   'P 1'
_cell_length_a   12.65034400
_cell_length_b   12.67835527
_cell_length_c   3.92432100
_cell_angle_alpha   90.00000000
_cell_angle_beta   90.00000000
_cell_angle_gamma   119.92694126
_symmetry_Int_Tables_number   1
_chemical_formula_structural   Lu5Ni2P12Ir17
_chemical_formula_sum   'Lu5 Ni2 P12 Ir17'
_cell_volume   545.48104134
_cell_formula_units_Z   1
loop_
 _symmetry_equiv_pos_site_id
 _symmetry_equiv_pos_as_xyz
  1  'x, y, z'
loop_
 _atom_site_type_symbol
 _atom_site_label
 _atom_site_symmetry_multiplicity
 _atom_site_fract_x
 _atom_site_fract_y
 _atom_site_fract_z
 _atom_site_occupancy
  Lu  Lu0  1  0.333606  0.664954  0.500000  1
  Lu  Lu1  1  0.668654  0.335046  0.500000  1
  Lu  Lu2  1  0.000702  0.811243  0.000000  1
  Lu  Lu3  1  0.189459  0.188757  0.000000  1
  Lu  Lu4  1  0.815047  0.000000  0.000000  1
  Ni  Ni5  1  0.999068  0.461825  0.500000  1
  Ni  Ni6  1  0.537243  0.538175  0.500000  1
  P  P7  1  0.000074  0.635184  0.500000  1
  P  P8  1  0.364889  0.364816  0.500000  1
  P  P9  1  0.643431  0.000000  0.500000  1
  P  P10  1  0.515067  0.685356  0.000000  1
  P  P11  1  0.310295  0.825876  0.000000  1
  P  P12  1  0.170757  0.483005  0.000000  1
  P  P13  1  0.484418  0.174124  0.000000  1
  P  P14  1  0.687752  0.516995  0.000000  1
  P  P15  1  0.829710  0.314644  0.000000  1
  P  P16  1  0.999401  0.178828  0.500000  1
  P  P17  1  0.820573  0.821172  0.500000  1
  P  P18  1  0.177032  0.000000  0.500000  1
  Ir  Ir19  1  0.504752  0.865699  0.000000  1
  Ir  Ir20  1  0.132744  0.638752  0.000000  1
  Ir  Ir21  1  0.359714  0.492091  0.000000  1
  Ir  Ir22  1  0.493993  0.361248  0.000000  1
  Ir  Ir23  1  0.867625  0.507909  0.000000  1
  Ir  Ir24  1  0.639055  0.134301  0.000000  1
  Ir  Ir25  1  0.461682  0.000000  0.500000  1
  Ir  Ir26  1  0.998646  0.283183  0.000000  1
  Ir  Ir27  1  0.715463  0.716817  0.000000  1
  Ir  Ir28  1  0.282904  0.000000  0.000000  1
  Ir  Ir29  1  0.623990  0.806581  0.500000  1
  Ir  Ir30  1  0.195460  0.820663  0.500000  1
  Ir  Ir31  1  0.179594  0.373194  0.500000  1
  Ir  Ir32  1  0.374797  0.179337  0.500000  1
  Ir  Ir33  1  0.806399  0.626806  0.500000  1
  Ir  Ir34  1  0.817410  0.193419  0.500000  1
  Ir  Ir35  1  0.998596  0.000000  0.500000  1
