# generated using pymatgen
data_NaCo3Sb12Os
_symmetry_space_group_name_H-M   'P 1'
_cell_length_a   7.95648150
_cell_length_b   8.02318949
_cell_length_c   8.02318912
_cell_angle_alpha   109.63902208
_cell_angle_beta   109.30288664
_cell_angle_gamma   109.30288281
_symmetry_Int_Tables_number   1
_chemical_formula_structural   NaCo3Sb12Os
_chemical_formula_sum   'Na1 Co3 Sb12 Os1'
_cell_volume   395.08570842
_cell_formula_units_Z   1
loop_
 _symmetry_equiv_pos_site_id
 _symmetry_equiv_pos_as_xyz
  1  'x, y, z'
loop_
 _atom_site_type_symbol
 _atom_site_label
 _atom_site_symmetry_multiplicity
 _atom_site_fract_x
 _atom_site_fract_y
 _atom_site_fract_z
 _atom_site_occupancy
  Na  Na0  1  0.000000  0.000000  0.000000  1
  Co  Co1  1  0.500000  0.500000  0.500000  1
  Co  Co2  1  0.000000  0.500000  0.000000  1
  Co  Co3  1  0.000000  0.000000  0.500000  1
  Sb  Sb4  1  0.336014  0.160480  0.495971  1
  Sb  Sb5  1  0.332186  0.836027  0.179228  1
  Sb  Sb6  1  0.667814  0.163973  0.820772  1
  Sb  Sb7  1  0.824465  0.664509  0.160480  1
  Sb  Sb8  1  0.159957  0.495971  0.335491  1
  Sb  Sb9  1  0.503840  0.656800  0.836027  1
  Sb  Sb10  1  0.847040  0.179228  0.343200  1
  Sb  Sb11  1  0.663986  0.839520  0.504029  1
  Sb  Sb12  1  0.175535  0.335491  0.839520  1
  Sb  Sb13  1  0.152960  0.820772  0.656800  1
  Sb  Sb14  1  0.496160  0.343200  0.163973  1
  Sb  Sb15  1  0.840043  0.504029  0.664509  1
  Os  Os16  1  0.500000  0.000000  0.000000  1
