# generated using pymatgen
data_PuMg4RuN6
_symmetry_space_group_name_H-M   'P 1'
_cell_length_a   5.36685701
_cell_length_b   5.36685624
_cell_length_c   5.43392996
_cell_angle_alpha   99.33438249
_cell_angle_beta   99.33438731
_cell_angle_gamma   120.07962934
_symmetry_Int_Tables_number   1
_chemical_formula_structural   PuMg4RuN6
_chemical_formula_sum   'Pu1 Mg4 Ru1 N6'
_cell_volume   128.09425919
_cell_formula_units_Z   1
loop_
 _symmetry_equiv_pos_site_id
 _symmetry_equiv_pos_as_xyz
  1  'x, y, z'
loop_
 _atom_site_type_symbol
 _atom_site_label
 _atom_site_symmetry_multiplicity
 _atom_site_fract_x
 _atom_site_fract_y
 _atom_site_fract_z
 _atom_site_occupancy
  Pu  Pu0  1  0.666785  0.333215  0.000000  1
  Mg  Mg1  1  0.838219  0.161781  0.500000  1
  Mg  Mg2  1  0.165762  0.834238  0.500000  1
  Mg  Mg3  1  0.494350  0.505650  0.500000  1
  Mg  Mg4  1  0.999918  0.000082  0.000000  1
  Ru  Ru5  1  0.335328  0.664672  0.000000  1
  N  N6  1  0.425094  0.082565  0.235315  1
  N  N7  1  0.917435  0.574906  0.764685  1
  N  N8  1  0.577393  0.921208  0.759753  1
  N  N9  1  0.078792  0.422607  0.240247  1
  N  N10  1  0.738807  0.737881  0.241958  1
  N  N11  1  0.262119  0.261193  0.758042  1
