# generated using pymatgen
data_Tb3DyHoIn3
_symmetry_space_group_name_H-M   'P 1'
_cell_length_a   6.02746485
_cell_length_b   9.20843155
_cell_length_c   9.21255122
_cell_angle_alpha   83.66589108
_cell_angle_beta   70.81310412
_cell_angle_gamma   70.80809481
_symmetry_Int_Tables_number   1
_chemical_formula_structural   Tb3DyHoIn3
_chemical_formula_sum   'Tb6 Dy2 Ho2 In6'
_cell_volume   456.08417146
_cell_formula_units_Z   2
loop_
 _symmetry_equiv_pos_site_id
 _symmetry_equiv_pos_as_xyz
  1  'x, y, z'
loop_
 _atom_site_type_symbol
 _atom_site_label
 _atom_site_symmetry_multiplicity
 _atom_site_fract_x
 _atom_site_fract_y
 _atom_site_fract_z
 _atom_site_occupancy
  Tb  Tb0  1  0.719604  0.862485  0.697675  1
  Tb  Tb1  1  0.280396  0.137515  0.302325  1
  Tb  Tb2  1  0.780329  0.302124  0.137704  1
  Tb  Tb3  1  0.219671  0.697876  0.862296  1
  Tb  Tb4  1  0.580598  0.698295  0.138115  1
  Tb  Tb5  1  0.419402  0.301705  0.861885  1
  Dy  Dy6  1  0.080471  0.137794  0.698930  1
  Dy  Dy7  1  0.919529  0.862206  0.301070  1
  Ho  Ho8  1  0.749878  0.499660  0.500357  1
  Ho  Ho9  1  0.250122  0.500340  0.499643  1
  In  In10  1  0.161177  0.500327  0.177455  1
  In  In11  1  0.838823  0.499673  0.822545  1
  In  In12  1  0.338480  0.823104  0.499897  1
  In  In13  1  0.661520  0.176896  0.500103  1
  In  In14  1  0.249910  0.999403  0.000579  1
  In  In15  1  0.750090  0.000597  0.999421  1
