# generated using pymatgen
data_TbHo5(Cu3Sb4)2
_symmetry_space_group_name_H-M   'P 1'
_cell_length_a   8.29727797
_cell_length_b   8.29716413
_cell_length_c   8.29715024
_cell_angle_alpha   109.40660927
_cell_angle_beta   109.59975401
_cell_angle_gamma   109.40757346
_symmetry_Int_Tables_number   1
_chemical_formula_structural   TbHo5(Cu3Sb4)2
_chemical_formula_sum   'Tb1 Ho5 Cu6 Sb8'
_cell_volume   439.71338264
_cell_formula_units_Z   1
loop_
 _symmetry_equiv_pos_site_id
 _symmetry_equiv_pos_as_xyz
  1  'x, y, z'
loop_
 _atom_site_type_symbol
 _atom_site_label
 _atom_site_symmetry_multiplicity
 _atom_site_fract_x
 _atom_site_fract_y
 _atom_site_fract_z
 _atom_site_occupancy
  Tb  Tb0  1  0.875004  0.250000  0.125002  1
  Ho  Ho1  1  0.625020  0.750013  0.375030  1
  Ho  Ho2  1  0.249926  0.124910  0.874893  1
  Ho  Ho3  1  0.750009  0.375095  0.625034  1
  Ho  Ho4  1  0.125106  0.875025  0.250016  1
  Ho  Ho5  1  0.374959  0.624947  0.750055  1
  Cu  Cu6  1  0.374995  0.249998  0.625000  1
  Cu  Cu7  1  0.124984  0.749992  0.874993  1
  Cu  Cu8  1  0.251042  0.626128  0.375757  1
  Cu  Cu9  1  0.749630  0.873871  0.124917  1
  Cu  Cu10  1  0.624275  0.375351  0.250381  1
  Cu  Cu11  1  0.875042  0.124669  0.748941  1
  Sb  Sb12  1  0.660076  0.500282  0.999831  1
  Sb  Sb13  1  0.499553  0.999722  0.659793  1
  Sb  Sb14  1  0.000436  0.661239  0.500798  1
  Sb  Sb15  1  0.839562  0.838761  0.839197  1
  Sb  Sb16  1  0.499205  0.999630  0.160434  1
  Sb  Sb17  1  0.160808  0.500371  0.999570  1
  Sb  Sb18  1  0.000165  0.160237  0.500435  1
  Sb  Sb19  1  0.340203  0.339760  0.339924  1
