# generated using pymatgen
data_Zr3Al3CuNiOs
_symmetry_space_group_name_H-M   'P 1'
_cell_length_a   7.15398300
_cell_length_b   7.15398187
_cell_length_c   3.40940500
_cell_angle_alpha   90.00000000
_cell_angle_beta   90.00000000
_cell_angle_gamma   120.00000060
_symmetry_Int_Tables_number   1
_chemical_formula_structural   Zr3Al3CuNiOs
_chemical_formula_sum   'Zr3 Al3 Cu1 Ni1 Os1'
_cell_volume   151.11409055
_cell_formula_units_Z   1
loop_
 _symmetry_equiv_pos_site_id
 _symmetry_equiv_pos_as_xyz
  1  'x, y, z'
loop_
 _atom_site_type_symbol
 _atom_site_label
 _atom_site_symmetry_multiplicity
 _atom_site_fract_x
 _atom_site_fract_y
 _atom_site_fract_z
 _atom_site_occupancy
  Zr  Zr0  1  0.005860  0.403358  0.500000  1
  Zr  Zr1  1  0.596642  0.602501  0.500000  1
  Zr  Zr2  1  0.397499  0.994140  0.500000  1
  Al  Al3  1  0.998555  0.749104  0.000000  1
  Al  Al4  1  0.250896  0.249450  0.000000  1
  Al  Al5  1  0.750550  0.001445  0.000000  1
  Cu  Cu6  1  0.666667  0.333333  0.000000  1
  Ni  Ni7  1  0.000000  0.000000  0.500000  1
  Os  Os8  1  0.333333  0.666667  0.000000  1
