# generated using pymatgen
data_La2P3Rh4
_symmetry_space_group_name_H-M   'P 1'
_cell_length_a   10.08366949
_cell_length_b   10.08366949
_cell_length_c   10.08366863
_cell_angle_alpha   156.43919040
_cell_angle_beta   156.43918948
_cell_angle_gamma   33.56359098
_symmetry_Int_Tables_number   1
_chemical_formula_structural   La2P3Rh4
_chemical_formula_sum   'La2 P3 Rh4'
_cell_volume   163.66696222
_cell_formula_units_Z   1
loop_
 _symmetry_equiv_pos_site_id
 _symmetry_equiv_pos_as_xyz
  1  'x, y, z'
loop_
 _atom_site_type_symbol
 _atom_site_label
 _atom_site_symmetry_multiplicity
 _atom_site_fract_x
 _atom_site_fract_y
 _atom_site_fract_z
 _atom_site_occupancy
  La  La0  1  0.628496  0.628496  0.000000  1
  La  La1  1  0.371504  0.371504  0.000000  1
  P  P2  1  0.926327  0.926327  0.000000  1
  P  P3  1  0.073673  0.073673  0.000000  1
  P  P4  1  0.750000  0.250000  0.500000  1
  Rh  Rh5  1  0.803614  0.803614  0.000000  1
  Rh  Rh6  1  0.196386  0.196386  0.000000  1
  Rh  Rh7  1  0.000005  0.500005  0.500000  1
  Rh  Rh8  1  0.499995  0.999995  0.500000  1
