# generated using pymatgen
data_ThU(TaS2)8
_symmetry_space_group_name_H-M   'P 1'
_cell_length_a   6.65897300
_cell_length_b   6.65897257
_cell_length_c   14.20831500
_cell_angle_alpha   90.00000000
_cell_angle_beta   90.00000000
_cell_angle_gamma   120.00000709
_symmetry_Int_Tables_number   1
_chemical_formula_structural   ThU(TaS2)8
_chemical_formula_sum   'Th1 U1 Ta8 S16'
_cell_volume   545.61670398
_cell_formula_units_Z   1
loop_
 _symmetry_equiv_pos_site_id
 _symmetry_equiv_pos_as_xyz
  1  'x, y, z'
loop_
 _atom_site_type_symbol
 _atom_site_label
 _atom_site_symmetry_multiplicity
 _atom_site_fract_x
 _atom_site_fract_y
 _atom_site_fract_z
 _atom_site_occupancy
  Th  Th0  1  0.000000  0.000000  0.500000  1
  U  U1  1  0.000000  0.000000  0.000000  1
  Ta  Ta2  1  0.504943  0.495057  0.750936  1
  Ta  Ta3  1  0.009885  0.504943  0.249064  1
  Ta  Ta4  1  0.495057  0.990115  0.249064  1
  Ta  Ta5  1  0.504943  0.009885  0.750936  1
  Ta  Ta6  1  0.990115  0.495057  0.750936  1
  Ta  Ta7  1  0.495057  0.504943  0.249064  1
  Ta  Ta8  1  0.000000  0.000000  0.750328  1
  Ta  Ta9  1  0.000000  0.000000  0.249672  1
  S  S10  1  0.830564  0.169436  0.360173  1
  S  S11  1  0.830564  0.661128  0.360173  1
  S  S12  1  0.338872  0.169436  0.360173  1
  S  S13  1  0.663456  0.831728  0.861459  1
  S  S14  1  0.169436  0.338872  0.639827  1
  S  S15  1  0.168272  0.831728  0.861459  1
  S  S16  1  0.168272  0.336544  0.861459  1
  S  S17  1  0.831728  0.168272  0.138541  1
  S  S18  1  0.336544  0.168272  0.138541  1
  S  S19  1  0.661128  0.830564  0.639827  1
  S  S20  1  0.333333  0.666667  0.135124  1
  S  S21  1  0.666667  0.333333  0.636741  1
  S  S22  1  0.666667  0.333333  0.864876  1
  S  S23  1  0.333333  0.666667  0.363259  1
  S  S24  1  0.831728  0.663456  0.138541  1
  S  S25  1  0.169436  0.830564  0.639827  1
