# generated using pymatgen
data_Sc8Si4Ir5Pt9
_symmetry_space_group_name_H-M   'P 1'
_cell_length_a   4.06570900
_cell_length_b   6.51272018
_cell_length_c   16.04123305
_cell_angle_alpha   90.16303477
_cell_angle_beta   90.00000000
_cell_angle_gamma   90.00000000
_symmetry_Int_Tables_number   1
_chemical_formula_structural   Sc8Si4Ir5Pt9
_chemical_formula_sum   'Sc8 Si4 Ir5 Pt9'
_cell_volume   424.75128407
_cell_formula_units_Z   1
loop_
 _symmetry_equiv_pos_site_id
 _symmetry_equiv_pos_as_xyz
  1  'x, y, z'
loop_
 _atom_site_type_symbol
 _atom_site_label
 _atom_site_symmetry_multiplicity
 _atom_site_fract_x
 _atom_site_fract_y
 _atom_site_fract_z
 _atom_site_occupancy
  Sc  Sc0  1  0.000000  0.281954  0.462090  1
  Sc  Sc1  1  0.000000  0.718046  0.537910  1
  Sc  Sc2  1  0.000000  0.777421  0.036850  1
  Sc  Sc3  1  0.000000  0.222579  0.963150  1
  Sc  Sc4  1  0.000000  0.531682  0.290051  1
  Sc  Sc5  1  0.000000  0.468318  0.709949  1
  Sc  Sc6  1  0.000000  0.029752  0.207568  1
  Sc  Sc7  1  0.000000  0.970248  0.792432  1
  Si  Si8  1  0.500000  0.844088  0.305736  1
  Si  Si9  1  0.500000  0.155912  0.694264  1
  Si  Si10  1  0.500000  0.342062  0.193795  1
  Si  Si11  1  0.500000  0.657938  0.806205  1
  Ir  Ir12  1  0.000000  0.904579  0.379336  1
  Ir  Ir13  1  0.000000  0.095421  0.620664  1
  Ir  Ir14  1  0.000000  0.404538  0.120296  1
  Ir  Ir15  1  0.000000  0.595462  0.879704  1
  Ir  Ir16  1  0.500000  0.500000  0.000000  1
  Pt  Pt17  1  0.500000  0.601798  0.422587  1
  Pt  Pt18  1  0.500000  0.398202  0.577413  1
  Pt  Pt19  1  0.500000  0.101065  0.077657  1
  Pt  Pt20  1  0.500000  0.898935  0.922343  1
  Pt  Pt21  1  0.500000  0.000000  0.500000  1
  Pt  Pt22  1  0.500000  0.216121  0.335348  1
  Pt  Pt23  1  0.500000  0.783879  0.664652  1
  Pt  Pt24  1  0.500000  0.712684  0.164060  1
  Pt  Pt25  1  0.500000  0.287316  0.835940  1
