# generated using pymatgen
data_Er3Tm2IrOs
_symmetry_space_group_name_H-M   'P 1'
_cell_length_a   6.36062411
_cell_length_b   7.28544036
_cell_length_c   8.32584901
_cell_angle_alpha   96.69244412
_cell_angle_beta   112.45640804
_cell_angle_gamma   90.00000351
_symmetry_Int_Tables_number   1
_chemical_formula_structural   Er3Tm2IrOs
_chemical_formula_sum   'Er6 Tm4 Ir2 Os2'
_cell_volume   353.71653963
_cell_formula_units_Z   2
loop_
 _symmetry_equiv_pos_site_id
 _symmetry_equiv_pos_as_xyz
  1  'x, y, z'
loop_
 _atom_site_type_symbol
 _atom_site_label
 _atom_site_symmetry_multiplicity
 _atom_site_fract_x
 _atom_site_fract_y
 _atom_site_fract_z
 _atom_site_occupancy
  Er  Er0  1  0.969288  0.916204  0.179005  1
  Er  Er1  1  0.790282  0.583796  0.820995  1
  Er  Er2  1  0.026415  0.082088  0.816507  1
  Er  Er3  1  0.209910  0.417912  0.183493  1
  Er  Er4  1  0.652744  0.817933  0.440162  1
  Er  Er5  1  0.212584  0.682067  0.559838  1
  Tm  Tm6  1  0.350480  0.178800  0.561806  1
  Tm  Tm7  1  0.788675  0.321200  0.438194  1
  Tm  Tm8  1  0.422850  0.750000  0.000000  1
  Tm  Tm9  1  0.578367  0.250000  0.000000  1
  Ir  Ir10  1  0.173884  0.423098  0.779997  1
  Ir  Ir11  1  0.393886  0.076902  0.220003  1
  Os  Os12  1  0.823801  0.574774  0.216968  1
  Os  Os13  1  0.606834  0.925226  0.783032  1
