# generated using pymatgen
data_Y3Pa(ReN3)4
_symmetry_space_group_name_H-M   'P 1'
_cell_length_a   5.38318586
_cell_length_b   5.66609690
_cell_length_c   7.75837300
_cell_angle_alpha   90.00000000
_cell_angle_beta   90.00000000
_cell_angle_gamma   89.70838094
_symmetry_Int_Tables_number   1
_chemical_formula_structural   Y3Pa(ReN3)4
_chemical_formula_sum   'Y3 Pa1 Re4 N12'
_cell_volume   236.64013382
_cell_formula_units_Z   1
loop_
 _symmetry_equiv_pos_site_id
 _symmetry_equiv_pos_as_xyz
  1  'x, y, z'
loop_
 _atom_site_type_symbol
 _atom_site_label
 _atom_site_symmetry_multiplicity
 _atom_site_fract_x
 _atom_site_fract_y
 _atom_site_fract_z
 _atom_site_occupancy
  Y  Y0  1  0.016068  0.932420  0.250000  1
  Y  Y1  1  0.511323  0.564539  0.750000  1
  Y  Y2  1  0.987583  0.061274  0.750000  1
  Pa  Pa3  1  0.482420  0.433132  0.250000  1
  Re  Re4  1  0.502099  0.002955  0.505364  1
  Re  Re5  1  0.991785  0.500415  0.994421  1
  Re  Re6  1  0.991785  0.500415  0.505579  1
  Re  Re7  1  0.502099  0.002955  0.994636  1
  N  N8  1  0.698633  0.294439  0.542199  1
  N  N9  1  0.311997  0.693407  0.053653  1
  N  N10  1  0.199900  0.204869  0.049404  1
  N  N11  1  0.419771  0.983379  0.750000  1
  N  N12  1  0.899264  0.525852  0.250000  1
  N  N13  1  0.311997  0.693407  0.446347  1
  N  N14  1  0.801928  0.794261  0.955564  1
  N  N15  1  0.698633  0.294439  0.957801  1
  N  N16  1  0.801928  0.794261  0.544436  1
  N  N17  1  0.078839  0.484441  0.750000  1
  N  N18  1  0.199900  0.204869  0.450596  1
  N  N19  1  0.592047  0.034272  0.250000  1
