# generated using pymatgen
data_ErTmFeB6
_symmetry_space_group_name_H-M   'P 1'
_cell_length_a   3.51631800
_cell_length_b   9.02419400
_cell_length_c   11.38381300
_cell_angle_alpha   90.00000000
_cell_angle_beta   90.00000000
_cell_angle_gamma   90.00000000
_symmetry_Int_Tables_number   1
_chemical_formula_structural   ErTmFeB6
_chemical_formula_sum   'Er4 Tm4 Fe4 B24'
_cell_volume   361.23042325
_cell_formula_units_Z   4
loop_
 _symmetry_equiv_pos_site_id
 _symmetry_equiv_pos_as_xyz
  1  'x, y, z'
loop_
 _atom_site_type_symbol
 _atom_site_label
 _atom_site_symmetry_multiplicity
 _atom_site_fract_x
 _atom_site_fract_y
 _atom_site_fract_z
 _atom_site_occupancy
  Er  Er0  1  0.000000  0.823544  0.085499  1
  Er  Er1  1  0.000000  0.176456  0.914501  1
  Er  Er2  1  0.000000  0.323544  0.414501  1
  Er  Er3  1  0.000000  0.676456  0.585499  1
  Tm  Tm4  1  0.000000  0.443288  0.129236  1
  Tm  Tm5  1  0.000000  0.556712  0.870764  1
  Tm  Tm6  1  0.000000  0.943288  0.370764  1
  Tm  Tm7  1  0.000000  0.056712  0.629236  1
  Fe  Fe8  1  0.000000  0.138751  0.179659  1
  Fe  Fe9  1  0.000000  0.861249  0.820341  1
  Fe  Fe10  1  0.000000  0.638751  0.320341  1
  Fe  Fe11  1  0.000000  0.361249  0.679659  1
  B  B12  1  0.500000  0.054268  0.067873  1
  B  B13  1  0.500000  0.945732  0.932127  1
  B  B14  1  0.500000  0.554268  0.432127  1
  B  B15  1  0.500000  0.445732  0.567873  1
  B  B16  1  0.500000  0.247111  0.081498  1
  B  B17  1  0.500000  0.752889  0.918502  1
  B  B18  1  0.500000  0.747111  0.418502  1
  B  B19  1  0.500000  0.252889  0.581498  1
  B  B20  1  0.500000  0.289964  0.233859  1
  B  B21  1  0.500000  0.710036  0.766141  1
  B  B22  1  0.500000  0.789964  0.266141  1
  B  B23  1  0.500000  0.210036  0.733859  1
  B  B24  1  0.500000  0.131852  0.314405  1
  B  B25  1  0.500000  0.868148  0.685595  1
  B  B26  1  0.500000  0.631852  0.185595  1
  B  B27  1  0.500000  0.368148  0.814405  1
  B  B28  1  0.500000  0.485382  0.288147  1
  B  B29  1  0.500000  0.514618  0.711853  1
  B  B30  1  0.500000  0.985382  0.211853  1
  B  B31  1  0.500000  0.014618  0.788147  1
  B  B32  1  0.500000  0.108000  0.470433  1
  B  B33  1  0.500000  0.892000  0.529567  1
  B  B34  1  0.500000  0.608000  0.029567  1
  B  B35  1  0.500000  0.392000  0.970433  1
