# generated using pymatgen
data_Ho8Er4TlZnCo4
_symmetry_space_group_name_H-M   'P 1'
_cell_length_a   8.25455750
_cell_length_b   8.25468077
_cell_length_c   8.25455900
_cell_angle_alpha   111.52623731
_cell_angle_beta   110.23386338
_cell_angle_gamma   106.69100055
_symmetry_Int_Tables_number   1
_chemical_formula_structural   Ho8Er4TlZnCo4
_chemical_formula_sum   'Ho8 Er4 Tl1 Zn1 Co4'
_cell_volume   432.16369431
_cell_formula_units_Z   1
loop_
 _symmetry_equiv_pos_site_id
 _symmetry_equiv_pos_as_xyz
  1  'x, y, z'
loop_
 _atom_site_type_symbol
 _atom_site_label
 _atom_site_symmetry_multiplicity
 _atom_site_fract_x
 _atom_site_fract_y
 _atom_site_fract_z
 _atom_site_occupancy
  Ho  Ho0  1  0.184928  0.286096  0.471023  1
  Ho  Ho1  1  0.815072  0.713904  0.528977  1
  Ho  Ho2  1  0.184928  0.713904  0.898832  1
  Ho  Ho3  1  0.815072  0.286096  0.101168  1
  Ho  Ho4  1  0.429266  0.225237  0.204025  1
  Ho  Ho5  1  0.570734  0.774763  0.795975  1
  Ho  Ho6  1  0.021213  0.225237  0.795971  1
  Ho  Ho7  1  0.978787  0.774763  0.204029  1
  Er  Er8  1  0.315219  0.619131  0.303912  1
  Er  Er9  1  0.684781  0.380869  0.696088  1
  Er  Er10  1  0.315216  0.011299  0.696084  1
  Er  Er11  1  0.684784  0.988701  0.303916  1
  Tl  Tl12  1  0.500000  0.500000  0.000000  1
  Zn  Zn13  1  0.000000  0.000000  0.000000  1
  Co  Co14  1  0.112889  0.612894  0.500005  1
  Co  Co15  1  0.887111  0.387106  0.499995  1
  Co  Co16  1  0.376153  0.000000  0.376153  1
  Co  Co17  1  0.623847  0.000000  0.623847  1
