# generated using pymatgen
data_Pr2Gd3YTa2O14
_symmetry_space_group_name_H-M   'P 1'
_cell_length_a   6.57073801
_cell_length_b   6.56357798
_cell_length_c   7.66439300
_cell_angle_alpha   90.00000000
_cell_angle_beta   90.00000000
_cell_angle_gamma   109.51295000
_symmetry_Int_Tables_number   1
_chemical_formula_structural   Pr2Gd3YTa2O14
_chemical_formula_sum   'Pr2 Gd3 Y1 Ta2 O14'
_cell_volume   311.56190103
_cell_formula_units_Z   1
loop_
 _symmetry_equiv_pos_site_id
 _symmetry_equiv_pos_as_xyz
  1  'x, y, z'
loop_
 _atom_site_type_symbol
 _atom_site_label
 _atom_site_symmetry_multiplicity
 _atom_site_fract_x
 _atom_site_fract_y
 _atom_site_fract_z
 _atom_site_occupancy
  Pr  Pr0  1  0.497987  0.498270  0.500714  1
  Pr  Pr1  1  0.497987  0.498270  0.999286  1
  Gd  Gd2  1  0.532843  0.999916  0.750000  1
  Gd  Gd3  1  0.000174  0.532262  0.250000  1
  Gd  Gd4  1  0.467165  0.999785  0.250000  1
  Y  Y5  1  0.999666  0.466473  0.750000  1
  Ta  Ta6  1  0.999674  0.999265  0.500624  1
  Ta  Ta7  1  0.999674  0.999265  0.999376  1
  O  O8  1  0.682418  0.929634  0.468448  1
  O  O9  1  0.934509  0.683817  0.534956  1
  O  O10  1  0.682418  0.929634  0.031552  1
  O  O11  1  0.934509  0.683817  0.965044  1
  O  O12  1  0.318403  0.070805  0.531005  1
  O  O13  1  0.068693  0.318927  0.470728  1
  O  O14  1  0.318403  0.070805  0.968995  1
  O  O15  1  0.068693  0.318927  0.029272  1
  O  O16  1  0.938961  0.063089  0.750000  1
  O  O17  1  0.059260  0.939382  0.250000  1
  O  O18  1  0.361763  0.632105  0.750000  1
  O  O19  1  0.634542  0.366253  0.250000  1
  O  O20  1  0.643918  0.358571  0.750000  1
  O  O21  1  0.358340  0.640730  0.250000  1
