# generated using pymatgen
data_Ca5PuU2O12
_symmetry_space_group_name_H-M   'P 1'
_cell_length_a   6.80602898
_cell_length_b   6.77010759
_cell_length_c   6.78326200
_cell_angle_alpha   90.90420473
_cell_angle_beta   90.60623613
_cell_angle_gamma   90.89534801
_symmetry_Int_Tables_number   1
_chemical_formula_structural   Ca5PuU2O12
_chemical_formula_sum   'Ca5 Pu1 U2 O12'
_cell_volume   312.46068085
_cell_formula_units_Z   1
loop_
 _symmetry_equiv_pos_site_id
 _symmetry_equiv_pos_as_xyz
  1  'x, y, z'
loop_
 _atom_site_type_symbol
 _atom_site_label
 _atom_site_symmetry_multiplicity
 _atom_site_fract_x
 _atom_site_fract_y
 _atom_site_fract_z
 _atom_site_occupancy
  Ca  Ca0  1  0.750806  0.941392  0.444678  1
  Ca  Ca1  1  0.548400  0.247344  0.062545  1
  Ca  Ca2  1  0.250405  0.056079  0.552821  1
  Ca  Ca3  1  0.063847  0.558372  0.249366  1
  Ca  Ca4  1  0.447925  0.750908  0.940746  1
  Pu  Pu5  1  0.934231  0.443228  0.748493  1
  U  U6  1  0.999669  0.999399  0.000556  1
  U  U7  1  0.497681  0.500627  0.497859  1
  O  O8  1  0.292204  0.061723  0.924253  1
  O  O9  1  0.064789  0.921431  0.293976  1
  O  O10  1  0.925545  0.304014  0.060302  1
  O  O11  1  0.706237  0.936922  0.076591  1
  O  O12  1  0.933565  0.087978  0.703400  1
  O  O13  1  0.074327  0.694607  0.926125  1
  O  O14  1  0.195883  0.408183  0.546958  1
  O  O15  1  0.409990  0.540832  0.202503  1
  O  O16  1  0.459777  0.794033  0.587131  1
  O  O17  1  0.598341  0.458937  0.799190  1
  O  O18  1  0.806334  0.588298  0.469197  1
  O  O19  1  0.540044  0.205694  0.413310  1
