# generated using pymatgen
data_Ho2UTc3
_symmetry_space_group_name_H-M   'P 1'
_cell_length_a   5.77505600
_cell_length_b   5.77505582
_cell_length_c   8.22396700
_cell_angle_alpha   90.00000000
_cell_angle_beta   90.00000000
_cell_angle_gamma   120.00000101
_symmetry_Int_Tables_number   1
_chemical_formula_structural   Ho2UTc3
_chemical_formula_sum   'Ho4 U2 Tc6'
_cell_volume   237.53322909
_cell_formula_units_Z   2
loop_
 _symmetry_equiv_pos_site_id
 _symmetry_equiv_pos_as_xyz
  1  'x, y, z'
loop_
 _atom_site_type_symbol
 _atom_site_label
 _atom_site_symmetry_multiplicity
 _atom_site_fract_x
 _atom_site_fract_y
 _atom_site_fract_z
 _atom_site_occupancy
  Ho  Ho0  1  0.333333  0.666667  0.440895  1
  Ho  Ho1  1  0.666667  0.333333  0.559105  1
  Ho  Ho2  1  0.666667  0.333333  0.940895  1
  Ho  Ho3  1  0.333333  0.666667  0.059105  1
  U  U4  1  0.000000  0.000000  0.500000  1
  U  U5  1  0.000000  0.000000  0.000000  1
  Tc  Tc6  1  0.835723  0.164277  0.250000  1
  Tc  Tc7  1  0.835723  0.671446  0.250000  1
  Tc  Tc8  1  0.328554  0.164277  0.250000  1
  Tc  Tc9  1  0.164277  0.835723  0.750000  1
  Tc  Tc10  1  0.164277  0.328554  0.750000  1
  Tc  Tc11  1  0.671446  0.835723  0.750000  1
