# generated using pymatgen
data_Zr8Be3Si13Mo12
_symmetry_space_group_name_H-M   'P 1'
_cell_length_a   6.57636742
_cell_length_b   6.67435458
_cell_length_c   12.68733100
_cell_angle_alpha   90.00000000
_cell_angle_beta   90.00000000
_cell_angle_gamma   90.14808922
_symmetry_Int_Tables_number   1
_chemical_formula_structural   Zr8Be3Si13Mo12
_chemical_formula_sum   'Zr8 Be3 Si13 Mo12'
_cell_volume   556.88326109
_cell_formula_units_Z   1
loop_
 _symmetry_equiv_pos_site_id
 _symmetry_equiv_pos_as_xyz
  1  'x, y, z'
loop_
 _atom_site_type_symbol
 _atom_site_label
 _atom_site_symmetry_multiplicity
 _atom_site_fract_x
 _atom_site_fract_y
 _atom_site_fract_z
 _atom_site_occupancy
  Zr  Zr0  1  0.495456  0.333658  0.093316  1
  Zr  Zr1  1  0.995732  0.170614  0.405985  1
  Zr  Zr2  1  0.502646  0.668395  0.596715  1
  Zr  Zr3  1  0.002922  0.831787  0.902610  1
  Zr  Zr4  1  0.502646  0.668395  0.903285  1
  Zr  Zr5  1  0.002922  0.831787  0.597390  1
  Zr  Zr6  1  0.495456  0.333658  0.406684  1
  Zr  Zr7  1  0.995732  0.170614  0.094015  1
  Be  Be8  1  0.543132  0.375516  0.750000  1
  Be  Be9  1  0.043597  0.125614  0.750000  1
  Be  Be10  1  0.459556  0.623745  0.250000  1
  Si  Si11  1  0.669001  0.041247  0.541424  1
  Si  Si12  1  0.167968  0.457905  0.956535  1
  Si  Si13  1  0.330721  0.959154  0.039927  1
  Si  Si14  1  0.831748  0.541416  0.459728  1
  Si  Si15  1  0.330721  0.959154  0.460073  1
  Si  Si16  1  0.831748  0.541416  0.040272  1
  Si  Si17  1  0.669001  0.041247  0.958576  1
  Si  Si18  1  0.167968  0.457905  0.543465  1
  Si  Si19  1  0.960608  0.873399  0.250000  1
  Si  Si20  1  0.793614  0.627532  0.750000  1
  Si  Si21  1  0.293784  0.872106  0.750000  1
  Si  Si22  1  0.206223  0.370410  0.250000  1
  Si  Si23  1  0.696359  0.137566  0.250000  1
  Mo  Mo24  1  0.838725  0.329271  0.626495  1
  Mo  Mo25  1  0.340916  0.170434  0.873251  1
  Mo  Mo26  1  0.166711  0.664398  0.123900  1
  Mo  Mo27  1  0.658096  0.830236  0.374619  1
  Mo  Mo28  1  0.166711  0.664398  0.376100  1
  Mo  Mo29  1  0.658096  0.830236  0.125381  1
  Mo  Mo30  1  0.838725  0.329271  0.873505  1
  Mo  Mo31  1  0.340916  0.170434  0.626749  1
  Mo  Mo32  1  0.668876  0.002968  0.750000  1
  Mo  Mo33  1  0.169415  0.497329  0.750000  1
  Mo  Mo34  1  0.332528  0.001014  0.250000  1
  Mo  Mo35  1  0.831022  0.495767  0.250000  1
