# generated using pymatgen
data_Rb8Gd6GaBr20
_symmetry_space_group_name_H-M   'P 1'
_cell_length_a   12.39469497
_cell_length_b   12.39469542
_cell_length_c   12.39469500
_cell_angle_alpha   60.00000380
_cell_angle_beta   60.00000260
_cell_angle_gamma   60.00000447
_symmetry_Int_Tables_number   1
_chemical_formula_structural   Rb8Gd6GaBr20
_chemical_formula_sum   'Rb8 Gd6 Ga1 Br20'
_cell_volume   1346.45729906
_cell_formula_units_Z   1
loop_
 _symmetry_equiv_pos_site_id
 _symmetry_equiv_pos_as_xyz
  1  'x, y, z'
loop_
 _atom_site_type_symbol
 _atom_site_label
 _atom_site_symmetry_multiplicity
 _atom_site_fract_x
 _atom_site_fract_y
 _atom_site_fract_z
 _atom_site_occupancy
  Rb  Rb0  1  0.358156  0.358156  0.358156  1
  Rb  Rb1  1  0.641844  0.641844  0.641844  1
  Rb  Rb2  1  0.358156  0.358156  0.925531  1
  Rb  Rb3  1  0.358156  0.925531  0.358156  1
  Rb  Rb4  1  0.641844  0.641844  0.074469  1
  Rb  Rb5  1  0.641844  0.074469  0.641844  1
  Rb  Rb6  1  0.925531  0.358156  0.358156  1
  Rb  Rb7  1  0.074469  0.641844  0.641844  1
  Gd  Gd8  1  0.836018  0.163982  0.163982  1
  Gd  Gd9  1  0.163982  0.836018  0.836018  1
  Gd  Gd10  1  0.163982  0.836018  0.163982  1
  Gd  Gd11  1  0.836018  0.163982  0.836018  1
  Gd  Gd12  1  0.163982  0.163982  0.836018  1
  Gd  Gd13  1  0.836018  0.836018  0.163982  1
  Ga  Ga14  1  0.000000  0.000000  0.000000  1
  Br  Br15  1  0.334841  0.000000  0.000000  1
  Br  Br16  1  0.665159  0.000000  0.000000  1
  Br  Br17  1  0.000000  0.334841  0.665159  1
  Br  Br18  1  0.000000  0.665159  0.334841  1
  Br  Br19  1  0.000000  0.334841  0.000000  1
  Br  Br20  1  0.665159  0.000000  0.334841  1
  Br  Br21  1  0.000000  0.665159  0.000000  1
  Br  Br22  1  0.334841  0.000000  0.665159  1
  Br  Br23  1  0.000000  0.000000  0.334841  1
  Br  Br24  1  0.000000  0.000000  0.665159  1
  Br  Br25  1  0.665159  0.334841  0.000000  1
  Br  Br26  1  0.334841  0.665159  0.000000  1
  Br  Br27  1  0.671910  0.328090  0.328090  1
  Br  Br28  1  0.328090  0.671910  0.671910  1
  Br  Br29  1  0.328090  0.671910  0.328090  1
  Br  Br30  1  0.671910  0.328090  0.671910  1
  Br  Br31  1  0.328090  0.328090  0.671910  1
  Br  Br32  1  0.671910  0.671910  0.328090  1
  Br  Br33  1  0.250000  0.250000  0.250000  1
  Br  Br34  1  0.750000  0.750000  0.750000  1
