# generated using pymatgen
data_EuTm(ReN3)2
_symmetry_space_group_name_H-M   'P 1'
_cell_length_a   7.37213380
_cell_length_b   7.37215262
_cell_length_c   6.21838100
_cell_angle_alpha   74.31317316
_cell_angle_beta   74.31191314
_cell_angle_gamma   83.81179009
_symmetry_Int_Tables_number   1
_chemical_formula_structural   EuTm(ReN3)2
_chemical_formula_sum   'Eu2 Tm2 Re4 N12'
_cell_volume   313.03183171
_cell_formula_units_Z   2
loop_
 _symmetry_equiv_pos_site_id
 _symmetry_equiv_pos_as_xyz
  1  'x, y, z'
loop_
 _atom_site_type_symbol
 _atom_site_label
 _atom_site_symmetry_multiplicity
 _atom_site_fract_x
 _atom_site_fract_y
 _atom_site_fract_z
 _atom_site_occupancy
  Eu  Eu0  1  0.699463  0.301079  0.249825  1
  Eu  Eu1  1  0.300537  0.698921  0.750175  1
  Tm  Tm2  1  0.910821  0.089220  0.750020  1
  Tm  Tm3  1  0.089179  0.910780  0.249980  1
  Re  Re4  1  0.622354  0.799259  0.253315  1
  Re  Re5  1  0.200955  0.377432  0.246797  1
  Re  Re6  1  0.377646  0.200741  0.746685  1
  Re  Re7  1  0.799045  0.622568  0.753203  1
  N  N8  1  0.650725  0.650106  0.041045  1
  N  N9  1  0.380030  0.880631  0.318130  1
  N  N10  1  0.350085  0.349128  0.458987  1
  N  N11  1  0.119473  0.619888  0.181801  1
  N  N12  1  0.010746  0.211098  0.351887  1
  N  N13  1  0.788898  0.989551  0.148195  1
  N  N14  1  0.211102  0.010449  0.851805  1
  N  N15  1  0.619970  0.119369  0.681870  1
  N  N16  1  0.349275  0.349894  0.958955  1
  N  N17  1  0.880527  0.380112  0.818199  1
  N  N18  1  0.649915  0.650872  0.541013  1
  N  N19  1  0.989254  0.788902  0.648113  1
