# generated using pymatgen
data_Rb4Zr6MnBr18
_symmetry_space_group_name_H-M   'P 1'
_cell_length_a   10.78356966
_cell_length_b   10.95696570
_cell_length_c   11.09428513
_cell_angle_alpha   118.35878689
_cell_angle_beta   100.08973437
_cell_angle_gamma   104.47525600
_symmetry_Int_Tables_number   1
_chemical_formula_structural   Rb4Zr6MnBr18
_chemical_formula_sum   'Rb4 Zr6 Mn1 Br18'
_cell_volume   1048.35846216
_cell_formula_units_Z   1
loop_
 _symmetry_equiv_pos_site_id
 _symmetry_equiv_pos_as_xyz
  1  'x, y, z'
loop_
 _atom_site_type_symbol
 _atom_site_label
 _atom_site_symmetry_multiplicity
 _atom_site_fract_x
 _atom_site_fract_y
 _atom_site_fract_z
 _atom_site_occupancy
  Rb  Rb0  1  0.653651  0.537633  0.225417  1
  Rb  Rb1  1  0.346349  0.462367  0.774583  1
  Rb  Rb2  1  0.689930  0.229067  0.566836  1
  Rb  Rb3  1  0.310070  0.770933  0.433164  1
  Zr  Zr4  1  0.154396  0.057178  0.235178  1
  Zr  Zr5  1  0.845604  0.942822  0.764822  1
  Zr  Zr6  1  0.857884  0.128275  0.134951  1
  Zr  Zr7  1  0.142116  0.871725  0.865049  1
  Zr  Zr8  1  0.143974  0.235025  0.044260  1
  Zr  Zr9  1  0.856026  0.764975  0.955740  1
  Mn  Mn10  1  0.000000  0.000000  0.000000  1
  Br  Br11  1  0.009056  0.403271  0.193233  1
  Br  Br12  1  0.990944  0.596729  0.806767  1
  Br  Br13  1  0.326110  0.329623  0.307004  1
  Br  Br14  1  0.673890  0.670377  0.692996  1
  Br  Br15  1  0.319411  0.513745  0.099919  1
  Br  Br16  1  0.680589  0.486255  0.900081  1
  Br  Br17  1  0.003260  0.798151  0.206146  1
  Br  Br18  1  0.996740  0.201849  0.793854  1
  Br  Br19  1  0.705090  0.272676  0.285530  1
  Br  Br20  1  0.294910  0.727324  0.714470  1
  Br  Br21  1  0.313878  0.127118  0.905042  1
  Br  Br22  1  0.686122  0.872882  0.094958  1
  Br  Br23  1  0.015342  0.201736  0.402839  1
  Br  Br24  1  0.984658  0.798264  0.597161  1
  Br  Br25  1  0.318478  0.924118  0.109430  1
  Br  Br26  1  0.681522  0.075882  0.890570  1
  Br  Br27  1  0.332720  0.121148  0.498163  1
  Br  Br28  1  0.667280  0.878852  0.501837  1
