# generated using pymatgen
data_Sm8Si12PdRh3
_symmetry_space_group_name_H-M   'P 1'
_cell_length_a   8.24588400
_cell_length_b   8.24588585
_cell_length_c   8.16938400
_cell_angle_alpha   90.00000000
_cell_angle_beta   90.00000000
_cell_angle_gamma   120.00000863
_symmetry_Int_Tables_number   1
_chemical_formula_structural   Sm8Si12PdRh3
_chemical_formula_sum   'Sm8 Si12 Pd1 Rh3'
_cell_volume   481.05467961
_cell_formula_units_Z   1
loop_
 _symmetry_equiv_pos_site_id
 _symmetry_equiv_pos_as_xyz
  1  'x, y, z'
loop_
 _atom_site_type_symbol
 _atom_site_label
 _atom_site_symmetry_multiplicity
 _atom_site_fract_x
 _atom_site_fract_y
 _atom_site_fract_z
 _atom_site_occupancy
  Sm  Sm0  1  0.492875  0.507125  0.752708  1
  Sm  Sm1  1  0.504781  0.495219  0.248047  1
  Sm  Sm2  1  0.014251  0.507125  0.752708  1
  Sm  Sm3  1  0.990438  0.495219  0.248047  1
  Sm  Sm4  1  0.492875  0.985749  0.752708  1
  Sm  Sm5  1  0.504781  0.009562  0.248047  1
  Sm  Sm6  1  0.000000  0.000000  0.749905  1
  Sm  Sm7  1  0.000000  0.000000  0.249255  1
  Si  Si8  1  0.833131  0.166869  0.001174  1
  Si  Si9  1  0.166471  0.833529  0.998403  1
  Si  Si10  1  0.333737  0.166869  0.001174  1
  Si  Si11  1  0.167542  0.832458  0.502736  1
  Si  Si12  1  0.667058  0.833529  0.998403  1
  Si  Si13  1  0.835831  0.164169  0.497395  1
  Si  Si14  1  0.833131  0.666263  0.001174  1
  Si  Si15  1  0.664916  0.832458  0.502736  1
  Si  Si16  1  0.166471  0.332942  0.998403  1
  Si  Si17  1  0.328340  0.164169  0.497395  1
  Si  Si18  1  0.167542  0.335084  0.502736  1
  Si  Si19  1  0.835831  0.671660  0.497395  1
  Pd  Pd20  1  0.666667  0.333333  0.523050  1
  Rh  Rh21  1  0.666667  0.333333  0.977194  1
  Rh  Rh22  1  0.333333  0.666667  0.027562  1
  Rh  Rh23  1  0.333333  0.666667  0.471648  1
