# generated using pymatgen
data_Dy4Y16Ir11Rh
_symmetry_space_group_name_H-M   'P 1'
_cell_length_a   10.92292200
_cell_length_b   10.92292200
_cell_length_c   6.40049200
_cell_angle_alpha   90.00000000
_cell_angle_beta   90.00000000
_cell_angle_gamma   90.00000000
_symmetry_Int_Tables_number   1
_chemical_formula_structural   Dy4Y16Ir11Rh
_chemical_formula_sum   'Dy4 Y16 Ir11 Rh1'
_cell_volume   763.64414075
_cell_formula_units_Z   1
loop_
 _symmetry_equiv_pos_site_id
 _symmetry_equiv_pos_as_xyz
  1  'x, y, z'
loop_
 _atom_site_type_symbol
 _atom_site_label
 _atom_site_symmetry_multiplicity
 _atom_site_fract_x
 _atom_site_fract_y
 _atom_site_fract_z
 _atom_site_occupancy
  Dy  Dy0  1  0.000000  0.000000  0.500091  1
  Dy  Dy1  1  0.000000  0.000000  0.000132  1
  Dy  Dy2  1  0.500000  0.500000  0.000132  1
  Dy  Dy3  1  0.500000  0.500000  0.500091  1
  Y  Y4  1  0.290766  0.088536  0.379953  1
  Y  Y5  1  0.290501  0.911239  0.877412  1
  Y  Y6  1  0.709499  0.088761  0.877412  1
  Y  Y7  1  0.709234  0.911464  0.379953  1
  Y  Y8  1  0.588761  0.790501  0.877412  1
  Y  Y9  1  0.588536  0.209234  0.379953  1
  Y  Y10  1  0.411464  0.790766  0.379953  1
  Y  Y11  1  0.411239  0.209499  0.877412  1
  Y  Y12  1  0.208716  0.411546  0.621614  1
  Y  Y13  1  0.208763  0.588597  0.121614  1
  Y  Y14  1  0.791237  0.411403  0.121614  1
  Y  Y15  1  0.791284  0.588454  0.621614  1
  Y  Y16  1  0.911403  0.708763  0.121614  1
  Y  Y17  1  0.911546  0.291284  0.621614  1
  Y  Y18  1  0.088454  0.708716  0.621614  1
  Y  Y19  1  0.088597  0.291237  0.121614  1
  Ir  Ir20  1  0.846787  0.152388  0.249603  1
  Ir  Ir21  1  0.846905  0.847503  0.749796  1
  Ir  Ir22  1  0.153095  0.152497  0.749796  1
  Ir  Ir23  1  0.153213  0.847612  0.249603  1
  Ir  Ir24  1  0.652497  0.346905  0.749796  1
  Ir  Ir25  1  0.652388  0.653213  0.249603  1
  Ir  Ir26  1  0.347612  0.346787  0.249603  1
  Ir  Ir27  1  0.347503  0.653095  0.749796  1
  Ir  Ir28  1  0.500000  0.000000  0.624799  1
  Ir  Ir29  1  0.000000  0.500000  0.875183  1
  Ir  Ir30  1  0.000000  0.500000  0.375089  1
  Rh  Rh31  1  0.500000  0.000000  0.124521  1
