# generated using pymatgen
data_Lu5Bi2Pt
_symmetry_space_group_name_H-M   'P 1'
_cell_length_a   7.81276000
_cell_length_b   8.91618300
_cell_length_c   12.26705700
_cell_angle_alpha   90.00000000
_cell_angle_beta   90.00000000
_cell_angle_gamma   90.00000000
_symmetry_Int_Tables_number   1
_chemical_formula_structural   Lu5Bi2Pt
_chemical_formula_sum   'Lu20 Bi8 Pt4'
_cell_volume   854.52316480
_cell_formula_units_Z   4
loop_
 _symmetry_equiv_pos_site_id
 _symmetry_equiv_pos_as_xyz
  1  'x, y, z'
loop_
 _atom_site_type_symbol
 _atom_site_label
 _atom_site_symmetry_multiplicity
 _atom_site_fract_x
 _atom_site_fract_y
 _atom_site_fract_z
 _atom_site_occupancy
  Lu  Lu0  1  0.338158  0.750000  0.711284  1
  Lu  Lu1  1  0.661842  0.250000  0.288716  1
  Lu  Lu2  1  0.838158  0.250000  0.788716  1
  Lu  Lu3  1  0.161842  0.750000  0.211284  1
  Lu  Lu4  1  0.874492  0.750000  0.805097  1
  Lu  Lu5  1  0.125508  0.250000  0.194903  1
  Lu  Lu6  1  0.374492  0.250000  0.694903  1
  Lu  Lu7  1  0.625508  0.750000  0.305097  1
  Lu  Lu8  1  0.676502  0.546544  0.567678  1
  Lu  Lu9  1  0.323498  0.453456  0.432322  1
  Lu  Lu10  1  0.176502  0.453456  0.932322  1
  Lu  Lu11  1  0.323498  0.046544  0.432322  1
  Lu  Lu12  1  0.823498  0.546544  0.067678  1
  Lu  Lu13  1  0.676502  0.953456  0.567678  1
  Lu  Lu14  1  0.823498  0.953456  0.067678  1
  Lu  Lu15  1  0.176502  0.046544  0.932322  1
  Lu  Lu16  1  0.054075  0.750000  0.500206  1
  Lu  Lu17  1  0.945925  0.250000  0.499794  1
  Lu  Lu18  1  0.554075  0.250000  0.999794  1
  Lu  Lu19  1  0.445925  0.750000  0.000206  1
  Bi  Bi20  1  0.567573  0.509745  0.828648  1
  Bi  Bi21  1  0.432427  0.490255  0.171352  1
  Bi  Bi22  1  0.067573  0.490255  0.671352  1
  Bi  Bi23  1  0.432427  0.009745  0.171352  1
  Bi  Bi24  1  0.932427  0.509745  0.328648  1
  Bi  Bi25  1  0.567573  0.990255  0.828648  1
  Bi  Bi26  1  0.932427  0.990255  0.328648  1
  Bi  Bi27  1  0.067573  0.009745  0.671352  1
  Pt  Pt28  1  0.075367  0.750000  0.989682  1
  Pt  Pt29  1  0.924633  0.250000  0.010318  1
  Pt  Pt30  1  0.575367  0.250000  0.510318  1
  Pt  Pt31  1  0.424633  0.750000  0.489682  1
