# generated using pymatgen
data_Ho2PaIn3PdPt2
_symmetry_space_group_name_H-M   'P 1'
_cell_length_a   7.67193800
_cell_length_b   7.61378482
_cell_length_c   3.90957600
_cell_angle_alpha   90.00000000
_cell_angle_beta   90.00000000
_cell_angle_gamma   120.25298232
_symmetry_Int_Tables_number   1
_chemical_formula_structural   Ho2PaIn3PdPt2
_chemical_formula_sum   'Ho2 Pa1 In3 Pd1 Pt2'
_cell_volume   197.26644116
_cell_formula_units_Z   1
loop_
 _symmetry_equiv_pos_site_id
 _symmetry_equiv_pos_as_xyz
  1  'x, y, z'
loop_
 _atom_site_type_symbol
 _atom_site_label
 _atom_site_symmetry_multiplicity
 _atom_site_fract_x
 _atom_site_fract_y
 _atom_site_fract_z
 _atom_site_occupancy
  Ho  Ho0  1  0.410488  0.408899  0.500000  1
  Ho  Ho1  1  0.001589  0.591101  0.500000  1
  Pa  Pa2  1  0.585096  0.000000  0.500000  1
  In  In3  1  0.743663  0.732253  0.000000  1
  In  In4  1  0.011409  0.267747  0.000000  1
  In  In5  1  0.245297  0.000000  0.000000  1
  Pd  Pd6  1  0.987882  0.000000  0.500000  1
  Pt  Pt7  1  0.350185  0.685796  0.000000  1
  Pt  Pt8  1  0.664390  0.314204  0.000000  1
