# generated using pymatgen
data_HoTm6Cd(Co3Sn11)2
_symmetry_space_group_name_H-M   'P 1'
_cell_length_a   9.63040900
_cell_length_b   9.63040752
_cell_length_c   9.98836500
_cell_angle_alpha   90.00000000
_cell_angle_beta   90.00000000
_cell_angle_gamma   119.99999478
_symmetry_Int_Tables_number   1
_chemical_formula_structural   HoTm6Cd(Co3Sn11)2
_chemical_formula_sum   'Ho1 Tm6 Cd1 Co6 Sn22'
_cell_volume   802.25873738
_cell_formula_units_Z   1
loop_
 _symmetry_equiv_pos_site_id
 _symmetry_equiv_pos_as_xyz
  1  'x, y, z'
loop_
 _atom_site_type_symbol
 _atom_site_label
 _atom_site_symmetry_multiplicity
 _atom_site_fract_x
 _atom_site_fract_y
 _atom_site_fract_z
 _atom_site_occupancy
  Ho  Ho0  1  0.000000  0.000000  0.000000  1
  Tm  Tm1  1  0.520571  0.479429  0.693608  1
  Tm  Tm2  1  0.520571  0.041141  0.693608  1
  Tm  Tm3  1  0.958859  0.479429  0.693608  1
  Tm  Tm4  1  0.041141  0.520571  0.306392  1
  Tm  Tm5  1  0.479429  0.958859  0.306392  1
  Tm  Tm6  1  0.479429  0.520571  0.306392  1
  Cd  Cd7  1  0.000000  0.000000  0.500000  1
  Co  Co8  1  0.168434  0.831566  0.802895  1
  Co  Co9  1  0.168434  0.336869  0.802895  1
  Co  Co10  1  0.663131  0.831566  0.802895  1
  Co  Co11  1  0.336869  0.168434  0.197105  1
  Co  Co12  1  0.831566  0.663131  0.197105  1
  Co  Co13  1  0.831566  0.168434  0.197105  1
  Sn  Sn14  1  0.666667  0.333333  0.181784  1
  Sn  Sn15  1  0.666667  0.333333  0.878624  1
  Sn  Sn16  1  0.333333  0.666667  0.121376  1
  Sn  Sn17  1  0.346399  0.346399  0.000000  1
  Sn  Sn18  1  0.000000  0.653601  0.000000  1
  Sn  Sn19  1  0.653601  0.000000  0.000000  1
  Sn  Sn20  1  0.653601  0.653601  0.000000  1
  Sn  Sn21  1  0.333333  0.666667  0.818216  1
  Sn  Sn22  1  0.435366  0.217683  0.453395  1
  Sn  Sn23  1  0.217683  0.782317  0.546605  1
  Sn  Sn24  1  0.217683  0.435366  0.546605  1
  Sn  Sn25  1  0.564634  0.782317  0.546605  1
  Sn  Sn26  1  0.117002  0.882998  0.270917  1
  Sn  Sn27  1  0.782317  0.564634  0.453395  1
  Sn  Sn28  1  0.782317  0.217683  0.453395  1
  Sn  Sn29  1  0.346399  0.000000  0.000000  1
  Sn  Sn30  1  0.117002  0.234005  0.270917  1
  Sn  Sn31  1  0.765995  0.882998  0.270917  1
  Sn  Sn32  1  0.234005  0.117002  0.729083  1
  Sn  Sn33  1  0.882998  0.765995  0.729083  1
  Sn  Sn34  1  0.882998  0.117002  0.729083  1
  Sn  Sn35  1  0.000000  0.346399  0.000000  1
