# generated using pymatgen
data_Zr2TlSbPt2
_symmetry_space_group_name_H-M   'P 1'
_cell_length_a   6.39273385
_cell_length_b   6.39273436
_cell_length_c   7.85389500
_cell_angle_alpha   65.98482484
_cell_angle_beta   65.98482278
_cell_angle_gamma   89.99999979
_symmetry_Int_Tables_number   1
_chemical_formula_structural   Zr2TlSbPt2
_chemical_formula_sum   'Zr4 Tl2 Sb2 Pt4'
_cell_volume   262.47382196
_cell_formula_units_Z   2
loop_
 _symmetry_equiv_pos_site_id
 _symmetry_equiv_pos_as_xyz
  1  'x, y, z'
loop_
 _atom_site_type_symbol
 _atom_site_label
 _atom_site_symmetry_multiplicity
 _atom_site_fract_x
 _atom_site_fract_y
 _atom_site_fract_z
 _atom_site_occupancy
  Zr  Zr0  1  0.495124  0.995119  0.009715  1
  Zr  Zr1  1  0.754873  0.754868  0.490289  1
  Zr  Zr2  1  0.245119  0.245123  0.509714  1
  Zr  Zr3  1  0.004870  0.504873  0.990289  1
  Tl  Tl4  1  0.999999  0.000002  0.000002  1
  Tl  Tl5  1  0.250005  0.749999  0.500001  1
  Sb  Sb6  1  0.500028  0.500005  0.999980  1
  Sb  Sb7  1  0.750006  0.250027  0.499980  1
  Pt  Pt8  1  0.624999  0.137944  0.250007  1
  Pt  Pt9  1  0.125001  0.612038  0.250008  1
  Pt  Pt10  1  0.862038  0.874999  0.750006  1
  Pt  Pt11  1  0.387944  0.374997  0.750007  1
