# generated using pymatgen
data_Tb2Dy2P7Ir8
_symmetry_space_group_name_H-M   'P 1'
_cell_length_a   3.95272900
_cell_length_b   12.69174493
_cell_length_c   13.12733940
_cell_angle_alpha   80.85524758
_cell_angle_beta   90.00000000
_cell_angle_gamma   90.00000000
_symmetry_Int_Tables_number   1
_chemical_formula_structural   Tb2Dy2P7Ir8
_chemical_formula_sum   'Tb4 Dy4 P14 Ir16'
_cell_volume   650.18929496
_cell_formula_units_Z   2
loop_
 _symmetry_equiv_pos_site_id
 _symmetry_equiv_pos_as_xyz
  1  'x, y, z'
loop_
 _atom_site_type_symbol
 _atom_site_label
 _atom_site_symmetry_multiplicity
 _atom_site_fract_x
 _atom_site_fract_y
 _atom_site_fract_z
 _atom_site_occupancy
  Tb  Tb0  1  0.250000  0.102553  0.789478  1
  Tb  Tb1  1  0.750000  0.897447  0.210522  1
  Tb  Tb2  1  0.250000  0.279232  0.102106  1
  Tb  Tb3  1  0.750000  0.720768  0.897894  1
  Dy  Dy4  1  0.250000  0.520494  0.293880  1
  Dy  Dy5  1  0.750000  0.479506  0.706120  1
  Dy  Dy6  1  0.250000  0.209094  0.438005  1
  Dy  Dy7  1  0.750000  0.790906  0.561995  1
  P  P8  1  0.250000  0.051685  0.100384  1
  P  P9  1  0.750000  0.948315  0.899616  1
  P  P10  1  0.250000  0.312517  0.688776  1
  P  P11  1  0.750000  0.687483  0.311224  1
  P  P12  1  0.250000  0.607692  0.566943  1
  P  P13  1  0.750000  0.392308  0.433057  1
  P  P14  1  0.250000  0.843338  0.717715  1
  P  P15  1  0.750000  0.156662  0.282285  1
  P  P16  1  0.750000  0.258062  0.919788  1
  P  P17  1  0.250000  0.741938  0.080212  1
  P  P18  1  0.750000  0.093356  0.588030  1
  P  P19  1  0.250000  0.906644  0.411970  1
  P  P20  1  0.750000  0.472372  0.129348  1
  P  P21  1  0.250000  0.527628  0.870652  1
  Ir  Ir22  1  0.250000  0.990919  0.576127  1
  Ir  Ir23  1  0.750000  0.009081  0.423873  1
  Ir  Ir24  1  0.250000  0.662645  0.730982  1
  Ir  Ir25  1  0.750000  0.337355  0.269018  1
  Ir  Ir26  1  0.250000  0.555049  0.044796  1
  Ir  Ir27  1  0.750000  0.444951  0.955204  1
  Ir  Ir28  1  0.250000  0.060060  0.272896  1
  Ir  Ir29  1  0.750000  0.939940  0.727104  1
  Ir  Ir30  1  0.250000  0.421867  0.523339  1
  Ir  Ir31  1  0.750000  0.578133  0.476661  1
  Ir  Ir32  1  0.250000  0.914980  0.997564  1
  Ir  Ir33  1  0.750000  0.085020  0.002436  1
  Ir  Ir34  1  0.250000  0.728961  0.395460  1
  Ir  Ir35  1  0.750000  0.271039  0.604540  1
  Ir  Ir36  1  0.250000  0.341905  0.857708  1
  Ir  Ir37  1  0.750000  0.658095  0.142292  1
