# generated using pymatgen
data_Lu12ZnCdNi4
_symmetry_space_group_name_H-M   'P 1'
_cell_length_a   8.13560708
_cell_length_b   8.13560777
_cell_length_c   8.13560714
_cell_angle_alpha   112.52826813
_cell_angle_beta   110.15152985
_cell_angle_gamma   105.80455135
_symmetry_Int_Tables_number   1
_chemical_formula_structural   Lu12ZnCdNi4
_chemical_formula_sum   'Lu12 Zn1 Cd1 Ni4'
_cell_volume   413.06915712
_cell_formula_units_Z   1
loop_
 _symmetry_equiv_pos_site_id
 _symmetry_equiv_pos_as_xyz
  1  'x, y, z'
loop_
 _atom_site_type_symbol
 _atom_site_label
 _atom_site_symmetry_multiplicity
 _atom_site_fract_x
 _atom_site_fract_y
 _atom_site_fract_z
 _atom_site_occupancy
  Lu  Lu0  1  0.674188  0.867802  0.193614  1
  Lu  Lu1  1  0.325812  0.519427  0.193614  1
  Lu  Lu2  1  0.819580  0.786205  0.605786  1
  Lu  Lu3  1  0.180420  0.786205  0.966626  1
  Lu  Lu4  1  0.819580  0.213795  0.033374  1
  Lu  Lu5  1  0.180420  0.213795  0.394214  1
  Lu  Lu6  1  0.674188  0.480573  0.806386  1
  Lu  Lu7  1  0.325812  0.132198  0.806386  1
  Lu  Lu8  1  0.570138  0.265906  0.304231  1
  Lu  Lu9  1  0.429862  0.734094  0.695769  1
  Lu  Lu10  1  0.038326  0.734094  0.304231  1
  Lu  Lu11  1  0.961674  0.265906  0.695769  1
  Zn  Zn12  1  0.000000  0.500000  0.500000  1
  Cd  Cd13  1  0.500000  0.000000  0.500000  1
  Ni  Ni14  1  0.345891  0.500000  0.845891  1
  Ni  Ni15  1  0.654109  0.500000  0.154109  1
  Ni  Ni16  1  0.874922  0.874922  0.000000  1
  Ni  Ni17  1  0.125078  0.125078  0.000000  1
