# generated using pymatgen
data_Er4CuSb5Rh7
_symmetry_space_group_name_H-M   'P 1'
_cell_length_a   7.51733663
_cell_length_b   7.51733627
_cell_length_c   7.51733618
_cell_angle_alpha   108.64046297
_cell_angle_beta   109.88818735
_cell_angle_gamma   109.88818843
_symmetry_Int_Tables_number   1
_chemical_formula_structural   Er4CuSb5Rh7
_chemical_formula_sum   'Er4 Cu1 Sb5 Rh7'
_cell_volume   326.96533752
_cell_formula_units_Z   1
loop_
 _symmetry_equiv_pos_site_id
 _symmetry_equiv_pos_as_xyz
  1  'x, y, z'
loop_
 _atom_site_type_symbol
 _atom_site_label
 _atom_site_symmetry_multiplicity
 _atom_site_fract_x
 _atom_site_fract_y
 _atom_site_fract_z
 _atom_site_occupancy
  Er  Er0  1  0.533041  0.022580  0.022580  1
  Er  Er1  1  0.000000  0.489539  0.022580  1
  Er  Er2  1  0.000000  0.022580  0.489539  1
  Er  Er3  1  0.466959  0.489539  0.489539  1
  Cu  Cu4  1  0.000000  0.313216  0.313216  1
  Sb  Sb5  1  0.686274  0.998628  0.684902  1
  Sb  Sb6  1  0.686274  0.684902  0.998628  1
  Sb  Sb7  1  0.000000  0.676814  0.676814  1
  Sb  Sb8  1  0.313726  0.998628  0.312355  1
  Sb  Sb9  1  0.313726  0.312355  0.998628  1
  Rh  Rh10  1  0.000000  0.989390  0.989390  1
  Rh  Rh11  1  0.500000  0.749834  0.249834  1
  Rh  Rh12  1  0.751568  0.500540  0.252108  1
  Rh  Rh13  1  0.248432  0.748972  0.500540  1
  Rh  Rh14  1  0.248432  0.500540  0.748972  1
  Rh  Rh15  1  0.500000  0.249834  0.749834  1
  Rh  Rh16  1  0.751568  0.252108  0.500540  1
