# generated using pymatgen
data_Li2Ho16In2Ir3Pt
_symmetry_space_group_name_H-M   'P 1'
_cell_length_a   9.61704417
_cell_length_b   9.63842191
_cell_length_c   9.65658200
_cell_angle_alpha   59.93766060
_cell_angle_beta   59.86391522
_cell_angle_gamma   59.64350212
_symmetry_Int_Tables_number   1
_chemical_formula_structural   Li2Ho16In2Ir3Pt
_chemical_formula_sum   'Li2 Ho16 In2 Ir3 Pt1'
_cell_volume   630.26393003
_cell_formula_units_Z   1
loop_
 _symmetry_equiv_pos_site_id
 _symmetry_equiv_pos_as_xyz
  1  'x, y, z'
loop_
 _atom_site_type_symbol
 _atom_site_label
 _atom_site_symmetry_multiplicity
 _atom_site_fract_x
 _atom_site_fract_y
 _atom_site_fract_z
 _atom_site_occupancy
  Li  Li0  1  0.426946  0.426787  0.424240  1
  Li  Li1  1  0.426946  0.426787  0.722027  1
  Ho  Ho2  1  0.439897  0.436824  0.061640  1
  Ho  Ho3  1  0.652734  0.649390  0.050286  1
  Ho  Ho4  1  0.186447  0.810904  0.193899  1
  Ho  Ho5  1  0.062614  0.438395  0.061856  1
  Ho  Ho6  1  0.186447  0.810904  0.808750  1
  Ho  Ho7  1  0.062614  0.438395  0.437135  1
  Ho  Ho8  1  0.811583  0.188685  0.190120  1
  Ho  Ho9  1  0.652734  0.649390  0.647592  1
  Ho  Ho10  1  0.811583  0.188685  0.809611  1
  Ho  Ho11  1  0.182017  0.187186  0.815398  1
  Ho  Ho12  1  0.041278  0.652859  0.652932  1
  Ho  Ho13  1  0.439338  0.062924  0.062781  1
  Ho  Ho14  1  0.063061  0.062961  0.436989  1
  Ho  Ho15  1  0.654114  0.044178  0.650855  1
  Ho  Ho16  1  0.808196  0.808044  0.191880  1
  Ho  Ho17  1  0.439338  0.062924  0.434957  1
  In  In18  1  0.415806  0.743713  0.420241  1
  In  In19  1  0.743923  0.415576  0.420251  1
  Ir  Ir20  1  0.855932  0.856923  0.861192  1
  Ir  Ir21  1  0.854205  0.425387  0.860203  1
  Ir  Ir22  1  0.855932  0.856923  0.425953  1
  Pt  Pt23  1  0.426318  0.855258  0.859211  1
