# generated using pymatgen
data_Tb2Dy2LuSn4
_symmetry_space_group_name_H-M   'P 1'
_cell_length_a   8.00405800
_cell_length_b   8.16087400
_cell_length_c   15.45347700
_cell_angle_alpha   90.00000000
_cell_angle_beta   90.00000000
_cell_angle_gamma   90.00000000
_symmetry_Int_Tables_number   1
_chemical_formula_structural   Tb2Dy2LuSn4
_chemical_formula_sum   'Tb8 Dy8 Lu4 Sn16'
_cell_volume   1009.42279939
_cell_formula_units_Z   4
loop_
 _symmetry_equiv_pos_site_id
 _symmetry_equiv_pos_as_xyz
  1  'x, y, z'
loop_
 _atom_site_type_symbol
 _atom_site_label
 _atom_site_symmetry_multiplicity
 _atom_site_fract_x
 _atom_site_fract_y
 _atom_site_fract_z
 _atom_site_occupancy
  Tb  Tb0  1  0.520199  0.320018  0.902542  1
  Tb  Tb1  1  0.020199  0.179982  0.597458  1
  Tb  Tb2  1  0.479801  0.679982  0.402542  1
  Tb  Tb3  1  0.979801  0.820018  0.097458  1
  Tb  Tb4  1  0.479801  0.679982  0.097458  1
  Tb  Tb5  1  0.979801  0.820018  0.402542  1
  Tb  Tb6  1  0.520199  0.320018  0.597458  1
  Tb  Tb7  1  0.020199  0.179982  0.902542  1
  Dy  Dy8  1  0.367420  0.836317  0.878106  1
  Dy  Dy9  1  0.867420  0.663683  0.621894  1
  Dy  Dy10  1  0.632580  0.163683  0.378106  1
  Dy  Dy11  1  0.132580  0.336317  0.121894  1
  Dy  Dy12  1  0.632580  0.163683  0.121894  1
  Dy  Dy13  1  0.132580  0.336317  0.378106  1
  Dy  Dy14  1  0.367420  0.836317  0.621894  1
  Dy  Dy15  1  0.867420  0.663683  0.878106  1
  Lu  Lu16  1  0.198292  0.502629  0.750000  1
  Lu  Lu17  1  0.698292  0.997371  0.750000  1
  Lu  Lu18  1  0.801708  0.497371  0.250000  1
  Lu  Lu19  1  0.301708  0.002629  0.250000  1
  Sn  Sn20  1  0.292736  0.034846  0.042772  1
  Sn  Sn21  1  0.792736  0.465154  0.457228  1
  Sn  Sn22  1  0.707264  0.965154  0.542772  1
  Sn  Sn23  1  0.207264  0.534846  0.957228  1
  Sn  Sn24  1  0.707264  0.965154  0.957228  1
  Sn  Sn25  1  0.207264  0.534846  0.542772  1
  Sn  Sn26  1  0.292736  0.034846  0.457228  1
  Sn  Sn27  1  0.792736  0.465154  0.042772  1
  Sn  Sn28  1  0.563945  0.618763  0.750000  1
  Sn  Sn29  1  0.063945  0.881237  0.750000  1
  Sn  Sn30  1  0.436055  0.381237  0.250000  1
  Sn  Sn31  1  0.936055  0.118763  0.250000  1
  Sn  Sn32  1  0.328678  0.147638  0.750000  1
  Sn  Sn33  1  0.828678  0.352362  0.750000  1
  Sn  Sn34  1  0.671322  0.852362  0.250000  1
  Sn  Sn35  1  0.171322  0.647638  0.250000  1
