# generated using pymatgen
data_Nd7P4S3
_symmetry_space_group_name_H-M   'P 1'
_cell_length_a   7.09327151
_cell_length_b   9.17847688
_cell_length_c   10.89652900
_cell_angle_alpha   53.74598973
_cell_angle_beta   40.26208908
_cell_angle_gamma   49.73712259
_symmetry_Int_Tables_number   1
_chemical_formula_structural   Nd7P4S3
_chemical_formula_sum   'Nd7 P4 S3'
_cell_volume   342.86434346
_cell_formula_units_Z   1
loop_
 _symmetry_equiv_pos_site_id
 _symmetry_equiv_pos_as_xyz
  1  'x, y, z'
loop_
 _atom_site_type_symbol
 _atom_site_label
 _atom_site_symmetry_multiplicity
 _atom_site_fract_x
 _atom_site_fract_y
 _atom_site_fract_z
 _atom_site_occupancy
  Nd  Nd0  1  0.856879  0.415077  0.581659  1
  Nd  Nd1  1  0.426983  0.118766  0.160226  1
  Nd  Nd2  1  0.153319  0.266445  0.864907  1
  Nd  Nd3  1  0.571370  0.555975  0.301107  1
  Nd  Nd4  1  0.999570  0.841322  0.724070  1
  Nd  Nd5  1  0.290864  0.698370  0.012871  1
  Nd  Nd6  1  0.726636  0.977693  0.438350  1
  P  P7  1  0.361109  0.911653  0.082094  1
  P  P8  1  0.648722  0.767474  0.368605  1
  P  P9  1  0.929440  0.622674  0.657041  1
  P  P10  1  0.789180  0.197652  0.511559  1
  S  S11  1  0.220262  0.480735  0.940281  1
  S  S12  1  0.073668  0.053827  0.798437  1
  S  S13  1  0.503148  0.339392  0.225343  1
