# generated using pymatgen
data_Tb2DyHfPt2
_symmetry_space_group_name_H-M   'P 1'
_cell_length_a   4.73558500
_cell_length_b   7.17198718
_cell_length_c   8.46109354
_cell_angle_alpha   90.08941128
_cell_angle_beta   90.00000000
_cell_angle_gamma   90.00000000
_symmetry_Int_Tables_number   1
_chemical_formula_structural   Tb2DyHfPt2
_chemical_formula_sum   'Tb4 Dy2 Hf2 Pt4'
_cell_volume   287.36846543
_cell_formula_units_Z   2
loop_
 _symmetry_equiv_pos_site_id
 _symmetry_equiv_pos_as_xyz
  1  'x, y, z'
loop_
 _atom_site_type_symbol
 _atom_site_label
 _atom_site_symmetry_multiplicity
 _atom_site_fract_x
 _atom_site_fract_y
 _atom_site_fract_z
 _atom_site_occupancy
  Tb  Tb0  1  0.750000  0.509271  0.821355  1
  Tb  Tb1  1  0.250000  0.490729  0.178645  1
  Tb  Tb2  1  0.750000  0.018049  0.667933  1
  Tb  Tb3  1  0.250000  0.981951  0.332067  1
  Dy  Dy4  1  0.750000  0.145204  0.083103  1
  Dy  Dy5  1  0.250000  0.854796  0.916897  1
  Hf  Hf6  1  0.750000  0.642999  0.424676  1
  Hf  Hf7  1  0.250000  0.357001  0.575324  1
  Pt  Pt8  1  0.750000  0.275374  0.419908  1
  Pt  Pt9  1  0.250000  0.724626  0.580092  1
  Pt  Pt10  1  0.750000  0.744221  0.106712  1
  Pt  Pt11  1  0.250000  0.255779  0.893288  1
