# generated using pymatgen
data_Tb2Y13Th(CdNi)4
_symmetry_space_group_name_H-M   'P 1'
_cell_length_a   9.59383545
_cell_length_b   9.60756491
_cell_length_c   9.60756432
_cell_angle_alpha   60.04387502
_cell_angle_beta   60.03521482
_cell_angle_gamma   60.03522427
_symmetry_Int_Tables_number   1
_chemical_formula_structural   Tb2Y13Th(CdNi)4
_chemical_formula_sum   'Tb2 Y13 Th1 Cd4 Ni4'
_cell_volume   626.72762229
_cell_formula_units_Z   1
loop_
 _symmetry_equiv_pos_site_id
 _symmetry_equiv_pos_as_xyz
  1  'x, y, z'
loop_
 _atom_site_type_symbol
 _atom_site_label
 _atom_site_symmetry_multiplicity
 _atom_site_fract_x
 _atom_site_fract_y
 _atom_site_fract_z
 _atom_site_occupancy
  Tb  Tb0  1  0.598674  0.599003  0.200692  1
  Tb  Tb1  1  0.598674  0.200692  0.599003  1
  Y  Y2  1  0.199060  0.599731  0.599731  1
  Y  Y3  1  0.062052  0.439265  0.439265  1
  Y  Y4  1  0.439535  0.062084  0.062084  1
  Y  Y5  1  0.439619  0.062274  0.439324  1
  Y  Y6  1  0.062076  0.439190  0.062112  1
  Y  Y7  1  0.439619  0.439324  0.062274  1
  Y  Y8  1  0.062076  0.062112  0.439190  1
  Y  Y9  1  0.188140  0.814465  0.814465  1
  Y  Y10  1  0.812462  0.186846  0.186846  1
  Y  Y11  1  0.813730  0.188090  0.814157  1
  Y  Y12  1  0.186591  0.813254  0.186003  1
  Y  Y13  1  0.813730  0.814157  0.188090  1
  Y  Y14  1  0.186591  0.186003  0.813254  1
  Th  Th15  1  0.594276  0.594751  0.594751  1
  Cd  Cd16  1  0.831306  0.830500  0.830500  1
  Cd  Cd17  1  0.831924  0.831519  0.505237  1
  Cd  Cd18  1  0.831924  0.505237  0.831519  1
  Cd  Cd19  1  0.505487  0.831516  0.831516  1
  Ni  Ni20  1  0.394147  0.392818  0.392818  1
  Ni  Ni21  1  0.394751  0.393531  0.819358  1
  Ni  Ni22  1  0.394751  0.819358  0.393531  1
  Ni  Ni23  1  0.818806  0.394277  0.394277  1
