# generated using pymatgen
data_PrTm(Tc2P)4
_symmetry_space_group_name_H-M   'P 1'
_cell_length_a   3.96152600
_cell_length_b   7.44514289
_cell_length_c   7.44514289
_cell_angle_alpha   89.38022938
_cell_angle_beta   90.00000000
_cell_angle_gamma   90.00000000
_symmetry_Int_Tables_number   1
_chemical_formula_structural   PrTm(Tc2P)4
_chemical_formula_sum   'Pr1 Tm1 Tc8 P4'
_cell_volume   219.57514439
_cell_formula_units_Z   1
loop_
 _symmetry_equiv_pos_site_id
 _symmetry_equiv_pos_as_xyz
  1  'x, y, z'
loop_
 _atom_site_type_symbol
 _atom_site_label
 _atom_site_symmetry_multiplicity
 _atom_site_fract_x
 _atom_site_fract_y
 _atom_site_fract_z
 _atom_site_occupancy
  Pr  Pr0  1  0.000000  0.500000  0.500000  1
  Tm  Tm1  1  0.500000  0.000000  0.000000  1
  Tc  Tc2  1  0.500000  0.157318  0.584628  1
  Tc  Tc3  1  0.500000  0.842682  0.415372  1
  Tc  Tc4  1  0.000000  0.336947  0.080020  1
  Tc  Tc5  1  0.000000  0.663053  0.919980  1
  Tc  Tc6  1  0.500000  0.584628  0.157318  1
  Tc  Tc7  1  0.500000  0.415372  0.842682  1
  Tc  Tc8  1  0.000000  0.080020  0.336947  1
  Tc  Tc9  1  0.000000  0.919980  0.663053  1
  P  P10  1  0.500000  0.716663  0.716663  1
  P  P11  1  0.500000  0.283337  0.283337  1
  P  P12  1  0.000000  0.791844  0.208156  1
  P  P13  1  0.000000  0.208156  0.791844  1
