# generated using pymatgen
data_HfP4Pd3Ru4
_symmetry_space_group_name_H-M   'P 1'
_cell_length_a   3.82563800
_cell_length_b   6.50221716
_cell_length_c   6.92520710
_cell_angle_alpha   90.61618163
_cell_angle_beta   90.00000000
_cell_angle_gamma   90.00000000
_symmetry_Int_Tables_number   1
_chemical_formula_structural   HfP4Pd3Ru4
_chemical_formula_sum   'Hf1 P4 Pd3 Ru4'
_cell_volume   172.25545858
_cell_formula_units_Z   1
loop_
 _symmetry_equiv_pos_site_id
 _symmetry_equiv_pos_as_xyz
  1  'x, y, z'
loop_
 _atom_site_type_symbol
 _atom_site_label
 _atom_site_symmetry_multiplicity
 _atom_site_fract_x
 _atom_site_fract_y
 _atom_site_fract_z
 _atom_site_occupancy
  Hf  Hf0  1  0.750000  0.021282  0.662270  1
  P  P1  1  0.250000  0.713262  0.622074  1
  P  P2  1  0.750000  0.299902  0.371962  1
  P  P3  1  0.250000  0.224214  0.887306  1
  P  P4  1  0.750000  0.774214  0.116860  1
  Pd  Pd5  1  0.250000  0.969885  0.338040  1
  Pd  Pd6  1  0.750000  0.542028  0.838873  1
  Pd  Pd7  1  0.250000  0.456642  0.158924  1
  Ru  Ru8  1  0.250000  0.347905  0.571710  1
  Ru  Ru9  1  0.750000  0.658824  0.424780  1
  Ru  Ru10  1  0.250000  0.859057  0.934140  1
  Ru  Ru11  1  0.750000  0.132785  0.073061  1
