# generated using pymatgen
data_Ca2Si7Ni5Ru7
_symmetry_space_group_name_H-M   'P 1'
_cell_length_a   9.47855646
_cell_length_b   9.54941070
_cell_length_c   3.78038700
_cell_angle_alpha   90.00000000
_cell_angle_beta   90.00000000
_cell_angle_gamma   120.04851751
_symmetry_Int_Tables_number   1
_chemical_formula_structural   Ca2Si7Ni5Ru7
_chemical_formula_sum   'Ca2 Si7 Ni5 Ru7'
_cell_volume   296.19187031
_cell_formula_units_Z   1
loop_
 _symmetry_equiv_pos_site_id
 _symmetry_equiv_pos_as_xyz
  1  'x, y, z'
loop_
 _atom_site_type_symbol
 _atom_site_label
 _atom_site_symmetry_multiplicity
 _atom_site_fract_x
 _atom_site_fract_y
 _atom_site_fract_z
 _atom_site_occupancy
  Ca  Ca0  1  0.999321  0.999170  0.000000  1
  Ca  Ca1  1  0.668943  0.335040  0.500000  1
  Si  Si2  1  0.623612  0.559733  0.000000  1
  Si  Si3  1  0.934678  0.377881  0.000000  1
  Si  Si4  1  0.441782  0.064089  0.000000  1
  Si  Si5  1  0.729342  0.952694  0.500000  1
  Si  Si6  1  0.227165  0.273343  0.500000  1
  Si  Si7  1  0.046105  0.774172  0.500000  1
  Si  Si8  1  0.334154  0.667740  0.000000  1
  Ni  Ni9  1  0.905638  0.609041  0.000000  1
  Ni  Ni10  1  0.704796  0.095173  0.000000  1
  Ni  Ni11  1  0.610922  0.793484  0.000000  1
  Ni  Ni12  1  0.181587  0.393499  0.000000  1
  Ni  Ni13  1  0.207880  0.813545  0.000000  1
  Ru  Ru14  1  0.393810  0.295180  0.000000  1
  Ru  Ru15  1  0.770786  0.717312  0.500000  1
  Ru  Ru16  1  0.946799  0.228952  0.500000  1
  Ru  Ru17  1  0.278410  0.044013  0.500000  1
  Ru  Ru18  1  0.424748  0.558687  0.500000  1
  Ru  Ru19  1  0.121825  0.571038  0.500000  1
  Ru  Ru20  1  0.447698  0.876216  0.500000  1
