# generated using pymatgen
data_Zr6Zn21Cu2C
_symmetry_space_group_name_H-M   'P 1'
_cell_length_a   8.66330662
_cell_length_b   8.66330600
_cell_length_c   8.68550400
_cell_angle_alpha   59.91519585
_cell_angle_beta   59.91519823
_cell_angle_gamma   60.01576819
_symmetry_Int_Tables_number   1
_chemical_formula_structural   Zr6Zn21Cu2C
_chemical_formula_sum   'Zr6 Zn21 Cu2 C1'
_cell_volume   460.40612566
_cell_formula_units_Z   1
loop_
 _symmetry_equiv_pos_site_id
 _symmetry_equiv_pos_as_xyz
  1  'x, y, z'
loop_
 _atom_site_type_symbol
 _atom_site_label
 _atom_site_symmetry_multiplicity
 _atom_site_fract_x
 _atom_site_fract_y
 _atom_site_fract_z
 _atom_site_occupancy
  Zr  Zr0  1  0.690063  0.309937  0.309269  1
  Zr  Zr1  1  0.309937  0.690063  0.690731  1
  Zr  Zr2  1  0.309937  0.690063  0.309269  1
  Zr  Zr3  1  0.690063  0.309937  0.690731  1
  Zr  Zr4  1  0.310034  0.310034  0.689966  1
  Zr  Zr5  1  0.689966  0.689966  0.310034  1
  Zn  Zn6  1  0.118651  0.118651  0.117918  1
  Zn  Zn7  1  0.881349  0.881349  0.882082  1
  Zn  Zn8  1  0.118651  0.118651  0.644781  1
  Zn  Zn9  1  0.124872  0.643363  0.115884  1
  Zn  Zn10  1  0.881349  0.881349  0.355219  1
  Zn  Zn11  1  0.875128  0.356637  0.884116  1
  Zn  Zn12  1  0.643363  0.124872  0.115884  1
  Zn  Zn13  1  0.356637  0.875128  0.884116  1
  Zn  Zn14  1  0.500000  0.000000  0.000000  1
  Zn  Zn15  1  0.000000  0.500000  0.500000  1
  Zn  Zn16  1  0.000000  0.500000  0.000000  1
  Zn  Zn17  1  0.500000  0.000000  0.500000  1
  Zn  Zn18  1  0.000000  0.000000  0.500000  1
  Zn  Zn19  1  0.332879  0.332879  0.326504  1
  Zn  Zn20  1  0.667121  0.667121  0.673496  1
  Zn  Zn21  1  0.332879  0.332879  0.007739  1
  Zn  Zn22  1  0.331129  0.008634  0.330119  1
  Zn  Zn23  1  0.667121  0.667121  0.992261  1
  Zn  Zn24  1  0.668871  0.991366  0.669881  1
  Zn  Zn25  1  0.008634  0.331129  0.330119  1
  Zn  Zn26  1  0.991366  0.668871  0.669881  1
  Cu  Cu27  1  0.500000  0.500000  0.000000  1
  Cu  Cu28  1  0.000000  0.000000  0.000000  1
  C  C29  1  0.500000  0.500000  0.500000  1
