# generated using pymatgen
data_Ho3GaSn3Ir2
_symmetry_space_group_name_H-M   'P 1'
_cell_length_a   7.43149600
_cell_length_b   7.43149472
_cell_length_c   4.11230300
_cell_angle_alpha   90.00000000
_cell_angle_beta   90.00000000
_cell_angle_gamma   119.99999561
_symmetry_Int_Tables_number   1
_chemical_formula_structural   Ho3GaSn3Ir2
_chemical_formula_sum   'Ho3 Ga1 Sn3 Ir2'
_cell_volume   196.68361385
_cell_formula_units_Z   1
loop_
 _symmetry_equiv_pos_site_id
 _symmetry_equiv_pos_as_xyz
  1  'x, y, z'
loop_
 _atom_site_type_symbol
 _atom_site_label
 _atom_site_symmetry_multiplicity
 _atom_site_fract_x
 _atom_site_fract_y
 _atom_site_fract_z
 _atom_site_occupancy
  Ho  Ho0  1  0.395965  0.409512  0.500000  1
  Ho  Ho1  1  0.590488  0.986453  0.500000  1
  Ho  Ho2  1  0.013547  0.604035  0.500000  1
  Ga  Ga3  1  0.666667  0.333333  0.000000  1
  Sn  Sn4  1  0.742335  0.747747  0.000000  1
  Sn  Sn5  1  0.252253  0.994588  0.000000  1
  Sn  Sn6  1  0.005412  0.257665  0.000000  1
  Ir  Ir7  1  0.333333  0.666667  0.000000  1
  Ir  Ir8  1  0.000000  0.000000  0.500000  1
