# generated using pymatgen
data_Sm3BiRh3Pb2
_symmetry_space_group_name_H-M   'P 1'
_cell_length_a   7.77926991
_cell_length_b   7.77926964
_cell_length_c   3.96491100
_cell_angle_alpha   90.00000000
_cell_angle_beta   90.00000000
_cell_angle_gamma   119.70280852
_symmetry_Int_Tables_number   1
_chemical_formula_structural   Sm3BiRh3Pb2
_chemical_formula_sum   'Sm3 Bi1 Rh3 Pb2'
_cell_volume   208.41767513
_cell_formula_units_Z   1
loop_
 _symmetry_equiv_pos_site_id
 _symmetry_equiv_pos_as_xyz
  1  'x, y, z'
loop_
 _atom_site_type_symbol
 _atom_site_label
 _atom_site_symmetry_multiplicity
 _atom_site_fract_x
 _atom_site_fract_y
 _atom_site_fract_z
 _atom_site_occupancy
  Sm  Sm0  1  0.595326  0.003766  0.000000  1
  Sm  Sm1  1  0.003766  0.595326  0.000000  1
  Sm  Sm2  1  0.401724  0.401724  0.000000  1
  Bi  Bi3  1  0.738265  0.738265  0.500000  1
  Rh  Rh4  1  0.333258  0.665206  0.500000  1
  Rh  Rh5  1  0.665206  0.333258  0.500000  1
  Rh  Rh6  1  0.997523  0.997523  0.000000  1
  Pb  Pb7  1  0.263969  0.000962  0.500000  1
  Pb  Pb8  1  0.000962  0.263969  0.500000  1
