# generated using pymatgen
data_Tb5Nd3(SiCl6)2
_symmetry_space_group_name_H-M   'P 1'
_cell_length_a   3.97035300
_cell_length_b   12.91014243
_cell_length_c   13.67213800
_cell_angle_alpha   89.93452996
_cell_angle_beta   90.00000000
_cell_angle_gamma   90.00000000
_symmetry_Int_Tables_number   1
_chemical_formula_structural   Tb5Nd3(SiCl6)2
_chemical_formula_sum   'Tb5 Nd3 Si2 Cl12'
_cell_volume   700.80356830
_cell_formula_units_Z   1
loop_
 _symmetry_equiv_pos_site_id
 _symmetry_equiv_pos_as_xyz
  1  'x, y, z'
loop_
 _atom_site_type_symbol
 _atom_site_label
 _atom_site_symmetry_multiplicity
 _atom_site_fract_x
 _atom_site_fract_y
 _atom_site_fract_z
 _atom_site_occupancy
  Tb  Tb0  1  0.500000  0.121404  0.336354  1
  Tb  Tb1  1  0.500000  0.879524  0.662480  1
  Tb  Tb2  1  0.500000  0.619267  0.162668  1
  Tb  Tb3  1  0.500000  0.379057  0.838428  1
  Tb  Tb4  1  0.000000  0.374921  0.083006  1
  Nd  Nd5  1  0.000000  0.127751  0.584405  1
  Nd  Nd6  1  0.000000  0.872432  0.414984  1
  Nd  Nd7  1  0.000000  0.625826  0.916455  1
  Si  Si8  1  0.500000  0.000338  0.499334  1
  Si  Si9  1  0.500000  0.497420  0.001701  1
  Cl  Cl10  1  0.500000  0.244875  0.164220  1
  Cl  Cl11  1  0.500000  0.762457  0.833056  1
  Cl  Cl12  1  0.500000  0.735233  0.332287  1
  Cl  Cl13  1  0.500000  0.263685  0.668445  1
  Cl  Cl14  1  0.000000  0.251309  0.403302  1
  Cl  Cl15  1  0.000000  0.749004  0.596149  1
  Cl  Cl16  1  0.000000  0.750003  0.096360  1
  Cl  Cl17  1  0.000000  0.250475  0.909780  1
  Cl  Cl18  1  0.000000  0.010563  0.244076  1
  Cl  Cl19  1  0.000000  0.990452  0.755148  1
  Cl  Cl20  1  0.000000  0.504001  0.251696  1
  Cl  Cl21  1  0.000000  0.490004  0.745664  1
