# generated using pymatgen
data_CrAg2F6
_symmetry_space_group_name_H-M   'P 1'
_cell_length_a   9.54005624
_cell_length_b   9.53692323
_cell_length_c   5.13427750
_cell_angle_alpha   89.93359972
_cell_angle_beta   89.98361169
_cell_angle_gamma   120.03092354
_symmetry_Int_Tables_number   1
_chemical_formula_structural   CrAg2F6
_chemical_formula_sum   'Cr3 Ag6 F18'
_cell_volume   404.42059994
_cell_formula_units_Z   3
loop_
 _symmetry_equiv_pos_site_id
 _symmetry_equiv_pos_as_xyz
  1  'x, y, z'
loop_
 _atom_site_type_symbol
 _atom_site_label
 _atom_site_symmetry_multiplicity
 _atom_site_fract_x
 _atom_site_fract_y
 _atom_site_fract_z
 _atom_site_occupancy
  Cr  Cr0  1  0.333375  0.666690  0.511328  1
  Cr  Cr1  1  0.666612  0.333340  0.488768  1
  Cr  Cr2  1  0.999949  0.999922  0.000001  1
  Ag  Ag3  1  0.712240  0.000073  0.500073  1
  Ag  Ag4  1  0.287854  0.287918  0.499741  1
  Ag  Ag5  1  0.000059  0.712142  0.500152  1
  Ag  Ag6  1  0.381190  0.000095  0.000067  1
  Ag  Ag7  1  0.000067  0.381139  0.000162  1
  Ag  Ag8  1  0.618735  0.618769  0.999750  1
  F  F9  1  0.789094  0.263385  0.274610  1
  F  F10  1  0.736613  0.525636  0.274738  1
  F  F11  1  0.474023  0.210893  0.274775  1
  F  F12  1  0.525791  0.736776  0.724898  1
  F  F13  1  0.210842  0.473974  0.725645  1
  F  F14  1  0.263564  0.789082  0.725290  1
  F  F15  1  0.393032  0.534986  0.296333  1
  F  F16  1  0.465436  0.858658  0.296097  1
  F  F17  1  0.141937  0.607037  0.296101  1
  F  F18  1  0.915644  0.109586  0.786670  1
  F  F19  1  0.890543  0.806238  0.787316  1
  F  F20  1  0.193873  0.084326  0.787288  1
  F  F21  1  0.806101  0.890448  0.212744  1
  F  F22  1  0.084220  0.193704  0.212880  1
  F  F23  1  0.109497  0.915558  0.213094  1
  F  F24  1  0.534717  0.392977  0.703646  1
  F  F25  1  0.606845  0.141584  0.704188  1
  F  F26  1  0.858145  0.465068  0.703643  1
