# generated using pymatgen
data_CaEu3(Al3Os)2
_symmetry_space_group_name_H-M   'P 1'
_cell_length_a   5.75801100
_cell_length_b   5.75801142
_cell_length_c   8.87104500
_cell_angle_alpha   90.00000000
_cell_angle_beta   90.00000000
_cell_angle_gamma   120.00000332
_symmetry_Int_Tables_number   1
_chemical_formula_structural   CaEu3(Al3Os)2
_chemical_formula_sum   'Ca1 Eu3 Al6 Os2'
_cell_volume   254.71258988
_cell_formula_units_Z   1
loop_
 _symmetry_equiv_pos_site_id
 _symmetry_equiv_pos_as_xyz
  1  'x, y, z'
loop_
 _atom_site_type_symbol
 _atom_site_label
 _atom_site_symmetry_multiplicity
 _atom_site_fract_x
 _atom_site_fract_y
 _atom_site_fract_z
 _atom_site_occupancy
  Ca  Ca0  1  0.333334  0.666668  0.950391  1
  Eu  Eu1  1  0.666666  0.333333  0.051893  1
  Eu  Eu2  1  0.666666  0.333333  0.447388  1
  Eu  Eu3  1  0.333334  0.666668  0.551176  1
  Al  Al4  1  0.156293  0.312586  0.248992  1
  Al  Al5  1  0.156292  0.843706  0.248992  1
  Al  Al6  1  0.687414  0.843706  0.248992  1
  Al  Al7  1  0.311592  0.155796  0.750577  1
  Al  Al8  1  0.844206  0.155796  0.750577  1
  Al  Al9  1  0.844205  0.688408  0.750577  1
  Os  Os10  1  0.000000  0.000000  0.998929  1
  Os  Os11  1  0.000000  0.000000  0.501515  1
