# generated using pymatgen
data_Tb2FeCoO6
_symmetry_space_group_name_H-M   'P 1'
_cell_length_a   5.57840300
_cell_length_b   5.26815916
_cell_length_c   9.26262378
_cell_angle_alpha   54.91132799
_cell_angle_beta   90.00000000
_cell_angle_gamma   90.00000000
_symmetry_Int_Tables_number   1
_chemical_formula_structural   Tb2FeCoO6
_chemical_formula_sum   'Tb4 Fe2 Co2 O12'
_cell_volume   222.73882109
_cell_formula_units_Z   2
loop_
 _symmetry_equiv_pos_site_id
 _symmetry_equiv_pos_as_xyz
  1  'x, y, z'
loop_
 _atom_site_type_symbol
 _atom_site_label
 _atom_site_symmetry_multiplicity
 _atom_site_fract_x
 _atom_site_fract_y
 _atom_site_fract_z
 _atom_site_occupancy
  Tb  Tb0  1  0.929706  0.730951  0.750046  1
  Tb  Tb1  1  0.429706  0.269049  0.749954  1
  Tb  Tb2  1  0.070294  0.269049  0.249954  1
  Tb  Tb3  1  0.570294  0.730951  0.250046  1
  Fe  Fe4  1  0.500000  0.500000  0.000000  1
  Fe  Fe5  1  0.000000  0.500000  0.500000  1
  Co  Co6  1  0.500000  0.000000  0.500000  1
  Co  Co7  1  0.000000  0.000000  0.000000  1
  O  O8  1  0.305666  0.352936  0.448131  1
  O  O9  1  0.805666  0.647064  0.051869  1
  O  O10  1  0.702009  0.242861  0.946878  1
  O  O11  1  0.202009  0.757139  0.553122  1
  O  O12  1  0.694334  0.647064  0.551869  1
  O  O13  1  0.194334  0.352936  0.948131  1
  O  O14  1  0.297991  0.757139  0.053122  1
  O  O15  1  0.797991  0.242861  0.446878  1
  O  O16  1  0.469097  0.143319  0.254617  1
  O  O17  1  0.969097  0.856681  0.245383  1
  O  O18  1  0.530903  0.856681  0.745383  1
  O  O19  1  0.030903  0.143319  0.754617  1
