# generated using pymatgen
data_MnCr7Te12
_symmetry_space_group_name_H-M   'P 1'
_cell_length_a   6.91074700
_cell_length_b   6.91074685
_cell_length_c   12.38512700
_cell_angle_alpha   90.00000000
_cell_angle_beta   90.00000000
_cell_angle_gamma   120.00000550
_symmetry_Int_Tables_number   1
_chemical_formula_structural   MnCr7Te12
_chemical_formula_sum   'Mn1 Cr7 Te12'
_cell_volume   512.24891869
_cell_formula_units_Z   1
loop_
 _symmetry_equiv_pos_site_id
 _symmetry_equiv_pos_as_xyz
  1  'x, y, z'
loop_
 _atom_site_type_symbol
 _atom_site_label
 _atom_site_symmetry_multiplicity
 _atom_site_fract_x
 _atom_site_fract_y
 _atom_site_fract_z
 _atom_site_occupancy
  Mn  Mn0  1  0.333333  0.666667  0.250000  1
  Cr  Cr1  1  0.666667  0.333333  0.750000  1
  Cr  Cr2  1  0.000000  0.000000  0.998368  1
  Cr  Cr3  1  0.000000  0.000000  0.501632  1
  Cr  Cr4  1  0.333333  0.666667  0.994410  1
  Cr  Cr5  1  0.333333  0.666667  0.505590  1
  Cr  Cr6  1  0.666667  0.333333  0.006509  1
  Cr  Cr7  1  0.666667  0.333333  0.493491  1
  Te  Te8  1  0.328356  0.995762  0.379855  1
  Te  Te9  1  0.004238  0.332594  0.379855  1
  Te  Te10  1  0.667406  0.671644  0.379855  1
  Te  Te11  1  0.004238  0.671644  0.120145  1
  Te  Te12  1  0.667406  0.995762  0.120145  1
  Te  Te13  1  0.328356  0.332594  0.120145  1
  Te  Te14  1  0.669022  0.004191  0.622665  1
  Te  Te15  1  0.995809  0.664831  0.622665  1
  Te  Te16  1  0.335169  0.330978  0.622665  1
  Te  Te17  1  0.995809  0.330978  0.877335  1
  Te  Te18  1  0.335169  0.004191  0.877335  1
  Te  Te19  1  0.669022  0.664831  0.877335  1
