# generated using pymatgen
data_La3ThCdIr
_symmetry_space_group_name_H-M   'P 1'
_cell_length_a   10.10863414
_cell_length_b   10.10863465
_cell_length_c   10.10863500
_cell_angle_alpha   60.00000214
_cell_angle_beta   60.00000045
_cell_angle_gamma   60.00000388
_symmetry_Int_Tables_number   1
_chemical_formula_structural   La3ThCdIr
_chemical_formula_sum   'La12 Th4 Cd4 Ir4'
_cell_volume   730.40294871
_cell_formula_units_Z   4
loop_
 _symmetry_equiv_pos_site_id
 _symmetry_equiv_pos_as_xyz
  1  'x, y, z'
loop_
 _atom_site_type_symbol
 _atom_site_label
 _atom_site_symmetry_multiplicity
 _atom_site_fract_x
 _atom_site_fract_y
 _atom_site_fract_z
 _atom_site_occupancy
  La  La0  1  0.057487  0.442513  0.442513  1
  La  La1  1  0.442513  0.057487  0.057487  1
  La  La2  1  0.442513  0.057487  0.442513  1
  La  La3  1  0.057487  0.442513  0.057487  1
  La  La4  1  0.442513  0.442513  0.057487  1
  La  La5  1  0.057487  0.057487  0.442513  1
  La  La6  1  0.189178  0.810822  0.810822  1
  La  La7  1  0.810822  0.189178  0.189178  1
  La  La8  1  0.810822  0.189178  0.810822  1
  La  La9  1  0.189178  0.810822  0.189178  1
  La  La10  1  0.810822  0.810822  0.189178  1
  La  La11  1  0.189178  0.189178  0.810822  1
  Th  Th12  1  0.595195  0.595195  0.595195  1
  Th  Th13  1  0.595195  0.595195  0.214415  1
  Th  Th14  1  0.595195  0.214415  0.595195  1
  Th  Th15  1  0.214415  0.595195  0.595195  1
  Cd  Cd16  1  0.829419  0.829419  0.829419  1
  Cd  Cd17  1  0.829419  0.829419  0.511742  1
  Cd  Cd18  1  0.829419  0.511742  0.829419  1
  Cd  Cd19  1  0.511742  0.829419  0.829419  1
  Ir  Ir20  1  0.395785  0.395785  0.395785  1
  Ir  Ir21  1  0.395785  0.395785  0.812645  1
  Ir  Ir22  1  0.395785  0.812645  0.395785  1
  Ir  Ir23  1  0.812645  0.395785  0.395785  1
