# generated using pymatgen
data_Tb3Al12Ru3Rh
_symmetry_space_group_name_H-M   'P 1'
_cell_length_a   8.80518403
_cell_length_b   8.80518316
_cell_length_c   9.57711400
_cell_angle_alpha   90.00000000
_cell_angle_beta   90.00000000
_cell_angle_gamma   119.51921747
_symmetry_Int_Tables_number   1
_chemical_formula_structural   Tb3Al12Ru3Rh
_chemical_formula_sum   'Tb6 Al24 Ru6 Rh2'
_cell_volume   646.13879645
_cell_formula_units_Z   2
loop_
 _symmetry_equiv_pos_site_id
 _symmetry_equiv_pos_as_xyz
  1  'x, y, z'
loop_
 _atom_site_type_symbol
 _atom_site_label
 _atom_site_symmetry_multiplicity
 _atom_site_fract_x
 _atom_site_fract_y
 _atom_site_fract_z
 _atom_site_occupancy
  Tb  Tb0  1  0.385395  0.189620  0.250000  1
  Tb  Tb1  1  0.805930  0.194070  0.250000  1
  Tb  Tb2  1  0.810380  0.614605  0.250000  1
  Tb  Tb3  1  0.614605  0.810380  0.750000  1
  Tb  Tb4  1  0.194070  0.805930  0.750000  1
  Tb  Tb5  1  0.189620  0.385395  0.750000  1
  Al  Al6  1  0.439250  0.876743  0.250000  1
  Al  Al7  1  0.123257  0.560750  0.250000  1
  Al  Al8  1  0.438860  0.561140  0.250000  1
  Al  Al9  1  0.560750  0.123257  0.750000  1
  Al  Al10  1  0.876743  0.439250  0.750000  1
  Al  Al11  1  0.561140  0.438860  0.750000  1
  Al  Al12  1  0.163253  0.836747  0.422656  1
  Al  Al13  1  0.160927  0.323872  0.422260  1
  Al  Al14  1  0.676128  0.839073  0.422260  1
  Al  Al15  1  0.836747  0.163253  0.577344  1
  Al  Al16  1  0.839073  0.676128  0.577740  1
  Al  Al17  1  0.323872  0.160927  0.577740  1
  Al  Al18  1  0.836747  0.163253  0.922656  1
  Al  Al19  1  0.839073  0.676128  0.922260  1
  Al  Al20  1  0.323872  0.160927  0.922260  1
  Al  Al21  1  0.163253  0.836747  0.077344  1
  Al  Al22  1  0.160927  0.323872  0.077740  1
  Al  Al23  1  0.676128  0.839073  0.077740  1
  Al  Al24  1  0.332277  0.667723  0.518394  1
  Al  Al25  1  0.667723  0.332277  0.481606  1
  Al  Al26  1  0.667723  0.332277  0.018394  1
  Al  Al27  1  0.332277  0.667723  0.981606  1
  Al  Al28  1  0.000804  0.999196  0.250000  1
  Al  Al29  1  0.999196  0.000804  0.750000  1
  Ru  Ru30  1  0.000000  0.000000  0.500000  1
  Ru  Ru31  1  0.000000  0.000000  0.000000  1
  Ru  Ru32  1  0.500000  0.000000  0.500000  1
  Ru  Ru33  1  0.000000  0.500000  0.500000  1
  Ru  Ru34  1  0.500000  0.000000  0.000000  1
  Ru  Ru35  1  0.000000  0.500000  0.000000  1
  Rh  Rh36  1  0.500000  0.500000  0.500000  1
  Rh  Rh37  1  0.500000  0.500000  0.000000  1
