# generated using pymatgen
data_AcHo11(SiPd)12
_symmetry_space_group_name_H-M   'P 1'
_cell_length_a   4.35634500
_cell_length_b   7.42954415
_cell_length_c   21.11130000
_cell_angle_alpha   90.01147528
_cell_angle_beta   90.00000000
_cell_angle_gamma   90.00000000
_symmetry_Int_Tables_number   1
_chemical_formula_structural   AcHo11(SiPd)12
_chemical_formula_sum   'Ac1 Ho11 Si12 Pd12'
_cell_volume   683.28109160
_cell_formula_units_Z   1
loop_
 _symmetry_equiv_pos_site_id
 _symmetry_equiv_pos_as_xyz
  1  'x, y, z'
loop_
 _atom_site_type_symbol
 _atom_site_label
 _atom_site_symmetry_multiplicity
 _atom_site_fract_x
 _atom_site_fract_y
 _atom_site_fract_z
 _atom_site_occupancy
  Ac  Ac0  1  0.250000  0.790424  0.501459  1
  Ho  Ho1  1  0.250000  0.702980  0.326902  1
  Ho  Ho2  1  0.750000  0.288536  0.671060  1
  Ho  Ho3  1  0.750000  0.206642  0.164540  1
  Ho  Ho4  1  0.250000  0.792368  0.836076  1
  Ho  Ho5  1  0.250000  0.793580  0.163765  1
  Ho  Ho6  1  0.750000  0.205146  0.836084  1
  Ho  Ho7  1  0.750000  0.292604  0.327818  1
  Ho  Ho8  1  0.250000  0.705875  0.672376  1
  Ho  Ho9  1  0.250000  0.709829  0.000754  1
  Ho  Ho10  1  0.750000  0.290621  0.999016  1
  Ho  Ho11  1  0.750000  0.227956  0.497277  1
  Si  Si12  1  0.250000  0.090329  0.070402  1
  Si  Si13  1  0.750000  0.910075  0.929815  1
  Si  Si14  1  0.750000  0.586759  0.412685  1
  Si  Si15  1  0.250000  0.404289  0.571316  1
  Si  Si16  1  0.250000  0.086777  0.266988  1
  Si  Si17  1  0.750000  0.912695  0.735337  1
  Si  Si18  1  0.750000  0.586427  0.225328  1
  Si  Si19  1  0.250000  0.413316  0.775358  1
  Si  Si20  1  0.250000  0.090336  0.388472  1
  Si  Si21  1  0.750000  0.915774  0.614444  1
  Si  Si22  1  0.750000  0.588876  0.102329  1
  Si  Si23  1  0.250000  0.411300  0.897397  1
  Pd  Pd24  1  0.250000  0.417315  0.232448  1
  Pd  Pd25  1  0.750000  0.578815  0.765954  1
  Pd  Pd26  1  0.750000  0.918713  0.258611  1
  Pd  Pd27  1  0.250000  0.082480  0.741622  1
  Pd  Pd28  1  0.250000  0.412156  0.433488  1
  Pd  Pd29  1  0.750000  0.576068  0.580350  1
  Pd  Pd30  1  0.750000  0.918528  0.060768  1
  Pd  Pd31  1  0.250000  0.082189  0.939382  1
  Pd  Pd32  1  0.250000  0.420911  0.091887  1
  Pd  Pd33  1  0.750000  0.578974  0.907621  1
  Pd  Pd34  1  0.750000  0.926314  0.400217  1
  Pd  Pd35  1  0.250000  0.084025  0.600655  1
