# generated using pymatgen
data_La7IrPdAu
_symmetry_space_group_name_H-M   'P 1'
_cell_length_a   6.61688981
_cell_length_b   10.42031436
_cell_length_c   10.41378352
_cell_angle_alpha   120.03599595
_cell_angle_beta   90.23544425
_cell_angle_gamma   89.80289122
_symmetry_Int_Tables_number   1
_chemical_formula_structural   La7IrPdAu
_chemical_formula_sum   'La14 Ir2 Pd2 Au2'
_cell_volume   621.60147756
_cell_formula_units_Z   2
loop_
 _symmetry_equiv_pos_site_id
 _symmetry_equiv_pos_as_xyz
  1  'x, y, z'
loop_
 _atom_site_type_symbol
 _atom_site_label
 _atom_site_symmetry_multiplicity
 _atom_site_fract_x
 _atom_site_fract_y
 _atom_site_fract_z
 _atom_site_occupancy
  La  La0  1  0.467115  0.338430  0.662172  1
  La  La1  1  0.947262  0.664392  0.329696  1
  La  La2  1  0.241489  0.132488  0.876352  1
  La  La3  1  0.262462  0.740388  0.873294  1
  La  La4  1  0.260771  0.129916  0.258325  1
  La  La5  1  0.745472  0.875448  0.123784  1
  La  La6  1  0.747557  0.252590  0.138906  1
  La  La7  1  0.742973  0.860727  0.748197  1
  La  La8  1  0.443982  0.532790  0.460177  1
  La  La9  1  0.445427  0.929135  0.459054  1
  La  La10  1  0.442096  0.538555  0.073623  1
  La  La11  1  0.938405  0.456924  0.542385  1
  La  La12  1  0.941443  0.077297  0.528062  1
  La  La13  1  0.941344  0.471993  0.923114  1
  Ir  Ir14  1  0.688451  0.623062  0.813353  1
  Ir  Ir15  1  0.688258  0.186741  0.376458  1
  Pd  Pd16  1  0.189041  0.811056  0.189335  1
  Pd  Pd17  1  0.190790  0.378494  0.188357  1
  Au  Au18  1  0.188421  0.812414  0.621752  1
  Au  Au19  1  0.689238  0.187158  0.813606  1
