# generated using pymatgen
data_Y6Ga7Pd16O
_symmetry_space_group_name_H-M   'P 1'
_cell_length_a   9.02846471
_cell_length_b   9.02846399
_cell_length_c   9.02846400
_cell_angle_alpha   59.99999997
_cell_angle_beta   60.00000260
_cell_angle_gamma   60.00000122
_symmetry_Int_Tables_number   1
_chemical_formula_structural   Y6Ga7Pd16O
_chemical_formula_sum   'Y6 Ga7 Pd16 O1'
_cell_volume   520.38726568
_cell_formula_units_Z   1
loop_
 _symmetry_equiv_pos_site_id
 _symmetry_equiv_pos_as_xyz
  1  'x, y, z'
loop_
 _atom_site_type_symbol
 _atom_site_label
 _atom_site_symmetry_multiplicity
 _atom_site_fract_x
 _atom_site_fract_y
 _atom_site_fract_z
 _atom_site_occupancy
  Y  Y0  1  0.702409  0.297591  0.297591  1
  Y  Y1  1  0.297591  0.702409  0.702409  1
  Y  Y2  1  0.297591  0.702409  0.297591  1
  Y  Y3  1  0.702409  0.297591  0.702409  1
  Y  Y4  1  0.297591  0.297591  0.702409  1
  Y  Y5  1  0.702409  0.702409  0.297591  1
  Ga  Ga6  1  0.000000  0.000000  0.000000  1
  Ga  Ga7  1  0.500000  0.000000  0.000000  1
  Ga  Ga8  1  0.000000  0.500000  0.500000  1
  Ga  Ga9  1  0.000000  0.500000  0.000000  1
  Ga  Ga10  1  0.500000  0.000000  0.500000  1
  Ga  Ga11  1  0.000000  0.000000  0.500000  1
  Ga  Ga12  1  0.500000  0.500000  0.000000  1
  Pd  Pd13  1  0.118472  0.118472  0.118472  1
  Pd  Pd14  1  0.881528  0.881528  0.881528  1
  Pd  Pd15  1  0.118472  0.118472  0.644583  1
  Pd  Pd16  1  0.118472  0.644583  0.118472  1
  Pd  Pd17  1  0.881528  0.881528  0.355417  1
  Pd  Pd18  1  0.881528  0.355417  0.881528  1
  Pd  Pd19  1  0.644583  0.118472  0.118472  1
  Pd  Pd20  1  0.355417  0.881528  0.881528  1
  Pd  Pd21  1  0.333737  0.333737  0.333737  1
  Pd  Pd22  1  0.666263  0.666263  0.666263  1
  Pd  Pd23  1  0.333737  0.333737  0.998790  1
  Pd  Pd24  1  0.333737  0.998790  0.333737  1
  Pd  Pd25  1  0.666263  0.666263  0.001210  1
  Pd  Pd26  1  0.666263  0.001210  0.666263  1
  Pd  Pd27  1  0.998790  0.333737  0.333737  1
  Pd  Pd28  1  0.001210  0.666263  0.666263  1
  O  O29  1  0.500000  0.500000  0.500000  1
