# generated using pymatgen
data_Sr2BClO3
_symmetry_space_group_name_H-M   'P 1'
_cell_length_a   9.04365100
_cell_length_b   4.24306046
_cell_length_c   13.24911773
_cell_angle_alpha   80.82918759
_cell_angle_beta   90.00000000
_cell_angle_gamma   90.00000000
_symmetry_Int_Tables_number   1
_chemical_formula_structural   Sr2BClO3
_chemical_formula_sum   'Sr8 B4 Cl4 O12'
_cell_volume   501.90654180
_cell_formula_units_Z   4
loop_
 _symmetry_equiv_pos_site_id
 _symmetry_equiv_pos_as_xyz
  1  'x, y, z'
loop_
 _atom_site_type_symbol
 _atom_site_label
 _atom_site_symmetry_multiplicity
 _atom_site_fract_x
 _atom_site_fract_y
 _atom_site_fract_z
 _atom_site_occupancy
  Sr  Sr0  1  0.621924  0.679470  0.884278  1
  Sr  Sr1  1  0.378076  0.320530  0.115722  1
  Sr  Sr2  1  0.117191  0.714500  0.860445  1
  Sr  Sr3  1  0.878076  0.679470  0.384278  1
  Sr  Sr4  1  0.617191  0.285500  0.639555  1
  Sr  Sr5  1  0.382809  0.714500  0.360445  1
  Sr  Sr6  1  0.882809  0.285500  0.139555  1
  Sr  Sr7  1  0.121924  0.320530  0.615722  1
  B  B8  1  0.633156  0.709206  0.156125  1
  B  B9  1  0.866844  0.709206  0.656125  1
  B  B10  1  0.366844  0.290794  0.843875  1
  B  B11  1  0.133156  0.290794  0.343875  1
  Cl  Cl12  1  0.874572  0.198133  0.913437  1
  Cl  Cl13  1  0.125428  0.801867  0.086563  1
  Cl  Cl14  1  0.374572  0.801867  0.586563  1
  Cl  Cl15  1  0.625428  0.198133  0.413437  1
  O  O16  1  0.493990  0.797631  0.187052  1
  O  O17  1  0.993990  0.202369  0.312948  1
  O  O18  1  0.764534  0.770979  0.204192  1
  O  O19  1  0.639949  0.532428  0.075384  1
  O  O20  1  0.006010  0.797631  0.687052  1
  O  O21  1  0.735466  0.770979  0.704192  1
  O  O22  1  0.506010  0.202369  0.812948  1
  O  O23  1  0.264534  0.229021  0.295808  1
  O  O24  1  0.360051  0.467572  0.924616  1
  O  O25  1  0.139949  0.467572  0.424616  1
  O  O26  1  0.860051  0.532428  0.575384  1
  O  O27  1  0.235466  0.229021  0.795808  1
