# generated using pymatgen
data_Tb2Pa(InPt)3
_symmetry_space_group_name_H-M   'P 1'
_cell_length_a   7.67186700
_cell_length_b   7.62153802
_cell_length_c   3.95257100
_cell_angle_alpha   90.00000000
_cell_angle_beta   90.00000000
_cell_angle_gamma   120.21867984
_symmetry_Int_Tables_number   1
_chemical_formula_structural   Tb2Pa(InPt)3
_chemical_formula_sum   'Tb2 Pa1 In3 Pt3'
_cell_volume   199.70676558
_cell_formula_units_Z   1
loop_
 _symmetry_equiv_pos_site_id
 _symmetry_equiv_pos_as_xyz
  1  'x, y, z'
loop_
 _atom_site_type_symbol
 _atom_site_label
 _atom_site_symmetry_multiplicity
 _atom_site_fract_x
 _atom_site_fract_y
 _atom_site_fract_z
 _atom_site_occupancy
  Tb  Tb0  1  0.997981  0.404192  0.000000  1
  Tb  Tb1  1  0.593788  0.595808  0.000000  1
  Pa  Pa2  1  0.409783  0.000000  0.000000  1
  In  In3  1  0.256981  0.269450  0.500000  1
  In  In4  1  0.987531  0.730550  0.500000  1
  In  In5  1  0.754287  0.000000  0.500000  1
  Pt  Pt6  1  0.015793  0.000000  0.000000  1
  Pt  Pt7  1  0.647751  0.311646  0.500000  1
  Pt  Pt8  1  0.336104  0.688354  0.500000  1
