# generated using pymatgen
data_CeNp7FeSe17
_symmetry_space_group_name_H-M   'P 1'
_cell_length_a   8.20539919
_cell_length_b   8.20231979
_cell_length_c   10.85652400
_cell_angle_alpha   80.11097981
_cell_angle_beta   80.15889021
_cell_angle_gamma   64.98600724
_symmetry_Int_Tables_number   1
_chemical_formula_structural   CeNp7FeSe17
_chemical_formula_sum   'Ce1 Np7 Fe1 Se17'
_cell_volume   648.34125893
_cell_formula_units_Z   1
loop_
 _symmetry_equiv_pos_site_id
 _symmetry_equiv_pos_as_xyz
  1  'x, y, z'
loop_
 _atom_site_type_symbol
 _atom_site_label
 _atom_site_symmetry_multiplicity
 _atom_site_fract_x
 _atom_site_fract_y
 _atom_site_fract_z
 _atom_site_occupancy
  Ce  Ce0  1  0.180652  0.695309  0.701998  1
  Np  Np1  1  0.694591  0.179664  0.701000  1
  Np  Np2  1  0.819240  0.304710  0.300357  1
  Np  Np3  1  0.304414  0.821439  0.296826  1
  Np  Np4  1  0.795528  0.797062  0.453906  1
  Np  Np5  1  0.202013  0.207308  0.544965  1
  Np  Np6  1  0.322195  0.317916  0.017799  1
  Np  Np7  1  0.681173  0.675426  0.979590  1
  Fe  Fe8  1  0.001010  0.997872  0.999761  1
  Se  Se9  1  0.177851  0.567800  0.460488  1
  Se  Se10  1  0.566049  0.180255  0.463036  1
  Se  Se11  1  0.819859  0.434483  0.536327  1
  Se  Se12  1  0.431797  0.826387  0.533713  1
  Se  Se13  1  0.054151  0.675833  0.977932  1
  Se  Se14  1  0.679488  0.050389  0.972953  1
  Se  Se15  1  0.949978  0.319796  0.027683  1
  Se  Se16  1  0.323221  0.946721  0.028141  1
  Se  Se17  1  0.782432  0.787528  0.720808  1
  Se  Se18  1  0.212982  0.214367  0.279076  1
  Se  Se19  1  0.944938  0.948395  0.224700  1
  Se  Se20  1  0.050171  0.058787  0.776214  1
  Se  Se21  1  0.699604  0.702762  0.243044  1
  Se  Se22  1  0.301936  0.293299  0.759329  1
  Se  Se23  1  0.481808  0.478906  0.169706  1
  Se  Se24  1  0.524863  0.514857  0.831491  1
  Se  Se25  1  0.998058  0.002729  0.499159  1
