# generated using pymatgen
data_Th7Re2Ir
_symmetry_space_group_name_H-M   'P 1'
_cell_length_a   10.05838630
_cell_length_b   10.01374960
_cell_length_c   6.35662810
_cell_angle_alpha   89.99999613
_cell_angle_beta   89.64208981
_cell_angle_gamma   119.85330260
_symmetry_Int_Tables_number   1
_chemical_formula_structural   Th7Re2Ir
_chemical_formula_sum   'Th14 Re4 Ir2'
_cell_volume   555.27905923
_cell_formula_units_Z   2
loop_
 _symmetry_equiv_pos_site_id
 _symmetry_equiv_pos_as_xyz
  1  'x, y, z'
loop_
 _atom_site_type_symbol
 _atom_site_label
 _atom_site_symmetry_multiplicity
 _atom_site_fract_x
 _atom_site_fract_y
 _atom_site_fract_z
 _atom_site_occupancy
  Th  Th0  1  0.461354  0.539448  0.295912  1
  Th  Th1  1  0.074121  0.537061  0.292731  1
  Th  Th2  1  0.918682  0.459340  0.798019  1
  Th  Th3  1  0.257559  0.128780  0.504707  1
  Th  Th4  1  0.542851  0.079308  0.797951  1
  Th  Th5  1  0.751530  0.875765  0.005953  1
  Th  Th6  1  0.666226  0.333113  0.282186  1
  Th  Th7  1  0.125961  0.875275  0.004226  1
  Th  Th8  1  0.461354  0.921907  0.295912  1
  Th  Th9  1  0.542851  0.463542  0.797951  1
  Th  Th10  1  0.871236  0.123914  0.505684  1
  Th  Th11  1  0.125961  0.250686  0.004226  1
  Th  Th12  1  0.871236  0.747322  0.505684  1
  Th  Th13  1  0.334110  0.667055  0.790082  1
  Re  Re14  1  0.817228  0.630338  0.050683  1
  Re  Re15  1  0.817228  0.186891  0.050683  1
  Re  Re16  1  0.621329  0.810665  0.554956  1
  Re  Re17  1  0.369965  0.184983  0.046549  1
  Ir  Ir18  1  0.184608  0.375441  0.549953  1
  Ir  Ir19  1  0.184608  0.809167  0.549953  1
