# generated using pymatgen
data_Pr7ThPd24Au
_symmetry_space_group_name_H-M   'P 1'
_cell_length_a   8.57515931
_cell_length_b   8.57515952
_cell_length_c   8.57515900
_cell_angle_alpha   89.86930112
_cell_angle_beta   89.86930112
_cell_angle_gamma   89.86929731
_symmetry_Int_Tables_number   1
_chemical_formula_structural   Pr7ThPd24Au
_chemical_formula_sum   'Pr7 Th1 Pd24 Au1'
_cell_volume   630.55533094
_cell_formula_units_Z   1
loop_
 _symmetry_equiv_pos_site_id
 _symmetry_equiv_pos_as_xyz
  1  'x, y, z'
loop_
 _atom_site_type_symbol
 _atom_site_label
 _atom_site_symmetry_multiplicity
 _atom_site_fract_x
 _atom_site_fract_y
 _atom_site_fract_z
 _atom_site_occupancy
  Pr  Pr0  1  0.751664  0.751664  0.751664  1
  Pr  Pr1  1  0.751814  0.751814  0.247557  1
  Pr  Pr2  1  0.751814  0.247557  0.751814  1
  Pr  Pr3  1  0.248232  0.248232  0.753179  1
  Pr  Pr4  1  0.248232  0.753179  0.248232  1
  Pr  Pr5  1  0.247557  0.751814  0.751814  1
  Pr  Pr6  1  0.753179  0.248232  0.248232  1
  Th  Th7  1  0.249406  0.249406  0.249406  1
  Pd  Pd8  1  0.268433  0.498079  0.004295  1
  Pd  Pd9  1  0.731686  0.499369  0.999679  1
  Pd  Pd10  1  0.004295  0.268433  0.498079  1
  Pd  Pd11  1  0.498079  0.268433  0.004295  1
  Pd  Pd12  1  0.999679  0.731686  0.499369  1
  Pd  Pd13  1  0.499369  0.731686  0.999679  1
  Pd  Pd14  1  0.498079  0.004295  0.268433  1
  Pd  Pd15  1  0.268433  0.004295  0.498079  1
  Pd  Pd16  1  0.499369  0.999679  0.731686  1
  Pd  Pd17  1  0.731686  0.999679  0.499369  1
  Pd  Pd18  1  0.004295  0.498079  0.268433  1
  Pd  Pd19  1  0.999679  0.499369  0.731686  1
  Pd  Pd20  1  0.256535  0.497756  0.497756  1
  Pd  Pd21  1  0.744350  0.499603  0.499603  1
  Pd  Pd22  1  0.497756  0.256535  0.497756  1
  Pd  Pd23  1  0.499603  0.744350  0.499603  1
  Pd  Pd24  1  0.497756  0.497756  0.256535  1
  Pd  Pd25  1  0.499603  0.499603  0.744350  1
  Pd  Pd26  1  0.315539  0.002640  0.002640  1
  Pd  Pd27  1  0.681340  0.999436  0.999436  1
  Pd  Pd28  1  0.002640  0.315539  0.002640  1
  Pd  Pd29  1  0.999436  0.681340  0.999436  1
  Pd  Pd30  1  0.002640  0.002640  0.315539  1
  Pd  Pd31  1  0.999436  0.999436  0.681340  1
  Au  Au32  1  0.998387  0.998387  0.998387  1
