# generated using pymatgen
data_KAlGeSe4
_symmetry_space_group_name_H-M   'P 1'
_cell_length_a   17.04898000
_cell_length_b   7.32197847
_cell_length_c   7.62997229
_cell_angle_alpha   69.21450479
_cell_angle_beta   90.00000000
_cell_angle_gamma   90.00000000
_symmetry_Int_Tables_number   1
_chemical_formula_structural   KAlGeSe4
_chemical_formula_sum   'K4 Al4 Ge4 Se16'
_cell_volume   890.47594013
_cell_formula_units_Z   4
loop_
 _symmetry_equiv_pos_site_id
 _symmetry_equiv_pos_as_xyz
  1  'x, y, z'
loop_
 _atom_site_type_symbol
 _atom_site_label
 _atom_site_symmetry_multiplicity
 _atom_site_fract_x
 _atom_site_fract_y
 _atom_site_fract_z
 _atom_site_occupancy
  K  K0  1  0.395041  0.973278  0.181498  1
  K  K1  1  0.895041  0.026722  0.818502  1
  K  K2  1  0.604458  0.515465  0.814309  1
  K  K3  1  0.104458  0.484535  0.185691  1
  Al  Al4  1  0.582284  0.167334  0.475063  1
  Al  Al5  1  0.082284  0.832666  0.524937  1
  Al  Al6  1  0.273683  0.593992  0.712464  1
  Al  Al7  1  0.773683  0.406008  0.287536  1
  Ge  Ge8  1  0.420222  0.335351  0.531135  1
  Ge  Ge9  1  0.920222  0.664649  0.468865  1
  Ge  Ge10  1  0.723590  0.911953  0.271064  1
  Ge  Ge11  1  0.223590  0.088047  0.728936  1
  Se  Se12  1  0.591908  0.883055  0.383522  1
  Se  Se13  1  0.091908  0.116945  0.616478  1
  Se  Se14  1  0.411239  0.613639  0.623334  1
  Se  Se15  1  0.911239  0.386361  0.376666  1
  Se  Se16  1  0.799556  0.779155  0.556758  1
  Se  Se17  1  0.299556  0.220845  0.443242  1
  Se  Se18  1  0.201008  0.727503  0.431336  1
  Se  Se19  1  0.701008  0.272497  0.568664  1
  Se  Se20  1  0.763524  0.231323  0.071264  1
  Se  Se21  1  0.263524  0.768677  0.928736  1
  Se  Se22  1  0.239549  0.271088  0.930082  1
  Se  Se23  1  0.739549  0.728912  0.069918  1
  Se  Se24  1  0.997308  0.914099  0.248924  1
  Se  Se25  1  0.497308  0.085901  0.751076  1
  Se  Se26  1  0.996627  0.595896  0.748286  1
  Se  Se27  1  0.496627  0.404104  0.251714  1
