# generated using pymatgen
data_Sr14TiSb11
_symmetry_space_group_name_H-M   'P 1'
_cell_length_a   17.08800905
_cell_length_b   17.08800862
_cell_length_c   17.08800900
_cell_angle_alpha   117.77309881
_cell_angle_beta   117.77309805
_cell_angle_gamma   93.90242172
_symmetry_Int_Tables_number   1
_chemical_formula_structural   Sr14TiSb11
_chemical_formula_sum   'Sr56 Ti4 Sb44'
_cell_volume   3637.88176850
_cell_formula_units_Z   4
loop_
 _symmetry_equiv_pos_site_id
 _symmetry_equiv_pos_as_xyz
  1  'x, y, z'
loop_
 _atom_site_type_symbol
 _atom_site_label
 _atom_site_symmetry_multiplicity
 _atom_site_fract_x
 _atom_site_fract_y
 _atom_site_fract_z
 _atom_site_occupancy
  Sr  Sr0  1  0.350364  0.689343  0.975605  1
  Sr  Sr1  1  0.939343  0.100364  0.475605  1
  Sr  Sr2  1  0.775992  0.497047  0.366981  1
  Sr  Sr3  1  0.125000  0.519437  0.894437  1
  Sr  Sr4  1  0.625000  0.230563  0.105563  1
  Sr  Sr5  1  0.713738  0.374760  0.024395  1
  Sr  Sr6  1  0.002953  0.724008  0.633019  1
  Sr  Sr7  1  0.850364  0.874760  0.661021  1
  Sr  Sr8  1  0.124760  0.600364  0.161021  1
  Sr  Sr9  1  0.494543  0.143864  0.394940  1
  Sr  Sr10  1  0.893864  0.998925  0.149322  1
  Sr  Sr11  1  0.356136  0.005457  0.605060  1
  Sr  Sr12  1  0.974008  0.752953  0.133019  1
  Sr  Sr13  1  0.036262  0.875240  0.475605  1
  Sr  Sr14  1  0.536262  0.060657  0.161021  1
  Sr  Sr15  1  0.474008  0.340988  0.221054  1
  Sr  Sr16  1  0.400397  0.751075  0.394940  1
  Sr  Sr17  1  0.393864  0.244543  0.894940  1
  Sr  Sr18  1  0.899636  0.375240  0.838979  1
  Sr  Sr19  1  0.349603  0.498925  0.105060  1
  Sr  Sr20  1  0.480563  0.375000  0.605563  1
  Sr  Sr21  1  0.439343  0.963738  0.838979  1
  Sr  Sr22  1  0.630065  0.997047  0.721054  1
  Sr  Sr23  1  0.755457  0.650397  0.149322  1
  Sr  Sr24  1  0.310657  0.286262  0.661021  1
  Sr  Sr25  1  0.125240  0.786262  0.975605  1
  Sr  Sr26  1  0.247047  0.380065  0.221054  1
  Sr  Sr27  1  0.501075  0.606136  0.850678  1
  Sr  Sr28  1  0.810657  0.149636  0.024395  1
  Sr  Sr29  1  0.769437  0.875000  0.394437  1
  Sr  Sr30  1  0.659012  0.880065  0.133019  1
  Sr  Sr31  1  0.159012  0.025992  0.778946  1
  Sr  Sr32  1  0.994543  0.599603  0.350678  1
  Sr  Sr33  1  0.590988  0.224008  0.721054  1
  Sr  Sr34  1  0.849603  0.744543  0.850678  1
  Sr  Sr35  1  0.619935  0.840988  0.866981  1
  Sr  Sr36  1  0.624760  0.463738  0.524395  1
  Sr  Sr37  1  0.269437  0.875000  0.894437  1
  Sr  Sr38  1  0.275992  0.909012  0.278946  1
  Sr  Sr39  1  0.747047  0.525992  0.866981  1
  Sr  Sr40  1  0.900397  0.505457  0.649322  1
  Sr  Sr41  1  0.125000  0.019437  0.394437  1
  Sr  Sr42  1  0.248925  0.643864  0.649322  1
  Sr  Sr43  1  0.748925  0.099603  0.605060  1
  Sr  Sr44  1  0.980563  0.375000  0.105563  1
  Sr  Sr45  1  0.001075  0.150397  0.894940  1
  Sr  Sr46  1  0.213738  0.189343  0.338979  1
  Sr  Sr47  1  0.625000  0.730563  0.605563  1
  Sr  Sr48  1  0.856136  0.251075  0.350678  1
  Sr  Sr49  1  0.119935  0.252953  0.778946  1
  Sr  Sr50  1  0.502953  0.869935  0.278946  1
  Sr  Sr51  1  0.130065  0.409012  0.633019  1
  Sr  Sr52  1  0.625240  0.649636  0.338979  1
  Sr  Sr53  1  0.255457  0.106136  0.105060  1
  Sr  Sr54  1  0.090988  0.369935  0.366981  1
  Sr  Sr55  1  0.399636  0.560657  0.524395  1
  Ti  Ti56  1  0.500000  0.500000  0.000000  1
  Ti  Ti57  1  0.750000  0.250000  0.500000  1
  Ti  Ti58  1  0.250000  0.750000  0.500000  1
  Ti  Ti59  1  0.000000  0.000000  0.000000  1
  Sb  Sb60  1  0.896759  0.540950  0.093706  1
  Sb  Sb61  1  0.445695  0.807736  0.631146  1
  Sb  Sb62  1  0.853241  0.709050  0.406294  1
  Sb  Sb63  1  0.692264  0.054305  0.368854  1
  Sb  Sb64  1  0.553053  0.146759  0.855808  1
  Sb  Sb65  1  0.557736  0.426591  0.862042  1
  Sb  Sb66  1  0.882495  0.882495  0.264988  1
  Sb  Sb67  1  0.802756  0.209050  0.855808  1
  Sb  Sb68  1  0.500000  0.000000  0.500000  1
  Sb  Sb69  1  0.676591  0.307736  0.362042  1
  Sb  Sb70  1  0.073409  0.942264  0.137958  1
  Sb  Sb71  1  0.290950  0.697244  0.144192  1
  Sb  Sb72  1  0.573409  0.435451  0.131146  1
  Sb  Sb73  1  0.196947  0.103241  0.644192  1
  Sb  Sb74  1  0.750000  0.750000  0.000000  1
  Sb  Sb75  1  0.117505  0.382495  0.000000  1
  Sb  Sb76  1  0.064549  0.926591  0.868854  1
  Sb  Sb77  1  0.176591  0.814549  0.368854  1
  Sb  Sb78  1  0.804305  0.935451  0.862042  1
  Sb  Sb79  1  0.459050  0.552756  0.355808  1
  Sb  Sb80  1  0.192264  0.823409  0.637958  1
  Sb  Sb81  1  0.947244  0.040950  0.644192  1
  Sb  Sb82  1  0.250000  0.250000  0.000000  1
  Sb  Sb83  1  0.057736  0.195695  0.131146  1
  Sb  Sb84  1  0.132495  0.632495  0.764988  1
  Sb  Sb85  1  0.185451  0.554305  0.362042  1
  Sb  Sb86  1  0.959050  0.603241  0.906294  1
  Sb  Sb87  1  0.564549  0.695695  0.137958  1
  Sb  Sb88  1  0.302756  0.446947  0.593706  1
  Sb  Sb89  1  0.867505  0.367505  0.235012  1
  Sb  Sb90  1  0.617505  0.617505  0.735012  1
  Sb  Sb91  1  0.353241  0.946947  0.144192  1
  Sb  Sb92  1  0.367505  0.132495  0.500000  1
  Sb  Sb93  1  0.396759  0.303053  0.355808  1
  Sb  Sb94  1  0.304305  0.442264  0.868854  1
  Sb  Sb95  1  0.696947  0.052756  0.093706  1
  Sb  Sb96  1  0.447244  0.803053  0.906294  1
  Sb  Sb97  1  0.632495  0.867505  0.500000  1
  Sb  Sb98  1  0.000000  0.500000  0.500000  1
  Sb  Sb99  1  0.382495  0.117505  0.000000  1
  Sb  Sb100  1  0.945695  0.314549  0.637958  1
  Sb  Sb101  1  0.053053  0.197244  0.406294  1
  Sb  Sb102  1  0.685451  0.323409  0.631146  1
  Sb  Sb103  1  0.790950  0.646759  0.593706  1
