# generated using pymatgen
data_Ac5Tl3InPdAu
_symmetry_space_group_name_H-M   'P 1'
_cell_length_a   4.09965200
_cell_length_b   8.75317084
_cell_length_c   19.81514688
_cell_angle_alpha   89.97107894
_cell_angle_beta   90.00000000
_cell_angle_gamma   90.00000000
_symmetry_Int_Tables_number   1
_chemical_formula_structural   Ac5Tl3InPdAu
_chemical_formula_sum   'Ac10 Tl6 In2 Pd2 Au2'
_cell_volume   711.06555058
_cell_formula_units_Z   2
loop_
 _symmetry_equiv_pos_site_id
 _symmetry_equiv_pos_as_xyz
  1  'x, y, z'
loop_
 _atom_site_type_symbol
 _atom_site_label
 _atom_site_symmetry_multiplicity
 _atom_site_fract_x
 _atom_site_fract_y
 _atom_site_fract_z
 _atom_site_occupancy
  Ac  Ac0  1  0.000000  0.500000  0.500000  1
  Ac  Ac1  1  0.000000  0.000000  0.000000  1
  Ac  Ac2  1  0.000000  0.745971  0.283667  1
  Ac  Ac3  1  0.000000  0.254029  0.716333  1
  Ac  Ac4  1  0.000000  0.768677  0.782130  1
  Ac  Ac5  1  0.000000  0.231323  0.217870  1
  Ac  Ac6  1  0.000000  0.618380  0.083978  1
  Ac  Ac7  1  0.000000  0.381620  0.916022  1
  Ac  Ac8  1  0.000000  0.886678  0.586276  1
  Ac  Ac9  1  0.000000  0.113322  0.413724  1
  Tl  Tl10  1  0.500000  0.713985  0.931553  1
  Tl  Tl11  1  0.500000  0.286015  0.068447  1
  Tl  Tl12  1  0.500000  0.791309  0.432701  1
  Tl  Tl13  1  0.500000  0.208691  0.567299  1
  Tl  Tl14  1  0.500000  0.580516  0.646979  1
  Tl  Tl15  1  0.500000  0.419484  0.353021  1
  In  In16  1  0.500000  0.924517  0.150248  1
  In  In17  1  0.500000  0.075483  0.849752  1
  Pd  Pd18  1  0.500000  0.978965  0.699851  1
  Pd  Pd19  1  0.500000  0.021035  0.300149  1
  Au  Au20  1  0.500000  0.526736  0.199833  1
  Au  Au21  1  0.500000  0.473264  0.800167  1
