# generated using pymatgen
data_YNb5Fe2(BRu2)4
_symmetry_space_group_name_H-M   'P 1'
_cell_length_a   9.37786979
_cell_length_b   9.37786925
_cell_length_c   3.06528200
_cell_angle_alpha   90.00000000
_cell_angle_beta   90.00000000
_cell_angle_gamma   90.37970057
_symmetry_Int_Tables_number   1
_chemical_formula_structural   YNb5Fe2(BRu2)4
_chemical_formula_sum   'Y1 Nb5 Fe2 B4 Ru8'
_cell_volume   269.56857922
_cell_formula_units_Z   1
loop_
 _symmetry_equiv_pos_site_id
 _symmetry_equiv_pos_as_xyz
  1  'x, y, z'
loop_
 _atom_site_type_symbol
 _atom_site_label
 _atom_site_symmetry_multiplicity
 _atom_site_fract_x
 _atom_site_fract_y
 _atom_site_fract_z
 _atom_site_occupancy
  Y  Y0  1  0.825211  0.674789  0.000000  1
  Nb  Nb1  1  0.172230  0.327770  0.000000  1
  Nb  Nb2  1  0.327059  0.830205  0.000000  1
  Nb  Nb3  1  0.669795  0.172941  0.000000  1
  Nb  Nb4  1  0.501829  0.500071  0.000000  1
  Nb  Nb5  1  0.999929  0.998171  0.000000  1
  Fe  Fe6  1  0.495705  0.004295  0.500000  1
  Fe  Fe7  1  0.011521  0.488479  0.500000  1
  B  B8  1  0.609119  0.890881  0.000000  1
  B  B9  1  0.386301  0.113699  0.000000  1
  B  B10  1  0.117143  0.609403  0.000000  1
  B  B11  1  0.890597  0.382857  0.000000  1
  Ru  Ru12  1  0.554803  0.729805  0.500000  1
  Ru  Ru13  1  0.429780  0.278765  0.500000  1
  Ru  Ru14  1  0.079281  0.776933  0.500000  1
  Ru  Ru15  1  0.934566  0.219366  0.500000  1
  Ru  Ru16  1  0.280634  0.565434  0.500000  1
  Ru  Ru17  1  0.723067  0.420719  0.500000  1
  Ru  Ru18  1  0.221235  0.070220  0.500000  1
  Ru  Ru19  1  0.770195  0.945197  0.500000  1
