# generated using pymatgen
data_Sm2ZrPaRh4
_symmetry_space_group_name_H-M   'P 1'
_cell_length_a   4.41316900
_cell_length_b   5.53069723
_cell_length_c   6.99158438
_cell_angle_alpha   91.28283904
_cell_angle_beta   90.00000000
_cell_angle_gamma   90.00000000
_symmetry_Int_Tables_number   1
_chemical_formula_structural   Sm2ZrPaRh4
_chemical_formula_sum   'Sm2 Zr1 Pa1 Rh4'
_cell_volume   170.60713175
_cell_formula_units_Z   1
loop_
 _symmetry_equiv_pos_site_id
 _symmetry_equiv_pos_as_xyz
  1  'x, y, z'
loop_
 _atom_site_type_symbol
 _atom_site_label
 _atom_site_symmetry_multiplicity
 _atom_site_fract_x
 _atom_site_fract_y
 _atom_site_fract_z
 _atom_site_occupancy
  Sm  Sm0  1  0.750000  0.858530  0.821882  1
  Sm  Sm1  1  0.250000  0.350747  0.682900  1
  Zr  Zr2  1  0.250000  0.143096  0.176170  1
  Pa  Pa3  1  0.750000  0.640212  0.316557  1
  Rh  Rh4  1  0.750000  0.163214  0.416190  1
  Rh  Rh5  1  0.250000  0.833487  0.507850  1
  Rh  Rh6  1  0.250000  0.666468  0.081488  1
  Rh  Rh7  1  0.750000  0.344248  0.996961  1
