# generated using pymatgen
data_Dy3TmAl18ZnRuRh4
_symmetry_space_group_name_H-M   'P 1'
_cell_length_a   7.57789709
_cell_length_b   7.57957702
_cell_length_c   9.44747200
_cell_angle_alpha   89.97608259
_cell_angle_beta   90.00859675
_cell_angle_gamma   119.46999813
_symmetry_Int_Tables_number   1
_chemical_formula_structural   Dy3TmAl18ZnRuRh4
_chemical_formula_sum   'Dy3 Tm1 Al18 Zn1 Ru1 Rh4'
_cell_volume   472.42688878
_cell_formula_units_Z   1
loop_
 _symmetry_equiv_pos_site_id
 _symmetry_equiv_pos_as_xyz
  1  'x, y, z'
loop_
 _atom_site_type_symbol
 _atom_site_label
 _atom_site_symmetry_multiplicity
 _atom_site_fract_x
 _atom_site_fract_y
 _atom_site_fract_z
 _atom_site_occupancy
  Dy  Dy0  1  0.994937  0.675693  0.248245  1
  Dy  Dy1  1  0.005015  0.324173  0.751783  1
  Dy  Dy2  1  0.675447  0.994964  0.248213  1
  Tm  Tm3  1  0.324315  0.005126  0.751460  1
  Al  Al4  1  0.135641  0.136002  0.256689  1
  Al  Al5  1  0.864624  0.864831  0.743663  1
  Al  Al6  1  0.001212  0.345211  0.078945  1
  Al  Al7  1  0.996991  0.654072  0.920219  1
  Al  Al8  1  0.001177  0.664422  0.574698  1
  Al  Al9  1  0.336202  0.999583  0.426883  1
  Al  Al10  1  0.999902  0.336723  0.426409  1
  Al  Al11  1  0.662810  0.000265  0.574472  1
  Al  Al12  1  0.654221  0.998979  0.919988  1
  Al  Al13  1  0.346423  0.003675  0.078098  1
  Al  Al14  1  0.332686  0.332411  0.552229  1
  Al  Al15  1  0.667271  0.667368  0.449216  1
  Al  Al16  1  0.658138  0.656127  0.055828  1
  Al  Al17  1  0.343465  0.340921  0.942777  1
  Al  Al18  1  0.338426  0.551737  0.251298  1
  Al  Al19  1  0.660512  0.446651  0.749761  1
  Al  Al20  1  0.552495  0.338767  0.250086  1
  Al  Al21  1  0.448065  0.662008  0.748728  1
  Zn  Zn22  1  0.999768  0.000090  0.000025  1
  Ru  Ru23  1  0.671487  0.328163  0.999541  1
  Rh  Rh24  1  0.328360  0.672185  0.999667  1
  Rh  Rh25  1  0.328250  0.671799  0.500202  1
  Rh  Rh26  1  0.671927  0.328017  0.500340  1
  Rh  Rh27  1  0.000233  0.000038  0.500533  1
