# generated using pymatgen
data_SrLa2YbSi8
_symmetry_space_group_name_H-M   'P 1'
_cell_length_a   4.39272100
_cell_length_b   4.39272100
_cell_length_c   13.55817900
_cell_angle_alpha   90.00000000
_cell_angle_beta   90.00000000
_cell_angle_gamma   90.00000000
_symmetry_Int_Tables_number   1
_chemical_formula_structural   SrLa2YbSi8
_chemical_formula_sum   'Sr1 La2 Yb1 Si8'
_cell_volume   261.61859194
_cell_formula_units_Z   1
loop_
 _symmetry_equiv_pos_site_id
 _symmetry_equiv_pos_as_xyz
  1  'x, y, z'
loop_
 _atom_site_type_symbol
 _atom_site_label
 _atom_site_symmetry_multiplicity
 _atom_site_fract_x
 _atom_site_fract_y
 _atom_site_fract_z
 _atom_site_occupancy
  Sr  Sr0  1  0.500000  0.500000  0.000000  1
  La  La1  1  0.500000  0.000000  0.747480  1
  La  La2  1  0.000000  0.500000  0.252520  1
  Yb  Yb3  1  0.000000  0.000000  0.500000  1
  Si  Si4  1  0.000000  0.000000  0.912878  1
  Si  Si5  1  0.500000  0.500000  0.414913  1
  Si  Si6  1  0.000000  0.500000  0.831358  1
  Si  Si7  1  0.500000  0.000000  0.337716  1
  Si  Si8  1  0.000000  0.000000  0.087122  1
  Si  Si9  1  0.500000  0.500000  0.585087  1
  Si  Si10  1  0.500000  0.000000  0.168642  1
  Si  Si11  1  0.000000  0.500000  0.662284  1
