# generated using pymatgen
data_Lu6NpO12
_symmetry_space_group_name_H-M   'P 1'
_cell_length_a   6.42300601
_cell_length_b   6.42300553
_cell_length_c   6.42300485
_cell_angle_alpha   99.10886928
_cell_angle_beta   99.10886410
_cell_angle_gamma   99.10886322
_symmetry_Int_Tables_number   1
_chemical_formula_structural   Lu6NpO12
_chemical_formula_sum   'Lu6 Np1 O12'
_cell_volume   253.72928216
_cell_formula_units_Z   1
loop_
 _symmetry_equiv_pos_site_id
 _symmetry_equiv_pos_as_xyz
  1  'x, y, z'
loop_
 _atom_site_type_symbol
 _atom_site_label
 _atom_site_symmetry_multiplicity
 _atom_site_fract_x
 _atom_site_fract_y
 _atom_site_fract_z
 _atom_site_occupancy
  Lu  Lu0  1  0.390833  0.673531  0.854311  1
  Lu  Lu1  1  0.854311  0.390833  0.673531  1
  Lu  Lu2  1  0.673531  0.854311  0.390833  1
  Lu  Lu3  1  0.609167  0.326469  0.145689  1
  Lu  Lu4  1  0.145689  0.609167  0.326469  1
  Lu  Lu5  1  0.326469  0.145689  0.609167  1
  Np  Np6  1  0.000000  0.000000  0.000000  1
  O  O7  1  0.177988  0.423459  0.586046  1
  O  O8  1  0.586046  0.177988  0.423459  1
  O  O9  1  0.423459  0.586046  0.177987  1
  O  O10  1  0.822013  0.576541  0.413954  1
  O  O11  1  0.413954  0.822013  0.576541  1
  O  O12  1  0.576541  0.413954  0.822013  1
  O  O13  1  0.912934  0.048883  0.688416  1
  O  O14  1  0.951117  0.311584  0.087066  1
  O  O15  1  0.311584  0.087066  0.951117  1
  O  O16  1  0.087066  0.951117  0.311584  1
  O  O17  1  0.048883  0.688416  0.912934  1
  O  O18  1  0.688416  0.912934  0.048883  1
