# generated using pymatgen
data_Dy5Tm3As5P7Ir16
_symmetry_space_group_name_H-M   'P 1'
_cell_length_a   13.23968683
_cell_length_b   13.17028903
_cell_length_c   4.00814900
_cell_angle_alpha   90.00000000
_cell_angle_beta   90.00000000
_cell_angle_gamma   120.28229332
_symmetry_Int_Tables_number   1
_chemical_formula_structural   Dy5Tm3As5P7Ir16
_chemical_formula_sum   'Dy5 Tm3 As5 P7 Ir16'
_cell_volume   603.53864460
_cell_formula_units_Z   1
loop_
 _symmetry_equiv_pos_site_id
 _symmetry_equiv_pos_as_xyz
  1  'x, y, z'
loop_
 _atom_site_type_symbol
 _atom_site_label
 _atom_site_symmetry_multiplicity
 _atom_site_fract_x
 _atom_site_fract_y
 _atom_site_fract_z
 _atom_site_occupancy
  Dy  Dy0  1  0.327868  0.660684  0.500000  1
  Dy  Dy1  1  0.666879  0.333290  0.500000  1
  Dy  Dy2  1  0.001480  0.818641  0.000000  1
  Dy  Dy3  1  0.183346  0.183661  0.000000  1
  Dy  Dy4  1  0.816528  0.999291  0.000000  1
  Tm  Tm5  1  0.997020  0.442552  0.500000  1
  Tm  Tm6  1  0.559810  0.553000  0.500000  1
  Tm  Tm7  1  0.445961  0.005715  0.500000  1
  As  As8  1  0.999270  0.651291  0.500000  1
  As  As9  1  0.346710  0.349430  0.500000  1
  As  As10  1  0.651080  0.999569  0.500000  1
  As  As11  1  0.514249  0.685391  0.000000  1
  As  As12  1  0.313744  0.828391  0.000000  1
  P  P13  1  0.168147  0.477541  0.000000  1
  P  P14  1  0.481529  0.174955  0.000000  1
  P  P15  1  0.692733  0.517490  0.000000  1
  P  P16  1  0.825130  0.309130  0.000000  1
  P  P17  1  0.996328  0.174852  0.500000  1
  P  P18  1  0.826393  0.824554  0.500000  1
  P  P19  1  0.176105  0.001556  0.500000  1
  Ir  Ir20  1  0.521025  0.875677  0.000000  1
  Ir  Ir21  1  0.133893  0.633999  0.000000  1
  Ir  Ir22  1  0.347480  0.479695  0.000000  1
  Ir  Ir23  1  0.499111  0.361585  0.000000  1
  Ir  Ir24  1  0.863581  0.504678  0.000000  1
  Ir  Ir25  1  0.639722  0.140806  0.000000  1
  Ir  Ir26  1  0.998827  0.270033  0.000000  1
  Ir  Ir27  1  0.734147  0.728970  0.000000  1
  Ir  Ir28  1  0.271570  0.004865  0.000000  1
  Ir  Ir29  1  0.635845  0.805284  0.500000  1
  Ir  Ir30  1  0.192224  0.826733  0.500000  1
  Ir  Ir31  1  0.170741  0.373320  0.500000  1
  Ir  Ir32  1  0.374058  0.177692  0.500000  1
  Ir  Ir33  1  0.802261  0.625507  0.500000  1
  Ir  Ir34  1  0.824433  0.198226  0.500000  1
  Ir  Ir35  1  0.000771  0.001945  0.500000  1
