# generated using pymatgen
data_Na20TaNb(InAs6)2
_symmetry_space_group_name_H-M   'P 1'
_cell_length_a   7.58077803
_cell_length_b   8.51673407
_cell_length_c   16.09057736
_cell_angle_alpha   58.71558874
_cell_angle_beta   89.99626106
_cell_angle_gamma   90.00535183
_symmetry_Int_Tables_number   1
_chemical_formula_structural   Na20TaNb(InAs6)2
_chemical_formula_sum   'Na20 Ta1 Nb1 In2 As12'
_cell_volume   887.81290152
_cell_formula_units_Z   1
loop_
 _symmetry_equiv_pos_site_id
 _symmetry_equiv_pos_as_xyz
  1  'x, y, z'
loop_
 _atom_site_type_symbol
 _atom_site_label
 _atom_site_symmetry_multiplicity
 _atom_site_fract_x
 _atom_site_fract_y
 _atom_site_fract_z
 _atom_site_occupancy
  Na  Na0  1  0.738851  0.935095  0.244603  1
  Na  Na1  1  0.261004  0.935102  0.744517  1
  Na  Na2  1  0.771406  0.057775  0.758885  1
  Na  Na3  1  0.228541  0.057792  0.259062  1
  Na  Na4  1  0.261982  0.250293  0.419285  1
  Na  Na5  1  0.737892  0.250515  0.919210  1
  Na  Na6  1  0.212684  0.748836  0.581289  1
  Na  Na7  1  0.787516  0.748856  0.081388  1
  Na  Na8  1  0.092130  0.343358  0.584552  1
  Na  Na9  1  0.907806  0.343164  0.084598  1
  Na  Na10  1  0.405899  0.653874  0.418939  1
  Na  Na11  1  0.594077  0.653800  0.919059  1
  Na  Na12  1  0.596507  0.334758  0.243659  1
  Na  Na13  1  0.403473  0.334678  0.743717  1
  Na  Na14  1  0.900968  0.668148  0.758650  1
  Na  Na15  1  0.099125  0.668013  0.258697  1
  Na  Na16  1  0.773150  0.420405  0.409047  1
  Na  Na17  1  0.226919  0.420636  0.908944  1
  Na  Na18  1  0.740017  0.579989  0.588311  1
  Na  Na19  1  0.259834  0.579857  0.088359  1
  Ta  Ta20  1  0.390454  0.988453  0.079641  1
  Nb  Nb21  1  0.609322  0.988494  0.579555  1
  In  In22  1  0.890751  0.014718  0.413608  1
  In  In23  1  0.108857  0.014644  0.913343  1
  As  As24  1  0.989291  0.338851  0.262274  1
  As  As25  1  0.010651  0.338885  0.762265  1
  As  As26  1  0.515142  0.691392  0.725356  1
  As  As27  1  0.484864  0.692095  0.224907  1
  As  As28  1  0.942331  0.022458  0.580104  1
  As  As29  1  0.058641  0.022309  0.080152  1
  As  As30  1  0.524782  0.978892  0.430096  1
  As  As31  1  0.475163  0.979037  0.930592  1
  As  As32  1  0.006945  0.710247  0.421596  1
  As  As33  1  0.992990  0.710141  0.921613  1
  As  As34  1  0.487697  0.262623  0.580123  1
  As  As35  1  0.512338  0.261818  0.080001  1
