# generated using pymatgen
data_Eu2YGa8Ag3
_symmetry_space_group_name_H-M   'P 1'
_cell_length_a   4.44314494
_cell_length_b   8.52901409
_cell_length_c   8.52899117
_cell_angle_alpha   69.62662216
_cell_angle_beta   74.90185167
_cell_angle_gamma   74.90190044
_symmetry_Int_Tables_number   1
_chemical_formula_structural   Eu2YGa8Ag3
_chemical_formula_sum   'Eu2 Y1 Ga8 Ag3'
_cell_volume   287.34007149
_cell_formula_units_Z   1
loop_
 _symmetry_equiv_pos_site_id
 _symmetry_equiv_pos_as_xyz
  1  'x, y, z'
loop_
 _atom_site_type_symbol
 _atom_site_label
 _atom_site_symmetry_multiplicity
 _atom_site_fract_x
 _atom_site_fract_y
 _atom_site_fract_z
 _atom_site_occupancy
  Eu  Eu0  1  0.499170  0.500831  0.500830  1
  Eu  Eu1  1  0.799500  0.200499  0.200501  1
  Y  Y2  1  0.200805  0.799195  0.799195  1
  Ga  Ga3  1  0.643871  0.072388  0.639869  1
  Ga  Ga4  1  0.354597  0.924441  0.366366  1
  Ga  Ga5  1  0.643871  0.639870  0.072389  1
  Ga  Ga6  1  0.354597  0.366367  0.924439  1
  Ga  Ga7  1  0.838811  0.792413  0.529966  1
  Ga  Ga8  1  0.160931  0.204580  0.473560  1
  Ga  Ga9  1  0.838811  0.529967  0.792412  1
  Ga  Ga10  1  0.160931  0.473560  0.204577  1
  Ag  Ag11  1  0.502617  0.997383  0.997384  1
  Ag  Ag12  1  0.000746  0.804022  0.194487  1
  Ag  Ag13  1  0.000744  0.194487  0.804025  1
