# generated using pymatgen
data_SrNd(Cu2Pt3)2
_symmetry_space_group_name_H-M   'P 1'
_cell_length_a   4.15432800
_cell_length_b   5.41189300
_cell_length_c   9.44642300
_cell_angle_alpha   90.00000000
_cell_angle_beta   90.00000000
_cell_angle_gamma   90.00000000
_symmetry_Int_Tables_number   1
_chemical_formula_structural   SrNd(Cu2Pt3)2
_chemical_formula_sum   'Sr1 Nd1 Cu4 Pt6'
_cell_volume   212.38183709
_cell_formula_units_Z   1
loop_
 _symmetry_equiv_pos_site_id
 _symmetry_equiv_pos_as_xyz
  1  'x, y, z'
loop_
 _atom_site_type_symbol
 _atom_site_label
 _atom_site_symmetry_multiplicity
 _atom_site_fract_x
 _atom_site_fract_y
 _atom_site_fract_z
 _atom_site_occupancy
  Sr  Sr0  1  0.000000  0.000000  0.000000  1
  Nd  Nd1  1  0.000000  0.500000  0.500000  1
  Cu  Cu2  1  0.000000  0.000000  0.335254  1
  Cu  Cu3  1  0.000000  0.500000  0.831873  1
  Cu  Cu4  1  0.000000  0.500000  0.168127  1
  Cu  Cu5  1  0.000000  0.000000  0.664746  1
  Pt  Pt6  1  0.500000  0.500000  0.000000  1
  Pt  Pt7  1  0.500000  0.000000  0.500000  1
  Pt  Pt8  1  0.500000  0.253422  0.254782  1
  Pt  Pt9  1  0.500000  0.746578  0.745218  1
  Pt  Pt10  1  0.500000  0.746578  0.254782  1
  Pt  Pt11  1  0.500000  0.253422  0.745218  1
