# generated using pymatgen
data_La3ThB16
_symmetry_space_group_name_H-M   'P 1'
_cell_length_a   7.29137625
_cell_length_b   7.29136425
_cell_length_c   4.16597500
_cell_angle_alpha   90.00000000
_cell_angle_beta   90.00000000
_cell_angle_gamma   89.87634607
_symmetry_Int_Tables_number   1
_chemical_formula_structural   La3ThB16
_chemical_formula_sum   'La3 Th1 B16'
_cell_volume   221.47971260
_cell_formula_units_Z   1
loop_
 _symmetry_equiv_pos_site_id
 _symmetry_equiv_pos_as_xyz
  1  'x, y, z'
loop_
 _atom_site_type_symbol
 _atom_site_label
 _atom_site_symmetry_multiplicity
 _atom_site_fract_x
 _atom_site_fract_y
 _atom_site_fract_z
 _atom_site_occupancy
  La  La0  1  0.815520  0.315521  0.000000  1
  La  La1  1  0.315703  0.184108  0.000000  1
  La  La2  1  0.684107  0.815702  0.000000  1
  Th  Th3  1  0.185099  0.685099  0.000000  1
  B  B4  1  0.999985  0.999976  0.205493  1
  B  B5  1  0.499976  0.499985  0.794507  1
  B  B6  1  0.999985  0.999976  0.794507  1
  B  B7  1  0.499976  0.499985  0.205493  1
  B  B8  1  0.588651  0.088651  0.500000  1
  B  B9  1  0.089180  0.412417  0.500000  1
  B  B10  1  0.912417  0.589180  0.500000  1
  B  B11  1  0.410309  0.910309  0.500000  1
  B  B12  1  0.039422  0.173504  0.500000  1
  B  B13  1  0.174398  0.959793  0.500000  1
  B  B14  1  0.825774  0.038613  0.500000  1
  B  B15  1  0.962418  0.825169  0.500000  1
  B  B16  1  0.459794  0.674398  0.500000  1
  B  B17  1  0.538612  0.325774  0.500000  1
  B  B18  1  0.673503  0.539422  0.500000  1
  B  B19  1  0.325170  0.462417  0.500000  1
