# generated using pymatgen
data_Y16In4Pd3Ru
_symmetry_space_group_name_H-M   'P 1'
_cell_length_a   9.72579826
_cell_length_b   9.72579708
_cell_length_c   9.76442023
_cell_angle_alpha   60.13075747
_cell_angle_beta   60.13076190
_cell_angle_gamma   60.00000200
_symmetry_Int_Tables_number   1
_chemical_formula_structural   Y16In4Pd3Ru
_chemical_formula_sum   'Y16 In4 Pd3 Ru1'
_cell_volume   654.39122056
_cell_formula_units_Z   1
loop_
 _symmetry_equiv_pos_site_id
 _symmetry_equiv_pos_as_xyz
  1  'x, y, z'
loop_
 _atom_site_type_symbol
 _atom_site_label
 _atom_site_symmetry_multiplicity
 _atom_site_fract_x
 _atom_site_fract_y
 _atom_site_fract_z
 _atom_site_occupancy
  Y  Y0  1  0.437589  0.437589  0.060819  1
  Y  Y1  1  0.646440  0.646440  0.060681  1
  Y  Y2  1  0.183155  0.811277  0.194291  1
  Y  Y3  1  0.064003  0.437589  0.060819  1
  Y  Y4  1  0.189654  0.809835  0.810856  1
  Y  Y5  1  0.061294  0.441513  0.435900  1
  Y  Y6  1  0.811277  0.183155  0.194291  1
  Y  Y7  1  0.650857  0.650857  0.642956  1
  Y  Y8  1  0.809835  0.189654  0.810856  1
  Y  Y9  1  0.189654  0.189654  0.810856  1
  Y  Y10  1  0.055331  0.650857  0.642956  1
  Y  Y11  1  0.437589  0.064003  0.060819  1
  Y  Y12  1  0.061294  0.061294  0.435900  1
  Y  Y13  1  0.650857  0.055331  0.642956  1
  Y  Y14  1  0.811277  0.811277  0.194291  1
  Y  Y15  1  0.441513  0.061294  0.435900  1
  In  In16  1  0.416654  0.416654  0.416267  1
  In  In17  1  0.416019  0.416019  0.751942  1
  In  In18  1  0.416654  0.750426  0.416267  1
  In  In19  1  0.750426  0.416654  0.416267  1
  Pd  Pd20  1  0.432226  0.854928  0.857916  1
  Pd  Pd21  1  0.854928  0.854928  0.857916  1
  Pd  Pd22  1  0.854928  0.432226  0.857916  1
  Ru  Ru23  1  0.856547  0.856547  0.430357  1
