# generated using pymatgen
data_AlGa(SeBr7)2
_symmetry_space_group_name_H-M   'P 1'
_cell_length_a   6.90562779
_cell_length_b   7.22485947
_cell_length_c   15.26338357
_cell_angle_alpha   73.26131952
_cell_angle_beta   90.00055625
_cell_angle_gamma   89.90051603
_symmetry_Int_Tables_number   1
_chemical_formula_structural   AlGa(SeBr7)2
_chemical_formula_sum   'Al1 Ga1 Se2 Br14'
_cell_volume   729.25536818
_cell_formula_units_Z   1
loop_
 _symmetry_equiv_pos_site_id
 _symmetry_equiv_pos_as_xyz
  1  'x, y, z'
loop_
 _atom_site_type_symbol
 _atom_site_label
 _atom_site_symmetry_multiplicity
 _atom_site_fract_x
 _atom_site_fract_y
 _atom_site_fract_z
 _atom_site_occupancy
  Al  Al0  1  0.004898  0.696898  0.163170  1
  Ga  Ga1  1  0.998069  0.696103  0.663233  1
  Se  Se2  1  0.600994  0.000326  0.503565  1
  Se  Se3  1  0.398671  0.000964  0.004283  1
  Br  Br4  1  0.407318  0.904425  0.396192  1
  Br  Br5  1  0.401478  0.240406  0.535963  1
  Br  Br6  1  0.172935  0.207402  0.901680  1
  Br  Br7  1  0.824226  0.207820  0.400510  1
  Br  Br8  1  0.121397  0.999471  0.166577  1
  Br  Br9  1  0.596982  0.242089  0.035693  1
  Br  Br10  1  0.131336  0.650972  0.028079  1
  Br  Br11  1  0.868855  0.650813  0.525682  1
  Br  Br12  1  0.671470  0.672373  0.165976  1
  Br  Br13  1  0.336440  0.669546  0.667109  1
  Br  Br14  1  0.134485  0.463786  0.289385  1
  Br  Br15  1  0.864605  0.458160  0.790355  1
  Br  Br16  1  0.590616  0.906711  0.895737  1
  Br  Br17  1  0.875226  0.002330  0.666607  1
