# generated using pymatgen
data_Dy9Lu(Bi2Te)2
_symmetry_space_group_name_H-M   'P 1'
_cell_length_a   8.17213200
_cell_length_b   9.44303350
_cell_length_c   11.92691164
_cell_angle_alpha   90.03738350
_cell_angle_beta   90.00000000
_cell_angle_gamma   90.00000000
_symmetry_Int_Tables_number   1
_chemical_formula_structural   Dy9Lu(Bi2Te)2
_chemical_formula_sum   'Dy18 Lu2 Bi8 Te4'
_cell_volume   920.39619083
_cell_formula_units_Z   2
loop_
 _symmetry_equiv_pos_site_id
 _symmetry_equiv_pos_as_xyz
  1  'x, y, z'
loop_
 _atom_site_type_symbol
 _atom_site_label
 _atom_site_symmetry_multiplicity
 _atom_site_fract_x
 _atom_site_fract_y
 _atom_site_fract_z
 _atom_site_occupancy
  Dy  Dy0  1  0.353714  0.750412  0.213545  1
  Dy  Dy1  1  0.853714  0.749588  0.286455  1
  Dy  Dy2  1  0.646069  0.250143  0.786663  1
  Dy  Dy3  1  0.146069  0.249857  0.713337  1
  Dy  Dy4  1  0.310637  0.062334  0.942705  1
  Dy  Dy5  1  0.810637  0.437666  0.557295  1
  Dy  Dy6  1  0.310544  0.437972  0.942668  1
  Dy  Dy7  1  0.810544  0.062028  0.557332  1
  Dy  Dy8  1  0.689518  0.936919  0.057454  1
  Dy  Dy9  1  0.189518  0.563081  0.442546  1
  Dy  Dy10  1  0.476143  0.249853  0.488470  1
  Dy  Dy11  1  0.976143  0.250147  0.011530  1
  Dy  Dy12  1  0.522967  0.750529  0.511201  1
  Dy  Dy13  1  0.022967  0.749471  0.988799  1
  Dy  Dy14  1  0.319412  0.249895  0.217992  1
  Dy  Dy15  1  0.819412  0.250105  0.282008  1
  Dy  Dy16  1  0.680279  0.749633  0.782459  1
  Dy  Dy17  1  0.180279  0.750367  0.717541  1
  Lu  Lu18  1  0.689670  0.564246  0.057422  1
  Lu  Lu19  1  0.189670  0.935754  0.442578  1
  Bi  Bi20  1  0.568725  0.995735  0.325177  1
  Bi  Bi21  1  0.068725  0.504265  0.174823  1
  Bi  Bi22  1  0.431030  0.495787  0.674893  1
  Bi  Bi23  1  0.931030  0.004213  0.825107  1
  Bi  Bi24  1  0.431071  0.004433  0.674554  1
  Bi  Bi25  1  0.931071  0.495567  0.825446  1
  Bi  Bi26  1  0.569092  0.504311  0.325002  1
  Bi  Bi27  1  0.069092  0.995689  0.174998  1
  Te  Te28  1  0.406822  0.749544  0.957771  1
  Te  Te29  1  0.906822  0.750456  0.542229  1
  Te  Te30  1  0.594306  0.252373  0.042885  1
  Te  Te31  1  0.094306  0.247627  0.457115  1
