# generated using pymatgen
data_Ho4Tm6Si5Te
_symmetry_space_group_name_H-M   'P 1'
_cell_length_a   8.45180000
_cell_length_b   8.45179751
_cell_length_c   6.30102000
_cell_angle_alpha   90.00000000
_cell_angle_beta   90.00000000
_cell_angle_gamma   120.23469313
_symmetry_Int_Tables_number   1
_chemical_formula_structural   Ho4Tm6Si5Te
_chemical_formula_sum   'Ho4 Tm6 Si5 Te1'
_cell_volume   388.87304952
_cell_formula_units_Z   1
loop_
 _symmetry_equiv_pos_site_id
 _symmetry_equiv_pos_as_xyz
  1  'x, y, z'
loop_
 _atom_site_type_symbol
 _atom_site_label
 _atom_site_symmetry_multiplicity
 _atom_site_fract_x
 _atom_site_fract_y
 _atom_site_fract_z
 _atom_site_occupancy
  Ho  Ho0  1  0.765438  0.765438  0.250000  1
  Ho  Ho1  1  0.241724  0.241724  0.750000  1
  Ho  Ho2  1  0.754628  0.999858  0.750000  1
  Ho  Ho3  1  0.999858  0.754628  0.750000  1
  Tm  Tm4  1  0.675809  0.330790  0.503166  1
  Tm  Tm5  1  0.330790  0.675809  0.503166  1
  Tm  Tm6  1  0.330790  0.675809  0.996834  1
  Tm  Tm7  1  0.675809  0.330790  0.996834  1
  Tm  Tm8  1  0.240801  0.985442  0.250000  1
  Tm  Tm9  1  0.985442  0.240801  0.250000  1
  Si  Si10  1  0.603737  0.999932  0.250000  1
  Si  Si11  1  0.999932  0.603737  0.250000  1
  Si  Si12  1  0.605612  0.605612  0.750000  1
  Si  Si13  1  0.394882  0.002947  0.750000  1
  Si  Si14  1  0.002947  0.394882  0.750000  1
  Te  Te15  1  0.391803  0.391803  0.250000  1
