# generated using pymatgen
data_Hf6CuRe2Ir3
_symmetry_space_group_name_H-M   'P 1'
_cell_length_a   4.63893200
_cell_length_b   6.48572900
_cell_length_c   13.95365100
_cell_angle_alpha   90.00000000
_cell_angle_beta   89.99931336
_cell_angle_gamma   90.00000000
_symmetry_Int_Tables_number   1
_chemical_formula_structural   Hf6CuRe2Ir3
_chemical_formula_sum   'Hf12 Cu2 Re4 Ir6'
_cell_volume   419.82148553
_cell_formula_units_Z   2
loop_
 _symmetry_equiv_pos_site_id
 _symmetry_equiv_pos_as_xyz
  1  'x, y, z'
loop_
 _atom_site_type_symbol
 _atom_site_label
 _atom_site_symmetry_multiplicity
 _atom_site_fract_x
 _atom_site_fract_y
 _atom_site_fract_z
 _atom_site_occupancy
  Hf  Hf0  1  0.499967  0.248958  0.000860  1
  Hf  Hf1  1  0.499967  0.751042  0.000860  1
  Hf  Hf2  1  0.999875  0.250751  0.166970  1
  Hf  Hf3  1  0.999875  0.749249  0.166970  1
  Hf  Hf4  1  0.499895  0.249254  0.332977  1
  Hf  Hf5  1  0.499895  0.750746  0.332977  1
  Hf  Hf6  1  0.999999  0.251050  0.499123  1
  Hf  Hf7  1  0.999999  0.748950  0.499123  1
  Hf  Hf8  1  0.500127  0.249939  0.665824  1
  Hf  Hf9  1  0.500127  0.750061  0.665824  1
  Hf  Hf10  1  0.000111  0.250042  0.834204  1
  Hf  Hf11  1  0.000111  0.749958  0.834204  1
  Cu  Cu12  1  0.000140  0.500000  0.667258  1
  Cu  Cu13  1  0.500402  0.000000  0.832964  1
  Re  Re14  1  0.999981  0.500000  0.998785  1
  Re  Re15  1  0.499887  0.000000  0.166412  1
  Re  Re16  1  0.999903  0.500000  0.333527  1
  Re  Re17  1  0.499983  0.000000  0.501198  1
  Ir  Ir18  1  0.999955  0.000000  0.000050  1
  Ir  Ir19  1  0.499859  0.500000  0.166487  1
  Ir  Ir20  1  0.999861  0.000000  0.333449  1
  Ir  Ir21  1  0.499910  0.500000  0.499920  1
  Ir  Ir22  1  0.000075  0.000000  0.666301  1
  Ir  Ir23  1  0.500100  0.500000  0.833733  1
