# generated using pymatgen
data_TaNb4In(B2Ru5)2
_symmetry_space_group_name_H-M   'P 1'
_cell_length_a   9.48465500
_cell_length_b   9.48465500
_cell_length_c   3.03053200
_cell_angle_alpha   90.00000000
_cell_angle_beta   90.00000000
_cell_angle_gamma   90.00000000
_symmetry_Int_Tables_number   1
_chemical_formula_structural   TaNb4In(B2Ru5)2
_chemical_formula_sum   'Ta1 Nb4 In1 B4 Ru10'
_cell_volume   272.62265984
_cell_formula_units_Z   1
loop_
 _symmetry_equiv_pos_site_id
 _symmetry_equiv_pos_as_xyz
  1  'x, y, z'
loop_
 _atom_site_type_symbol
 _atom_site_label
 _atom_site_symmetry_multiplicity
 _atom_site_fract_x
 _atom_site_fract_y
 _atom_site_fract_z
 _atom_site_occupancy
  Ta  Ta0  1  0.000000  0.000000  0.000000  1
  Nb  Nb1  1  0.822467  0.676344  0.000000  1
  Nb  Nb2  1  0.177533  0.323656  0.000000  1
  Nb  Nb3  1  0.323656  0.822467  0.000000  1
  Nb  Nb4  1  0.676344  0.177533  0.000000  1
  In  In5  1  0.500000  0.500000  0.000000  1
  B  B6  1  0.619165  0.876056  0.000000  1
  B  B7  1  0.380835  0.123944  0.000000  1
  B  B8  1  0.123944  0.619165  0.000000  1
  B  B9  1  0.876056  0.380835  0.000000  1
  Ru  Ru10  1  0.574779  0.723547  0.500000  1
  Ru  Ru11  1  0.425221  0.276453  0.500000  1
  Ru  Ru12  1  0.067976  0.781443  0.500000  1
  Ru  Ru13  1  0.932024  0.218557  0.500000  1
  Ru  Ru14  1  0.276453  0.574779  0.500000  1
  Ru  Ru15  1  0.723547  0.425221  0.500000  1
  Ru  Ru16  1  0.218557  0.067976  0.500000  1
  Ru  Ru17  1  0.781443  0.932024  0.500000  1
  Ru  Ru18  1  0.500000  0.000000  0.500000  1
  Ru  Ru19  1  0.000000  0.500000  0.500000  1
