# generated using pymatgen
data_Sr4GeAs3Au4
_symmetry_space_group_name_H-M   'P 1'
_cell_length_a   8.83676802
_cell_length_b   4.48991100
_cell_length_c   7.81242002
_cell_angle_alpha   90.00000000
_cell_angle_beta   89.99219585
_cell_angle_gamma   90.00000000
_symmetry_Int_Tables_number   1
_chemical_formula_structural   Sr4GeAs3Au4
_chemical_formula_sum   'Sr4 Ge1 As3 Au4'
_cell_volume   309.96793265
_cell_formula_units_Z   1
loop_
 _symmetry_equiv_pos_site_id
 _symmetry_equiv_pos_as_xyz
  1  'x, y, z'
loop_
 _atom_site_type_symbol
 _atom_site_label
 _atom_site_symmetry_multiplicity
 _atom_site_fract_x
 _atom_site_fract_y
 _atom_site_fract_z
 _atom_site_occupancy
  Sr  Sr0  1  0.497961  0.750000  0.249307  1
  Sr  Sr1  1  0.001434  0.750000  0.250853  1
  Sr  Sr2  1  0.000850  0.250000  0.749387  1
  Sr  Sr3  1  0.499706  0.250000  0.750798  1
  Ge  Ge4  1  0.750451  0.250000  0.081652  1
  As  As5  1  0.250374  0.250000  0.417126  1
  As  As6  1  0.749617  0.750000  0.583418  1
  As  As7  1  0.249691  0.750000  0.915522  1
  Au  Au8  1  0.249137  0.250000  0.083940  1
  Au  Au9  1  0.749224  0.250000  0.410904  1
  Au  Au10  1  0.250774  0.750000  0.584390  1
  Au  Au11  1  0.750785  0.750000  0.922707  1
