# generated using pymatgen
data_Pr8Te(OsO8)3
_symmetry_space_group_name_H-M   'P 1'
_cell_length_a   5.48542043
_cell_length_b   9.44212324
_cell_length_c   10.30323536
_cell_angle_alpha   89.75044132
_cell_angle_beta   89.79375236
_cell_angle_gamma   90.05210454
_symmetry_Int_Tables_number   1
_chemical_formula_structural   Pr8Te(OsO8)3
_chemical_formula_sum   'Pr8 Te1 Os3 O24'
_cell_volume   533.63718639
_cell_formula_units_Z   1
loop_
 _symmetry_equiv_pos_site_id
 _symmetry_equiv_pos_as_xyz
  1  'x, y, z'
loop_
 _atom_site_type_symbol
 _atom_site_label
 _atom_site_symmetry_multiplicity
 _atom_site_fract_x
 _atom_site_fract_y
 _atom_site_fract_z
 _atom_site_occupancy
  Pr  Pr0  1  0.031528  0.215434  0.132597  1
  Pr  Pr1  1  0.468044  0.784048  0.635908  1
  Pr  Pr2  1  0.964266  0.718821  0.365126  1
  Pr  Pr3  1  0.531760  0.284864  0.866190  1
  Pr  Pr4  1  0.026546  0.100999  0.537299  1
  Pr  Pr5  1  0.474469  0.898318  0.038769  1
  Pr  Pr6  1  0.976622  0.603576  0.963740  1
  Pr  Pr7  1  0.525327  0.394949  0.458345  1
  Te  Te8  1  0.042071  0.494833  0.644674  1
  Os  Os9  1  0.543006  0.002844  0.355328  1
  Os  Os10  1  0.957412  0.998076  0.854779  1
  Os  Os11  1  0.457155  0.502806  0.144315  1
  O  O12  1  0.432176  0.148565  0.476082  1
  O  O13  1  0.067742  0.851428  0.977007  1
  O  O14  1  0.567189  0.649973  0.023467  1
  O  O15  1  0.930257  0.350215  0.523383  1
  O  O16  1  0.721034  0.390453  0.068147  1
  O  O17  1  0.778376  0.610377  0.566928  1
  O  O18  1  0.281093  0.887615  0.433464  1
  O  O19  1  0.219476  0.109088  0.932970  1
  O  O20  1  0.247969  0.410162  0.007984  1
  O  O21  1  0.248967  0.586348  0.508719  1
  O  O22  1  0.753589  0.910455  0.491541  1
  O  O23  1  0.745652  0.090426  0.991683  1
  O  O24  1  0.196017  0.634863  0.179213  1
  O  O25  1  0.309076  0.362026  0.676661  1
  O  O26  1  0.805979  0.136282  0.321935  1
  O  O27  1  0.694221  0.867150  0.823935  1
  O  O28  1  0.332551  0.055113  0.215067  1
  O  O29  1  0.171588  0.949220  0.714440  1
  O  O30  1  0.665544  0.555658  0.284980  1
  O  O31  1  0.835011  0.444667  0.789062  1
  O  O32  1  0.318636  0.363152  0.256009  1
  O  O33  1  0.177802  0.637268  0.757595  1
  O  O34  1  0.681797  0.865083  0.241294  1
  O  O35  1  0.820051  0.134842  0.741363  1
