# generated using pymatgen
data_Yb4ZnAg4Ge3
_symmetry_space_group_name_H-M   'P 1'
_cell_length_a   5.76200873
_cell_length_b   5.76200722
_cell_length_c   10.55752600
_cell_angle_alpha   83.62973512
_cell_angle_beta   83.62973679
_cell_angle_gamma   46.95533888
_symmetry_Int_Tables_number   1
_chemical_formula_structural   Yb4ZnAg4Ge3
_chemical_formula_sum   'Yb4 Zn1 Ag4 Ge3'
_cell_volume   254.28479306
_cell_formula_units_Z   1
loop_
 _symmetry_equiv_pos_site_id
 _symmetry_equiv_pos_as_xyz
  1  'x, y, z'
loop_
 _atom_site_type_symbol
 _atom_site_label
 _atom_site_symmetry_multiplicity
 _atom_site_fract_x
 _atom_site_fract_y
 _atom_site_fract_z
 _atom_site_occupancy
  Yb  Yb0  1  0.682650  0.682650  0.682050  1
  Yb  Yb1  1  0.183928  0.183928  0.182156  1
  Yb  Yb2  1  0.399995  0.399995  0.900973  1
  Yb  Yb3  1  0.897955  0.897955  0.396236  1
  Zn  Zn4  1  0.680687  0.680687  0.988258  1
  Ag  Ag5  1  0.385139  0.385139  0.606673  1
  Ag  Ag6  1  0.891333  0.891333  0.105207  1
  Ag  Ag7  1  0.108303  0.108303  0.886007  1
  Ag  Ag8  1  0.605864  0.605864  0.388326  1
  Ge  Ge9  1  0.175141  0.175141  0.486962  1
  Ge  Ge10  1  0.985003  0.985003  0.676331  1
  Ge  Ge11  1  0.485203  0.485203  0.182018  1
