# generated using pymatgen
data_Tb2ScSiAg3Ge2
_symmetry_space_group_name_H-M   'P 1'
_cell_length_a   7.04568712
_cell_length_b   7.11705302
_cell_length_c   4.19713400
_cell_angle_alpha   90.00000000
_cell_angle_beta   90.00000000
_cell_angle_gamma   120.41891516
_symmetry_Int_Tables_number   1
_chemical_formula_structural   Tb2ScSiAg3Ge2
_chemical_formula_sum   'Tb2 Sc1 Si1 Ag3 Ge2'
_cell_volume   181.49230957
_cell_formula_units_Z   1
loop_
 _symmetry_equiv_pos_site_id
 _symmetry_equiv_pos_as_xyz
  1  'x, y, z'
loop_
 _atom_site_type_symbol
 _atom_site_label
 _atom_site_symmetry_multiplicity
 _atom_site_fract_x
 _atom_site_fract_y
 _atom_site_fract_z
 _atom_site_occupancy
  Tb  Tb0  1  0.417262  0.421024  0.000000  1
  Tb  Tb1  1  0.581552  0.001399  0.000000  1
  Sc  Sc2  1  0.001909  0.584243  0.000000  1
  Si  Si3  1  0.321727  0.663436  0.500000  1
  Ag  Ag4  1  0.741252  0.749559  0.500000  1
  Ag  Ag5  1  0.250964  0.993171  0.500000  1
  Ag  Ag6  1  0.006674  0.256585  0.500000  1
  Ge  Ge7  1  0.678719  0.342141  0.500000  1
  Ge  Ge8  1  0.999942  0.988442  0.000000  1
