# generated using pymatgen
data_SmTm3(Si5Os3)2
_symmetry_space_group_name_H-M   'P 1'
_cell_length_a   8.12133071
_cell_length_b   8.14204977
_cell_length_c   5.78451308
_cell_angle_alpha   70.59661193
_cell_angle_beta   70.52008267
_cell_angle_gamma   94.08210068
_symmetry_Int_Tables_number   1
_chemical_formula_structural   SmTm3(Si5Os3)2
_chemical_formula_sum   'Sm1 Tm3 Si10 Os6'
_cell_volume   332.92274800
_cell_formula_units_Z   1
loop_
 _symmetry_equiv_pos_site_id
 _symmetry_equiv_pos_as_xyz
  1  'x, y, z'
loop_
 _atom_site_type_symbol
 _atom_site_label
 _atom_site_symmetry_multiplicity
 _atom_site_fract_x
 _atom_site_fract_y
 _atom_site_fract_z
 _atom_site_occupancy
  Sm  Sm0  1  0.599809  0.868789  0.255168  1
  Tm  Tm1  1  0.869131  0.602424  0.751832  1
  Tm  Tm2  1  0.399775  0.131683  0.744890  1
  Tm  Tm3  1  0.131280  0.397249  0.247738  1
  Si  Si4  1  0.068116  0.259222  0.834680  1
  Si  Si5  1  0.737009  0.931778  0.667540  1
  Si  Si6  1  0.933791  0.739176  0.164428  1
  Si  Si7  1  0.263743  0.069281  0.331410  1
  Si  Si8  1  0.208045  0.795377  0.743093  1
  Si  Si9  1  0.794006  0.206592  0.254588  1
  Si  Si10  1  0.512726  0.487524  0.748770  1
  Si  Si11  1  0.485297  0.510042  0.253973  1
  Si  Si12  1  0.774681  0.226275  0.746364  1
  Si  Si13  1  0.223279  0.774736  0.253372  1
  Os  Os14  1  0.252229  0.540763  0.634719  1
  Os  Os15  1  0.452528  0.742622  0.873553  1
  Os  Os16  1  0.746308  0.457994  0.366205  1
  Os  Os17  1  0.546418  0.258628  0.128537  1
  Os  Os18  1  0.003270  0.997407  0.749020  1
  Os  Os19  1  0.998562  0.002437  0.250119  1
