# generated using pymatgen
data_Y7Tm(Tc3Ge4)4
_symmetry_space_group_name_H-M   'P 1'
_cell_length_a   6.96925913
_cell_length_b   6.96884708
_cell_length_c   13.06820700
_cell_angle_alpha   90.00299270
_cell_angle_beta   89.98895069
_cell_angle_gamma   90.00828805
_symmetry_Int_Tables_number   1
_chemical_formula_structural   Y7Tm(Tc3Ge4)4
_chemical_formula_sum   'Y7 Tm1 Tc12 Ge16'
_cell_volume   634.69275286
_cell_formula_units_Z   1
loop_
 _symmetry_equiv_pos_site_id
 _symmetry_equiv_pos_as_xyz
  1  'x, y, z'
loop_
 _atom_site_type_symbol
 _atom_site_label
 _atom_site_symmetry_multiplicity
 _atom_site_fract_x
 _atom_site_fract_y
 _atom_site_fract_z
 _atom_site_occupancy
  Y  Y0  1  0.007026  0.660433  0.028415  1
  Y  Y1  1  0.993171  0.339522  0.528245  1
  Y  Y2  1  0.660192  0.007280  0.971553  1
  Y  Y3  1  0.160071  0.492779  0.778199  1
  Y  Y4  1  0.839650  0.507074  0.278801  1
  Y  Y5  1  0.492712  0.160059  0.221847  1
  Y  Y6  1  0.506861  0.839716  0.721374  1
  Tm  Tm7  1  0.340867  0.992271  0.472115  1
  Tc  Tc8  1  0.312920  0.479692  0.377537  1
  Tc  Tc9  1  0.812292  0.019368  0.372347  1
  Tc  Tc10  1  0.980578  0.188006  0.128099  1
  Tc  Tc11  1  0.019614  0.813234  0.626841  1
  Tc  Tc12  1  0.479220  0.310565  0.621146  1
  Tc  Tc13  1  0.188439  0.980735  0.872076  1
  Tc  Tc14  1  0.661947  0.663972  0.499800  1
  Tc  Tc15  1  0.836789  0.162935  0.749756  1
  Tc  Tc16  1  0.163274  0.837373  0.250892  1
  Tc  Tc17  1  0.337001  0.337089  0.999972  1
  Tc  Tc18  1  0.518602  0.687564  0.123034  1
  Tc  Tc19  1  0.688664  0.519691  0.877822  1
  Ge  Ge20  1  0.018759  0.726802  0.434822  1
  Ge  Ge21  1  0.982964  0.273645  0.935113  1
  Ge  Ge22  1  0.724509  0.017363  0.564695  1
  Ge  Ge23  1  0.225512  0.482408  0.185105  1
  Ge  Ge24  1  0.773101  0.516978  0.684795  1
  Ge  Ge25  1  0.482997  0.226638  0.814629  1
  Ge  Ge26  1  0.516822  0.775326  0.316096  1
  Ge  Ge27  1  0.273713  0.982795  0.065062  1
  Ge  Ge28  1  0.811077  0.887469  0.183231  1
  Ge  Ge29  1  0.311368  0.613487  0.566441  1
  Ge  Ge30  1  0.688817  0.387706  0.067207  1
  Ge  Ge31  1  0.612075  0.309908  0.432950  1
  Ge  Ge32  1  0.387902  0.688800  0.933027  1
  Ge  Ge33  1  0.113552  0.187796  0.317912  1
  Ge  Ge34  1  0.189102  0.112191  0.682336  1
  Ge  Ge35  1  0.887838  0.811328  0.816709  1
