# generated using pymatgen
data_Tb7ErGaPd24
_symmetry_space_group_name_H-M   'P 1'
_cell_length_a   8.36659303
_cell_length_b   8.36659303
_cell_length_c   8.36659303
_cell_angle_alpha   89.99302836
_cell_angle_beta   89.99302836
_cell_angle_gamma   89.99302836
_symmetry_Int_Tables_number   1
_chemical_formula_structural   Tb7ErGaPd24
_chemical_formula_sum   'Tb7 Er1 Ga1 Pd24'
_cell_volume   585.66048635
_cell_formula_units_Z   1
loop_
 _symmetry_equiv_pos_site_id
 _symmetry_equiv_pos_as_xyz
  1  'x, y, z'
loop_
 _atom_site_type_symbol
 _atom_site_label
 _atom_site_symmetry_multiplicity
 _atom_site_fract_x
 _atom_site_fract_y
 _atom_site_fract_z
 _atom_site_occupancy
  Tb  Tb0  1  0.251463  0.251463  0.748560  1
  Tb  Tb1  1  0.251463  0.748560  0.251463  1
  Tb  Tb2  1  0.748560  0.251463  0.251463  1
  Tb  Tb3  1  0.748542  0.748542  0.748542  1
  Tb  Tb4  1  0.748530  0.748530  0.251459  1
  Tb  Tb5  1  0.748530  0.251459  0.748530  1
  Tb  Tb6  1  0.251459  0.748530  0.748530  1
  Er  Er7  1  0.251388  0.251388  0.251388  1
  Ga  Ga8  1  0.000055  0.000055  0.000055  1
  Pd  Pd9  1  0.499982  0.499982  0.747014  1
  Pd  Pd10  1  0.499537  0.252986  0.499537  1
  Pd  Pd11  1  0.252986  0.499537  0.499537  1
  Pd  Pd12  1  0.499537  0.499537  0.252986  1
  Pd  Pd13  1  0.499982  0.747014  0.499982  1
  Pd  Pd14  1  0.747014  0.499982  0.499982  1
  Pd  Pd15  1  0.000004  0.000004  0.708016  1
  Pd  Pd16  1  0.000419  0.291921  0.000419  1
  Pd  Pd17  1  0.291921  0.000419  0.000419  1
  Pd  Pd18  1  0.000419  0.000419  0.291921  1
  Pd  Pd19  1  0.000004  0.708016  0.000004  1
  Pd  Pd20  1  0.708016  0.000004  0.000004  1
  Pd  Pd21  1  0.000015  0.499992  0.739801  1
  Pd  Pd22  1  0.499575  0.260241  0.000471  1
  Pd  Pd23  1  0.260241  0.000471  0.499575  1
  Pd  Pd24  1  0.000471  0.260241  0.499575  1
  Pd  Pd25  1  0.499992  0.000015  0.739801  1
  Pd  Pd26  1  0.260241  0.499575  0.000471  1
  Pd  Pd27  1  0.000471  0.499575  0.260241  1
  Pd  Pd28  1  0.499992  0.739801  0.000015  1
  Pd  Pd29  1  0.000015  0.739801  0.499992  1
  Pd  Pd30  1  0.499575  0.000471  0.260241  1
  Pd  Pd31  1  0.739801  0.000015  0.499992  1
  Pd  Pd32  1  0.739801  0.499992  0.000015  1
