# generated using pymatgen
data_Dy6Tm4(TlSb)3
_symmetry_space_group_name_H-M   'P 1'
_cell_length_a   6.47579200
_cell_length_b   8.93974050
_cell_length_c   8.93974000
_cell_angle_alpha   59.99846990
_cell_angle_beta   90.00016811
_cell_angle_gamma   89.99982769
_symmetry_Int_Tables_number   1
_chemical_formula_structural   Dy6Tm4(TlSb)3
_chemical_formula_sum   'Dy6 Tm4 Tl3 Sb3'
_cell_volume   448.19460715
_cell_formula_units_Z   1
loop_
 _symmetry_equiv_pos_site_id
 _symmetry_equiv_pos_as_xyz
  1  'x, y, z'
loop_
 _atom_site_type_symbol
 _atom_site_label
 _atom_site_symmetry_multiplicity
 _atom_site_fract_x
 _atom_site_fract_y
 _atom_site_fract_z
 _atom_site_occupancy
  Dy  Dy0  1  0.749985  0.238882  0.761118  1
  Dy  Dy1  1  0.750019  0.761150  0.000054  1
  Dy  Dy2  1  0.750019  0.999946  0.238850  1
  Dy  Dy3  1  0.250029  0.761380  0.238620  1
  Dy  Dy4  1  0.249996  0.238674  0.999981  1
  Dy  Dy5  1  0.249996  0.000019  0.761326  1
  Tm  Tm6  1  0.501828  0.333320  0.333279  1
  Tm  Tm7  1  0.501828  0.666721  0.666680  1
  Tm  Tm8  1  0.998156  0.666657  0.666648  1
  Tm  Tm9  1  0.998156  0.333352  0.333343  1
  Tl  Tl10  1  0.749909  0.605325  0.394675  1
  Tl  Tl11  1  0.750033  0.394658  0.000023  1
  Tl  Tl12  1  0.750033  0.999977  0.605342  1
  Sb  Sb13  1  0.250052  0.396026  0.603974  1
  Sb  Sb14  1  0.249980  0.603994  0.000081  1
  Sb  Sb15  1  0.249980  0.999919  0.396006  1
