# generated using pymatgen
data_Y4Be4Si3Ge
_symmetry_space_group_name_H-M   'P 1'
_cell_length_a   3.88134300
_cell_length_b   3.88134356
_cell_length_c   16.22979700
_cell_angle_alpha   90.00000000
_cell_angle_beta   90.00000000
_cell_angle_gamma   120.00000373
_symmetry_Int_Tables_number   1
_chemical_formula_structural   Y4Be4Si3Ge
_chemical_formula_sum   'Y4 Be4 Si3 Ge1'
_cell_volume   211.74239132
_cell_formula_units_Z   1
loop_
 _symmetry_equiv_pos_site_id
 _symmetry_equiv_pos_as_xyz
  1  'x, y, z'
loop_
 _atom_site_type_symbol
 _atom_site_label
 _atom_site_symmetry_multiplicity
 _atom_site_fract_x
 _atom_site_fract_y
 _atom_site_fract_z
 _atom_site_occupancy
  Y  Y0  1  0.000000  0.000000  0.751950  1
  Y  Y1  1  0.000000  0.000000  0.249426  1
  Y  Y2  1  0.000000  0.000000  0.497976  1
  Y  Y3  1  0.000000  0.000000  0.000502  1
  Be  Be4  1  0.666667  0.333333  0.873156  1
  Be  Be5  1  0.666667  0.333333  0.628306  1
  Be  Be6  1  0.333333  0.666667  0.127437  1
  Be  Be7  1  0.333333  0.666667  0.371690  1
  Si  Si8  1  0.666667  0.333333  0.124385  1
  Si  Si9  1  0.666667  0.333333  0.374711  1
  Si  Si10  1  0.333333  0.666667  0.876319  1
  Ge  Ge11  1  0.333333  0.666667  0.624142  1
