# generated using pymatgen
data_Tb8TmLu(SiB4)4
_symmetry_space_group_name_H-M   'P 1'
_cell_length_a   7.23163100
_cell_length_b   7.23163100
_cell_length_c   8.08683000
_cell_angle_alpha   90.00000000
_cell_angle_beta   90.00000000
_cell_angle_gamma   90.00000000
_symmetry_Int_Tables_number   1
_chemical_formula_structural   Tb8TmLu(SiB4)4
_chemical_formula_sum   'Tb8 Tm1 Lu1 Si4 B16'
_cell_volume   422.91279932
_cell_formula_units_Z   1
loop_
 _symmetry_equiv_pos_site_id
 _symmetry_equiv_pos_as_xyz
  1  'x, y, z'
loop_
 _atom_site_type_symbol
 _atom_site_label
 _atom_site_symmetry_multiplicity
 _atom_site_fract_x
 _atom_site_fract_y
 _atom_site_fract_z
 _atom_site_occupancy
  Tb  Tb0  1  0.680259  0.180412  0.225680  1
  Tb  Tb1  1  0.319741  0.819588  0.774320  1
  Tb  Tb2  1  0.319741  0.819588  0.225680  1
  Tb  Tb3  1  0.819588  0.680259  0.225680  1
  Tb  Tb4  1  0.819588  0.680259  0.774320  1
  Tb  Tb5  1  0.680259  0.180412  0.774320  1
  Tb  Tb6  1  0.180412  0.319741  0.774320  1
  Tb  Tb7  1  0.180412  0.319741  0.225680  1
  Tm  Tm8  1  0.000000  0.000000  0.500000  1
  Lu  Lu9  1  0.500000  0.500000  0.500000  1
  Si  Si10  1  0.115956  0.615288  0.500000  1
  Si  Si11  1  0.884044  0.384712  0.500000  1
  Si  Si12  1  0.384712  0.115956  0.500000  1
  Si  Si13  1  0.615288  0.884044  0.500000  1
  B  B14  1  0.172194  0.039099  0.000000  1
  B  B15  1  0.827806  0.960901  0.000000  1
  B  B16  1  0.960901  0.172194  0.000000  1
  B  B17  1  0.327802  0.539054  0.000000  1
  B  B18  1  0.039099  0.827806  0.000000  1
  B  B19  1  0.672198  0.460946  0.000000  1
  B  B20  1  0.539054  0.672198  0.000000  1
  B  B21  1  0.460946  0.327802  0.000000  1
  B  B22  1  0.089911  0.589967  0.000000  1
  B  B23  1  0.910089  0.410033  0.000000  1
  B  B24  1  0.410033  0.089911  0.000000  1
  B  B25  1  0.589967  0.910089  0.000000  1
  B  B26  1  0.000000  0.000000  0.162183  1
  B  B27  1  0.000000  0.000000  0.837817  1
  B  B28  1  0.500000  0.500000  0.837574  1
  B  B29  1  0.500000  0.500000  0.162426  1
