# generated using pymatgen
data_CaNdAl20Ru3Rh
_symmetry_space_group_name_H-M   'P 1'
_cell_length_a   6.88233837
_cell_length_b   6.88343139
_cell_length_c   9.19865041
_cell_angle_alpha   90.24016374
_cell_angle_beta   90.07223339
_cell_angle_gamma   96.73571729
_symmetry_Int_Tables_number   1
_chemical_formula_structural   CaNdAl20Ru3Rh
_chemical_formula_sum   'Ca1 Nd1 Al20 Ru3 Rh1'
_cell_volume   432.76548756
_cell_formula_units_Z   1
loop_
 _symmetry_equiv_pos_site_id
 _symmetry_equiv_pos_as_xyz
  1  'x, y, z'
loop_
 _atom_site_type_symbol
 _atom_site_label
 _atom_site_symmetry_multiplicity
 _atom_site_fract_x
 _atom_site_fract_y
 _atom_site_fract_z
 _atom_site_occupancy
  Ca  Ca0  1  0.874466  0.124036  0.749892  1
  Nd  Nd1  1  0.124177  0.877170  0.250547  1
  Al  Al2  1  0.620627  0.376201  0.549716  1
  Al  Al3  1  0.380297  0.622590  0.447388  1
  Al  Al4  1  0.378114  0.622245  0.050908  1
  Al  Al5  1  0.623203  0.376276  0.951662  1
  Al  Al6  1  0.226528  0.226657  0.500113  1
  Al  Al7  1  0.771944  0.775697  0.502060  1
  Al  Al8  1  0.772589  0.775176  0.998483  1
  Al  Al9  1  0.225430  0.226539  0.999805  1
  Al  Al10  1  0.842091  0.158590  0.098760  1
  Al  Al11  1  0.159720  0.839063  0.899782  1
  Al  Al12  1  0.161411  0.840530  0.602194  1
  Al  Al13  1  0.839989  0.157919  0.398999  1
  Al  Al14  1  0.858571  0.587897  0.751092  1
  Al  Al15  1  0.139773  0.410705  0.249095  1
  Al  Al16  1  0.412107  0.140655  0.750474  1
  Al  Al17  1  0.590077  0.861051  0.249495  1
  Al  Al18  1  0.221566  0.478564  0.752741  1
  Al  Al19  1  0.777308  0.517188  0.247051  1
  Al  Al20  1  0.521541  0.780860  0.749443  1
  Al  Al21  1  0.482795  0.221027  0.250386  1
  Ru  Ru22  1  0.999719  0.501366  0.999888  1
  Ru  Ru23  1  0.498193  0.000028  0.999834  1
  Ru  Ru24  1  0.498541  0.000112  0.500105  1
  Rh  Rh25  1  0.999221  0.501856  0.500087  1
