# generated using pymatgen
data_Yb4Tc(GePt)6
_symmetry_space_group_name_H-M   'P 1'
_cell_length_a   7.29576808
_cell_length_b   7.29576841
_cell_length_c   7.29576800
_cell_angle_alpha   109.47122228
_cell_angle_beta   109.47122320
_cell_angle_gamma   109.47121716
_symmetry_Int_Tables_number   1
_chemical_formula_structural   Yb4Tc(GePt)6
_chemical_formula_sum   'Yb4 Tc1 Ge6 Pt6'
_cell_volume   298.94492155
_cell_formula_units_Z   1
loop_
 _symmetry_equiv_pos_site_id
 _symmetry_equiv_pos_as_xyz
  1  'x, y, z'
loop_
 _atom_site_type_symbol
 _atom_site_label
 _atom_site_symmetry_multiplicity
 _atom_site_fract_x
 _atom_site_fract_y
 _atom_site_fract_z
 _atom_site_occupancy
  Yb  Yb0  1  0.500000  0.500000  0.500000  1
  Yb  Yb1  1  0.000000  0.500000  0.000000  1
  Yb  Yb2  1  0.000000  0.000000  0.500000  1
  Yb  Yb3  1  0.500000  0.000000  0.000000  1
  Tc  Tc4  1  0.000000  0.000000  0.000000  1
  Ge  Ge5  1  0.685920  0.000000  0.685920  1
  Ge  Ge6  1  0.314080  0.000000  0.314080  1
  Ge  Ge7  1  0.000000  0.314080  0.314080  1
  Ge  Ge8  1  0.000000  0.685920  0.685920  1
  Ge  Ge9  1  0.685920  0.685920  0.000000  1
  Ge  Ge10  1  0.314080  0.314080  0.000000  1
  Pt  Pt11  1  0.250000  0.500000  0.750000  1
  Pt  Pt12  1  0.250000  0.750000  0.500000  1
  Pt  Pt13  1  0.500000  0.250000  0.750000  1
  Pt  Pt14  1  0.500000  0.750000  0.250000  1
  Pt  Pt15  1  0.750000  0.500000  0.250000  1
  Pt  Pt16  1  0.750000  0.250000  0.500000  1
