# generated using pymatgen
data_Er4Si6IrPt
_symmetry_space_group_name_H-M   'P 1'
_cell_length_a   8.14243800
_cell_length_b   8.14243873
_cell_length_c   7.86846800
_cell_angle_alpha   90.00000000
_cell_angle_beta   90.00000000
_cell_angle_gamma   119.99999703
_symmetry_Int_Tables_number   1
_chemical_formula_structural   Er4Si6IrPt
_chemical_formula_sum   'Er8 Si12 Ir2 Pt2'
_cell_volume   451.78289837
_cell_formula_units_Z   2
loop_
 _symmetry_equiv_pos_site_id
 _symmetry_equiv_pos_as_xyz
  1  'x, y, z'
loop_
 _atom_site_type_symbol
 _atom_site_label
 _atom_site_symmetry_multiplicity
 _atom_site_fract_x
 _atom_site_fract_y
 _atom_site_fract_z
 _atom_site_occupancy
  Er  Er0  1  0.000000  0.000000  0.250000  1
  Er  Er1  1  0.000000  0.000000  0.750000  1
  Er  Er2  1  0.489536  0.510464  0.250000  1
  Er  Er3  1  0.489536  0.979071  0.250000  1
  Er  Er4  1  0.020929  0.510464  0.250000  1
  Er  Er5  1  0.507436  0.492564  0.750000  1
  Er  Er6  1  0.985128  0.492564  0.750000  1
  Er  Er7  1  0.507436  0.014872  0.750000  1
  Si  Si8  1  0.835793  0.164207  0.499978  1
  Si  Si9  1  0.835793  0.671586  0.499978  1
  Si  Si10  1  0.328414  0.164207  0.499978  1
  Si  Si11  1  0.835793  0.164207  0.000022  1
  Si  Si12  1  0.835793  0.671586  0.000022  1
  Si  Si13  1  0.328414  0.164207  0.000022  1
  Si  Si14  1  0.167309  0.832691  0.000902  1
  Si  Si15  1  0.665382  0.832691  0.000902  1
  Si  Si16  1  0.167309  0.334618  0.000902  1
  Si  Si17  1  0.167309  0.832691  0.499098  1
  Si  Si18  1  0.665382  0.832691  0.499098  1
  Si  Si19  1  0.167309  0.334618  0.499098  1
  Ir  Ir20  1  0.333333  0.666667  0.962607  1
  Ir  Ir21  1  0.333333  0.666667  0.537393  1
  Pt  Pt22  1  0.666667  0.333333  0.473672  1
  Pt  Pt23  1  0.666667  0.333333  0.026328  1
