# generated using pymatgen
data_Pr2Co10Tc2P7
_symmetry_space_group_name_H-M   'P 1'
_cell_length_a   9.06323996
_cell_length_b   9.12327767
_cell_length_c   3.71535200
_cell_angle_alpha   90.00000000
_cell_angle_beta   90.00000000
_cell_angle_gamma   119.66589826
_symmetry_Int_Tables_number   1
_chemical_formula_structural   Pr2Co10Tc2P7
_chemical_formula_sum   'Pr2 Co10 Tc2 P7'
_cell_volume   266.94221230
_cell_formula_units_Z   1
loop_
 _symmetry_equiv_pos_site_id
 _symmetry_equiv_pos_as_xyz
  1  'x, y, z'
loop_
 _atom_site_type_symbol
 _atom_site_label
 _atom_site_symmetry_multiplicity
 _atom_site_fract_x
 _atom_site_fract_y
 _atom_site_fract_z
 _atom_site_occupancy
  Pr  Pr0  1  0.336706  0.668639  0.000000  1
  Pr  Pr1  1  0.667854  0.333339  0.500001  1
  Co  Co2  1  0.430315  0.059351  0.000000  1
  Co  Co3  1  0.155357  0.278736  0.000000  1
  Co  Co4  1  0.942614  0.372510  0.000000  1
  Co  Co5  1  0.627423  0.567575  0.000000  1
  Co  Co6  1  0.119851  0.844624  0.000000  1
  Co  Co7  1  0.726131  0.877409  0.000000  1
  Co  Co8  1  0.381751  0.433966  0.500001  1
  Co  Co9  1  0.049064  0.618098  0.500001  1
  Co  Co10  1  0.871822  0.769732  0.500001  1
  Co  Co11  1  0.567009  0.947784  0.500001  1
  Tc  Tc12  1  0.213274  0.100189  0.500001  1
  Tc  Tc13  1  0.906080  0.123404  0.500001  1
  P  P14  1  0.000398  0.998603  0.000000  1
  P  P15  1  0.699984  0.103877  0.000000  1
  P  P16  1  0.407070  0.301381  0.000000  1
  P  P17  1  0.893123  0.596276  0.000000  1
  P  P18  1  0.109767  0.405688  0.500001  1
  P  P19  1  0.603123  0.707365  0.500001  1
  P  P20  1  0.291308  0.891454  0.500001  1
