# generated using pymatgen
data_Sr6HfTc3O14
_symmetry_space_group_name_H-M   'P 1'
_cell_length_a   10.90234004
_cell_length_b   10.90234050
_cell_length_c   5.64629403
_cell_angle_alpha   89.99698986
_cell_angle_beta   89.99699662
_cell_angle_gamma   149.90195500
_symmetry_Int_Tables_number   1
_chemical_formula_structural   Sr6HfTc3O14
_chemical_formula_sum   'Sr6 Hf1 Tc3 O14'
_cell_volume   336.55621719
_cell_formula_units_Z   1
loop_
 _symmetry_equiv_pos_site_id
 _symmetry_equiv_pos_as_xyz
  1  'x, y, z'
loop_
 _atom_site_type_symbol
 _atom_site_label
 _atom_site_symmetry_multiplicity
 _atom_site_fract_x
 _atom_site_fract_y
 _atom_site_fract_z
 _atom_site_occupancy
  Sr  Sr0  1  0.185035  0.814965  0.500000  1
  Sr  Sr1  1  0.812037  0.187963  0.500000  1
  Sr  Sr2  1  0.685925  0.314075  0.000000  1
  Sr  Sr3  1  0.001418  0.998582  0.500000  1
  Sr  Sr4  1  0.501521  0.498479  0.000000  1
  Sr  Sr5  1  0.311612  0.688388  0.000000  1
  Hf  Hf6  1  0.402100  0.597900  0.500000  1
  Tc  Tc7  1  0.096723  0.903277  0.000000  1
  Tc  Tc8  1  0.598607  0.401393  0.500000  1
  Tc  Tc9  1  0.903092  0.096908  0.000000  1
  O  O10  1  0.194184  0.805816  0.000000  1
  O  O11  1  0.610339  0.803446  0.202073  1
  O  O12  1  0.320201  0.126361  0.722910  1
  O  O13  1  0.701309  0.893913  0.706852  1
  O  O14  1  0.374767  0.180351  0.222601  1
  O  O15  1  0.999839  0.000161  0.000000  1
  O  O16  1  0.695999  0.304001  0.500000  1
  O  O17  1  0.805510  0.194490  0.000000  1
  O  O18  1  0.106087  0.298691  0.293148  1
  O  O19  1  0.819649  0.625233  0.777399  1
  O  O20  1  0.873639  0.679799  0.277090  1
  O  O21  1  0.196554  0.389661  0.797927  1
  O  O22  1  0.501136  0.498864  0.500000  1
  O  O23  1  0.302720  0.697280  0.500000  1
