# generated using pymatgen
data_TbDy3Ta4(Bi2O11)2
_symmetry_space_group_name_H-M   'P 1'
_cell_length_a   6.59504730
_cell_length_b   7.68542367
_cell_length_c   9.71511510
_cell_angle_alpha   101.39969412
_cell_angle_beta   90.17837702
_cell_angle_gamma   90.09240184
_symmetry_Int_Tables_number   1
_chemical_formula_structural   TbDy3Ta4(Bi2O11)2
_chemical_formula_sum   'Tb1 Dy3 Ta4 Bi4 O22'
_cell_volume   482.69983667
_cell_formula_units_Z   1
loop_
 _symmetry_equiv_pos_site_id
 _symmetry_equiv_pos_as_xyz
  1  'x, y, z'
loop_
 _atom_site_type_symbol
 _atom_site_label
 _atom_site_symmetry_multiplicity
 _atom_site_fract_x
 _atom_site_fract_y
 _atom_site_fract_z
 _atom_site_occupancy
  Tb  Tb0  1  0.746538  0.369301  0.482715  1
  Dy  Dy1  1  0.253510  0.631029  0.517691  1
  Dy  Dy2  1  0.760337  0.871912  0.492264  1
  Dy  Dy3  1  0.239634  0.127931  0.507771  1
  Ta  Ta4  1  0.912052  0.701006  0.804629  1
  Ta  Ta5  1  0.088121  0.299156  0.195473  1
  Ta  Ta6  1  0.914087  0.198890  0.805248  1
  Ta  Ta7  1  0.085986  0.801017  0.194936  1
  Bi  Bi8  1  0.433019  0.955143  0.814462  1
  Bi  Bi9  1  0.566866  0.044657  0.185428  1
  Bi  Bi10  1  0.388266  0.455081  0.826486  1
  Bi  Bi11  1  0.611436  0.545052  0.173582  1
  O  O12  1  0.216304  0.724183  0.755515  1
  O  O13  1  0.783876  0.275561  0.243903  1
  O  O14  1  0.629740  0.665760  0.844897  1
  O  O15  1  0.370390  0.334170  0.154977  1
  O  O16  1  0.630032  0.253779  0.842622  1
  O  O17  1  0.369963  0.746261  0.157228  1
  O  O18  1  0.891233  0.154819  0.586625  1
  O  O19  1  0.109351  0.844184  0.413499  1
  O  O20  1  0.215324  0.150429  0.750312  1
  O  O21  1  0.784851  0.849625  0.249728  1
  O  O22  1  0.893437  0.638368  0.590974  1
  O  O23  1  0.107643  0.362604  0.409060  1
  O  O24  1  0.026425  0.550162  0.196724  1
  O  O25  1  0.973438  0.449792  0.803141  1
  O  O26  1  0.998874  0.788058  0.001093  1
  O  O27  1  0.001334  0.211931  0.998885  1
  O  O28  1  0.570186  0.597796  0.394505  1
  O  O29  1  0.428305  0.402955  0.605546  1
  O  O30  1  0.167001  0.057123  0.226451  1
  O  O31  1  0.832827  0.942914  0.773758  1
  O  O32  1  0.543017  0.104854  0.404309  1
  O  O33  1  0.456597  0.894497  0.595563  1
