# generated using pymatgen
data_PrGdS2
_symmetry_space_group_name_H-M   'P 1'
_cell_length_a   6.96618382
_cell_length_b   6.96618358
_cell_length_c   6.96618497
_cell_angle_alpha   33.48032343
_cell_angle_beta   33.48032211
_cell_angle_gamma   33.48032399
_symmetry_Int_Tables_number   1
_chemical_formula_structural   PrGdS2
_chemical_formula_sum   'Pr1 Gd1 S2'
_cell_volume   91.62226078
_cell_formula_units_Z   1
loop_
 _symmetry_equiv_pos_site_id
 _symmetry_equiv_pos_as_xyz
  1  'x, y, z'
loop_
 _atom_site_type_symbol
 _atom_site_label
 _atom_site_symmetry_multiplicity
 _atom_site_fract_x
 _atom_site_fract_y
 _atom_site_fract_z
 _atom_site_occupancy
  Pr  Pr0  1  0.500000  0.500000  0.500000  1
  Gd  Gd1  1  0.000000  0.000000  0.000000  1
  S  S2  1  0.254509  0.254509  0.254509  1
  S  S3  1  0.745491  0.745491  0.745491  1
