# generated using pymatgen
data_Dy2Fe2Si2B
_symmetry_space_group_name_H-M   'P 1'
_cell_length_a   5.71901650
_cell_length_b   5.71901556
_cell_length_c   6.82557640
_cell_angle_alpha   52.25538214
_cell_angle_beta   52.25539108
_cell_angle_gamma   41.17532025
_symmetry_Int_Tables_number   1
_chemical_formula_structural   Dy2Fe2Si2B
_chemical_formula_sum   'Dy2 Fe2 Si2 B1'
_cell_volume   111.19932669
_cell_formula_units_Z   1
loop_
 _symmetry_equiv_pos_site_id
 _symmetry_equiv_pos_as_xyz
  1  'x, y, z'
loop_
 _atom_site_type_symbol
 _atom_site_label
 _atom_site_symmetry_multiplicity
 _atom_site_fract_x
 _atom_site_fract_y
 _atom_site_fract_z
 _atom_site_occupancy
  Dy  Dy0  1  0.439924  0.439924  0.299477  1
  Dy  Dy1  1  0.560076  0.560076  0.700523  1
  Fe  Fe2  1  0.790662  0.790662  0.100841  1
  Fe  Fe3  1  0.209338  0.209338  0.899159  1
  Si  Si4  1  0.834332  0.834332  0.724744  1
  Si  Si5  1  0.165668  0.165668  0.275256  1
  B  B6  1  0.000000  0.000000  0.000000  1
