# generated using pymatgen
data_Tb8Ta11TiSi16
_symmetry_space_group_name_H-M   'P 1'
_cell_length_a   7.06654094
_cell_length_b   7.06654094
_cell_length_c   13.03889700
_cell_angle_alpha   89.95496539
_cell_angle_beta   90.04503461
_cell_angle_gamma   89.96177142
_symmetry_Int_Tables_number   1
_chemical_formula_structural   Tb8Ta11TiSi16
_chemical_formula_sum   'Tb8 Ta11 Ti1 Si16'
_cell_volume   651.10982491
_cell_formula_units_Z   1
loop_
 _symmetry_equiv_pos_site_id
 _symmetry_equiv_pos_as_xyz
  1  'x, y, z'
loop_
 _atom_site_type_symbol
 _atom_site_label
 _atom_site_symmetry_multiplicity
 _atom_site_fract_x
 _atom_site_fract_y
 _atom_site_fract_z
 _atom_site_occupancy
  Tb  Tb0  1  0.341277  0.003183  0.467559  1
  Tb  Tb1  1  0.496669  0.840773  0.717657  1
  Tb  Tb2  1  0.502829  0.158662  0.217904  1
  Tb  Tb3  1  0.840773  0.496669  0.282343  1
  Tb  Tb4  1  0.158662  0.502829  0.782096  1
  Tb  Tb5  1  0.659050  0.997132  0.967809  1
  Tb  Tb6  1  0.003183  0.341277  0.532441  1
  Tb  Tb7  1  0.997132  0.659050  0.032191  1
  Ta  Ta8  1  0.328549  0.328549  0.000000  1
  Ta  Ta9  1  0.171790  0.828338  0.250175  1
  Ta  Ta10  1  0.828338  0.171790  0.749825  1
  Ta  Ta11  1  0.153759  0.007608  0.874179  1
  Ta  Ta12  1  0.492615  0.653738  0.124120  1
  Ta  Ta13  1  0.507134  0.345730  0.624438  1
  Ta  Ta14  1  0.653738  0.492615  0.875880  1
  Ta  Ta15  1  0.345730  0.507134  0.375562  1
  Ta  Ta16  1  0.846501  0.992489  0.374124  1
  Ta  Ta17  1  0.007608  0.153759  0.125821  1
  Ta  Ta18  1  0.992489  0.846501  0.625876  1
  Ti  Ti19  1  0.671638  0.671638  0.500000  1
  Si  Si20  1  0.203253  0.133370  0.682152  1
  Si  Si21  1  0.366544  0.703017  0.932465  1
  Si  Si22  1  0.633678  0.297738  0.433386  1
  Si  Si23  1  0.703017  0.366544  0.067535  1
  Si  Si24  1  0.297738  0.633678  0.566614  1
  Si  Si25  1  0.796747  0.866092  0.182775  1
  Si  Si26  1  0.133370  0.203253  0.317848  1
  Si  Si27  1  0.866092  0.796747  0.817225  1
  Si  Si28  1  0.293975  0.954558  0.063982  1
  Si  Si29  1  0.546396  0.793040  0.315275  1
  Si  Si30  1  0.454870  0.206141  0.813485  1
  Si  Si31  1  0.793040  0.546396  0.684725  1
  Si  Si32  1  0.206141  0.454870  0.186515  1
  Si  Si33  1  0.706258  0.044860  0.563200  1
  Si  Si34  1  0.954558  0.293975  0.936018  1
  Si  Si35  1  0.044860  0.706258  0.436800  1
