# generated using pymatgen
data_Lu3ThS4
_symmetry_space_group_name_H-M   'P 1'
_cell_length_a   12.99840329
_cell_length_b   12.99840374
_cell_length_c   12.99840400
_cell_angle_alpha   17.09642429
_cell_angle_beta   17.09641791
_cell_angle_gamma   17.09642428
_symmetry_Int_Tables_number   1
_chemical_formula_structural   Lu3ThS4
_chemical_formula_sum   'Lu3 Th1 S4'
_cell_volume   165.59533867
_cell_formula_units_Z   1
loop_
 _symmetry_equiv_pos_site_id
 _symmetry_equiv_pos_as_xyz
  1  'x, y, z'
loop_
 _atom_site_type_symbol
 _atom_site_label
 _atom_site_symmetry_multiplicity
 _atom_site_fract_x
 _atom_site_fract_y
 _atom_site_fract_z
 _atom_site_occupancy
  Lu  Lu0  1  0.248049  0.248049  0.248049  1
  Lu  Lu1  1  0.500000  0.500000  0.500000  1
  Lu  Lu2  1  0.751951  0.751951  0.751951  1
  Th  Th3  1  0.000000  0.000000  0.000000  1
  S  S4  1  0.381078  0.381078  0.381078  1
  S  S5  1  0.127057  0.127057  0.127057  1
  S  S6  1  0.618922  0.618922  0.618922  1
  S  S7  1  0.872943  0.872943  0.872943  1
