# generated using pymatgen
data_CsRb5Tb2Br12
_symmetry_space_group_name_H-M   'P 1'
_cell_length_a   9.79309840
_cell_length_b   9.79112178
_cell_length_c   8.16099400
_cell_angle_alpha   90.00000000
_cell_angle_beta   90.00000000
_cell_angle_gamma   90.26197110
_symmetry_Int_Tables_number   1
_chemical_formula_structural   CsRb5Tb2Br12
_chemical_formula_sum   'Cs1 Rb5 Tb2 Br12'
_cell_volume   782.51214980
_cell_formula_units_Z   1
loop_
 _symmetry_equiv_pos_site_id
 _symmetry_equiv_pos_as_xyz
  1  'x, y, z'
loop_
 _atom_site_type_symbol
 _atom_site_label
 _atom_site_symmetry_multiplicity
 _atom_site_fract_x
 _atom_site_fract_y
 _atom_site_fract_z
 _atom_site_occupancy
  Cs  Cs0  1  0.582710  0.765833  0.000000  1
  Rb  Rb1  1  0.999465  0.000700  0.500000  1
  Rb  Rb2  1  0.999716  0.001564  0.000000  1
  Rb  Rb3  1  0.232380  0.573974  0.500000  1
  Rb  Rb4  1  0.766391  0.422688  0.500000  1
  Rb  Rb5  1  0.422409  0.232585  0.000000  1
  Tb  Tb6  1  0.499267  0.004525  0.500000  1
  Tb  Tb7  1  0.999053  0.495255  0.000000  1
  Br  Br8  1  0.700377  0.056881  0.741235  1
  Br  Br9  1  0.300169  0.955634  0.745450  1
  Br  Br10  1  0.950324  0.695849  0.243918  1
  Br  Br11  1  0.049094  0.300399  0.248548  1
  Br  Br12  1  0.300169  0.955634  0.254550  1
  Br  Br13  1  0.700377  0.056881  0.258765  1
  Br  Br14  1  0.049094  0.300399  0.751452  1
  Br  Br15  1  0.950324  0.695849  0.756082  1
  Br  Br16  1  0.555713  0.722206  0.500000  1
  Br  Br17  1  0.441414  0.286025  0.500000  1
  Br  Br18  1  0.280830  0.551694  0.000000  1
  Br  Br19  1  0.720722  0.425426  0.000000  1
