# generated using pymatgen
data_Dy2Ho10InCo6
_symmetry_space_group_name_H-M   'P 1'
_cell_length_a   8.33018739
_cell_length_b   8.33018660
_cell_length_c   8.32500885
_cell_angle_alpha   109.46503049
_cell_angle_beta   109.37355214
_cell_angle_gamma   109.60028304
_symmetry_Int_Tables_number   1
_chemical_formula_structural   Dy2Ho10InCo6
_chemical_formula_sum   'Dy2 Ho10 In1 Co6'
_cell_volume   444.56560865
_cell_formula_units_Z   1
loop_
 _symmetry_equiv_pos_site_id
 _symmetry_equiv_pos_as_xyz
  1  'x, y, z'
loop_
 _atom_site_type_symbol
 _atom_site_label
 _atom_site_symmetry_multiplicity
 _atom_site_fract_x
 _atom_site_fract_y
 _atom_site_fract_z
 _atom_site_occupancy
  Dy  Dy0  1  0.806687  0.698364  0.505050  1
  Dy  Dy1  1  0.193313  0.301636  0.494950  1
  Ho  Ho2  1  0.193531  0.697845  0.891376  1
  Ho  Ho3  1  0.806469  0.302155  0.108624  1
  Ho  Ho4  1  0.698127  0.504409  0.806800  1
  Ho  Ho5  1  0.301873  0.495591  0.193200  1
  Ho  Ho6  1  0.697610  0.891326  0.193200  1
  Ho  Ho7  1  0.302390  0.108674  0.806800  1
  Ho  Ho8  1  0.504114  0.806639  0.697854  1
  Ho  Ho9  1  0.495886  0.193361  0.302146  1
  Ho  Ho10  1  0.108786  0.806261  0.302146  1
  Ho  Ho11  1  0.891214  0.193739  0.697854  1
  In  In12  1  0.000000  0.000000  0.000000  1
  Co  Co13  1  0.886375  0.386375  0.500000  1
  Co  Co14  1  0.113625  0.613625  0.500000  1
  Co  Co15  1  0.386562  0.500015  0.886577  1
  Co  Co16  1  0.613438  0.499985  0.113423  1
  Co  Co17  1  0.499780  0.886477  0.386257  1
  Co  Co18  1  0.500220  0.113523  0.613743  1
