# generated using pymatgen
data_TbLuNi2(SnH)2
_symmetry_space_group_name_H-M   'P 1'
_cell_length_a   4.21770700
_cell_length_b   7.06539574
_cell_length_c   8.28049291
_cell_angle_alpha   90.05315389
_cell_angle_beta   90.00000000
_cell_angle_gamma   90.00000000
_symmetry_Int_Tables_number   1
_chemical_formula_structural   TbLuNi2(SnH)2
_chemical_formula_sum   'Tb2 Lu2 Ni4 Sn4 H4'
_cell_volume   246.75667046
_cell_formula_units_Z   2
loop_
 _symmetry_equiv_pos_site_id
 _symmetry_equiv_pos_as_xyz
  1  'x, y, z'
loop_
 _atom_site_type_symbol
 _atom_site_label
 _atom_site_symmetry_multiplicity
 _atom_site_fract_x
 _atom_site_fract_y
 _atom_site_fract_z
 _atom_site_occupancy
  Tb  Tb0  1  0.750000  0.516404  0.813552  1
  Tb  Tb1  1  0.250000  0.483596  0.186448  1
  Lu  Lu2  1  0.250000  0.983335  0.315624  1
  Lu  Lu3  1  0.750000  0.016665  0.684376  1
  Ni  Ni4  1  0.750000  0.267523  0.393542  1
  Ni  Ni5  1  0.250000  0.732477  0.606458  1
  Ni  Ni6  1  0.250000  0.223281  0.886972  1
  Ni  Ni7  1  0.750000  0.776719  0.113028  1
  Sn  Sn8  1  0.750000  0.155652  0.071962  1
  Sn  Sn9  1  0.250000  0.844348  0.928038  1
  Sn  Sn10  1  0.250000  0.342405  0.570669  1
  Sn  Sn11  1  0.750000  0.657595  0.429331  1
  H  H12  1  0.250000  0.954775  0.576448  1
  H  H13  1  0.750000  0.045225  0.423552  1
  H  H14  1  0.750000  0.552770  0.079308  1
  H  H15  1  0.250000  0.447230  0.920692  1
