# generated using pymatgen
data_Sr4TbSn3
_symmetry_space_group_name_H-M   'P 1'
_cell_length_a   9.76952735
_cell_length_b   9.76953904
_cell_length_c   9.76952756
_cell_angle_alpha   96.86945812
_cell_angle_beta   96.86855003
_cell_angle_gamma   139.53471702
_symmetry_Int_Tables_number   1
_chemical_formula_structural   Sr4TbSn3
_chemical_formula_sum   'Sr8 Tb2 Sn6'
_cell_volume   567.80279051
_cell_formula_units_Z   2
loop_
 _symmetry_equiv_pos_site_id
 _symmetry_equiv_pos_as_xyz
  1  'x, y, z'
loop_
 _atom_site_type_symbol
 _atom_site_label
 _atom_site_symmetry_multiplicity
 _atom_site_fract_x
 _atom_site_fract_y
 _atom_site_fract_z
 _atom_site_occupancy
  Sr  Sr0  1  0.085564  0.212301  0.297863  1
  Sr  Sr1  1  0.914436  0.787699  0.702137  1
  Sr  Sr2  1  0.787700  0.085564  0.873264  1
  Sr  Sr3  1  0.414437  0.712301  0.126737  1
  Sr  Sr4  1  0.212300  0.914436  0.126736  1
  Sr  Sr5  1  0.585563  0.287699  0.873263  1
  Sr  Sr6  1  0.712300  0.585564  0.297864  1
  Sr  Sr7  1  0.287700  0.414436  0.702136  1
  Tb  Tb8  1  0.250000  0.750000  0.500000  1
  Tb  Tb9  1  0.750000  0.250000  0.500000  1
  Sn  Sn10  1  0.145348  0.645349  0.790696  1
  Sn  Sn11  1  0.854652  0.354651  0.209304  1
  Sn  Sn12  1  0.354651  0.145349  0.500001  1
  Sn  Sn13  1  0.645349  0.854651  0.499999  1
  Sn  Sn14  1  0.250000  0.250000  0.000000  1
  Sn  Sn15  1  0.750000  0.750000  0.000000  1
