# generated using pymatgen
data_Pr2P24IrRu7
_symmetry_space_group_name_H-M   'P 1'
_cell_length_a   8.10956185
_cell_length_b   8.10956185
_cell_length_c   8.10956185
_cell_angle_alpha   89.94530221
_cell_angle_beta   89.94530221
_cell_angle_gamma   89.94530221
_symmetry_Int_Tables_number   1
_chemical_formula_structural   Pr2P24IrRu7
_chemical_formula_sum   'Pr2 P24 Ir1 Ru7'
_cell_volume   533.32455229
_cell_formula_units_Z   1
loop_
 _symmetry_equiv_pos_site_id
 _symmetry_equiv_pos_as_xyz
  1  'x, y, z'
loop_
 _atom_site_type_symbol
 _atom_site_label
 _atom_site_symmetry_multiplicity
 _atom_site_fract_x
 _atom_site_fract_y
 _atom_site_fract_z
 _atom_site_occupancy
  Pr  Pr0  1  0.997362  0.997362  0.997362  1
  Pr  Pr1  1  0.502638  0.502638  0.502638  1
  P  P2  1  0.357579  0.142226  0.997540  1
  P  P3  1  0.642812  0.143819  0.000077  1
  P  P4  1  0.356720  0.856543  0.999729  1
  P  P5  1  0.642677  0.856335  0.999895  1
  P  P6  1  0.357773  0.502459  0.142421  1
  P  P7  1  0.643457  0.500271  0.143280  1
  P  P8  1  0.997540  0.357579  0.142226  1
  P  P9  1  0.000077  0.642812  0.143819  1
  P  P10  1  0.502459  0.142421  0.357773  1
  P  P11  1  0.499923  0.857188  0.356181  1
  P  P12  1  0.142226  0.997540  0.357579  1
  P  P13  1  0.856543  0.999729  0.356720  1
  P  P14  1  0.142421  0.357773  0.502459  1
  P  P15  1  0.857188  0.356181  0.499923  1
  P  P16  1  0.143280  0.643457  0.500271  1
  P  P17  1  0.857323  0.643666  0.500104  1
  P  P18  1  0.143819  0.000077  0.642812  1
  P  P19  1  0.856335  0.999895  0.642677  1
  P  P20  1  0.500271  0.143280  0.643457  1
  P  P21  1  0.500104  0.857323  0.643666  1
  P  P22  1  0.999729  0.356720  0.856543  1
  P  P23  1  0.999895  0.642677  0.856335  1
  P  P24  1  0.356181  0.499923  0.857188  1
  P  P25  1  0.643666  0.500104  0.857323  1
  Ir  Ir26  1  0.250000  0.250000  0.250000  1
  Ru  Ru27  1  0.750000  0.250000  0.250000  1
  Ru  Ru28  1  0.250000  0.750000  0.250000  1
  Ru  Ru29  1  0.750000  0.750000  0.250000  1
  Ru  Ru30  1  0.250000  0.250000  0.750000  1
  Ru  Ru31  1  0.750000  0.250000  0.750000  1
  Ru  Ru32  1  0.250000  0.750000  0.750000  1
  Ru  Ru33  1  0.750000  0.750000  0.750000  1
