# generated using pymatgen
data_La8Cr(Si4Pt)3
_symmetry_space_group_name_H-M   'P 1'
_cell_length_a   8.32942800
_cell_length_b   8.32942865
_cell_length_c   8.77485900
_cell_angle_alpha   90.00000000
_cell_angle_beta   90.00000000
_cell_angle_gamma   119.99999741
_symmetry_Int_Tables_number   1
_chemical_formula_structural   La8Cr(Si4Pt)3
_chemical_formula_sum   'La8 Cr1 Si12 Pt3'
_cell_volume   527.23129475
_cell_formula_units_Z   1
loop_
 _symmetry_equiv_pos_site_id
 _symmetry_equiv_pos_as_xyz
  1  'x, y, z'
loop_
 _atom_site_type_symbol
 _atom_site_label
 _atom_site_symmetry_multiplicity
 _atom_site_fract_x
 _atom_site_fract_y
 _atom_site_fract_z
 _atom_site_occupancy
  La  La0  1  0.000000  0.000000  0.250050  1
  La  La1  1  0.000000  0.000000  0.750114  1
  La  La2  1  0.500957  0.499043  0.251438  1
  La  La3  1  0.500957  0.001916  0.251438  1
  La  La4  1  0.998084  0.499043  0.251438  1
  La  La5  1  0.499634  0.500366  0.748546  1
  La  La6  1  0.499634  0.999265  0.748546  1
  La  La7  1  0.000735  0.500366  0.748546  1
  Cr  Cr8  1  0.333333  0.666667  0.495824  1
  Si  Si9  1  0.165922  0.834078  0.500699  1
  Si  Si10  1  0.165922  0.331844  0.500699  1
  Si  Si11  1  0.668156  0.834078  0.500699  1
  Si  Si12  1  0.834334  0.165666  0.499395  1
  Si  Si13  1  0.834334  0.668667  0.499395  1
  Si  Si14  1  0.331333  0.165666  0.499395  1
  Si  Si15  1  0.834671  0.165329  0.000746  1
  Si  Si16  1  0.834671  0.669340  0.000746  1
  Si  Si17  1  0.330660  0.165329  0.000746  1
  Si  Si18  1  0.165352  0.834648  0.999171  1
  Si  Si19  1  0.165352  0.330705  0.999171  1
  Si  Si20  1  0.669295  0.834648  0.999171  1
  Pt  Pt21  1  0.666667  0.333333  0.502710  1
  Pt  Pt22  1  0.666667  0.333333  0.997742  1
  Pt  Pt23  1  0.333333  0.666667  0.003573  1
