# generated using pymatgen
data_PmPO4
_symmetry_space_group_name_H-M   'P 1'
_cell_length_a   5.91810340
_cell_length_b   5.91810361
_cell_length_c   5.91810306
_cell_angle_alpha   105.94722101
_cell_angle_beta   116.77553749
_cell_angle_gamma   105.94722808
_symmetry_Int_Tables_number   1
_chemical_formula_structural   PmPO4
_chemical_formula_sum   'Pm2 P2 O8'
_cell_volume   157.59214001
_cell_formula_units_Z   2
loop_
 _symmetry_equiv_pos_site_id
 _symmetry_equiv_pos_as_xyz
  1  'x, y, z'
loop_
 _atom_site_type_symbol
 _atom_site_label
 _atom_site_symmetry_multiplicity
 _atom_site_fract_x
 _atom_site_fract_y
 _atom_site_fract_z
 _atom_site_occupancy
  Pm  Pm0  1  0.875000  0.250001  0.125000  1
  Pm  Pm1  1  0.125000  0.750000  0.875000  1
  P  P2  1  0.625000  0.750000  0.374999  1
  P  P3  1  0.375000  0.250000  0.624999  1
  O  O4  1  0.298343  0.578259  0.220083  1
  O  O5  1  0.641824  0.921740  0.220083  1
  O  O6  1  0.220083  0.078259  0.298343  1
  O  O7  1  0.779918  0.578260  0.358177  1
  O  O8  1  0.220083  0.421740  0.641823  1
  O  O9  1  0.779918  0.921740  0.701657  1
  O  O10  1  0.358177  0.078259  0.779917  1
  O  O11  1  0.701657  0.421740  0.779917  1
