# generated using pymatgen
data_Er3Si2IrOs
_symmetry_space_group_name_H-M   'P 1'
_cell_length_a   5.50827939
_cell_length_b   5.50827936
_cell_length_c   13.08950300
_cell_angle_alpha   90.00000000
_cell_angle_beta   90.00000000
_cell_angle_gamma   136.01142073
_symmetry_Int_Tables_number   1
_chemical_formula_structural   Er3Si2IrOs
_chemical_formula_sum   'Er6 Si4 Ir2 Os2'
_cell_volume   275.82694349
_cell_formula_units_Z   2
loop_
 _symmetry_equiv_pos_site_id
 _symmetry_equiv_pos_as_xyz
  1  'x, y, z'
loop_
 _atom_site_type_symbol
 _atom_site_label
 _atom_site_symmetry_multiplicity
 _atom_site_fract_x
 _atom_site_fract_y
 _atom_site_fract_z
 _atom_site_occupancy
  Er  Er0  1  0.773813  0.226187  0.602865  1
  Er  Er1  1  0.516110  0.483890  0.250000  1
  Er  Er2  1  0.226187  0.773813  0.397135  1
  Er  Er3  1  0.773813  0.226187  0.897135  1
  Er  Er4  1  0.483890  0.516110  0.750000  1
  Er  Er5  1  0.226187  0.773813  0.102865  1
  Si  Si6  1  0.063306  0.936694  0.589620  1
  Si  Si7  1  0.063306  0.936694  0.910380  1
  Si  Si8  1  0.936694  0.063306  0.410380  1
  Si  Si9  1  0.936694  0.063306  0.089620  1
  Ir  Ir10  1  0.808740  0.191260  0.250000  1
  Ir  Ir11  1  0.191260  0.808740  0.750000  1
  Os  Os12  1  0.500000  0.500000  0.000000  1
  Os  Os13  1  0.500000  0.500000  0.500000  1
