# generated using pymatgen
data_Ce2Zn4NiRh
_symmetry_space_group_name_H-M   'P 1'
_cell_length_a   5.07307527
_cell_length_b   5.07307662
_cell_length_c   7.61976700
_cell_angle_alpha   90.00000000
_cell_angle_beta   90.00000000
_cell_angle_gamma   132.11758497
_symmetry_Int_Tables_number   1
_chemical_formula_structural   Ce2Zn4NiRh
_chemical_formula_sum   'Ce2 Zn4 Ni1 Rh1'
_cell_volume   145.46339135
_cell_formula_units_Z   1
loop_
 _symmetry_equiv_pos_site_id
 _symmetry_equiv_pos_as_xyz
  1  'x, y, z'
loop_
 _atom_site_type_symbol
 _atom_site_label
 _atom_site_symmetry_multiplicity
 _atom_site_fract_x
 _atom_site_fract_y
 _atom_site_fract_z
 _atom_site_occupancy
  Ce  Ce0  1  0.933859  0.066140  0.249999  1
  Ce  Ce1  1  0.065123  0.934876  0.750000  1
  Zn  Zn2  1  0.648755  0.351244  0.039727  1
  Zn  Zn3  1  0.648755  0.351244  0.460273  1
  Zn  Zn4  1  0.353316  0.646683  0.557599  1
  Zn  Zn5  1  0.353316  0.646683  0.942401  1
  Ni  Ni6  1  0.790864  0.209134  0.750000  1
  Rh  Rh7  1  0.206007  0.793991  0.249999  1
