# generated using pymatgen
data_TbSmPRh6
_symmetry_space_group_name_H-M   'P 1'
_cell_length_a   5.99246482
_cell_length_b   5.99246389
_cell_length_c   5.99246400
_cell_angle_alpha   59.99999938
_cell_angle_beta   60.00000452
_cell_angle_gamma   59.99999468
_symmetry_Int_Tables_number   1
_chemical_formula_structural   TbSmPRh6
_chemical_formula_sum   'Tb1 Sm1 P1 Rh6'
_cell_volume   152.16029782
_cell_formula_units_Z   1
loop_
 _symmetry_equiv_pos_site_id
 _symmetry_equiv_pos_as_xyz
  1  'x, y, z'
loop_
 _atom_site_type_symbol
 _atom_site_label
 _atom_site_symmetry_multiplicity
 _atom_site_fract_x
 _atom_site_fract_y
 _atom_site_fract_z
 _atom_site_occupancy
  Tb  Tb0  1  0.750000  0.750000  0.750000  1
  Sm  Sm1  1  0.250000  0.250000  0.250000  1
  P  P2  1  0.000000  0.000000  0.000000  1
  Rh  Rh3  1  0.733555  0.266446  0.266446  1
  Rh  Rh4  1  0.266446  0.733555  0.266446  1
  Rh  Rh5  1  0.733554  0.733554  0.266447  1
  Rh  Rh6  1  0.266446  0.266446  0.733555  1
  Rh  Rh7  1  0.733554  0.266447  0.733554  1
  Rh  Rh8  1  0.266447  0.733554  0.733554  1
