# generated using pymatgen
data_TbBi3Os2O11
_symmetry_space_group_name_H-M   'P 1'
_cell_length_a   6.60155004
_cell_length_b   7.53605564
_cell_length_c   9.87073746
_cell_angle_alpha   100.98728114
_cell_angle_beta   91.98145223
_cell_angle_gamma   90.17989668
_symmetry_Int_Tables_number   1
_chemical_formula_structural   TbBi3Os2O11
_chemical_formula_sum   'Tb2 Bi6 Os4 O22'
_cell_volume   481.75231361
_cell_formula_units_Z   2
loop_
 _symmetry_equiv_pos_site_id
 _symmetry_equiv_pos_as_xyz
  1  'x, y, z'
loop_
 _atom_site_type_symbol
 _atom_site_label
 _atom_site_symmetry_multiplicity
 _atom_site_fract_x
 _atom_site_fract_y
 _atom_site_fract_z
 _atom_site_occupancy
  Tb  Tb0  1  0.749616  0.370454  0.478078  1
  Tb  Tb1  1  0.250384  0.629546  0.521922  1
  Bi  Bi2  1  0.754444  0.871140  0.489612  1
  Bi  Bi3  1  0.245556  0.128860  0.510388  1
  Bi  Bi4  1  0.473088  0.953594  0.820089  1
  Bi  Bi5  1  0.526912  0.046406  0.179911  1
  Bi  Bi6  1  0.411994  0.453059  0.823481  1
  Bi  Bi7  1  0.588006  0.546941  0.176519  1
  Os  Os8  1  0.938635  0.702372  0.809727  1
  Os  Os9  1  0.061365  0.297628  0.190273  1
  Os  Os10  1  0.936583  0.204206  0.811637  1
  Os  Os11  1  0.063417  0.795794  0.188363  1
  O  O12  1  0.231421  0.720387  0.761052  1
  O  O13  1  0.768579  0.279613  0.238948  1
  O  O14  1  0.641822  0.676252  0.829451  1
  O  O15  1  0.358178  0.323748  0.170549  1
  O  O16  1  0.641421  0.240346  0.842919  1
  O  O17  1  0.358579  0.759654  0.157081  1
  O  O18  1  0.887207  0.183112  0.608244  1
  O  O19  1  0.112793  0.816888  0.391756  1
  O  O20  1  0.227735  0.159035  0.761373  1
  O  O21  1  0.772265  0.840965  0.238627  1
  O  O22  1  0.905213  0.627195  0.602495  1
  O  O23  1  0.094787  0.372805  0.397505  1
  O  O24  1  0.009707  0.542915  0.173051  1
  O  O25  1  0.990293  0.457085  0.826949  1
  O  O26  1  0.997388  0.780471  0.999334  1
  O  O27  1  0.002612  0.219529  0.000666  1
  O  O28  1  0.567140  0.602083  0.398397  1
  O  O29  1  0.432860  0.397917  0.601603  1
  O  O30  1  0.144528  0.054460  0.220605  1
  O  O31  1  0.855472  0.945540  0.779395  1
  O  O32  1  0.547130  0.101305  0.401050  1
  O  O33  1  0.452870  0.898695  0.598950  1
