# generated using pymatgen
data_NaTa4AsO13
_symmetry_space_group_name_H-M   'P 1'
_cell_length_a   7.41256665
_cell_length_b   7.41256723
_cell_length_c   10.14798700
_cell_angle_alpha   90.00000000
_cell_angle_beta   90.00000000
_cell_angle_gamma   90.97734461
_symmetry_Int_Tables_number   1
_chemical_formula_structural   NaTa4AsO13
_chemical_formula_sum   'Na2 Ta8 As2 O26'
_cell_volume   557.51168234
_cell_formula_units_Z   2
loop_
 _symmetry_equiv_pos_site_id
 _symmetry_equiv_pos_as_xyz
  1  'x, y, z'
loop_
 _atom_site_type_symbol
 _atom_site_label
 _atom_site_symmetry_multiplicity
 _atom_site_fract_x
 _atom_site_fract_y
 _atom_site_fract_z
 _atom_site_occupancy
  Na  Na0  1  0.459670  0.459670  0.362539  1
  Na  Na1  1  0.540330  0.540330  0.862539  1
  Ta  Ta2  1  0.554043  0.898241  0.252808  1
  Ta  Ta3  1  0.101759  0.445957  0.752808  1
  Ta  Ta4  1  0.445957  0.101759  0.752808  1
  Ta  Ta5  1  0.898241  0.554043  0.252808  1
  Ta  Ta6  1  0.176394  0.825136  0.502603  1
  Ta  Ta7  1  0.174864  0.823606  0.002603  1
  Ta  Ta8  1  0.825136  0.176394  0.502603  1
  Ta  Ta9  1  0.823606  0.174864  0.002603  1
  As  As10  1  0.164728  0.164728  0.253987  1
  As  As11  1  0.835272  0.835272  0.753987  1
  O  O12  1  0.662778  0.662778  0.252944  1
  O  O13  1  0.337222  0.337222  0.752944  1
  O  O14  1  0.392452  0.136328  0.263145  1
  O  O15  1  0.863672  0.607548  0.763145  1
  O  O16  1  0.607548  0.863672  0.763145  1
  O  O17  1  0.136328  0.392452  0.263145  1
  O  O18  1  0.787930  0.370301  0.389923  1
  O  O19  1  0.636526  0.193237  0.621001  1
  O  O20  1  0.806763  0.363474  0.121001  1
  O  O21  1  0.629699  0.212070  0.889923  1
  O  O22  1  0.193237  0.636526  0.621001  1
  O  O23  1  0.370301  0.787930  0.389923  1
  O  O24  1  0.212070  0.629699  0.889923  1
  O  O25  1  0.363474  0.806763  0.121001  1
  O  O26  1  0.067773  0.067773  0.394847  1
  O  O27  1  0.927596  0.927596  0.611525  1
  O  O28  1  0.072404  0.072404  0.111525  1
  O  O29  1  0.932227  0.932227  0.894847  1
  O  O30  1  0.696494  0.999410  0.389743  1
  O  O31  1  0.005098  0.305258  0.613054  1
  O  O32  1  0.694742  0.994902  0.113054  1
  O  O33  1  0.000590  0.303506  0.889743  1
  O  O34  1  0.305258  0.005098  0.613054  1
  O  O35  1  0.999410  0.696494  0.389743  1
  O  O36  1  0.303506  0.000590  0.889743  1
  O  O37  1  0.994902  0.694742  0.113054  1
