# generated using pymatgen
data_Dy2Ho14InHg3Rh4
_symmetry_space_group_name_H-M   'P 1'
_cell_length_a   9.57692596
_cell_length_b   9.58192144
_cell_length_c   9.57457820
_cell_angle_alpha   59.83359213
_cell_angle_beta   59.87805110
_cell_angle_gamma   59.83099747
_symmetry_Int_Tables_number   1
_chemical_formula_structural   Dy2Ho14InHg3Rh4
_chemical_formula_sum   'Dy2 Ho14 In1 Hg3 Rh4'
_cell_volume   619.12455422
_cell_formula_units_Z   1
loop_
 _symmetry_equiv_pos_site_id
 _symmetry_equiv_pos_as_xyz
  1  'x, y, z'
loop_
 _atom_site_type_symbol
 _atom_site_label
 _atom_site_symmetry_multiplicity
 _atom_site_fract_x
 _atom_site_fract_y
 _atom_site_fract_z
 _atom_site_occupancy
  Dy  Dy0  1  0.189557  0.184451  0.812780  1
  Dy  Dy1  1  0.602106  0.601451  0.196686  1
  Ho  Ho2  1  0.439291  0.060116  0.439356  1
  Ho  Ho3  1  0.441458  0.438680  0.058877  1
  Ho  Ho4  1  0.814081  0.185205  0.814171  1
  Ho  Ho5  1  0.187093  0.811114  0.187504  1
  Ho  Ho6  1  0.437918  0.060593  0.060821  1
  Ho  Ho7  1  0.188197  0.812450  0.813101  1
  Ho  Ho8  1  0.060082  0.437667  0.060183  1
  Ho  Ho9  1  0.813364  0.812788  0.187952  1
  Ho  Ho10  1  0.196815  0.601501  0.601939  1
  Ho  Ho11  1  0.058927  0.438808  0.441403  1
  Ho  Ho12  1  0.060543  0.060322  0.438136  1
  Ho  Ho13  1  0.812712  0.184210  0.189621  1
  Ho  Ho14  1  0.602426  0.195929  0.602145  1
  Ho  Ho15  1  0.600650  0.600234  0.600524  1
  In  In16  1  0.829788  0.506447  0.829815  1
  Hg  Hg17  1  0.834424  0.835401  0.833979  1
  Hg  Hg18  1  0.835728  0.835761  0.492898  1
  Hg  Hg19  1  0.493320  0.835466  0.835436  1
  Rh  Rh20  1  0.393383  0.821333  0.394013  1
  Rh  Rh21  1  0.392672  0.393035  0.393145  1
  Rh  Rh22  1  0.822491  0.393263  0.393288  1
  Rh  Rh23  1  0.392977  0.393780  0.822231  1
