# generated using pymatgen
data_Ho3Tm2CoBi2
_symmetry_space_group_name_H-M   'P 1'
_cell_length_a   7.90727800
_cell_length_b   8.86607500
_cell_length_c   12.33420000
_cell_angle_alpha   90.00000000
_cell_angle_beta   90.00000000
_cell_angle_gamma   90.00000000
_symmetry_Int_Tables_number   1
_chemical_formula_structural   Ho3Tm2CoBi2
_chemical_formula_sum   'Ho12 Tm8 Co4 Bi8'
_cell_volume   864.70783644
_cell_formula_units_Z   4
loop_
 _symmetry_equiv_pos_site_id
 _symmetry_equiv_pos_as_xyz
  1  'x, y, z'
loop_
 _atom_site_type_symbol
 _atom_site_label
 _atom_site_symmetry_multiplicity
 _atom_site_fract_x
 _atom_site_fract_y
 _atom_site_fract_z
 _atom_site_occupancy
  Ho  Ho0  1  0.347164  0.750000  0.699694  1
  Ho  Ho1  1  0.652836  0.250000  0.300306  1
  Ho  Ho2  1  0.847164  0.250000  0.800306  1
  Ho  Ho3  1  0.152836  0.750000  0.199694  1
  Ho  Ho4  1  0.885040  0.750000  0.811547  1
  Ho  Ho5  1  0.114960  0.250000  0.188453  1
  Ho  Ho6  1  0.385040  0.250000  0.688453  1
  Ho  Ho7  1  0.614960  0.750000  0.311547  1
  Ho  Ho8  1  0.053187  0.750000  0.497922  1
  Ho  Ho9  1  0.946813  0.250000  0.502078  1
  Ho  Ho10  1  0.553187  0.250000  0.002078  1
  Ho  Ho11  1  0.446813  0.750000  0.997922  1
  Tm  Tm12  1  0.674005  0.538217  0.562702  1
  Tm  Tm13  1  0.325995  0.461783  0.437298  1
  Tm  Tm14  1  0.174005  0.461783  0.937298  1
  Tm  Tm15  1  0.325995  0.038217  0.437298  1
  Tm  Tm16  1  0.825995  0.538217  0.062702  1
  Tm  Tm17  1  0.674005  0.961783  0.562702  1
  Tm  Tm18  1  0.825995  0.961783  0.062702  1
  Tm  Tm19  1  0.174005  0.038217  0.937298  1
  Co  Co20  1  0.065765  0.750000  0.992002  1
  Co  Co21  1  0.934235  0.250000  0.007998  1
  Co  Co22  1  0.565765  0.250000  0.507998  1
  Co  Co23  1  0.434235  0.750000  0.492002  1
  Bi  Bi24  1  0.571309  0.509632  0.826736  1
  Bi  Bi25  1  0.428691  0.490368  0.173264  1
  Bi  Bi26  1  0.071309  0.490368  0.673264  1
  Bi  Bi27  1  0.428691  0.009632  0.173264  1
  Bi  Bi28  1  0.928691  0.509632  0.326736  1
  Bi  Bi29  1  0.571309  0.990368  0.826736  1
  Bi  Bi30  1  0.928691  0.990368  0.326736  1
  Bi  Bi31  1  0.071309  0.009632  0.673264  1
