# generated using pymatgen
data_Nd6Co3Ni17P13
_symmetry_space_group_name_H-M   'P 1'
_cell_length_a   12.78236700
_cell_length_b   12.78236715
_cell_length_c   3.82589500
_cell_angle_alpha   90.00000000
_cell_angle_beta   90.00000000
_cell_angle_gamma   119.99999703
_symmetry_Int_Tables_number   1
_chemical_formula_structural   Nd6Co3Ni17P13
_chemical_formula_sum   'Nd6 Co3 Ni17 P13'
_cell_volume   541.36012243
_cell_formula_units_Z   1
loop_
 _symmetry_equiv_pos_site_id
 _symmetry_equiv_pos_as_xyz
  1  'x, y, z'
loop_
 _atom_site_type_symbol
 _atom_site_label
 _atom_site_symmetry_multiplicity
 _atom_site_fract_x
 _atom_site_fract_y
 _atom_site_fract_z
 _atom_site_occupancy
  Nd  Nd0  1  0.801016  0.948687  0.000000  1
  Nd  Nd1  1  0.051313  0.852330  0.000000  1
  Nd  Nd2  1  0.147670  0.198984  0.000000  1
  Nd  Nd3  1  0.518555  0.134468  0.500000  1
  Nd  Nd4  1  0.865532  0.384087  0.500000  1
  Nd  Nd5  1  0.615913  0.481445  0.500000  1
  Co  Co6  1  0.524938  0.770476  0.000000  1
  Co  Co7  1  0.229524  0.754462  0.000000  1
  Co  Co8  1  0.245538  0.475062  0.000000  1
  Ni  Ni9  1  0.000000  0.000000  0.500000  1
  Ni  Ni10  1  0.402081  0.813441  0.500000  1
  Ni  Ni11  1  0.186559  0.588639  0.500000  1
  Ni  Ni12  1  0.411361  0.597919  0.500000  1
  Ni  Ni13  1  0.666667  0.333333  0.000000  1
  Ni  Ni14  1  0.771099  0.690318  0.000000  1
  Ni  Ni15  1  0.309682  0.080781  0.000000  1
  Ni  Ni16  1  0.919219  0.228901  0.000000  1
  Ni  Ni17  1  0.645433  0.736215  0.500000  1
  Ni  Ni18  1  0.263785  0.909219  0.500000  1
  Ni  Ni19  1  0.090781  0.354567  0.500000  1
  Ni  Ni20  1  0.356156  0.258134  0.500000  1
  Ni  Ni21  1  0.741866  0.098022  0.500000  1
  Ni  Ni22  1  0.901978  0.643844  0.500000  1
  Ni  Ni23  1  0.572629  0.985229  0.000000  1
  Ni  Ni24  1  0.014771  0.587400  0.000000  1
  Ni  Ni25  1  0.412600  0.427371  0.000000  1
  P  P26  1  0.853693  0.799776  0.500000  1
  P  P27  1  0.200224  0.053917  0.500000  1
  P  P28  1  0.946083  0.146307  0.500000  1
  P  P29  1  0.602791  0.893368  0.500000  1
  P  P30  1  0.106632  0.709423  0.500000  1
  P  P31  1  0.290577  0.397209  0.500000  1
  P  P32  1  0.467140  0.281424  0.000000  1
  P  P33  1  0.718576  0.185716  0.000000  1
  P  P34  1  0.814284  0.532860  0.000000  1
  P  P35  1  0.375029  0.942481  0.000000  1
  P  P36  1  0.057519  0.432548  0.000000  1
  P  P37  1  0.567452  0.624971  0.000000  1
  P  P38  1  0.333333  0.666667  0.000000  1
