# generated using pymatgen
data_Ca10ScReN10
_symmetry_space_group_name_H-M   'P 1'
_cell_length_a   7.01773633
_cell_length_b   7.01773470
_cell_length_c   8.90209788
_cell_angle_alpha   80.63548705
_cell_angle_beta   80.63548637
_cell_angle_gamma   59.96862810
_symmetry_Int_Tables_number   1
_chemical_formula_structural   Ca10ScReN10
_chemical_formula_sum   'Ca10 Sc1 Re1 N10'
_cell_volume   372.80173233
_cell_formula_units_Z   1
loop_
 _symmetry_equiv_pos_site_id
 _symmetry_equiv_pos_as_xyz
  1  'x, y, z'
loop_
 _atom_site_type_symbol
 _atom_site_label
 _atom_site_symmetry_multiplicity
 _atom_site_fract_x
 _atom_site_fract_y
 _atom_site_fract_z
 _atom_site_occupancy
  Ca  Ca0  1  0.876477  0.359798  0.827354  1
  Ca  Ca1  1  0.873594  0.873594  0.815312  1
  Ca  Ca2  1  0.735972  0.735972  0.536512  1
  Ca  Ca3  1  0.742155  0.257503  0.518356  1
  Ca  Ca4  1  0.621531  0.142556  0.144115  1
  Ca  Ca5  1  0.359798  0.876477  0.827354  1
  Ca  Ca6  1  0.257503  0.742155  0.518356  1
  Ca  Ca7  1  0.241271  0.241271  0.506428  1
  Ca  Ca8  1  0.143225  0.143225  0.158472  1
  Ca  Ca9  1  0.142556  0.621531  0.144115  1
  Sc  Sc10  1  0.369340  0.369340  0.778969  1
  Re  Re11  1  0.632625  0.632625  0.227254  1
  N  N12  1  0.901720  0.475382  0.314052  1
  N  N13  1  0.992393  0.992393  0.028392  1
  N  N14  1  0.675430  0.675430  0.020639  1
  N  N15  1  0.547013  0.547013  0.686287  1
  N  N16  1  0.475382  0.901720  0.314052  1
  N  N17  1  0.548862  0.071785  0.664612  1
  N  N18  1  0.477540  0.477540  0.293876  1
  N  N19  1  0.316046  0.316046  0.011341  1
  N  N20  1  0.060068  0.060068  0.645347  1
  N  N21  1  0.071785  0.548862  0.664612  1
