# generated using pymatgen
data_YbTh(ReO4)6
_symmetry_space_group_name_H-M   'P 1'
_cell_length_a   10.28105300
_cell_length_b   10.28105268
_cell_length_c   6.35371000
_cell_angle_alpha   90.00000000
_cell_angle_beta   90.00000000
_cell_angle_gamma   119.99999780
_symmetry_Int_Tables_number   1
_chemical_formula_structural   YbTh(ReO4)6
_chemical_formula_sum   'Yb1 Th1 Re6 O24'
_cell_volume   581.61180468
_cell_formula_units_Z   1
loop_
 _symmetry_equiv_pos_site_id
 _symmetry_equiv_pos_as_xyz
  1  'x, y, z'
loop_
 _atom_site_type_symbol
 _atom_site_label
 _atom_site_symmetry_multiplicity
 _atom_site_fract_x
 _atom_site_fract_y
 _atom_site_fract_z
 _atom_site_occupancy
  Yb  Yb0  1  0.333333  0.666667  0.250000  1
  Th  Th1  1  0.666667  0.333333  0.750000  1
  Re  Re2  1  0.090503  0.398700  0.750000  1
  Re  Re3  1  0.392710  0.302878  0.250000  1
  Re  Re4  1  0.601300  0.691801  0.750000  1
  Re  Re5  1  0.910167  0.607290  0.250000  1
  Re  Re6  1  0.308199  0.909497  0.750000  1
  Re  Re7  1  0.697122  0.089833  0.250000  1
  O  O8  1  0.487513  0.647280  0.525964  1
  O  O9  1  0.352720  0.840234  0.525964  1
  O  O10  1  0.844091  0.731938  0.250000  1
  O  O11  1  0.117861  0.848083  0.750000  1
  O  O12  1  0.268062  0.112153  0.250000  1
  O  O13  1  0.151917  0.269778  0.750000  1
  O  O14  1  0.509177  0.351004  0.023931  1
  O  O15  1  0.887847  0.155909  0.250000  1
  O  O16  1  0.105262  0.704260  0.250000  1
  O  O17  1  0.159766  0.512487  0.974036  1
  O  O18  1  0.159766  0.512487  0.525964  1
  O  O19  1  0.890192  0.306314  0.750000  1
  O  O20  1  0.295740  0.401002  0.250000  1
  O  O21  1  0.693686  0.583879  0.750000  1
  O  O22  1  0.841827  0.490823  0.476069  1
  O  O23  1  0.416121  0.109808  0.750000  1
  O  O24  1  0.648996  0.158173  0.023931  1
  O  O25  1  0.487513  0.647280  0.974036  1
  O  O26  1  0.352720  0.840234  0.974036  1
  O  O27  1  0.648996  0.158173  0.476069  1
  O  O28  1  0.509177  0.351004  0.476069  1
  O  O29  1  0.841827  0.490823  0.023931  1
  O  O30  1  0.730222  0.882139  0.750000  1
  O  O31  1  0.598998  0.894738  0.250000  1
