# generated using pymatgen
data_Zr6Al6TcPd5
_symmetry_space_group_name_H-M   'P 1'
_cell_length_a   7.30750600
_cell_length_b   7.30750651
_cell_length_c   6.97666600
_cell_angle_alpha   90.00000000
_cell_angle_beta   90.00000000
_cell_angle_gamma   119.99998864
_symmetry_Int_Tables_number   1
_chemical_formula_structural   Zr6Al6TcPd5
_chemical_formula_sum   'Zr6 Al6 Tc1 Pd5'
_cell_volume   322.63910558
_cell_formula_units_Z   1
loop_
 _symmetry_equiv_pos_site_id
 _symmetry_equiv_pos_as_xyz
  1  'x, y, z'
loop_
 _atom_site_type_symbol
 _atom_site_label
 _atom_site_symmetry_multiplicity
 _atom_site_fract_x
 _atom_site_fract_y
 _atom_site_fract_z
 _atom_site_occupancy
  Zr  Zr0  1  0.014753  0.604542  0.757047  1
  Zr  Zr1  1  0.005111  0.598710  0.242964  1
  Zr  Zr2  1  0.593599  0.994889  0.242964  1
  Zr  Zr3  1  0.589789  0.985247  0.757047  1
  Zr  Zr4  1  0.401290  0.406401  0.242964  1
  Zr  Zr5  1  0.395458  0.410211  0.757047  1
  Al  Al6  1  0.995033  0.263538  0.500137  1
  Al  Al7  1  0.743320  0.743385  0.000434  1
  Al  Al8  1  0.000065  0.256680  0.000434  1
  Al  Al9  1  0.268506  0.004967  0.500137  1
  Al  Al10  1  0.256615  0.999935  0.000434  1
  Al  Al11  1  0.736462  0.731494  0.500137  1
  Tc  Tc12  1  0.333333  0.666667  0.003923  1
  Pd  Pd13  1  0.333333  0.666667  0.492619  1
  Pd  Pd14  1  0.666667  0.333333  0.508982  1
  Pd  Pd15  1  0.666667  0.333333  0.991936  1
  Pd  Pd16  1  0.000000  0.000000  0.259028  1
  Pd  Pd17  1  0.000000  0.000000  0.741764  1
