# generated using pymatgen
data_Er5P12Ru10Rh9
_symmetry_space_group_name_H-M   'P 1'
_cell_length_a   12.59250712
_cell_length_b   12.56066917
_cell_length_c   3.92273000
_cell_angle_alpha   90.00000000
_cell_angle_beta   90.00000000
_cell_angle_gamma   119.83628342
_symmetry_Int_Tables_number   1
_chemical_formula_structural   Er5P12Ru10Rh9
_chemical_formula_sum   'Er5 P12 Ru10 Rh9'
_cell_volume   538.21789394
_cell_formula_units_Z   1
loop_
 _symmetry_equiv_pos_site_id
 _symmetry_equiv_pos_as_xyz
  1  'x, y, z'
loop_
 _atom_site_type_symbol
 _atom_site_label
 _atom_site_symmetry_multiplicity
 _atom_site_fract_x
 _atom_site_fract_y
 _atom_site_fract_z
 _atom_site_occupancy
  Er  Er0  1  0.666744  0.332572  0.000000  1
  Er  Er1  1  0.333403  0.666853  0.000000  1
  Er  Er2  1  0.812073  0.000939  0.500000  1
  Er  Er3  1  0.185695  0.187392  0.500000  1
  Er  Er4  1  0.999955  0.812989  0.500000  1
  P  P5  1  0.631278  0.997717  0.000000  1
  P  P6  1  0.366065  0.371645  0.000000  1
  P  P7  1  0.005925  0.633753  0.000000  1
  P  P8  1  0.686873  0.519414  0.500000  1
  P  P9  1  0.830987  0.308526  0.500000  1
  P  P10  1  0.314889  0.832148  0.500000  1
  P  P11  1  0.517568  0.685725  0.500000  1
  P  P12  1  0.180085  0.001296  0.000000  1
  P  P13  1  0.820118  0.819800  0.000000  1
  P  P14  1  0.996040  0.179802  0.000000  1
  P  P15  1  0.479450  0.165655  0.500000  1
  P  P16  1  0.168305  0.483096  0.500000  1
  Ru  Ru17  1  0.127307  0.641451  0.500000  1
  Ru  Ru18  1  0.360225  0.487284  0.500000  1
  Ru  Ru19  1  0.512355  0.871331  0.500000  1
  Ru  Ru20  1  0.717361  0.716068  0.500000  1
  Ru  Ru21  1  0.001163  0.284581  0.500000  1
  Ru  Ru22  1  0.450497  0.002631  0.000000  1
  Ru  Ru23  1  0.553148  0.548020  0.000000  1
  Ru  Ru24  1  0.000252  0.449178  0.000000  1
  Ru  Ru25  1  0.816889  0.194789  0.000000  1
  Ru  Ru26  1  0.283413  0.001262  0.500000  1
  Rh  Rh27  1  0.624612  0.804196  0.000000  1
  Rh  Rh28  1  0.180959  0.375326  0.000000  1
  Rh  Rh29  1  0.374997  0.184157  0.000000  1
  Rh  Rh30  1  0.195562  0.821097  0.000000  1
  Rh  Rh31  1  0.808895  0.624257  0.000000  1
  Rh  Rh32  1  0.869639  0.507375  0.500000  1
  Rh  Rh33  1  0.490423  0.359606  0.500000  1
  Rh  Rh34  1  0.637214  0.127886  0.500000  1
  Rh  Rh35  1  0.999640  0.000181  0.000000  1
