# generated using pymatgen
data_Mn4NbOs
_symmetry_space_group_name_H-M   'P 1'
_cell_length_a   4.71722300
_cell_length_b   4.71722242
_cell_length_c   7.77025900
_cell_angle_alpha   90.00000000
_cell_angle_beta   90.00000000
_cell_angle_gamma   120.00001105
_symmetry_Int_Tables_number   1
_chemical_formula_structural   Mn4NbOs
_chemical_formula_sum   'Mn8 Nb2 Os2'
_cell_volume   149.74034871
_cell_formula_units_Z   2
loop_
 _symmetry_equiv_pos_site_id
 _symmetry_equiv_pos_as_xyz
  1  'x, y, z'
loop_
 _atom_site_type_symbol
 _atom_site_label
 _atom_site_symmetry_multiplicity
 _atom_site_fract_x
 _atom_site_fract_y
 _atom_site_fract_z
 _atom_site_occupancy
  Mn  Mn0  1  0.172913  0.345825  0.750797  1
  Mn  Mn1  1  0.827087  0.172913  0.250797  1
  Mn  Mn2  1  0.345825  0.172913  0.250797  1
  Mn  Mn3  1  0.654175  0.827087  0.750797  1
  Mn  Mn4  1  0.000000  0.000000  0.002630  1
  Mn  Mn5  1  0.000000  0.000000  0.502630  1
  Mn  Mn6  1  0.827087  0.654175  0.250797  1
  Mn  Mn7  1  0.172913  0.827087  0.750797  1
  Nb  Nb8  1  0.666667  0.333333  0.564220  1
  Nb  Nb9  1  0.333333  0.666667  0.064220  1
  Os  Os10  1  0.333333  0.666667  0.430758  1
  Os  Os11  1  0.666667  0.333333  0.930758  1
