# generated using pymatgen
data_Mg2VNi11P7
_symmetry_space_group_name_H-M   'P 1'
_cell_length_a   9.07483401
_cell_length_b   9.09860243
_cell_length_c   3.57965600
_cell_angle_alpha   90.00000000
_cell_angle_beta   90.00000000
_cell_angle_gamma   120.51258691
_symmetry_Int_Tables_number   1
_chemical_formula_structural   Mg2VNi11P7
_chemical_formula_sum   'Mg2 V1 Ni11 P7'
_cell_volume   254.63543932
_cell_formula_units_Z   1
loop_
 _symmetry_equiv_pos_site_id
 _symmetry_equiv_pos_as_xyz
  1  'x, y, z'
loop_
 _atom_site_type_symbol
 _atom_site_label
 _atom_site_symmetry_multiplicity
 _atom_site_fract_x
 _atom_site_fract_y
 _atom_site_fract_z
 _atom_site_occupancy
  Mg  Mg0  1  0.000013  0.002235  0.000000  1
  Mg  Mg1  1  0.331400  0.666390  0.500000  1
  V  V2  1  0.880298  0.453142  0.500000  1
  Ni  Ni3  1  0.295355  0.399160  0.000000  1
  Ni  Ni4  1  0.105256  0.705702  0.000000  1
  Ni  Ni5  1  0.541899  0.431871  0.500000  1
  Ni  Ni6  1  0.387259  0.175211  0.000000  1
  Ni  Ni7  1  0.789139  0.618579  0.000000  1
  Ni  Ni8  1  0.821699  0.206432  0.000000  1
  Ni  Ni9  1  0.231199  0.947730  0.500000  1
  Ni  Ni10  1  0.051313  0.275757  0.500000  1
  Ni  Ni11  1  0.722277  0.772150  0.500000  1
  Ni  Ni12  1  0.573423  0.118396  0.500000  1
  Ni  Ni13  1  0.599919  0.891526  0.000000  1
  P  P14  1  0.666596  0.333911  0.000000  1
  P  P15  1  0.078175  0.449504  0.000000  1
  P  P16  1  0.257271  0.215005  0.500000  1
  P  P17  1  0.782399  0.041460  0.500000  1
  P  P18  1  0.959671  0.744693  0.500000  1
  P  P19  1  0.548397  0.627659  0.000000  1
  P  P20  1  0.377040  0.923487  0.000000  1
