# generated using pymatgen
data_Ac8Nb(TcO8)3
_symmetry_space_group_name_H-M   'P 1'
_cell_length_a   10.56104064
_cell_length_b   10.54024883
_cell_length_c   5.78622800
_cell_angle_alpha   75.27079660
_cell_angle_beta   75.13055958
_cell_angle_gamma   68.91785375
_symmetry_Int_Tables_number   1
_chemical_formula_structural   Ac8Nb(TcO8)3
_chemical_formula_sum   'Ac8 Nb1 Tc3 O24'
_cell_volume   571.41983762
_cell_formula_units_Z   1
loop_
 _symmetry_equiv_pos_site_id
 _symmetry_equiv_pos_as_xyz
  1  'x, y, z'
loop_
 _atom_site_type_symbol
 _atom_site_label
 _atom_site_symmetry_multiplicity
 _atom_site_fract_x
 _atom_site_fract_y
 _atom_site_fract_z
 _atom_site_occupancy
  Ac  Ac0  1  0.628259  0.376472  0.740613  1
  Ac  Ac1  1  0.375824  0.635997  0.242235  1
  Ac  Ac2  1  0.114763  0.886639  0.753721  1
  Ac  Ac3  1  0.887725  0.112639  0.250818  1
  Ac  Ac4  1  0.706263  0.933862  0.885421  1
  Ac  Ac5  1  0.295544  0.054200  0.117593  1
  Ac  Ac6  1  0.064361  0.289869  0.619335  1
  Ac  Ac7  1  0.931186  0.711091  0.387529  1
  Nb  Nb8  1  0.506701  0.800241  0.561229  1
  Tc  Tc9  1  0.497146  0.200715  0.440530  1
  Tc  Tc10  1  0.200456  0.497550  0.949836  1
  Tc  Tc11  1  0.801728  0.500954  0.052575  1
  O  O12  1  0.674677  0.164717  0.581652  1
  O  O13  1  0.314380  0.837725  0.417665  1
  O  O14  1  0.836720  0.320012  0.907481  1
  O  O15  1  0.163114  0.674153  0.088313  1
  O  O16  1  0.382613  0.830694  0.867759  1
  O  O17  1  0.609564  0.180225  0.149471  1
  O  O18  1  0.174300  0.608233  0.659672  1
  O  O19  1  0.825676  0.386690  0.343811  1
  O  O20  1  0.680273  0.784388  0.630373  1
  O  O21  1  0.332494  0.219142  0.365615  1
  O  O22  1  0.218519  0.332941  0.872295  1
  O  O23  1  0.783768  0.666577  0.131380  1
  O  O24  1  0.472058  0.071502  0.708127  1
  O  O25  1  0.525463  0.933462  0.266743  1
  O  O26  1  0.929707  0.525792  0.782934  1
  O  O27  1  0.071831  0.470961  0.218810  1
  O  O28  1  0.538992  0.617164  0.521511  1
  O  O29  1  0.455474  0.376181  0.479629  1
  O  O30  1  0.376651  0.456828  0.983111  1
  O  O31  1  0.624019  0.538134  0.018565  1
  O  O32  1  0.890814  0.919938  0.077013  1
  O  O33  1  0.104806  0.082567  0.926949  1
  O  O34  1  0.080514  0.108592  0.427060  1
  O  O35  1  0.923618  0.893151  0.572625  1
