# generated using pymatgen
data_Th14Fe4CoNi
_symmetry_space_group_name_H-M   'P 1'
_cell_length_a   9.75920341
_cell_length_b   9.72396436
_cell_length_c   6.19976281
_cell_angle_alpha   90.01286788
_cell_angle_beta   90.26675046
_cell_angle_gamma   120.14213222
_symmetry_Int_Tables_number   1
_chemical_formula_structural   Th14Fe4CoNi
_chemical_formula_sum   'Th14 Fe4 Co1 Ni1'
_cell_volume   508.78351735
_cell_formula_units_Z   1
loop_
 _symmetry_equiv_pos_site_id
 _symmetry_equiv_pos_as_xyz
  1  'x, y, z'
loop_
 _atom_site_type_symbol
 _atom_site_label
 _atom_site_symmetry_multiplicity
 _atom_site_fract_x
 _atom_site_fract_y
 _atom_site_fract_z
 _atom_site_occupancy
  Th  Th0  1  0.334587  0.665586  0.034327  1
  Th  Th1  1  0.671431  0.336545  0.538877  1
  Th  Th2  1  0.121128  0.868659  0.247069  1
  Th  Th3  1  0.247130  0.125638  0.752134  1
  Th  Th4  1  0.873359  0.749066  0.745733  1
  Th  Th5  1  0.120446  0.253249  0.247641  1
  Th  Th6  1  0.750412  0.875090  0.247590  1
  Th  Th7  1  0.875294  0.123809  0.747642  1
  Th  Th8  1  0.548508  0.461801  0.051427  1
  Th  Th9  1  0.087827  0.542001  0.556518  1
  Th  Th10  1  0.460053  0.913899  0.553076  1
  Th  Th11  1  0.548777  0.084982  0.051467  1
  Th  Th12  1  0.910639  0.454922  0.053539  1
  Th  Th13  1  0.457262  0.544667  0.552521  1
  Fe  Fe14  1  0.810204  0.183546  0.294352  1
  Fe  Fe15  1  0.628186  0.817977  0.793262  1
  Fe  Fe16  1  0.183194  0.368568  0.794581  1
  Fe  Fe17  1  0.814972  0.630372  0.293007  1
  Co  Co18  1  0.186523  0.816188  0.800886  1
  Ni  Ni19  1  0.370069  0.183436  0.304353  1
