# generated using pymatgen
data_Zr8Ti12Si13P3
_symmetry_space_group_name_H-M   'P 1'
_cell_length_a   6.80999903
_cell_length_b   6.81497960
_cell_length_c   12.49891784
_cell_angle_alpha   90.03315266
_cell_angle_beta   90.05268303
_cell_angle_gamma   90.03446658
_symmetry_Int_Tables_number   1
_chemical_formula_structural   Zr8Ti12Si13P3
_chemical_formula_sum   'Zr8 Ti12 Si13 P3'
_cell_volume   580.07438481
_cell_formula_units_Z   1
loop_
 _symmetry_equiv_pos_site_id
 _symmetry_equiv_pos_as_xyz
  1  'x, y, z'
loop_
 _atom_site_type_symbol
 _atom_site_label
 _atom_site_symmetry_multiplicity
 _atom_site_fract_x
 _atom_site_fract_y
 _atom_site_fract_z
 _atom_site_occupancy
  Zr  Zr0  1  0.000425  0.653027  0.031168  1
  Zr  Zr1  1  0.998025  0.345495  0.530682  1
  Zr  Zr2  1  0.657895  0.002421  0.968017  1
  Zr  Zr3  1  0.155114  0.498088  0.781903  1
  Zr  Zr4  1  0.846202  0.501949  0.282315  1
  Zr  Zr5  1  0.498843  0.155323  0.218899  1
  Zr  Zr6  1  0.502361  0.846077  0.717384  1
  Zr  Zr7  1  0.345195  0.998230  0.469362  1
  Ti  Ti8  1  0.341427  0.506888  0.379000  1
  Ti  Ti9  1  0.849328  0.993495  0.376893  1
  Ti  Ti10  1  0.003050  0.153739  0.124492  1
  Ti  Ti11  1  0.993400  0.849016  0.623454  1
  Ti  Ti12  1  0.657636  0.493552  0.878195  1
  Ti  Ti13  1  0.506973  0.341429  0.621096  1
  Ti  Ti14  1  0.496155  0.653818  0.122173  1
  Ti  Ti15  1  0.149842  0.007929  0.873769  1
  Ti  Ti16  1  0.672929  0.673274  0.500087  1
  Ti  Ti17  1  0.829236  0.170846  0.749696  1
  Ti  Ti18  1  0.169332  0.827962  0.252216  1
  Ti  Ti19  1  0.326947  0.328713  0.999183  1
  Si  Si20  1  0.208250  0.453116  0.186761  1
  Si  Si21  1  0.791798  0.546567  0.686745  1
  Si  Si22  1  0.453049  0.207779  0.813202  1
  Si  Si23  1  0.546526  0.791869  0.313090  1
  Si  Si24  1  0.292393  0.953042  0.064071  1
  Si  Si25  1  0.865586  0.794444  0.821298  1
  Si  Si26  1  0.134725  0.204084  0.321686  1
  Si  Si27  1  0.795787  0.865478  0.178198  1
  Si  Si28  1  0.296966  0.633047  0.575533  1
  Si  Si29  1  0.702156  0.365065  0.074465  1
  Si  Si30  1  0.633289  0.297143  0.424762  1
  Si  Si31  1  0.365854  0.705896  0.926619  1
  Si  Si32  1  0.204738  0.134860  0.677438  1
  P  P33  1  0.046051  0.707724  0.436342  1
  P  P34  1  0.954394  0.292180  0.935652  1
  P  P35  1  0.708121  0.046434  0.564153  1
