# generated using pymatgen
data_Nb12Al8IrRu3C4
_symmetry_space_group_name_H-M   'P 1'
_cell_length_a   8.35256134
_cell_length_b   8.35428132
_cell_length_c   8.35428100
_cell_angle_alpha   60.00000521
_cell_angle_beta   59.99319314
_cell_angle_gamma   59.99319153
_symmetry_Int_Tables_number   1
_chemical_formula_structural   Nb12Al8IrRu3C4
_chemical_formula_sum   'Nb12 Al8 Ir1 Ru3 C4'
_cell_volume   412.17170191
_cell_formula_units_Z   1
loop_
 _symmetry_equiv_pos_site_id
 _symmetry_equiv_pos_as_xyz
  1  'x, y, z'
loop_
 _atom_site_type_symbol
 _atom_site_label
 _atom_site_symmetry_multiplicity
 _atom_site_fract_x
 _atom_site_fract_y
 _atom_site_fract_z
 _atom_site_occupancy
  Nb  Nb0  1  0.558442  0.939552  0.562455  1
  Nb  Nb1  1  0.309484  0.690346  0.690346  1
  Nb  Nb2  1  0.691558  0.310448  0.310448  1
  Nb  Nb3  1  0.309484  0.690346  0.309823  1
  Nb  Nb4  1  0.691558  0.687545  0.310448  1
  Nb  Nb5  1  0.309484  0.309823  0.690346  1
  Nb  Nb6  1  0.558442  0.562455  0.939552  1
  Nb  Nb7  1  0.940516  0.559654  0.559654  1
  Nb  Nb8  1  0.558442  0.939552  0.939552  1
  Nb  Nb9  1  0.940516  0.940177  0.559654  1
  Nb  Nb10  1  0.691558  0.310448  0.687545  1
  Nb  Nb11  1  0.940516  0.559654  0.940177  1
  Al  Al12  1  0.917663  0.916154  0.916154  1
  Al  Al13  1  0.000808  0.333064  0.333064  1
  Al  Al14  1  0.332337  0.999971  0.333846  1
  Al  Al15  1  0.332337  0.333846  0.999971  1
  Al  Al16  1  0.917663  0.250029  0.916154  1
  Al  Al17  1  0.917663  0.916154  0.250029  1
  Al  Al18  1  0.249192  0.916936  0.916936  1
  Al  Al19  1  0.332337  0.333846  0.333846  1
  Ir  Ir20  1  0.625000  0.125000  0.125000  1
  Ru  Ru21  1  0.125000  0.125000  0.125000  1
  Ru  Ru22  1  0.125000  0.625000  0.125000  1
  Ru  Ru23  1  0.125000  0.125000  0.625000  1
  C  C24  1  0.625000  0.625000  0.625000  1
  C  C25  1  0.125000  0.625000  0.625000  1
  C  C26  1  0.625000  0.125000  0.625000  1
  C  C27  1  0.625000  0.625000  0.125000  1
