# generated using pymatgen
data_GeSb11
_symmetry_space_group_name_H-M   'P 1'
_cell_length_a   4.67674200
_cell_length_b   4.38199169
_cell_length_c   21.35801184
_cell_angle_alpha   89.56518196
_cell_angle_beta   90.00000000
_cell_angle_gamma   122.25118469
_symmetry_Int_Tables_number   1
_chemical_formula_structural   GeSb11
_chemical_formula_sum   'Ge1 Sb11'
_cell_volume   370.15468475
_cell_formula_units_Z   1
loop_
 _symmetry_equiv_pos_site_id
 _symmetry_equiv_pos_as_xyz
  1  'x, y, z'
loop_
 _atom_site_type_symbol
 _atom_site_label
 _atom_site_symmetry_multiplicity
 _atom_site_fract_x
 _atom_site_fract_y
 _atom_site_fract_z
 _atom_site_occupancy
  Ge  Ge0  1  0.954010  0.999999  0.500000  1
  Sb  Sb1  1  0.295894  0.675961  0.340554  1
  Sb  Sb2  1  0.619934  0.324039  0.659447  1
  Sb  Sb3  1  0.374842  0.666692  0.085377  1
  Sb  Sb4  1  0.708153  0.333308  0.914623  1
  Sb  Sb5  1  0.956202  0.000000  0.000000  1
  Sb  Sb6  1  0.378760  0.658576  0.573768  1
  Sb  Sb7  1  0.720183  0.341424  0.426233  1
  Sb  Sb8  1  0.288239  0.663877  0.829498  1
  Sb  Sb9  1  0.624363  0.336123  0.170502  1
  Sb  Sb10  1  0.041175  0.003323  0.255767  1
  Sb  Sb11  1  0.037851  0.996677  0.744234  1
