# generated using pymatgen
data_Tb2DyY3IrI10
_symmetry_space_group_name_H-M   'P 1'
_cell_length_a   7.75760049
_cell_length_b   9.77410277
_cell_length_c   9.75142384
_cell_angle_alpha   106.93449779
_cell_angle_beta   96.69552482
_cell_angle_gamma   104.55155480
_symmetry_Int_Tables_number   1
_chemical_formula_structural   Tb2DyY3IrI10
_chemical_formula_sum   'Tb2 Dy1 Y3 Ir1 I10'
_cell_volume   670.10348742
_cell_formula_units_Z   1
loop_
 _symmetry_equiv_pos_site_id
 _symmetry_equiv_pos_as_xyz
  1  'x, y, z'
loop_
 _atom_site_type_symbol
 _atom_site_label
 _atom_site_symmetry_multiplicity
 _atom_site_fract_x
 _atom_site_fract_y
 _atom_site_fract_z
 _atom_site_occupancy
  Tb  Tb0  1  0.114151  0.042623  0.763124  1
  Tb  Tb1  1  0.885906  0.957476  0.236910  1
  Dy  Dy2  1  0.969227  0.285577  0.084970  1
  Y  Y3  1  0.030884  0.713617  0.914925  1
  Y  Y4  1  0.348974  0.125248  0.166626  1
  Y  Y5  1  0.651032  0.874857  0.833378  1
  Ir  Ir6  1  0.000014  0.000398  0.000106  1
  I  I7  1  0.349567  0.450354  0.272421  1
  I  I8  1  0.650084  0.549602  0.727417  1
  I  I9  1  0.256285  0.086956  0.460966  1
  I  I10  1  0.743728  0.913023  0.539039  1
  I  I11  1  0.086332  0.373225  0.820439  1
  I  I12  1  0.913638  0.626917  0.179689  1
  I  I13  1  0.455105  0.816689  0.092540  1
  I  I14  1  0.545029  0.183335  0.907559  1
  I  I15  1  0.777956  0.255944  0.345340  1
  I  I16  1  0.222087  0.744160  0.654553  1
