# generated using pymatgen
data_Sm2Th3Tl3C
_symmetry_space_group_name_H-M   'P 1'
_cell_length_a   9.42036100
_cell_length_b   9.42036044
_cell_length_c   6.51246600
_cell_angle_alpha   90.00000000
_cell_angle_beta   90.00000000
_cell_angle_gamma   120.00000549
_symmetry_Int_Tables_number   1
_chemical_formula_structural   Sm2Th3Tl3C
_chemical_formula_sum   'Sm4 Th6 Tl6 C2'
_cell_volume   500.50813691
_cell_formula_units_Z   2
loop_
 _symmetry_equiv_pos_site_id
 _symmetry_equiv_pos_as_xyz
  1  'x, y, z'
loop_
 _atom_site_type_symbol
 _atom_site_label
 _atom_site_symmetry_multiplicity
 _atom_site_fract_x
 _atom_site_fract_y
 _atom_site_fract_z
 _atom_site_occupancy
  Sm  Sm0  1  0.666667  0.333333  0.500000  1
  Sm  Sm1  1  0.333333  0.666667  0.500000  1
  Sm  Sm2  1  0.333333  0.666667  0.000000  1
  Sm  Sm3  1  0.666667  0.333333  0.000000  1
  Th  Th4  1  0.783132  0.783132  0.250000  1
  Th  Th5  1  0.216868  0.000000  0.250000  1
  Th  Th6  1  0.000000  0.216868  0.250000  1
  Th  Th7  1  0.216868  0.216868  0.750000  1
  Th  Th8  1  0.783132  0.000000  0.750000  1
  Th  Th9  1  0.000000  0.783132  0.750000  1
  Tl  Tl10  1  0.409145  0.409145  0.250000  1
  Tl  Tl11  1  0.590855  0.000000  0.250000  1
  Tl  Tl12  1  0.000000  0.590855  0.250000  1
  Tl  Tl13  1  0.590855  0.590855  0.750000  1
  Tl  Tl14  1  0.409145  0.000000  0.750000  1
  Tl  Tl15  1  0.000000  0.409145  0.750000  1
  C  C16  1  0.000000  0.000000  0.500000  1
  C  C17  1  0.000000  0.000000  0.000000  1
