# generated using pymatgen
data_Ho12Si12Pd3Au
_symmetry_space_group_name_H-M   'P 1'
_cell_length_a   4.23973100
_cell_length_b   10.70079891
_cell_length_c   12.31458500
_cell_angle_alpha   90.02369298
_cell_angle_beta   90.00000000
_cell_angle_gamma   90.00000000
_symmetry_Int_Tables_number   1
_chemical_formula_structural   Ho12Si12Pd3Au
_chemical_formula_sum   'Ho12 Si12 Pd3 Au1'
_cell_volume   558.69431121
_cell_formula_units_Z   1
loop_
 _symmetry_equiv_pos_site_id
 _symmetry_equiv_pos_as_xyz
  1  'x, y, z'
loop_
 _atom_site_type_symbol
 _atom_site_label
 _atom_site_symmetry_multiplicity
 _atom_site_fract_x
 _atom_site_fract_y
 _atom_site_fract_z
 _atom_site_occupancy
  Ho  Ho0  1  0.250000  0.878741  0.022361  1
  Ho  Ho1  1  0.250000  0.623484  0.520240  1
  Ho  Ho2  1  0.750000  0.121136  0.979302  1
  Ho  Ho3  1  0.750000  0.377917  0.478048  1
  Ho  Ho4  1  0.250000  0.920757  0.600127  1
  Ho  Ho5  1  0.250000  0.579567  0.101571  1
  Ho  Ho6  1  0.750000  0.079319  0.397797  1
  Ho  Ho7  1  0.750000  0.420357  0.898925  1
  Ho  Ho8  1  0.250000  0.666422  0.802604  1
  Ho  Ho9  1  0.250000  0.838923  0.300981  1
  Ho  Ho10  1  0.750000  0.338691  0.198747  1
  Ho  Ho11  1  0.750000  0.159044  0.698817  1
  Si  Si12  1  0.250000  0.016630  0.823574  1
  Si  Si13  1  0.250000  0.481520  0.324768  1
  Si  Si14  1  0.750000  0.981179  0.176443  1
  Si  Si15  1  0.750000  0.524658  0.675476  1
  Si  Si16  1  0.250000  0.242569  0.847824  1
  Si  Si17  1  0.250000  0.252980  0.343421  1
  Si  Si18  1  0.750000  0.753426  0.156092  1
  Si  Si19  1  0.750000  0.749727  0.655601  1
  Si  Si20  1  0.250000  0.186940  0.535630  1
  Si  Si21  1  0.250000  0.306262  0.039981  1
  Si  Si22  1  0.750000  0.806152  0.460099  1
  Si  Si23  1  0.750000  0.693829  0.961565  1
  Pd  Pd24  1  0.250000  0.110195  0.181607  1
  Pd  Pd25  1  0.750000  0.610760  0.317534  1
  Pd  Pd26  1  0.750000  0.889489  0.818430  1
  Au  Au27  1  0.250000  0.389325  0.682433  1
