# generated using pymatgen
data_Ca3NdTi8O20
_symmetry_space_group_name_H-M   'P 1'
_cell_length_a   5.88284700
_cell_length_b   7.73182303
_cell_length_c   8.63941105
_cell_angle_alpha   90.01134791
_cell_angle_beta   90.00000000
_cell_angle_gamma   90.00000000
_symmetry_Int_Tables_number   1
_chemical_formula_structural   Ca3NdTi8O20
_chemical_formula_sum   'Ca3 Nd1 Ti8 O20'
_cell_volume   392.96474366
_cell_formula_units_Z   1
loop_
 _symmetry_equiv_pos_site_id
 _symmetry_equiv_pos_as_xyz
  1  'x, y, z'
loop_
 _atom_site_type_symbol
 _atom_site_label
 _atom_site_symmetry_multiplicity
 _atom_site_fract_x
 _atom_site_fract_y
 _atom_site_fract_z
 _atom_site_occupancy
  Ca  Ca0  1  0.000000  0.362237  0.664784  1
  Ca  Ca1  1  0.000000  0.639215  0.336873  1
  Ca  Ca2  1  0.000000  0.852107  0.831652  1
  Nd  Nd3  1  0.000000  0.135712  0.165523  1
  Ti  Ti4  1  0.500000  0.118795  0.857068  1
  Ti  Ti5  1  0.500000  0.883803  0.142627  1
  Ti  Ti6  1  0.500000  0.615022  0.638943  1
  Ti  Ti7  1  0.500000  0.382323  0.358666  1
  Ti  Ti8  1  0.241294  0.502319  0.998685  1
  Ti  Ti9  1  0.758250  0.000849  0.504920  1
  Ti  Ti10  1  0.758706  0.502319  0.998685  1
  Ti  Ti11  1  0.241750  0.000849  0.504920  1
  O  O12  1  0.258114  0.905969  0.290852  1
  O  O13  1  0.260455  0.103443  0.706762  1
  O  O14  1  0.740349  0.389136  0.204552  1
  O  O15  1  0.738666  0.602392  0.794132  1
  O  O16  1  0.739545  0.103443  0.706762  1
  O  O17  1  0.741886  0.905969  0.290852  1
  O  O18  1  0.261334  0.602392  0.794132  1
  O  O19  1  0.259651  0.389136  0.204552  1
  O  O20  1  0.500000  0.339168  0.924668  1
  O  O21  1  0.500000  0.659995  0.079766  1
  O  O22  1  0.500000  0.837622  0.571741  1
  O  O23  1  0.500000  0.162443  0.429223  1
  O  O24  1  0.285611  0.001171  0.999353  1
  O  O25  1  0.714059  0.500334  0.498487  1
  O  O26  1  0.714389  0.001171  0.999353  1
  O  O27  1  0.285941  0.500334  0.498487  1
  O  O28  1  0.000000  0.160214  0.444026  1
  O  O29  1  0.000000  0.840583  0.556368  1
  O  O30  1  0.000000  0.659399  0.059319  1
  O  O31  1  0.000000  0.340136  0.943268  1
