# generated using pymatgen
data_AcPr(Ge2Ir)2
_symmetry_space_group_name_H-M   'P 1'
_cell_length_a   4.49102134
_cell_length_b   9.14651264
_cell_length_c   9.71574308
_cell_angle_alpha   118.08011080
_cell_angle_beta   103.36307504
_cell_angle_gamma   90.00000226
_symmetry_Int_Tables_number   1
_chemical_formula_structural   AcPr(Ge2Ir)2
_chemical_formula_sum   'Ac2 Pr2 Ge8 Ir4'
_cell_volume   339.82197945
_cell_formula_units_Z   2
loop_
 _symmetry_equiv_pos_site_id
 _symmetry_equiv_pos_as_xyz
  1  'x, y, z'
loop_
 _atom_site_type_symbol
 _atom_site_label
 _atom_site_symmetry_multiplicity
 _atom_site_fract_x
 _atom_site_fract_y
 _atom_site_fract_z
 _atom_site_occupancy
  Ac  Ac0  1  0.000000  0.258944  0.000000  1
  Ac  Ac1  1  0.000000  0.741056  0.000000  1
  Pr  Pr2  1  0.792124  0.292124  0.584249  1
  Pr  Pr3  1  0.207876  0.707876  0.415751  1
  Ge  Ge4  1  0.419174  0.919174  0.838349  1
  Ge  Ge5  1  0.580826  0.080826  0.161651  1
  Ge  Ge6  1  0.419564  0.419564  0.839128  1
  Ge  Ge7  1  0.580436  0.580436  0.160872  1
  Ge  Ge8  1  0.200171  0.043723  0.400343  1
  Ge  Ge9  1  0.799829  0.956277  0.599657  1
  Ge  Ge10  1  0.200171  0.356620  0.400343  1
  Ge  Ge11  1  0.799829  0.643380  0.599657  1
  Ir  Ir12  1  0.351421  0.098106  0.702842  1
  Ir  Ir13  1  0.648579  0.901894  0.297158  1
  Ir  Ir14  1  0.351421  0.604736  0.702842  1
  Ir  Ir15  1  0.648579  0.395264  0.297158  1
