# generated using pymatgen
data_K8ThSb4
_symmetry_space_group_name_H-M   'P 1'
_cell_length_a   11.85228528
_cell_length_b   11.85211112
_cell_length_c   11.85211000
_cell_angle_alpha   60.00123052
_cell_angle_beta   60.00124584
_cell_angle_gamma   60.00198042
_symmetry_Int_Tables_number   1
_chemical_formula_structural   K8ThSb4
_chemical_formula_sum   'K16 Th2 Sb8'
_cell_volume   1177.31618365
_cell_formula_units_Z   2
loop_
 _symmetry_equiv_pos_site_id
 _symmetry_equiv_pos_as_xyz
  1  'x, y, z'
loop_
 _atom_site_type_symbol
 _atom_site_label
 _atom_site_symmetry_multiplicity
 _atom_site_fract_x
 _atom_site_fract_y
 _atom_site_fract_z
 _atom_site_occupancy
  K  K0  1  0.625000  0.125000  0.625000  1
  K  K1  1  0.625000  0.625000  0.125000  1
  K  K2  1  0.125000  0.625000  0.625000  1
  K  K3  1  0.625000  0.625000  0.625000  1
  K  K4  1  0.030311  0.030314  0.469688  1
  K  K5  1  0.780319  0.219683  0.219674  1
  K  K6  1  0.219677  0.780326  0.780322  1
  K  K7  1  0.780308  0.780313  0.219691  1
  K  K8  1  0.780324  0.219675  0.780326  1
  K  K9  1  0.219672  0.780332  0.219667  1
  K  K10  1  0.469676  0.030325  0.469674  1
  K  K11  1  0.469681  0.030317  0.030326  1
  K  K12  1  0.030323  0.469674  0.469678  1
  K  K13  1  0.030328  0.469668  0.030333  1
  K  K14  1  0.219689  0.219686  0.780312  1
  K  K15  1  0.469692  0.469687  0.030309  1
  Th  Th16  1  0.749999  0.749997  0.750002  1
  Th  Th17  1  0.500001  0.500003  0.499998  1
  Sb  Sb18  1  0.393916  0.818246  0.393919  1
  Sb  Sb19  1  0.856081  0.856082  0.431754  1
  Sb  Sb20  1  0.431756  0.856083  0.856080  1
  Sb  Sb21  1  0.856082  0.856080  0.856085  1
  Sb  Sb22  1  0.818244  0.393917  0.393920  1
  Sb  Sb23  1  0.393918  0.393920  0.393915  1
  Sb  Sb24  1  0.393919  0.393918  0.818246  1
  Sb  Sb25  1  0.856084  0.431754  0.856081  1
