# generated using pymatgen
data_Er3Al3GePt2
_symmetry_space_group_name_H-M   'P 1'
_cell_length_a   7.01661100
_cell_length_b   7.01661129
_cell_length_c   4.14050600
_cell_angle_alpha   90.00000000
_cell_angle_beta   90.00000000
_cell_angle_gamma   119.99999391
_symmetry_Int_Tables_number   1
_chemical_formula_structural   Er3Al3GePt2
_chemical_formula_sum   'Er3 Al3 Ge1 Pt2'
_cell_volume   176.53828150
_cell_formula_units_Z   1
loop_
 _symmetry_equiv_pos_site_id
 _symmetry_equiv_pos_as_xyz
  1  'x, y, z'
loop_
 _atom_site_type_symbol
 _atom_site_label
 _atom_site_symmetry_multiplicity
 _atom_site_fract_x
 _atom_site_fract_y
 _atom_site_fract_z
 _atom_site_occupancy
  Er  Er0  1  0.419805  0.004720  0.500000  1
  Er  Er1  1  0.995280  0.415086  0.500000  1
  Er  Er2  1  0.584914  0.580195  0.500000  1
  Al  Al3  1  0.769614  0.014883  0.000000  1
  Al  Al4  1  0.985117  0.754732  0.000000  1
  Al  Al5  1  0.245268  0.230386  0.000000  1
  Ge  Ge6  1  0.333333  0.666667  0.000000  1
  Pt  Pt7  1  0.666667  0.333333  0.000000  1
  Pt  Pt8  1  0.000000  0.000000  0.500000  1
