# generated using pymatgen
data_Sm8Lu7Sc4Si16Hg
_symmetry_space_group_name_H-M   'P 1'
_cell_length_a   7.22910986
_cell_length_b   7.60819515
_cell_length_c   14.43400727
_cell_angle_alpha   90.09164201
_cell_angle_beta   90.03443993
_cell_angle_gamma   90.08804777
_symmetry_Int_Tables_number   1
_chemical_formula_structural   Sm8Lu7Sc4Si16Hg
_chemical_formula_sum   'Sm8 Lu7 Sc4 Si16 Hg1'
_cell_volume   793.87521120
_cell_formula_units_Z   1
loop_
 _symmetry_equiv_pos_site_id
 _symmetry_equiv_pos_as_xyz
  1  'x, y, z'
loop_
 _atom_site_type_symbol
 _atom_site_label
 _atom_site_symmetry_multiplicity
 _atom_site_fract_x
 _atom_site_fract_y
 _atom_site_fract_z
 _atom_site_occupancy
  Sm  Sm0  1  0.014354  0.175648  0.098187  1
  Sm  Sm1  1  0.986452  0.814232  0.902594  1
  Sm  Sm2  1  0.478015  0.674707  0.899977  1
  Sm  Sm3  1  0.985447  0.814292  0.598827  1
  Sm  Sm4  1  0.514564  0.324536  0.097629  1
  Sm  Sm5  1  0.014338  0.175823  0.400580  1
  Sm  Sm6  1  0.515107  0.323695  0.400854  1
  Sm  Sm7  1  0.479036  0.673888  0.599973  1
  Lu  Lu8  1  0.319484  0.184601  0.626078  1
  Lu  Lu9  1  0.675854  0.824073  0.374288  1
  Lu  Lu10  1  0.174651  0.681669  0.372398  1
  Lu  Lu11  1  0.675144  0.824320  0.124239  1
  Lu  Lu12  1  0.837464  0.324543  0.625806  1
  Lu  Lu13  1  0.319225  0.185649  0.875183  1
  Lu  Lu14  1  0.838241  0.325985  0.875445  1
  Sc  Sc15  1  0.842791  0.493947  0.248887  1
  Sc  Sc16  1  0.343083  0.006980  0.248192  1
  Sc  Sc17  1  0.652206  0.994594  0.750379  1
  Sc  Sc18  1  0.174528  0.680883  0.128413  1
  Si  Si19  1  0.019217  0.085081  0.750759  1
  Si  Si20  1  0.976511  0.890081  0.248023  1
  Si  Si21  1  0.471239  0.612631  0.247621  1
  Si  Si22  1  0.542887  0.382637  0.750507  1
  Si  Si23  1  0.285485  0.887912  0.750375  1
  Si  Si24  1  0.715572  0.130069  0.249187  1
  Si  Si25  1  0.215702  0.374240  0.248649  1
  Si  Si26  1  0.763937  0.630918  0.750427  1
  Si  Si27  1  0.157707  0.461307  0.527595  1
  Si  Si28  1  0.847065  0.532631  0.459319  1
  Si  Si29  1  0.349141  0.969118  0.461747  1
  Si  Si30  1  0.853027  0.533567  0.042749  1
  Si  Si31  1  0.651794  0.030352  0.541679  1
  Si  Si32  1  0.160611  0.464188  0.976026  1
  Si  Si33  1  0.650838  0.030293  0.958164  1
  Si  Si34  1  0.344553  0.964652  0.038797  1
  Hg  Hg35  1  0.154737  0.516259  0.750447  1
