# generated using pymatgen
data_SrLi5Pr5Fe(TeO6)4
_symmetry_space_group_name_H-M   'P 1'
_cell_length_a   11.08674722
_cell_length_b   11.09859086
_cell_length_c   11.08649100
_cell_angle_alpha   109.56057801
_cell_angle_beta   109.51649595
_cell_angle_gamma   109.36497476
_symmetry_Int_Tables_number   1
_chemical_formula_structural   SrLi5Pr5Fe(TeO6)4
_chemical_formula_sum   'Sr2 Li10 Pr10 Fe2 Te8 O48'
_cell_volume   1049.76217768
_cell_formula_units_Z   2
loop_
 _symmetry_equiv_pos_site_id
 _symmetry_equiv_pos_as_xyz
  1  'x, y, z'
loop_
 _atom_site_type_symbol
 _atom_site_label
 _atom_site_symmetry_multiplicity
 _atom_site_fract_x
 _atom_site_fract_y
 _atom_site_fract_z
 _atom_site_occupancy
  Sr  Sr0  1  0.747530  0.371851  0.126840  1
  Sr  Sr1  1  0.379331  0.255002  0.126843  1
  Li  Li2  1  0.873104  0.125969  0.250032  1
  Li  Li3  1  0.376932  0.624032  0.249993  1
  Li  Li4  1  0.749734  0.622675  0.372891  1
  Li  Li5  1  0.623160  0.250176  0.372834  1
  Li  Li6  1  0.376400  0.750488  0.625769  1
  Li  Li7  1  0.249381  0.375293  0.625764  1
  Li  Li8  1  0.125146  0.873537  0.749519  1
  Li  Li9  1  0.624378  0.375995  0.749532  1
  Li  Li10  1  0.126468  0.249583  0.876926  1
  Li  Li11  1  0.750421  0.127302  0.876887  1
  Pr  Pr12  1  0.624212  0.874236  0.248449  1
  Pr  Pr13  1  0.124716  0.374712  0.249434  1
  Pr  Pr14  1  0.255637  0.136320  0.383963  1
  Pr  Pr15  1  0.128307  0.747636  0.383966  1
  Pr  Pr16  1  0.748453  0.873279  0.623572  1
  Pr  Pr17  1  0.875115  0.250295  0.623581  1
  Pr  Pr18  1  0.378486  0.128493  0.756964  1
  Pr  Pr19  1  0.871107  0.621093  0.742190  1
  Pr  Pr20  1  0.250301  0.618950  0.867884  1
  Pr  Pr21  1  0.617581  0.748912  0.867864  1
  Fe  Fe22  1  0.872213  0.748361  0.124235  1
  Fe  Fe23  1  0.251944  0.875971  0.124314  1
  Te  Te24  1  0.997374  0.003517  0.998766  1
  Te  Te25  1  0.501506  0.000905  0.997028  1
  Te  Te26  1  0.495534  0.496138  0.997047  1
  Te  Te27  1  0.001399  0.495247  0.998769  1
  Te  Te28  1  0.000798  0.002035  0.503870  1
  Te  Te29  1  0.499191  0.500433  0.500078  1
  Te  Te30  1  0.503050  0.001819  0.503853  1
  Te  Te31  1  0.000909  0.499646  0.500091  1
  O  O32  1  0.911347  0.329617  0.020874  1
  O  O33  1  0.109518  0.191269  0.020908  1
  O  O34  1  0.407174  0.876709  0.073612  1
  O  O35  1  0.666401  0.696941  0.073614  1
  O  O36  1  0.668414  0.973405  0.090408  1
  O  O37  1  0.421985  0.617007  0.090404  1
  O  O38  1  0.933338  0.599382  0.120265  1
  O  O39  1  0.186949  0.020917  0.120261  1
  O  O40  1  0.575847  0.181766  0.170147  1
  O  O41  1  0.594362  0.488455  0.170178  1
  O  O42  1  0.172814  0.578120  0.191703  1
  O  O43  1  0.018889  0.113548  0.191703  1
  O  O44  1  0.383002  0.483839  0.314389  1
  O  O45  1  0.931428  0.330551  0.314400  1
  O  O46  1  0.306381  0.925839  0.333291  1
  O  O47  1  0.026866  0.907434  0.333303  1
  O  O48  1  0.914138  0.583487  0.393065  1
  O  O49  1  0.478938  0.309558  0.393049  1
  O  O50  1  0.521926  0.831144  0.405582  1
  O  O51  1  0.883667  0.074461  0.405618  1
  O  O52  1  0.809910  0.830177  0.423832  1
  O  O53  1  0.613877  0.093630  0.423801  1
  O  O54  1  0.307841  0.387465  0.482088  1
  O  O55  1  0.174275  0.594647  0.482125  1
  O  O56  1  0.691993  0.616136  0.522083  1
  O  O57  1  0.830089  0.405915  0.522046  1
  O  O58  1  0.189956  0.170519  0.574992  1
  O  O59  1  0.385037  0.904462  0.574975  1
  O  O60  1  0.117855  0.926994  0.596110  1
  O  O61  1  0.478242  0.169115  0.596098  1
  O  O62  1  0.523362  0.694585  0.615903  1
  O  O63  1  0.092556  0.421327  0.615919  1
  O  O64  1  0.977147  0.094417  0.671420  1
  O  O65  1  0.694268  0.077002  0.671398  1
  O  O66  1  0.616343  0.525141  0.693808  1
  O  O67  1  0.077463  0.668672  0.693820  1
  O  O68  1  0.977261  0.883287  0.809103  1
  O  O69  1  0.831847  0.425807  0.809090  1
  O  O70  1  0.407029  0.524125  0.828340  1
  O  O71  1  0.421312  0.804188  0.828346  1
  O  O72  1  0.803914  0.975632  0.881487  1
  O  O73  1  0.077579  0.405829  0.881503  1
  O  O74  1  0.573261  0.387674  0.900547  1
  O  O75  1  0.327291  0.012886  0.900508  1
  O  O76  1  0.325615  0.306418  0.914270  1
  O  O77  1  0.588636  0.107819  0.914244  1
  O  O78  1  0.092355  0.667066  0.972801  1
  O  O79  1  0.880492  0.805731  0.972815  1
