# generated using pymatgen
data_LiV(GeO2)4
_symmetry_space_group_name_H-M   'P 1'
_cell_length_a   5.93441408
_cell_length_b   5.93439628
_cell_length_c   6.52656919
_cell_angle_alpha   83.39097029
_cell_angle_beta   71.60632483
_cell_angle_gamma   121.76412673
_symmetry_Int_Tables_number   1
_chemical_formula_structural   LiV(GeO2)4
_chemical_formula_sum   'Li1 V1 Ge4 O8'
_cell_volume   173.80876905
_cell_formula_units_Z   1
loop_
 _symmetry_equiv_pos_site_id
 _symmetry_equiv_pos_as_xyz
  1  'x, y, z'
loop_
 _atom_site_type_symbol
 _atom_site_label
 _atom_site_symmetry_multiplicity
 _atom_site_fract_x
 _atom_site_fract_y
 _atom_site_fract_z
 _atom_site_occupancy
  Li  Li0  1  0.750000  0.375000  0.875000  1
  V  V1  1  0.250000  0.375000  0.375000  1
  Ge  Ge2  1  0.543082  0.735759  0.721139  1
  Ge  Ge3  1  0.956918  0.014241  0.028861  1
  Ge  Ge4  1  0.250000  0.875000  0.375000  1
  Ge  Ge5  1  0.750000  0.375000  0.375000  1
  O  O6  1  0.332238  0.127510  0.540237  1
  O  O7  1  0.684714  0.139843  0.175456  1
  O  O8  1  0.695056  0.608021  0.192724  1
  O  O9  1  0.199268  0.112232  0.192721  1
  O  O10  1  0.167762  0.622490  0.209763  1
  O  O11  1  0.815286  0.610157  0.574544  1
  O  O12  1  0.804944  0.141979  0.557276  1
  O  O13  1  0.300732  0.637768  0.557279  1
