# generated using pymatgen
data_Li2Sm7Dy(Si6Rh)2
_symmetry_space_group_name_H-M   'P 1'
_cell_length_a   8.23750621
_cell_length_b   8.23525503
_cell_length_c   8.17483904
_cell_angle_alpha   90.00000323
_cell_angle_beta   89.99043389
_cell_angle_gamma   119.99095241
_symmetry_Int_Tables_number   1
_chemical_formula_structural   Li2Sm7Dy(Si6Rh)2
_chemical_formula_sum   'Li2 Sm7 Dy1 Si12 Rh2'
_cell_volume   480.31066416
_cell_formula_units_Z   1
loop_
 _symmetry_equiv_pos_site_id
 _symmetry_equiv_pos_as_xyz
  1  'x, y, z'
loop_
 _atom_site_type_symbol
 _atom_site_label
 _atom_site_symmetry_multiplicity
 _atom_site_fract_x
 _atom_site_fract_y
 _atom_site_fract_z
 _atom_site_occupancy
  Li  Li0  1  0.333139  0.666570  0.474000  1
  Li  Li1  1  0.667026  0.333512  0.532514  1
  Sm  Sm2  1  0.000209  0.000104  0.251726  1
  Sm  Sm3  1  0.999812  0.999906  0.748209  1
  Sm  Sm4  1  0.505849  0.494123  0.244958  1
  Sm  Sm5  1  0.505849  0.011727  0.244958  1
  Sm  Sm6  1  0.988269  0.494134  0.244956  1
  Sm  Sm7  1  0.493674  0.506209  0.754461  1
  Sm  Sm8  1  0.493674  0.987465  0.754461  1
  Dy  Dy9  1  0.012414  0.506206  0.757424  1
  Si  Si10  1  0.165595  0.832815  0.507063  1
  Si  Si11  1  0.165595  0.332783  0.507063  1
  Si  Si12  1  0.668488  0.834244  0.505445  1
  Si  Si13  1  0.834155  0.166632  0.495116  1
  Si  Si14  1  0.834155  0.667523  0.495116  1
  Si  Si15  1  0.331276  0.165637  0.494830  1
  Si  Si16  1  0.833146  0.167660  0.993739  1
  Si  Si17  1  0.833146  0.665486  0.993739  1
  Si  Si18  1  0.334624  0.167312  0.994090  1
  Si  Si19  1  0.166737  0.832592  0.003305  1
  Si  Si20  1  0.166737  0.334148  0.003305  1
  Si  Si21  1  0.666087  0.833044  0.004526  1
  Rh  Rh22  1  0.667799  0.333899  0.979972  1
  Rh  Rh23  1  0.332544  0.666272  0.015023  1
