# generated using pymatgen
data_Pr3PaAl15(GaIr2)3
_symmetry_space_group_name_H-M   'P 1'
_cell_length_a   7.62463100
_cell_length_b   7.61631776
_cell_length_c   9.60191100
_cell_angle_alpha   90.00000000
_cell_angle_beta   90.00000000
_cell_angle_gamma   119.57016044
_symmetry_Int_Tables_number   1
_chemical_formula_structural   Pr3PaAl15(GaIr2)3
_chemical_formula_sum   'Pr3 Pa1 Al15 Ga3 Ir6'
_cell_volume   484.97240232
_cell_formula_units_Z   1
loop_
 _symmetry_equiv_pos_site_id
 _symmetry_equiv_pos_as_xyz
  1  'x, y, z'
loop_
 _atom_site_type_symbol
 _atom_site_label
 _atom_site_symmetry_multiplicity
 _atom_site_fract_x
 _atom_site_fract_y
 _atom_site_fract_z
 _atom_site_occupancy
  Pr  Pr0  1  0.004827  0.330225  0.750000  1
  Pr  Pr1  1  0.670757  0.995861  0.250000  1
  Pr  Pr2  1  0.330887  0.004601  0.750000  1
  Pa  Pa3  1  0.998710  0.672503  0.250000  1
  Al  Al4  1  0.133861  0.130853  0.250000  1
  Al  Al5  1  0.001437  0.334151  0.075841  1
  Al  Al6  1  0.995924  0.664964  0.928974  1
  Al  Al7  1  0.995924  0.664964  0.571026  1
  Al  Al8  1  0.337154  0.003578  0.423927  1
  Al  Al9  1  0.001437  0.334151  0.424159  1
  Al  Al10  1  0.665602  0.996142  0.570552  1
  Al  Al11  1  0.665602  0.996142  0.929448  1
  Al  Al12  1  0.337154  0.003578  0.076073  1
  Al  Al13  1  0.334217  0.334232  0.542280  1
  Al  Al14  1  0.664103  0.664823  0.441454  1
  Al  Al15  1  0.664103  0.664823  0.058546  1
  Al  Al16  1  0.334217  0.334232  0.957720  1
  Al  Al17  1  0.335356  0.544516  0.250000  1
  Al  Al18  1  0.548501  0.344589  0.250000  1
  Ga  Ga19  1  0.870180  0.870681  0.750000  1
  Ga  Ga20  1  0.658682  0.454349  0.750000  1
  Ga  Ga21  1  0.453660  0.659270  0.750000  1
  Ir  Ir22  1  0.673291  0.331519  0.005132  1
  Ir  Ir23  1  0.326244  0.670999  0.005626  1
  Ir  Ir24  1  0.326244  0.670999  0.494374  1
  Ir  Ir25  1  0.673291  0.331519  0.494868  1
  Ir  Ir26  1  0.999317  0.995868  0.007125  1
  Ir  Ir27  1  0.999317  0.995868  0.492875  1
