# generated using pymatgen
data_GdZn4Ni
_symmetry_space_group_name_H-M   'P 1'
_cell_length_a   5.14850700
_cell_length_b   5.13962315
_cell_length_c   4.16295400
_cell_angle_alpha   90.00000000
_cell_angle_beta   90.00000000
_cell_angle_gamma   120.05718844
_symmetry_Int_Tables_number   1
_chemical_formula_structural   GdZn4Ni
_chemical_formula_sum   'Gd1 Zn4 Ni1'
_cell_volume   95.34419780
_cell_formula_units_Z   1
loop_
 _symmetry_equiv_pos_site_id
 _symmetry_equiv_pos_as_xyz
  1  'x, y, z'
loop_
 _atom_site_type_symbol
 _atom_site_label
 _atom_site_symmetry_multiplicity
 _atom_site_fract_x
 _atom_site_fract_y
 _atom_site_fract_z
 _atom_site_occupancy
  Gd  Gd0  1  0.000868  0.001737  0.000000  1
  Zn  Zn1  1  0.498121  0.996243  0.500000  1
  Zn  Zn2  1  0.669776  0.339550  0.000000  1
  Zn  Zn3  1  0.000925  0.499020  0.500000  1
  Zn  Zn4  1  0.498095  0.499020  0.500000  1
  Ni  Ni5  1  0.332215  0.664430  0.000000  1
