# generated using pymatgen
data_Tm5Lu7Zn(InFe)2
_symmetry_space_group_name_H-M   'P 1'
_cell_length_a   8.24533403
_cell_length_b   8.24235956
_cell_length_c   8.24533591
_cell_angle_alpha   109.62676561
_cell_angle_beta   109.64819319
_cell_angle_gamma   109.15375123
_symmetry_Int_Tables_number   1
_chemical_formula_structural   Tm5Lu7Zn(InFe)2
_chemical_formula_sum   'Tm5 Lu7 Zn1 In2 Fe2'
_cell_volume   431.27854332
_cell_formula_units_Z   1
loop_
 _symmetry_equiv_pos_site_id
 _symmetry_equiv_pos_as_xyz
  1  'x, y, z'
loop_
 _atom_site_type_symbol
 _atom_site_label
 _atom_site_symmetry_multiplicity
 _atom_site_fract_x
 _atom_site_fract_y
 _atom_site_fract_z
 _atom_site_occupancy
  Tm  Tm0  1  0.305405  0.305355  0.611043  1
  Tm  Tm1  1  0.695497  0.694793  0.389620  1
  Tm  Tm2  1  0.694312  0.305355  0.999949  1
  Tm  Tm3  1  0.305172  0.694793  0.999296  1
  Tm  Tm4  1  0.202402  0.446028  0.243625  1
  Lu  Lu5  1  0.797082  0.553762  0.756681  1
  Lu  Lu6  1  0.202412  0.959377  0.756966  1
  Lu  Lu7  1  0.959115  0.202173  0.756603  1
  Lu  Lu8  1  0.797494  0.040831  0.243335  1
  Lu  Lu9  1  0.040224  0.798184  0.242509  1
  Lu  Lu10  1  0.445571  0.202173  0.243057  1
  Lu  Lu11  1  0.555674  0.798184  0.757961  1
  Zn  Zn12  1  0.999987  0.998975  0.998989  1
  In  In13  1  0.999520  0.500060  0.500540  1
  In  In14  1  0.499553  0.999488  0.499935  1
  Fe  Fe15  1  0.386274  0.386054  0.999780  1
  Fe  Fe16  1  0.614305  0.614417  0.000112  1
