# generated using pymatgen
data_Tl3Se22
_symmetry_space_group_name_H-M   'P 1'
_cell_length_a   8.94834564
_cell_length_b   8.74274758
_cell_length_c   11.25071900
_cell_angle_alpha   113.05573837
_cell_angle_beta   113.48543982
_cell_angle_gamma   89.83483529
_symmetry_Int_Tables_number   1
_chemical_formula_structural   Tl3Se22
_chemical_formula_sum   'Tl3 Se22'
_cell_volume   730.44522358
_cell_formula_units_Z   1
loop_
 _symmetry_equiv_pos_site_id
 _symmetry_equiv_pos_as_xyz
  1  'x, y, z'
loop_
 _atom_site_type_symbol
 _atom_site_label
 _atom_site_symmetry_multiplicity
 _atom_site_fract_x
 _atom_site_fract_y
 _atom_site_fract_z
 _atom_site_occupancy
  Tl  Tl0  1  0.194252  0.163270  0.348440  1
  Tl  Tl1  1  0.844992  0.816080  0.651274  1
  Tl  Tl2  1  0.492331  0.493907  0.000413  1
  Se  Se3  1  0.866736  0.846298  0.000457  1
  Se  Se4  1  0.106828  0.505678  0.772444  1
  Se  Se5  1  0.253179  0.095913  0.753244  1
  Se  Se6  1  0.028749  0.201859  0.620640  1
  Se  Se7  1  0.333876  0.733815  0.228083  1
  Se  Se8  1  0.956200  0.807982  0.364587  1
  Se  Se9  1  0.659406  0.265976  0.760742  1
  Se  Se10  1  0.499791  0.343116  0.246649  1
  Se  Se11  1  0.856851  0.112508  0.000919  1
  Se  Se12  1  0.499004  0.679690  0.782897  1
  Se  Se13  1  0.715205  0.898164  0.217618  1
  Se  Se14  1  0.899026  0.506799  0.240154  1
  Se  Se15  1  0.426527  0.033275  0.628030  1
  Se  Se16  1  0.568342  0.967065  0.366379  1
  Se  Se17  1  0.203077  0.599963  0.634568  1
  Se  Se18  1  0.205425  0.878470  0.000516  1
  Se  Se19  1  0.592790  0.441907  0.636172  1
  Se  Se20  1  0.027159  0.458330  0.000085  1
  Se  Se21  1  0.798399  0.406322  0.371892  1
  Se  Se22  1  0.118057  0.199770  0.000177  1
  Se  Se23  1  0.450923  0.979268  0.000624  1
  Se  Se24  1  0.408916  0.583057  0.380046  1
