# generated using pymatgen
data_Tb2PuRu3
_symmetry_space_group_name_H-M   'P 1'
_cell_length_a   5.25918662
_cell_length_b   5.25918599
_cell_length_c   5.25918528
_cell_angle_alpha   66.75946422
_cell_angle_beta   66.75947210
_cell_angle_gamma   66.75946365
_symmetry_Int_Tables_number   1
_chemical_formula_structural   Tb2PuRu3
_chemical_formula_sum   'Tb2 Pu1 Ru3'
_cell_volume   117.79618374
_cell_formula_units_Z   1
loop_
 _symmetry_equiv_pos_site_id
 _symmetry_equiv_pos_as_xyz
  1  'x, y, z'
loop_
 _atom_site_type_symbol
 _atom_site_label
 _atom_site_symmetry_multiplicity
 _atom_site_fract_x
 _atom_site_fract_y
 _atom_site_fract_z
 _atom_site_occupancy
  Tb  Tb0  1  0.626636  0.626636  0.626636  1
  Tb  Tb1  1  0.373364  0.373364  0.373364  1
  Pu  Pu2  1  0.000000  0.000000  0.000000  1
  Ru  Ru3  1  0.000000  0.500000  0.000000  1
  Ru  Ru4  1  0.500000  0.000000  0.000000  1
  Ru  Ru5  1  0.000000  0.000000  0.500000  1
