# generated using pymatgen
data_LiPr2(Si3Pd10)2
_symmetry_space_group_name_H-M   'P 1'
_cell_length_a   8.72007211
_cell_length_b   8.72007203
_cell_length_c   8.72007200
_cell_angle_alpha   60.00000013
_cell_angle_beta   60.00000041
_cell_angle_gamma   59.99999999
_symmetry_Int_Tables_number   1
_chemical_formula_structural   LiPr2(Si3Pd10)2
_chemical_formula_sum   'Li1 Pr2 Si6 Pd20'
_cell_volume   468.86220267
_cell_formula_units_Z   1
loop_
 _symmetry_equiv_pos_site_id
 _symmetry_equiv_pos_as_xyz
  1  'x, y, z'
loop_
 _atom_site_type_symbol
 _atom_site_label
 _atom_site_symmetry_multiplicity
 _atom_site_fract_x
 _atom_site_fract_y
 _atom_site_fract_z
 _atom_site_occupancy
  Li  Li0  1  0.000000  0.000000  0.000000  1
  Pr  Pr1  1  0.250000  0.250000  0.250000  1
  Pr  Pr2  1  0.750000  0.750000  0.750000  1
  Si  Si3  1  0.735180  0.264820  0.264820  1
  Si  Si4  1  0.264820  0.735180  0.735180  1
  Si  Si5  1  0.264820  0.735180  0.264820  1
  Si  Si6  1  0.735180  0.264820  0.735180  1
  Si  Si7  1  0.264820  0.264820  0.735180  1
  Si  Si8  1  0.735180  0.735180  0.264820  1
  Pd  Pd9  1  0.385435  0.385435  0.385435  1
  Pd  Pd10  1  0.614565  0.614565  0.614565  1
  Pd  Pd11  1  0.385435  0.385435  0.843697  1
  Pd  Pd12  1  0.385435  0.843697  0.385435  1
  Pd  Pd13  1  0.614565  0.614565  0.156303  1
  Pd  Pd14  1  0.614565  0.156303  0.614565  1
  Pd  Pd15  1  0.843697  0.385435  0.385435  1
  Pd  Pd16  1  0.156303  0.614565  0.614565  1
  Pd  Pd17  1  0.344213  0.000000  0.000000  1
  Pd  Pd18  1  0.655787  0.000000  0.000000  1
  Pd  Pd19  1  0.000000  0.344213  0.655787  1
  Pd  Pd20  1  0.000000  0.655787  0.344213  1
  Pd  Pd21  1  0.000000  0.344213  0.000000  1
  Pd  Pd22  1  0.655787  0.000000  0.344213  1
  Pd  Pd23  1  0.000000  0.655787  0.000000  1
  Pd  Pd24  1  0.344213  0.000000  0.655787  1
  Pd  Pd25  1  0.000000  0.000000  0.344213  1
  Pd  Pd26  1  0.000000  0.000000  0.655787  1
  Pd  Pd27  1  0.655787  0.344213  0.000000  1
  Pd  Pd28  1  0.344213  0.655787  0.000000  1
