# generated using pymatgen
data_CaPr5NdIrBr12
_symmetry_space_group_name_H-M   'P 1'
_cell_length_a   9.69678733
_cell_length_b   9.56492871
_cell_length_c   9.70041292
_cell_angle_alpha   107.13754478
_cell_angle_beta   107.29361204
_cell_angle_gamma   107.06826800
_symmetry_Int_Tables_number   1
_chemical_formula_structural   CaPr5NdIrBr12
_chemical_formula_sum   'Ca1 Pr5 Nd1 Ir1 Br12'
_cell_volume   745.85123370
_cell_formula_units_Z   1
loop_
 _symmetry_equiv_pos_site_id
 _symmetry_equiv_pos_as_xyz
  1  'x, y, z'
loop_
 _atom_site_type_symbol
 _atom_site_label
 _atom_site_symmetry_multiplicity
 _atom_site_fract_x
 _atom_site_fract_y
 _atom_site_fract_z
 _atom_site_occupancy
  Ca  Ca0  1  0.499936  0.500070  0.499859  1
  Pr  Pr1  1  0.320237  0.026187  0.109273  1
  Pr  Pr2  1  0.026969  0.109380  0.319830  1
  Pr  Pr3  1  0.973201  0.891466  0.680473  1
  Pr  Pr4  1  0.679812  0.973897  0.890707  1
  Pr  Pr5  1  0.894195  0.689153  0.974209  1
  Nd  Nd6  1  0.105508  0.309265  0.025814  1
  Ir  Ir7  1  0.000125  0.000292  0.000202  1
  Br  Br8  1  0.217654  0.682161  0.072028  1
  Br  Br9  1  0.457188  0.380885  0.168617  1
  Br  Br10  1  0.685237  0.073635  0.218967  1
  Br  Br11  1  0.926385  0.779696  0.314852  1
  Br  Br12  1  0.168915  0.459522  0.377665  1
  Br  Br13  1  0.379884  0.167592  0.458964  1
  Br  Br14  1  0.620133  0.832569  0.541061  1
  Br  Br15  1  0.830734  0.540255  0.620335  1
  Br  Br16  1  0.074029  0.221514  0.687220  1
  Br  Br17  1  0.314732  0.926417  0.781021  1
  Br  Br18  1  0.540838  0.619007  0.830366  1
  Br  Br19  1  0.784293  0.317037  0.928540  1
