# generated using pymatgen
data_Rb5UO6
_symmetry_space_group_name_H-M   'P 1'
_cell_length_a   6.91679472
_cell_length_b   6.91679452
_cell_length_c   6.74783500
_cell_angle_alpha   100.02844204
_cell_angle_beta   100.02844176
_cell_angle_gamma   119.82122450
_symmetry_Int_Tables_number   1
_chemical_formula_structural   Rb5UO6
_chemical_formula_sum   'Rb5 U1 O6'
_cell_volume   262.64382843
_cell_formula_units_Z   1
loop_
 _symmetry_equiv_pos_site_id
 _symmetry_equiv_pos_as_xyz
  1  'x, y, z'
loop_
 _atom_site_type_symbol
 _atom_site_label
 _atom_site_symmetry_multiplicity
 _atom_site_fract_x
 _atom_site_fract_y
 _atom_site_fract_z
 _atom_site_occupancy
  Rb  Rb0  1  0.666831  0.333170  0.000000  1
  Rb  Rb1  1  0.333170  0.666831  0.000000  1
  Rb  Rb2  1  0.835248  0.164753  0.500000  1
  Rb  Rb3  1  0.500000  0.500000  0.500000  1
  Rb  Rb4  1  0.164753  0.835248  0.500000  1
  U  U5  1  0.000000  0.000000  0.000000  1
  O  O6  1  0.819903  0.819903  0.190519  1
  O  O7  1  0.310434  0.064626  0.195184  1
  O  O8  1  0.064626  0.310434  0.195184  1
  O  O9  1  0.935374  0.689566  0.804816  1
  O  O10  1  0.689566  0.935374  0.804816  1
  O  O11  1  0.180097  0.180097  0.809481  1
