# generated using pymatgen
data_TbY7Ti5Si16W7
_symmetry_space_group_name_H-M   'P 1'
_cell_length_a   6.94163276
_cell_length_b   6.93674840
_cell_length_c   12.85595918
_cell_angle_alpha   89.86128749
_cell_angle_beta   90.04388456
_cell_angle_gamma   90.02348023
_symmetry_Int_Tables_number   1
_chemical_formula_structural   TbY7Ti5Si16W7
_chemical_formula_sum   'Tb1 Y7 Ti5 Si16 W7'
_cell_volume   619.04272636
_cell_formula_units_Z   1
loop_
 _symmetry_equiv_pos_site_id
 _symmetry_equiv_pos_as_xyz
  1  'x, y, z'
loop_
 _atom_site_type_symbol
 _atom_site_label
 _atom_site_symmetry_multiplicity
 _atom_site_fract_x
 _atom_site_fract_y
 _atom_site_fract_z
 _atom_site_occupancy
  Tb  Tb0  1  0.996144  0.661287  0.031090  1
  Y  Y1  1  0.340423  0.003220  0.467548  1
  Y  Y2  1  0.497678  0.839967  0.718908  1
  Y  Y3  1  0.502071  0.160489  0.218538  1
  Y  Y4  1  0.839508  0.496675  0.280860  1
  Y  Y5  1  0.160346  0.502100  0.782537  1
  Y  Y6  1  0.659909  0.997588  0.968637  1
  Y  Y7  1  0.002766  0.339852  0.531650  1
  Ti  Ti8  1  0.329950  0.330251  0.999411  1
  Ti  Ti9  1  0.169528  0.829185  0.249950  1
  Ti  Ti10  1  0.827954  0.171948  0.750434  1
  Ti  Ti11  1  0.669535  0.667519  0.499069  1
  Ti  Ti12  1  0.994042  0.840593  0.625857  1
  Si  Si13  1  0.202429  0.128865  0.683851  1
  Si  Si14  1  0.371874  0.701723  0.933897  1
  Si  Si15  1  0.629988  0.298962  0.433703  1
  Si  Si16  1  0.699562  0.370965  0.066515  1
  Si  Si17  1  0.300570  0.628833  0.565358  1
  Si  Si18  1  0.798844  0.871584  0.183670  1
  Si  Si19  1  0.127376  0.200746  0.316472  1
  Si  Si20  1  0.872233  0.799725  0.816008  1
  Si  Si21  1  0.289301  0.959479  0.062982  1
  Si  Si22  1  0.540659  0.789321  0.312819  1
  Si  Si23  1  0.458494  0.210619  0.812859  1
  Si  Si24  1  0.790034  0.542146  0.687365  1
  Si  Si25  1  0.210478  0.458500  0.186633  1
  Si  Si26  1  0.710905  0.041975  0.563533  1
  Si  Si27  1  0.958933  0.289660  0.937241  1
  Si  Si28  1  0.042594  0.710081  0.437154  1
  W  W29  1  0.160434  0.008443  0.875111  1
  W  W30  1  0.492578  0.659795  0.124404  1
  W  W31  1  0.507361  0.340493  0.623669  1
  W  W32  1  0.658088  0.491589  0.877535  1
  W  W33  1  0.341937  0.504394  0.374590  1
  W  W34  1  0.839148  0.991507  0.373722  1
  W  W35  1  0.006319  0.159923  0.126418  1
