# generated using pymatgen
data_Li26Si7Sn
_symmetry_space_group_name_H-M   'P 1'
_cell_length_a   7.99698611
_cell_length_b   15.20008431
_cell_length_c   4.44872000
_cell_angle_alpha   90.00000000
_cell_angle_beta   90.00000000
_cell_angle_gamma   89.75634120
_symmetry_Int_Tables_number   1
_chemical_formula_structural   Li26Si7Sn
_chemical_formula_sum   'Li26 Si7 Sn1'
_cell_volume   540.75866040
_cell_formula_units_Z   1
loop_
 _symmetry_equiv_pos_site_id
 _symmetry_equiv_pos_as_xyz
  1  'x, y, z'
loop_
 _atom_site_type_symbol
 _atom_site_label
 _atom_site_symmetry_multiplicity
 _atom_site_fract_x
 _atom_site_fract_y
 _atom_site_fract_z
 _atom_site_occupancy
  Li  Li0  1  0.500576  0.992466  0.000000  1
  Li  Li1  1  0.143027  0.022052  0.000000  1
  Li  Li2  1  0.777423  0.151755  0.000000  1
  Li  Li3  1  0.085616  0.194310  0.000000  1
  Li  Li4  1  0.600476  0.312282  0.000000  1
  Li  Li5  1  0.267586  0.351697  0.000000  1
  Li  Li6  1  0.652311  0.477985  0.000000  1
  Li  Li7  1  0.000523  0.500871  0.000000  1
  Li  Li8  1  0.349412  0.526255  0.000000  1
  Li  Li9  1  0.729670  0.653257  0.000000  1
  Li  Li10  1  0.404880  0.693235  0.000000  1
  Li  Li11  1  0.906563  0.805715  0.000000  1
  Li  Li12  1  0.229487  0.847074  0.000000  1
  Li  Li13  1  0.846008  0.974212  0.000000  1
  Li  Li14  1  0.250345  0.088278  0.500000  1
  Li  Li15  1  0.606626  0.100743  0.500000  1
  Li  Li16  1  0.904132  0.246126  0.500000  1
  Li  Li17  1  0.408487  0.264120  0.500000  1
  Li  Li18  1  0.095849  0.394170  0.500000  1
  Li  Li19  1  0.758952  0.407718  0.500000  1
  Li  Li20  1  0.241641  0.593974  0.500000  1
  Li  Li21  1  0.903709  0.606741  0.500000  1
  Li  Li22  1  0.593294  0.743997  0.500000  1
  Li  Li23  1  0.093211  0.754736  0.500000  1
  Li  Li24  1  0.403519  0.892131  0.500000  1
  Li  Li25  1  0.742043  0.904419  0.500000  1
  Si  Si26  1  0.918011  0.341757  0.000000  1
  Si  Si27  1  0.083768  0.659692  0.000000  1
  Si  Si28  1  0.585389  0.837201  0.000000  1
  Si  Si29  1  0.926274  0.067563  0.500000  1
  Si  Si30  1  0.427212  0.433712  0.500000  1
  Si  Si31  1  0.573861  0.570460  0.500000  1
  Si  Si32  1  0.073307  0.929267  0.500000  1
  Sn  Sn33  1  0.416817  0.160029  0.000000  1
