# generated using pymatgen
data_Hf15Zr(FeIr)4
_symmetry_space_group_name_H-M   'P 1'
_cell_length_a   8.59115964
_cell_length_b   8.58210508
_cell_length_c   8.58210500
_cell_angle_alpha   60.03690799
_cell_angle_beta   59.96509210
_cell_angle_gamma   59.96509831
_symmetry_Int_Tables_number   1
_chemical_formula_structural   Hf15Zr(FeIr)4
_chemical_formula_sum   'Hf15 Zr1 Fe4 Ir4'
_cell_volume   447.31759120
_cell_formula_units_Z   1
loop_
 _symmetry_equiv_pos_site_id
 _symmetry_equiv_pos_as_xyz
  1  'x, y, z'
loop_
 _atom_site_type_symbol
 _atom_site_label
 _atom_site_symmetry_multiplicity
 _atom_site_fract_x
 _atom_site_fract_y
 _atom_site_fract_z
 _atom_site_occupancy
  Hf  Hf0  1  0.057974  0.647333  0.647333  1
  Hf  Hf1  1  0.647472  0.057824  0.647234  1
  Hf  Hf2  1  0.647472  0.647234  0.057824  1
  Hf  Hf3  1  0.647360  0.647333  0.647333  1
  Hf  Hf4  1  0.801965  0.800402  0.199170  1
  Hf  Hf5  1  0.198461  0.199170  0.800402  1
  Hf  Hf6  1  0.801965  0.199170  0.800402  1
  Hf  Hf7  1  0.198461  0.800402  0.199170  1
  Hf  Hf8  1  0.199222  0.800778  0.800778  1
  Hf  Hf9  1  0.801288  0.198712  0.198712  1
  Hf  Hf10  1  0.437893  0.438804  0.061947  1
  Hf  Hf11  1  0.061356  0.061947  0.438804  1
  Hf  Hf12  1  0.437893  0.061947  0.438804  1
  Hf  Hf13  1  0.061356  0.438804  0.061947  1
  Hf  Hf14  1  0.062822  0.437178  0.437178  1
  Zr  Zr15  1  0.436844  0.063156  0.063156  1
  Fe  Fe16  1  0.419617  0.859715  0.859715  1
  Fe  Fe17  1  0.859898  0.420069  0.860134  1
  Fe  Fe18  1  0.859898  0.860134  0.420069  1
  Fe  Fe19  1  0.860953  0.859715  0.859715  1
  Ir  Ir20  1  0.751902  0.415856  0.415856  1
  Ir  Ir21  1  0.415772  0.751011  0.417446  1
  Ir  Ir22  1  0.415772  0.417446  0.751011  1
  Ir  Ir23  1  0.416387  0.415856  0.415856  1
