# generated using pymatgen
data_Ho2TmCu12
_symmetry_space_group_name_H-M   'P 1'
_cell_length_a   5.00972016
_cell_length_b   5.00971952
_cell_length_c   10.58026577
_cell_angle_alpha   94.80657137
_cell_angle_beta   94.80657262
_cell_angle_gamma   119.79070743
_symmetry_Int_Tables_number   1
_chemical_formula_structural   Ho2TmCu12
_chemical_formula_sum   'Ho2 Tm1 Cu12'
_cell_volume   227.20604758
_cell_formula_units_Z   1
loop_
 _symmetry_equiv_pos_site_id
 _symmetry_equiv_pos_as_xyz
  1  'x, y, z'
loop_
 _atom_site_type_symbol
 _atom_site_label
 _atom_site_symmetry_multiplicity
 _atom_site_fract_x
 _atom_site_fract_y
 _atom_site_fract_z
 _atom_site_occupancy
  Ho  Ho0  1  0.000489  0.000489  0.001075  1
  Ho  Ho1  1  0.866792  0.866792  0.642011  1
  Tm  Tm2  1  0.133969  0.133969  0.357486  1
  Cu  Cu3  1  0.663216  0.336858  0.000033  1
  Cu  Cu4  1  0.336858  0.663216  0.000033  1
  Cu  Cu5  1  0.569835  0.068356  0.196941  1
  Cu  Cu6  1  0.068356  0.569835  0.196941  1
  Cu  Cu7  1  0.571586  0.571586  0.202735  1
  Cu  Cu8  1  0.808471  0.472257  0.406126  1
  Cu  Cu9  1  0.472257  0.808471  0.406126  1
  Cu  Cu10  1  0.526609  0.191301  0.593133  1
  Cu  Cu11  1  0.191301  0.526609  0.593133  1
  Cu  Cu12  1  0.428556  0.428556  0.797605  1
  Cu  Cu13  1  0.931565  0.430142  0.803312  1
  Cu  Cu14  1  0.430142  0.931565  0.803312  1
