# generated using pymatgen
data_Ho4Re2Ru5W
_symmetry_space_group_name_H-M   'P 1'
_cell_length_a   5.52004686
_cell_length_b   5.14487707
_cell_length_c   9.08176700
_cell_angle_alpha   90.00000000
_cell_angle_beta   90.00000000
_cell_angle_gamma   121.11322818
_symmetry_Int_Tables_number   1
_chemical_formula_structural   Ho4Re2Ru5W
_chemical_formula_sum   'Ho4 Re2 Ru5 W1'
_cell_volume   220.81921977
_cell_formula_units_Z   1
loop_
 _symmetry_equiv_pos_site_id
 _symmetry_equiv_pos_as_xyz
  1  'x, y, z'
loop_
 _atom_site_type_symbol
 _atom_site_label
 _atom_site_symmetry_multiplicity
 _atom_site_fract_x
 _atom_site_fract_y
 _atom_site_fract_z
 _atom_site_occupancy
  Ho  Ho0  1  0.673294  0.344359  0.564622  1
  Ho  Ho1  1  0.329138  0.664525  0.434094  1
  Ho  Ho2  1  0.329138  0.664525  0.065906  1
  Ho  Ho3  1  0.673294  0.344359  0.935378  1
  Re  Re4  1  0.841133  0.665851  0.250000  1
  Re  Re5  1  0.834670  0.172346  0.250000  1
  Ru  Ru6  1  0.991849  0.007723  0.499675  1
  Ru  Ru7  1  0.991849  0.007723  0.000325  1
  Ru  Ru8  1  0.172195  0.816779  0.750000  1
  Ru  Ru9  1  0.649417  0.819090  0.750000  1
  Ru  Ru10  1  0.351690  0.175970  0.250000  1
  W  W11  1  0.162332  0.316749  0.750000  1
