# generated using pymatgen
data_Ba8P5Au
_symmetry_space_group_name_H-M   'P 1'
_cell_length_a   8.58520752
_cell_length_b   8.58520732
_cell_length_c   8.58520806
_cell_angle_alpha   109.16843603
_cell_angle_beta   109.16843187
_cell_angle_gamma   110.07850747
_symmetry_Int_Tables_number   1
_chemical_formula_structural   Ba8P5Au
_chemical_formula_sum   'Ba8 P5 Au1'
_cell_volume   487.07279455
_cell_formula_units_Z   1
loop_
 _symmetry_equiv_pos_site_id
 _symmetry_equiv_pos_as_xyz
  1  'x, y, z'
loop_
 _atom_site_type_symbol
 _atom_site_label
 _atom_site_symmetry_multiplicity
 _atom_site_fract_x
 _atom_site_fract_y
 _atom_site_fract_z
 _atom_site_occupancy
  Ba  Ba0  1  0.738473  0.368113  0.244583  1
  Ba  Ba1  1  0.982788  0.736995  0.096095  1
  Ba  Ba2  1  0.640901  0.886693  0.903905  1
  Ba  Ba3  1  0.123530  0.493890  0.755417  1
  Ba  Ba4  1  0.631887  0.876470  0.370361  1
  Ba  Ba5  1  0.506110  0.261527  0.629639  1
  Ba  Ba6  1  0.263005  0.359099  0.245792  1
  Ba  Ba7  1  0.113307  0.017212  0.754208  1
  P  P8  1  0.746579  0.631294  0.625855  1
  P  P9  1  0.368706  0.994561  0.115285  1
  P  P10  1  0.005439  0.120725  0.374145  1
  P  P11  1  0.500000  0.500000  0.000000  1
  P  P12  1  0.879275  0.253421  0.884715  1
  Au  Au13  1  0.250000  0.750000  0.500000  1
