# generated using pymatgen
data_LuPu2HC2
_symmetry_space_group_name_H-M   'P 1'
_cell_length_a   3.49001600
_cell_length_b   3.49001555
_cell_length_c   8.74120200
_cell_angle_alpha   90.00000000
_cell_angle_beta   90.00000000
_cell_angle_gamma   120.00000423
_symmetry_Int_Tables_number   1
_chemical_formula_structural   LuPu2HC2
_chemical_formula_sum   'Lu1 Pu2 H1 C2'
_cell_volume   92.20544115
_cell_formula_units_Z   1
loop_
 _symmetry_equiv_pos_site_id
 _symmetry_equiv_pos_as_xyz
  1  'x, y, z'
loop_
 _atom_site_type_symbol
 _atom_site_label
 _atom_site_symmetry_multiplicity
 _atom_site_fract_x
 _atom_site_fract_y
 _atom_site_fract_z
 _atom_site_occupancy
  Lu  Lu0  1  0.000000  0.000000  0.500000  1
  Pu  Pu1  1  0.333333  0.666667  0.179067  1
  Pu  Pu2  1  0.666667  0.333333  0.820933  1
  H  H3  1  0.000000  0.000000  0.000000  1
  C  C4  1  0.333333  0.666667  0.676421  1
  C  C5  1  0.666667  0.333333  0.323579  1
