# generated using pymatgen
data_Y5Cr3Co12(NiAs3)4
_symmetry_space_group_name_H-M   'P 1'
_cell_length_a   12.56294600
_cell_length_b   12.56294480
_cell_length_c   3.83317900
_cell_angle_alpha   90.00000000
_cell_angle_beta   90.00000000
_cell_angle_gamma   120.00000315
_symmetry_Int_Tables_number   1
_chemical_formula_structural   Y5Cr3Co12(NiAs3)4
_chemical_formula_sum   'Y5 Cr3 Co12 Ni4 As12'
_cell_volume   523.92927146
_cell_formula_units_Z   1
loop_
 _symmetry_equiv_pos_site_id
 _symmetry_equiv_pos_as_xyz
  1  'x, y, z'
loop_
 _atom_site_type_symbol
 _atom_site_label
 _atom_site_symmetry_multiplicity
 _atom_site_fract_x
 _atom_site_fract_y
 _atom_site_fract_z
 _atom_site_occupancy
  Y  Y0  1  0.187723  0.188284  0.500000  1
  Y  Y1  1  0.811716  0.999439  0.500000  1
  Y  Y2  1  0.000561  0.812277  0.500000  1
  Y  Y3  1  0.333333  0.666667  0.000000  1
  Y  Y4  1  0.666667  0.333333  0.000000  1
  Cr  Cr5  1  0.561614  0.564796  0.000000  1
  Cr  Cr6  1  0.435204  0.996817  0.000000  1
  Cr  Cr7  1  0.003183  0.438386  0.000000  1
  Co  Co8  1  0.714877  0.716176  0.500000  1
  Co  Co9  1  0.283824  0.998701  0.500000  1
  Co  Co10  1  0.001299  0.285123  0.500000  1
  Co  Co11  1  0.178638  0.377348  0.000000  1
  Co  Co12  1  0.622652  0.801291  0.000000  1
  Co  Co13  1  0.198709  0.821362  0.000000  1
  Co  Co14  1  0.801906  0.622696  0.000000  1
  Co  Co15  1  0.820791  0.198094  0.000000  1
  Co  Co16  1  0.377304  0.179209  0.000000  1
  Co  Co17  1  0.357833  0.481197  0.500000  1
  Co  Co18  1  0.518803  0.876637  0.500000  1
  Co  Co19  1  0.123363  0.642167  0.500000  1
  Ni  Ni20  1  0.876197  0.518362  0.500000  1
  Ni  Ni21  1  0.642166  0.123803  0.500000  1
  Ni  Ni22  1  0.481638  0.357834  0.500000  1
  Ni  Ni23  1  0.000000  0.000000  0.000000  1
  As  As24  1  0.820294  0.819944  0.000000  1
  As  As25  1  0.180056  0.000350  0.000000  1
  As  As26  1  0.999650  0.179706  0.000000  1
  As  As27  1  0.168043  0.482094  0.500000  1
  As  As28  1  0.517906  0.685949  0.500000  1
  As  As29  1  0.314051  0.831957  0.500000  1
  As  As30  1  0.686567  0.520681  0.500000  1
  As  As31  1  0.834113  0.313433  0.500000  1
  As  As32  1  0.479319  0.165887  0.500000  1
  As  As33  1  0.362107  0.364891  0.000000  1
  As  As34  1  0.635109  0.997215  0.000000  1
  As  As35  1  0.002785  0.637893  0.000000  1
