# generated using pymatgen
data_TbY3Mn16(CoP3)4
_symmetry_space_group_name_H-M   'P 1'
_cell_length_a   3.60829900
_cell_length_b   10.55141912
_cell_length_c   12.19252514
_cell_angle_alpha   89.98245534
_cell_angle_beta   90.00000000
_cell_angle_gamma   90.00000000
_symmetry_Int_Tables_number   1
_chemical_formula_structural   TbY3Mn16(CoP3)4
_chemical_formula_sum   'Tb1 Y3 Mn16 Co4 P12'
_cell_volume   464.20202632
_cell_formula_units_Z   1
loop_
 _symmetry_equiv_pos_site_id
 _symmetry_equiv_pos_as_xyz
  1  'x, y, z'
loop_
 _atom_site_type_symbol
 _atom_site_label
 _atom_site_symmetry_multiplicity
 _atom_site_fract_x
 _atom_site_fract_y
 _atom_site_fract_z
 _atom_site_occupancy
  Tb  Tb0  1  0.750000  0.084167  0.792079  1
  Y  Y1  1  0.250000  0.584460  0.707852  1
  Y  Y2  1  0.250000  0.915776  0.207958  1
  Y  Y3  1  0.750000  0.415682  0.292119  1
  Mn  Mn4  1  0.250000  0.712218  0.988115  1
  Mn  Mn5  1  0.250000  0.787724  0.488170  1
  Mn  Mn6  1  0.750000  0.287673  0.011914  1
  Mn  Mn7  1  0.750000  0.212330  0.511886  1
  Mn  Mn8  1  0.250000  0.407256  0.492922  1
  Mn  Mn9  1  0.250000  0.092732  0.993084  1
  Mn  Mn10  1  0.750000  0.592719  0.507019  1
  Mn  Mn11  1  0.750000  0.907128  0.007057  1
  Mn  Mn12  1  0.250000  0.216484  0.176573  1
  Mn  Mn13  1  0.250000  0.283582  0.676390  1
  Mn  Mn14  1  0.750000  0.783338  0.823531  1
  Mn  Mn15  1  0.750000  0.716463  0.323441  1
  Mn  Mn16  1  0.250000  0.878117  0.697504  1
  Mn  Mn17  1  0.250000  0.621640  0.197496  1
  Mn  Mn18  1  0.750000  0.121736  0.302398  1
  Mn  Mn19  1  0.750000  0.378503  0.802490  1
  Co  Co20  1  0.250000  0.464783  0.934084  1
  Co  Co21  1  0.250000  0.035387  0.433918  1
  Co  Co22  1  0.750000  0.535473  0.066120  1
  Co  Co23  1  0.750000  0.964544  0.565919  1
  P  P24  1  0.250000  0.420256  0.111556  1
  P  P25  1  0.250000  0.079681  0.611321  1
  P  P26  1  0.750000  0.579920  0.888506  1
  P  P27  1  0.750000  0.920283  0.388491  1
  P  P28  1  0.250000  0.266739  0.872306  1
  P  P29  1  0.250000  0.233444  0.372192  1
  P  P30  1  0.750000  0.733359  0.127801  1
  P  P31  1  0.750000  0.766592  0.627806  1
  P  P32  1  0.250000  0.593399  0.386537  1
  P  P33  1  0.250000  0.906311  0.886594  1
  P  P34  1  0.750000  0.406614  0.613367  1
  P  P35  1  0.750000  0.093487  0.113485  1
