# generated using pymatgen
data_NdPaZn14Cu3
_symmetry_space_group_name_H-M   'P 1'
_cell_length_a   8.91538500
_cell_length_b   8.91538534
_cell_length_c   8.77361200
_cell_angle_alpha   90.00000000
_cell_angle_beta   90.00000000
_cell_angle_gamma   120.00000244
_symmetry_Int_Tables_number   1
_chemical_formula_structural   NdPaZn14Cu3
_chemical_formula_sum   'Nd2 Pa2 Zn28 Cu6'
_cell_volume   603.93370362
_cell_formula_units_Z   2
loop_
 _symmetry_equiv_pos_site_id
 _symmetry_equiv_pos_as_xyz
  1  'x, y, z'
loop_
 _atom_site_type_symbol
 _atom_site_label
 _atom_site_symmetry_multiplicity
 _atom_site_fract_x
 _atom_site_fract_y
 _atom_site_fract_z
 _atom_site_occupancy
  Nd  Nd0  1  0.333333  0.666667  0.750000  1
  Nd  Nd1  1  0.666667  0.333333  0.250000  1
  Pa  Pa2  1  0.000000  0.000000  0.250000  1
  Pa  Pa3  1  0.000000  0.000000  0.750000  1
  Zn  Zn4  1  0.333333  0.666667  0.403683  1
  Zn  Zn5  1  0.666667  0.333333  0.596317  1
  Zn  Zn6  1  0.666667  0.333333  0.903683  1
  Zn  Zn7  1  0.333333  0.666667  0.096317  1
  Zn  Zn8  1  0.332196  0.371866  0.250000  1
  Zn  Zn9  1  0.628134  0.960330  0.250000  1
  Zn  Zn10  1  0.039670  0.667804  0.250000  1
  Zn  Zn11  1  0.628134  0.667804  0.250000  1
  Zn  Zn12  1  0.039670  0.371866  0.250000  1
  Zn  Zn13  1  0.332196  0.960330  0.250000  1
  Zn  Zn14  1  0.667804  0.628134  0.750000  1
  Zn  Zn15  1  0.371866  0.039670  0.750000  1
  Zn  Zn16  1  0.960330  0.332196  0.750000  1
  Zn  Zn17  1  0.371866  0.332196  0.750000  1
  Zn  Zn18  1  0.960330  0.628134  0.750000  1
  Zn  Zn19  1  0.667804  0.039670  0.750000  1
  Zn  Zn20  1  0.164086  0.835914  0.519689  1
  Zn  Zn21  1  0.164086  0.328172  0.519689  1
  Zn  Zn22  1  0.671828  0.835914  0.519689  1
  Zn  Zn23  1  0.835914  0.164086  0.480311  1
  Zn  Zn24  1  0.835914  0.671828  0.480311  1
  Zn  Zn25  1  0.328172  0.164086  0.480311  1
  Zn  Zn26  1  0.835914  0.164086  0.019689  1
  Zn  Zn27  1  0.835914  0.671828  0.019689  1
  Zn  Zn28  1  0.328172  0.164086  0.019689  1
  Zn  Zn29  1  0.164086  0.835914  0.980311  1
  Zn  Zn30  1  0.164086  0.328172  0.980311  1
  Zn  Zn31  1  0.671828  0.835914  0.980311  1
  Cu  Cu32  1  0.500000  0.500000  0.500000  1
  Cu  Cu33  1  0.500000  0.000000  0.500000  1
  Cu  Cu34  1  0.000000  0.500000  0.500000  1
  Cu  Cu35  1  0.500000  0.500000  0.000000  1
  Cu  Cu36  1  0.500000  0.000000  0.000000  1
  Cu  Cu37  1  0.000000  0.500000  0.000000  1
