# generated using pymatgen
data_PrTm(AgPb)2
_symmetry_space_group_name_H-M   'P 1'
_cell_length_a   4.86507400
_cell_length_b   4.86507342
_cell_length_c   7.58423900
_cell_angle_alpha   90.00000000
_cell_angle_beta   90.00000000
_cell_angle_gamma   120.00000398
_symmetry_Int_Tables_number   1
_chemical_formula_structural   PrTm(AgPb)2
_chemical_formula_sum   'Pr1 Tm1 Ag2 Pb2'
_cell_volume   155.46100587
_cell_formula_units_Z   1
loop_
 _symmetry_equiv_pos_site_id
 _symmetry_equiv_pos_as_xyz
  1  'x, y, z'
loop_
 _atom_site_type_symbol
 _atom_site_label
 _atom_site_symmetry_multiplicity
 _atom_site_fract_x
 _atom_site_fract_y
 _atom_site_fract_z
 _atom_site_occupancy
  Pr  Pr0  1  0.000000  0.000000  0.493189  1
  Tm  Tm1  1  0.000000  0.000000  0.990137  1
  Ag  Ag2  1  0.666667  0.333333  0.292206  1
  Ag  Ag3  1  0.333333  0.666667  0.812389  1
  Pb  Pb4  1  0.333333  0.666667  0.206771  1
  Pb  Pb5  1  0.666667  0.333333  0.719709  1
