# generated using pymatgen
data_Ce2Zn2Si2OsPt2Rh
_symmetry_space_group_name_H-M   'P 1'
_cell_length_a   4.11376400
_cell_length_b   4.11376400
_cell_length_c   10.80411000
_cell_angle_alpha   90.00000000
_cell_angle_beta   90.00000000
_cell_angle_gamma   90.00000000
_symmetry_Int_Tables_number   1
_chemical_formula_structural   Ce2Zn2Si2OsPt2Rh
_chemical_formula_sum   'Ce2 Zn2 Si2 Os1 Pt2 Rh1'
_cell_volume   182.83853963
_cell_formula_units_Z   1
loop_
 _symmetry_equiv_pos_site_id
 _symmetry_equiv_pos_as_xyz
  1  'x, y, z'
loop_
 _atom_site_type_symbol
 _atom_site_label
 _atom_site_symmetry_multiplicity
 _atom_site_fract_x
 _atom_site_fract_y
 _atom_site_fract_z
 _atom_site_occupancy
  Ce  Ce0  1  0.000000  0.500000  0.241148  1
  Ce  Ce1  1  0.500000  0.000000  0.758852  1
  Zn  Zn2  1  0.500000  0.500000  0.500000  1
  Zn  Zn3  1  0.000000  0.000000  0.500000  1
  Si  Si4  1  0.500000  0.000000  0.114648  1
  Si  Si5  1  0.000000  0.500000  0.885352  1
  Os  Os6  1  0.000000  0.000000  0.000000  1
  Pt  Pt7  1  0.000000  0.500000  0.657707  1
  Pt  Pt8  1  0.500000  0.000000  0.342293  1
  Rh  Rh9  1  0.500000  0.500000  0.000000  1
