# generated using pymatgen
data_YbTeO4
_symmetry_space_group_name_H-M   'P 1'
_cell_length_a   5.04726000
_cell_length_b   5.23275700
_cell_length_c   12.69109400
_cell_angle_alpha   90.00000000
_cell_angle_beta   90.00000000
_cell_angle_gamma   90.00000000
_symmetry_Int_Tables_number   1
_chemical_formula_structural   YbTeO4
_chemical_formula_sum   'Yb4 Te4 O16'
_cell_volume   335.18556359
_cell_formula_units_Z   4
loop_
 _symmetry_equiv_pos_site_id
 _symmetry_equiv_pos_as_xyz
  1  'x, y, z'
loop_
 _atom_site_type_symbol
 _atom_site_label
 _atom_site_symmetry_multiplicity
 _atom_site_fract_x
 _atom_site_fract_y
 _atom_site_fract_z
 _atom_site_occupancy
  Yb  Yb0  1  0.750000  0.000000  0.670028  1
  Yb  Yb1  1  0.250000  0.500000  0.829972  1
  Yb  Yb2  1  0.250000  0.000000  0.329972  1
  Yb  Yb3  1  0.750000  0.500000  0.170028  1
  Te  Te4  1  0.750000  0.500000  0.426900  1
  Te  Te5  1  0.250000  0.000000  0.073100  1
  Te  Te6  1  0.250000  0.500000  0.573100  1
  Te  Te7  1  0.750000  0.000000  0.926900  1
  O  O8  1  0.113672  0.278639  0.675529  1
  O  O9  1  0.613672  0.221361  0.824471  1
  O  O10  1  0.886328  0.778639  0.824471  1
  O  O11  1  0.386328  0.721361  0.675529  1
  O  O12  1  0.886328  0.721361  0.324471  1
  O  O13  1  0.386328  0.778639  0.175529  1
  O  O14  1  0.113672  0.221361  0.175529  1
  O  O15  1  0.613672  0.278639  0.324471  1
  O  O16  1  0.572701  0.293651  0.544952  1
  O  O17  1  0.072701  0.206349  0.955048  1
  O  O18  1  0.427299  0.793651  0.955048  1
  O  O19  1  0.927299  0.706349  0.544952  1
  O  O20  1  0.427299  0.706349  0.455048  1
  O  O21  1  0.927299  0.793651  0.044952  1
  O  O22  1  0.572701  0.206349  0.044952  1
  O  O23  1  0.072701  0.293651  0.455048  1
