# generated using pymatgen
data_Tb4Tm12Cd4Co3Ni
_symmetry_space_group_name_H-M   'P 1'
_cell_length_a   9.42839146
_cell_length_b   9.41853444
_cell_length_c   9.41853500
_cell_angle_alpha   60.00000154
_cell_angle_beta   60.03457910
_cell_angle_gamma   60.03457904
_symmetry_Int_Tables_number   1
_chemical_formula_structural   Tb4Tm12Cd4Co3Ni
_chemical_formula_sum   'Tb4 Tm12 Cd4 Co3 Ni1'
_cell_volume   591.71978499
_cell_formula_units_Z   1
loop_
 _symmetry_equiv_pos_site_id
 _symmetry_equiv_pos_as_xyz
  1  'x, y, z'
loop_
 _atom_site_type_symbol
 _atom_site_label
 _atom_site_symmetry_multiplicity
 _atom_site_fract_x
 _atom_site_fract_y
 _atom_site_fract_z
 _atom_site_occupancy
  Tb  Tb0  1  0.345306  0.349165  0.349165  1
  Tb  Tb1  1  0.345306  0.349165  0.956364  1
  Tb  Tb2  1  0.345306  0.956364  0.349165  1
  Tb  Tb3  1  0.958437  0.347188  0.347188  1
  Tm  Tm4  1  0.817361  0.186733  0.186733  1
  Tm  Tm5  1  0.186179  0.813675  0.813675  1
  Tm  Tm6  1  0.186179  0.813675  0.186472  1
  Tm  Tm7  1  0.817361  0.186733  0.809172  1
  Tm  Tm8  1  0.186179  0.186472  0.813675  1
  Tm  Tm9  1  0.817361  0.809172  0.186733  1
  Tm  Tm10  1  0.935549  0.563840  0.563840  1
  Tm  Tm11  1  0.562124  0.936116  0.936116  1
  Tm  Tm12  1  0.562124  0.936116  0.565643  1
  Tm  Tm13  1  0.935549  0.563840  0.936770  1
  Tm  Tm14  1  0.562124  0.565643  0.936116  1
  Tm  Tm15  1  0.935549  0.936770  0.563840  1
  Cd  Cd16  1  0.581145  0.581126  0.581126  1
  Cd  Cd17  1  0.581145  0.581126  0.256604  1
  Cd  Cd18  1  0.581145  0.256604  0.581126  1
  Cd  Cd19  1  0.255345  0.581552  0.581552  1
  Co  Co20  1  0.141081  0.140539  0.140539  1
  Co  Co21  1  0.141081  0.140539  0.577843  1
  Co  Co22  1  0.141081  0.577843  0.140539  1
  Ni  Ni23  1  0.579983  0.140006  0.140006  1
