# generated using pymatgen
data_Th2Zn16Ag
_symmetry_space_group_name_H-M   'P 1'
_cell_length_a   6.89025456
_cell_length_b   6.89025483
_cell_length_c   6.89025477
_cell_angle_alpha   82.43725568
_cell_angle_beta   97.56272923
_cell_angle_gamma   97.56275162
_symmetry_Int_Tables_number   1
_chemical_formula_structural   Th2Zn16Ag
_chemical_formula_sum   'Th2 Zn16 Ag1'
_cell_volume   319.27128533
_cell_formula_units_Z   1
loop_
 _symmetry_equiv_pos_site_id
 _symmetry_equiv_pos_as_xyz
  1  'x, y, z'
loop_
 _atom_site_type_symbol
 _atom_site_label
 _atom_site_symmetry_multiplicity
 _atom_site_fract_x
 _atom_site_fract_y
 _atom_site_fract_z
 _atom_site_occupancy
  Th  Th0  1  0.660011  0.339989  0.339989  1
  Th  Th1  1  0.338649  0.661351  0.661351  1
  Zn  Zn2  1  0.498620  0.999794  0.999794  1
  Zn  Zn3  1  0.292782  0.293292  0.000378  1
  Zn  Zn4  1  0.706707  0.707218  0.000378  1
  Zn  Zn5  1  0.000206  0.501381  0.999795  1
  Zn  Zn6  1  0.351386  0.648614  0.158553  1
  Zn  Zn7  1  0.999622  0.707218  0.293293  1
  Zn  Zn8  1  0.292782  0.000378  0.293293  1
  Zn  Zn9  1  0.158248  0.351869  0.351870  1
  Zn  Zn10  1  0.648131  0.841752  0.351870  1
  Zn  Zn11  1  0.000206  0.999794  0.501382  1
  Zn  Zn12  1  0.841446  0.648614  0.648614  1
  Zn  Zn13  1  0.351386  0.158552  0.648615  1
  Zn  Zn14  1  0.999622  0.293292  0.707218  1
  Zn  Zn15  1  0.706708  0.000378  0.707219  1
  Zn  Zn16  1  0.648130  0.351869  0.841751  1
  Zn  Zn17  1  0.104772  0.895228  0.895229  1
  Ag  Ag18  1  0.900588  0.099412  0.099413  1
