# generated using pymatgen
data_La2Zr3As7Rh9
_symmetry_space_group_name_H-M   'P 1'
_cell_length_a   4.04848800
_cell_length_b   10.26961726
_cell_length_c   10.27717600
_cell_angle_alpha   119.96069309
_cell_angle_beta   90.00142939
_cell_angle_gamma   90.00026251
_symmetry_Int_Tables_number   1
_chemical_formula_structural   La2Zr3As7Rh9
_chemical_formula_sum   'La2 Zr3 As7 Rh9'
_cell_volume   370.18892384
_cell_formula_units_Z   1
loop_
 _symmetry_equiv_pos_site_id
 _symmetry_equiv_pos_as_xyz
  1  'x, y, z'
loop_
 _atom_site_type_symbol
 _atom_site_label
 _atom_site_symmetry_multiplicity
 _atom_site_fract_x
 _atom_site_fract_y
 _atom_site_fract_z
 _atom_site_occupancy
  La  La0  1  0.261823  0.666693  0.333466  1
  La  La1  1  0.761958  0.333204  0.666569  1
  Zr  Zr2  1  0.762048  0.105721  0.880670  1
  Zr  Zr3  1  0.762053  0.119206  0.224946  1
  Zr  Zr4  1  0.762047  0.774841  0.894211  1
  As  As5  1  0.262342  0.999913  0.000028  1
  As  As6  1  0.761700  0.874606  0.584303  1
  As  As7  1  0.761681  0.415788  0.290265  1
  As  As8  1  0.761672  0.709705  0.125542  1
  As  As9  1  0.261827  0.110835  0.418267  1
  As  As10  1  0.261822  0.581674  0.692577  1
  As  As11  1  0.261833  0.307529  0.889117  1
  Rh  Rh12  1  0.261772  0.880255  0.159980  1
  Rh  Rh13  1  0.261839  0.840167  0.720558  1
  Rh  Rh14  1  0.261810  0.279569  0.119601  1
  Rh  Rh15  1  0.761870  0.612067  0.561600  1
  Rh  Rh16  1  0.761868  0.438445  0.050403  1
  Rh  Rh17  1  0.761865  0.949554  0.387991  1
  Rh  Rh18  1  0.262058  0.364588  0.432234  1
  Rh  Rh19  1  0.262060  0.567863  0.932159  1
  Rh  Rh20  1  0.262056  0.067773  0.635513  1
