# generated using pymatgen
data_La3Cd3Pd2Rh
_symmetry_space_group_name_H-M   'P 1'
_cell_length_a   7.81599100
_cell_length_b   7.81599196
_cell_length_c   4.11343300
_cell_angle_alpha   90.00000000
_cell_angle_beta   90.00000000
_cell_angle_gamma   120.00000865
_symmetry_Int_Tables_number   1
_chemical_formula_structural   La3Cd3Pd2Rh
_chemical_formula_sum   'La3 Cd3 Pd2 Rh1'
_cell_volume   217.62218984
_cell_formula_units_Z   1
loop_
 _symmetry_equiv_pos_site_id
 _symmetry_equiv_pos_as_xyz
  1  'x, y, z'
loop_
 _atom_site_type_symbol
 _atom_site_label
 _atom_site_symmetry_multiplicity
 _atom_site_fract_x
 _atom_site_fract_y
 _atom_site_fract_z
 _atom_site_occupancy
  La  La0  1  0.414573  0.405367  0.500000  1
  La  La1  1  0.594633  0.009205  0.500000  1
  La  La2  1  0.990795  0.585427  0.500000  1
  Cd  Cd3  1  0.750610  0.750602  0.000000  1
  Cd  Cd4  1  0.249398  0.000008  0.000000  1
  Cd  Cd5  1  0.999992  0.249390  0.000000  1
  Pd  Pd6  1  0.333333  0.666667  0.000000  1
  Pd  Pd7  1  0.000000  0.000000  0.500000  1
  Rh  Rh8  1  0.666667  0.333333  0.000000  1
