# generated using pymatgen
data_LiDyY7InRh2
_symmetry_space_group_name_H-M   'P 1'
_cell_length_a   9.69267827
_cell_length_b   9.73206002
_cell_length_c   9.68309050
_cell_angle_alpha   59.83256686
_cell_angle_beta   59.91336439
_cell_angle_gamma   59.86550000
_symmetry_Int_Tables_number   1
_chemical_formula_structural   LiDyY7InRh2
_chemical_formula_sum   'Li2 Dy2 Y14 In2 Rh4'
_cell_volume   643.97478563
_cell_formula_units_Z   2
loop_
 _symmetry_equiv_pos_site_id
 _symmetry_equiv_pos_as_xyz
  1  'x, y, z'
loop_
 _atom_site_type_symbol
 _atom_site_label
 _atom_site_symmetry_multiplicity
 _atom_site_fract_x
 _atom_site_fract_y
 _atom_site_fract_z
 _atom_site_occupancy
  Li  Li0  1  0.925274  0.928230  0.218268  1
  Li  Li1  1  0.218300  0.928076  0.925549  1
  Dy  Dy2  1  0.692354  0.307372  0.692902  1
  Dy  Dy3  1  0.547894  0.152495  0.147114  1
  Y  Y4  1  0.689741  0.311363  0.311763  1
  Y  Y5  1  0.689741  0.687133  0.311763  1
  Y  Y6  1  0.316060  0.683902  0.316136  1
  Y  Y7  1  0.936440  0.936026  0.564041  1
  Y  Y8  1  0.146416  0.151366  0.550850  1
  Y  Y9  1  0.561522  0.938833  0.560812  1
  Y  Y10  1  0.151612  0.155849  0.151984  1
  Y  Y11  1  0.311842  0.311656  0.689524  1
  Y  Y12  1  0.936440  0.563494  0.564041  1
  Y  Y13  1  0.563891  0.562841  0.937034  1
  Y  Y14  1  0.563891  0.936234  0.937034  1
  Y  Y15  1  0.935003  0.564834  0.935328  1
  Y  Y16  1  0.151612  0.540553  0.151984  1
  Y  Y17  1  0.311842  0.686978  0.689524  1
  In  In18  1  0.920370  0.246122  0.919949  1
  In  In19  1  0.920370  0.913559  0.919949  1
  Rh  Rh20  1  0.360456  0.353862  0.357875  1
  Rh  Rh21  1  0.924907  0.356339  0.362417  1
  Rh  Rh22  1  0.363566  0.355075  0.926287  1
  Rh  Rh23  1  0.360456  0.927809  0.357875  1
