# generated using pymatgen
data_PuGeRhF
_symmetry_space_group_name_H-M   'P 1'
_cell_length_a   4.09518067
_cell_length_b   8.37097100
_cell_length_c   5.79130406
_cell_angle_alpha   89.99989578
_cell_angle_beta   135.01505760
_cell_angle_gamma   90.00007102
_symmetry_Int_Tables_number   1
_chemical_formula_structural   PuGeRhF
_chemical_formula_sum   'Pu2 Ge2 Rh2 F2'
_cell_volume   140.34472975
_cell_formula_units_Z   2
loop_
 _symmetry_equiv_pos_site_id
 _symmetry_equiv_pos_as_xyz
  1  'x, y, z'
loop_
 _atom_site_type_symbol
 _atom_site_label
 _atom_site_symmetry_multiplicity
 _atom_site_fract_x
 _atom_site_fract_y
 _atom_site_fract_z
 _atom_site_occupancy
  Pu  Pu0  1  0.000003  0.683411  0.250001  1
  Pu  Pu1  1  0.000003  0.316387  0.750002  1
  Ge  Ge2  1  0.000001  0.165475  0.250001  1
  Ge  Ge3  1  0.000003  0.834486  0.750003  1
  Rh  Rh4  1  0.500002  0.000012  0.250002  1
  Rh  Rh5  1  0.500003  0.999930  0.750003  1
  F  F6  1  0.500000  0.500116  0.249999  1
  F  F7  1  0.499993  0.500181  0.750000  1
