# generated using pymatgen
data_Ca18YbTl5In3N7
_symmetry_space_group_name_H-M   'P 1'
_cell_length_a   10.44643910
_cell_length_b   10.44644223
_cell_length_c   10.43903826
_cell_angle_alpha   60.09706315
_cell_angle_beta   60.09705199
_cell_angle_gamma   60.12317854
_symmetry_Int_Tables_number   1
_chemical_formula_structural   Ca18YbTl5In3N7
_chemical_formula_sum   'Ca18 Yb1 Tl5 In3 N7'
_cell_volume   807.46106196
_cell_formula_units_Z   1
loop_
 _symmetry_equiv_pos_site_id
 _symmetry_equiv_pos_as_xyz
  1  'x, y, z'
loop_
 _atom_site_type_symbol
 _atom_site_label
 _atom_site_symmetry_multiplicity
 _atom_site_fract_x
 _atom_site_fract_y
 _atom_site_fract_z
 _atom_site_occupancy
  Ca  Ca0  1  0.173396  0.499941  0.826713  1
  Ca  Ca1  1  0.500039  0.826698  0.173226  1
  Ca  Ca2  1  0.826905  0.173133  0.499789  1
  Ca  Ca3  1  0.166168  0.833850  0.167416  1
  Ca  Ca4  1  0.826698  0.500037  0.173227  1
  Ca  Ca5  1  0.173133  0.826904  0.499790  1
  Ca  Ca6  1  0.166830  0.166830  0.833776  1
  Ca  Ca7  1  0.173594  0.500068  0.499683  1
  Ca  Ca8  1  0.833216  0.833216  0.166774  1
  Ca  Ca9  1  0.833215  0.166196  0.833127  1
  Ca  Ca10  1  0.500256  0.826468  0.499868  1
  Ca  Ca11  1  0.499951  0.499951  0.173651  1
  Ca  Ca12  1  0.166196  0.833216  0.833126  1
  Ca  Ca13  1  0.499940  0.173397  0.826713  1
  Ca  Ca14  1  0.500067  0.173595  0.499683  1
  Ca  Ca15  1  0.826468  0.500255  0.499869  1
  Ca  Ca16  1  0.833850  0.166167  0.167416  1
  Ca  Ca17  1  0.500043  0.500044  0.826274  1
  Yb  Yb18  1  0.500018  0.500018  0.499959  1
  Tl  Tl19  1  0.171973  0.171973  0.482567  1
  Tl  Tl20  1  0.828239  0.518411  0.826649  1
  Tl  Tl21  1  0.482479  0.172033  0.171956  1
  Tl  Tl22  1  0.172033  0.482479  0.171956  1
  Tl  Tl23  1  0.518411  0.828239  0.826649  1
  In  In24  1  0.173868  0.173868  0.173781  1
  In  In25  1  0.826357  0.826357  0.825050  1
  In  In26  1  0.826295  0.826296  0.522299  1
  N  N27  1  0.673195  0.327054  0.673347  1
  N  N28  1  0.672900  0.327040  0.326539  1
  N  N29  1  0.327054  0.673196  0.673347  1
  N  N30  1  0.327040  0.672899  0.326540  1
  N  N31  1  0.326737  0.326738  0.673031  1
  N  N32  1  0.673212  0.673212  0.326860  1
  N  N33  1  0.000222  0.000221  0.999352  1
