# generated using pymatgen
data_La4Al3(Ga5Ir2)3
_symmetry_space_group_name_H-M   'P 1'
_cell_length_a   7.69215245
_cell_length_b   7.69215310
_cell_length_c   9.68355001
_cell_angle_alpha   90.00304500
_cell_angle_beta   90.00304777
_cell_angle_gamma   119.47238513
_symmetry_Int_Tables_number   1
_chemical_formula_structural   La4Al3(Ga5Ir2)3
_chemical_formula_sum   'La4 Al3 Ga15 Ir6'
_cell_volume   498.82192688
_cell_formula_units_Z   1
loop_
 _symmetry_equiv_pos_site_id
 _symmetry_equiv_pos_as_xyz
  1  'x, y, z'
loop_
 _atom_site_type_symbol
 _atom_site_label
 _atom_site_symmetry_multiplicity
 _atom_site_fract_x
 _atom_site_fract_y
 _atom_site_fract_z
 _atom_site_occupancy
  La  La0  1  0.000058  0.670573  0.250068  1
  La  La1  1  0.000324  0.329987  0.749187  1
  La  La2  1  0.670573  0.000058  0.250068  1
  La  La3  1  0.329987  0.000324  0.749187  1
  Al  Al4  1  0.662864  0.662864  0.455124  1
  Al  Al5  1  0.666885  0.666885  0.044614  1
  Al  Al6  1  0.333186  0.333186  0.955427  1
  Ga  Ga7  1  0.130593  0.130593  0.249408  1
  Ga  Ga8  1  0.870093  0.870093  0.749399  1
  Ga  Ga9  1  0.003441  0.336043  0.076374  1
  Ga  Ga10  1  0.996895  0.664304  0.923195  1
  Ga  Ga11  1  0.996092  0.664413  0.576495  1
  Ga  Ga12  1  0.335866  0.004908  0.421755  1
  Ga  Ga13  1  0.004908  0.335866  0.421755  1
  Ga  Ga14  1  0.664413  0.996092  0.576495  1
  Ga  Ga15  1  0.664304  0.996895  0.923195  1
  Ga  Ga16  1  0.336043  0.003441  0.076374  1
  Ga  Ga17  1  0.330943  0.330943  0.556867  1
  Ga  Ga18  1  0.347658  0.547527  0.249827  1
  Ga  Ga19  1  0.656181  0.453997  0.750318  1
  Ga  Ga20  1  0.547527  0.347658  0.249827  1
  Ga  Ga21  1  0.453997  0.656181  0.750318  1
  Ir  Ir22  1  0.667489  0.331912  0.999497  1
  Ir  Ir23  1  0.331912  0.667489  0.999497  1
  Ir  Ir24  1  0.331686  0.670877  0.499309  1
  Ir  Ir25  1  0.670877  0.331686  0.499309  1
  Ir  Ir26  1  0.000078  0.000078  0.999213  1
  Ir  Ir27  1  0.995127  0.995127  0.497898  1
