# generated using pymatgen
data_Cs2Ce2MnRhS6
_symmetry_space_group_name_H-M   'P 1'
_cell_length_a   7.98852096
_cell_length_b   7.98852122
_cell_length_c   10.77700600
_cell_angle_alpha   90.00000000
_cell_angle_beta   90.00000000
_cell_angle_gamma   150.39281795
_symmetry_Int_Tables_number   1
_chemical_formula_structural   Cs2Ce2MnRhS6
_chemical_formula_sum   'Cs2 Ce2 Mn1 Rh1 S6'
_cell_volume   339.78370765
_cell_formula_units_Z   1
loop_
 _symmetry_equiv_pos_site_id
 _symmetry_equiv_pos_as_xyz
  1  'x, y, z'
loop_
 _atom_site_type_symbol
 _atom_site_label
 _atom_site_symmetry_multiplicity
 _atom_site_fract_x
 _atom_site_fract_y
 _atom_site_fract_z
 _atom_site_occupancy
  Cs  Cs0  1  0.259199  0.740801  0.250000  1
  Cs  Cs1  1  0.738067  0.261933  0.750000  1
  Ce  Ce2  1  0.002782  0.997218  0.009898  1
  Ce  Ce3  1  0.002782  0.997218  0.490102  1
  Mn  Mn4  1  0.463784  0.536216  0.750000  1
  Rh  Rh5  1  0.530047  0.469953  0.250000  1
  S  S6  1  0.614334  0.385666  0.059095  1
  S  S7  1  0.386194  0.613806  0.934656  1
  S  S8  1  0.386194  0.613806  0.565344  1
  S  S9  1  0.614334  0.385666  0.440905  1
  S  S10  1  0.953222  0.046778  0.250000  1
  S  S11  1  0.049061  0.950939  0.750000  1
