# generated using pymatgen
data_ZrFeAg(P2O7)2
_symmetry_space_group_name_H-M   'P 1'
_cell_length_a   5.00305778
_cell_length_b   7.16055030
_cell_length_c   8.34504056
_cell_angle_alpha   91.31051676
_cell_angle_beta   86.72686647
_cell_angle_gamma   74.55742288
_symmetry_Int_Tables_number   1
_chemical_formula_structural   ZrFeAg(P2O7)2
_chemical_formula_sum   'Zr1 Fe1 Ag1 P4 O14'
_cell_volume   287.46974132
_cell_formula_units_Z   1
loop_
 _symmetry_equiv_pos_site_id
 _symmetry_equiv_pos_as_xyz
  1  'x, y, z'
loop_
 _atom_site_type_symbol
 _atom_site_label
 _atom_site_symmetry_multiplicity
 _atom_site_fract_x
 _atom_site_fract_y
 _atom_site_fract_z
 _atom_site_occupancy
  Zr  Zr0  1  0.500000  0.000000  0.500000  1
  Fe  Fe1  1  0.000000  0.500000  0.000000  1
  Ag  Ag2  1  0.500000  0.000000  0.000000  1
  P  P3  1  0.125898  0.759208  0.290777  1
  P  P4  1  0.874102  0.240792  0.709223  1
  P  P5  1  0.484468  0.623324  0.765096  1
  P  P6  1  0.515532  0.376676  0.234904  1
  O  O7  1  0.040300  0.739971  0.119766  1
  O  O8  1  0.959700  0.260029  0.880234  1
  O  O9  1  0.683979  0.104006  0.697700  1
  O  O10  1  0.316021  0.895994  0.302300  1
  O  O11  1  0.420902  0.791250  0.650684  1
  O  O12  1  0.579098  0.208750  0.349316  1
  O  O13  1  0.227990  0.558669  0.813695  1
  O  O14  1  0.772010  0.441331  0.186305  1
  O  O15  1  0.356713  0.327882  0.092629  1
  O  O16  1  0.643287  0.672118  0.907371  1
  O  O17  1  0.883240  0.816894  0.417619  1
  O  O18  1  0.116760  0.183106  0.582381  1
  O  O19  1  0.698549  0.451274  0.657166  1
  O  O20  1  0.301451  0.548726  0.342834  1
