# generated using pymatgen
data_LiY2Ho14Cd3Pt4
_symmetry_space_group_name_H-M   'P 1'
_cell_length_a   9.65925070
_cell_length_b   9.65925119
_cell_length_c   9.65659420
_cell_angle_alpha   59.86222449
_cell_angle_beta   59.86222214
_cell_angle_gamma   59.85712379
_symmetry_Int_Tables_number   1
_chemical_formula_structural   LiY2Ho14Cd3Pt4
_chemical_formula_sum   'Li1 Y2 Ho14 Cd3 Pt4'
_cell_volume   635.06640249
_cell_formula_units_Z   1
loop_
 _symmetry_equiv_pos_site_id
 _symmetry_equiv_pos_as_xyz
  1  'x, y, z'
loop_
 _atom_site_type_symbol
 _atom_site_label
 _atom_site_symmetry_multiplicity
 _atom_site_fract_x
 _atom_site_fract_y
 _atom_site_fract_z
 _atom_site_occupancy
  Li  Li0  1  0.572053  0.572053  0.572093  1
  Y  Y1  1  0.565921  0.565921  0.934865  1
  Y  Y2  1  0.935381  0.935381  0.564480  1
  Ho  Ho3  1  0.351074  0.351074  0.351301  1
  Ho  Ho4  1  0.351818  0.351818  0.945005  1
  Ho  Ho5  1  0.352295  0.944900  0.351972  1
  Ho  Ho6  1  0.944900  0.352295  0.351972  1
  Ho  Ho7  1  0.809932  0.191658  0.191412  1
  Ho  Ho8  1  0.187807  0.812609  0.812469  1
  Ho  Ho9  1  0.191658  0.809932  0.191412  1
  Ho  Ho10  1  0.812609  0.187807  0.812469  1
  Ho  Ho11  1  0.191425  0.191425  0.810102  1
  Ho  Ho12  1  0.812604  0.812604  0.187742  1
  Ho  Ho13  1  0.936411  0.565023  0.565019  1
  Ho  Ho14  1  0.563580  0.936094  0.936338  1
  Ho  Ho15  1  0.565023  0.936411  0.565019  1
  Ho  Ho16  1  0.936094  0.563580  0.936338  1
  Cd  Cd17  1  0.582330  0.582330  0.253860  1
  Cd  Cd18  1  0.582097  0.253861  0.582406  1
  Cd  Cd19  1  0.253861  0.582097  0.582406  1
  Pt  Pt20  1  0.143802  0.143802  0.143907  1
  Pt  Pt21  1  0.143217  0.143217  0.571124  1
  Pt  Pt22  1  0.142878  0.571232  0.143144  1
  Pt  Pt23  1  0.571232  0.142878  0.143144  1
