# generated using pymatgen
data_ZrTiBe9Mo
_symmetry_space_group_name_H-M   'P 1'
_cell_length_a   7.56498865
_cell_length_b   7.56498843
_cell_length_c   7.56498906
_cell_angle_alpha   34.86711442
_cell_angle_beta   34.86711907
_cell_angle_gamma   34.86710792
_symmetry_Int_Tables_number   1
_chemical_formula_structural   ZrTiBe9Mo
_chemical_formula_sum   'Zr1 Ti1 Be9 Mo1'
_cell_volume   126.30434655
_cell_formula_units_Z   1
loop_
 _symmetry_equiv_pos_site_id
 _symmetry_equiv_pos_as_xyz
  1  'x, y, z'
loop_
 _atom_site_type_symbol
 _atom_site_label
 _atom_site_symmetry_multiplicity
 _atom_site_fract_x
 _atom_site_fract_y
 _atom_site_fract_z
 _atom_site_occupancy
  Zr  Zr0  1  0.996549  0.996549  0.996549  1
  Ti  Ti1  1  0.143657  0.143657  0.143657  1
  Be  Be2  1  0.413390  0.920358  0.413390  1
  Be  Be3  1  0.413390  0.413390  0.920358  1
  Be  Be4  1  0.920358  0.413390  0.413390  1
  Be  Be5  1  0.588176  0.076299  0.588176  1
  Be  Be6  1  0.588176  0.588176  0.076299  1
  Be  Be7  1  0.076299  0.588176  0.588176  1
  Be  Be8  1  0.667104  0.667104  0.667104  1
  Be  Be9  1  0.336695  0.336695  0.336695  1
  Be  Be10  1  0.499585  0.499585  0.499585  1
  Mo  Mo11  1  0.856624  0.856624  0.856624  1
