# generated using pymatgen
data_Y12Re12Sn7MoN48
_symmetry_space_group_name_H-M   'P 1'
_cell_length_a   11.22807548
_cell_length_b   11.22807566
_cell_length_c   11.22807584
_cell_angle_alpha   109.61760156
_cell_angle_beta   109.61760121
_cell_angle_gamma   109.61760075
_symmetry_Int_Tables_number   1
_chemical_formula_structural   Y12Re12Sn7MoN48
_chemical_formula_sum   'Y12 Re12 Sn7 Mo1 N48'
_cell_volume   1083.72197659
_cell_formula_units_Z   1
loop_
 _symmetry_equiv_pos_site_id
 _symmetry_equiv_pos_as_xyz
  1  'x, y, z'
loop_
 _atom_site_type_symbol
 _atom_site_label
 _atom_site_symmetry_multiplicity
 _atom_site_fract_x
 _atom_site_fract_y
 _atom_site_fract_z
 _atom_site_occupancy
  Y  Y0  1  0.245294  0.369413  0.121655  1
  Y  Y1  1  0.375874  0.750492  0.125392  1
  Y  Y2  1  0.369413  0.121655  0.245294  1
  Y  Y3  1  0.874608  0.624126  0.249508  1
  Y  Y4  1  0.750492  0.125392  0.375874  1
  Y  Y5  1  0.121655  0.245294  0.369413  1
  Y  Y6  1  0.878345  0.754706  0.630587  1
  Y  Y7  1  0.249508  0.874608  0.624126  1
  Y  Y8  1  0.125392  0.375874  0.750492  1
  Y  Y9  1  0.630587  0.878345  0.754706  1
  Y  Y10  1  0.624126  0.249508  0.874608  1
  Y  Y11  1  0.754706  0.630587  0.878345  1
  Re  Re12  1  0.874421  0.249253  0.123173  1
  Re  Re13  1  0.750747  0.876827  0.125579  1
  Re  Re14  1  0.623756  0.374494  0.249486  1
  Re  Re15  1  0.123173  0.874421  0.249253  1
  Re  Re16  1  0.249486  0.623756  0.374494  1
  Re  Re17  1  0.625506  0.750514  0.376244  1
  Re  Re18  1  0.374494  0.249486  0.623756  1
  Re  Re19  1  0.750514  0.376244  0.625506  1
  Re  Re20  1  0.876827  0.125579  0.750747  1
  Re  Re21  1  0.376244  0.625506  0.750514  1
  Re  Re22  1  0.249253  0.123173  0.874421  1
  Re  Re23  1  0.125579  0.750747  0.876827  1
  Sn  Sn24  1  0.500000  0.000000  0.000000  1
  Sn  Sn25  1  0.000000  0.500000  0.000000  1
  Sn  Sn26  1  0.500000  0.500000  0.000000  1
  Sn  Sn27  1  0.000000  0.000000  0.500000  1
  Sn  Sn28  1  0.500000  0.000000  0.500000  1
  Sn  Sn29  1  0.000000  0.500000  0.500000  1
  Sn  Sn30  1  0.500000  0.500000  0.500000  1
  Mo  Mo31  1  0.000000  0.000000  0.000000  1
  N  N32  1  0.202017  0.113761  0.014192  1
  N  N33  1  0.311491  0.900507  0.024255  1
  N  N34  1  0.877169  0.401737  0.090061  1
  N  N35  1  0.714689  0.690682  0.089625  1
  N  N36  1  0.622845  0.407908  0.098816  1
  N  N37  1  0.975745  0.688509  0.099493  1
  N  N38  1  0.014192  0.202017  0.113761  1
  N  N39  1  0.598263  0.909939  0.122831  1
  N  N40  1  0.215520  0.592101  0.190867  1
  N  N41  1  0.475373  0.598109  0.191192  1
  N  N42  1  0.113761  0.014192  0.202017  1
  N  N43  1  0.592101  0.190867  0.215520  1
  N  N44  1  0.472453  0.374076  0.282780  1
  N  N45  1  0.309318  0.910375  0.285311  1
  N  N46  1  0.900507  0.024255  0.311491  1
  N  N47  1  0.910375  0.285311  0.309318  1
  N  N48  1  0.282780  0.472453  0.374076  1
  N  N49  1  0.592092  0.901184  0.377155  1
  N  N50  1  0.808808  0.524627  0.401891  1
  N  N51  1  0.090061  0.877169  0.401737  1
  N  N52  1  0.098816  0.622845  0.407908  1
  N  N53  1  0.809133  0.784480  0.407899  1
  N  N54  1  0.598109  0.191192  0.475373  1
  N  N55  1  0.374076  0.282780  0.472453  1
  N  N56  1  0.625924  0.717220  0.527547  1
  N  N57  1  0.401891  0.808808  0.524627  1
  N  N58  1  0.190867  0.215520  0.592101  1
  N  N59  1  0.901184  0.377155  0.592092  1
  N  N60  1  0.909939  0.122831  0.598263  1
  N  N61  1  0.191192  0.475373  0.598109  1
  N  N62  1  0.407908  0.098816  0.622845  1
  N  N63  1  0.717220  0.527547  0.625924  1
  N  N64  1  0.089625  0.714689  0.690682  1
  N  N65  1  0.099493  0.975745  0.688509  1
  N  N66  1  0.690682  0.089625  0.714689  1
  N  N67  1  0.527547  0.625924  0.717220  1
  N  N68  1  0.407899  0.809133  0.784480  1
  N  N69  1  0.886239  0.985808  0.797983  1
  N  N70  1  0.524627  0.401891  0.808808  1
  N  N71  1  0.784480  0.407899  0.809133  1
  N  N72  1  0.401737  0.090061  0.877169  1
  N  N73  1  0.985808  0.797983  0.886239  1
  N  N74  1  0.024255  0.311491  0.900507  1
  N  N75  1  0.377155  0.592092  0.901184  1
  N  N76  1  0.285311  0.309318  0.910375  1
  N  N77  1  0.122831  0.598263  0.909939  1
  N  N78  1  0.688509  0.099493  0.975745  1
  N  N79  1  0.797983  0.886239  0.985808  1
