# generated using pymatgen
data_CsGaH2
_symmetry_space_group_name_H-M   'P 1'
_cell_length_a   4.61822100
_cell_length_b   7.89296100
_cell_length_c   10.04548100
_cell_angle_alpha   90.00000000
_cell_angle_beta   90.00000000
_cell_angle_gamma   90.00000000
_symmetry_Int_Tables_number   1
_chemical_formula_structural   CsGaH2
_chemical_formula_sum   'Cs4 Ga4 H8'
_cell_volume   366.17223029
_cell_formula_units_Z   4
loop_
 _symmetry_equiv_pos_site_id
 _symmetry_equiv_pos_as_xyz
  1  'x, y, z'
loop_
 _atom_site_type_symbol
 _atom_site_label
 _atom_site_symmetry_multiplicity
 _atom_site_fract_x
 _atom_site_fract_y
 _atom_site_fract_z
 _atom_site_occupancy
  Cs  Cs0  1  0.750000  0.379398  0.673978  1
  Cs  Cs1  1  0.750000  0.879398  0.826022  1
  Cs  Cs2  1  0.250000  0.120602  0.173978  1
  Cs  Cs3  1  0.250000  0.620602  0.326022  1
  Ga  Ga4  1  0.250000  0.060344  0.531658  1
  Ga  Ga5  1  0.250000  0.560344  0.968342  1
  Ga  Ga6  1  0.750000  0.439656  0.031658  1
  Ga  Ga7  1  0.750000  0.939656  0.468342  1
  H  H8  1  0.750000  0.735885  0.517983  1
  H  H9  1  0.250000  0.099829  0.695074  1
  H  H10  1  0.250000  0.599829  0.804926  1
  H  H11  1  0.750000  0.235885  0.982017  1
  H  H12  1  0.250000  0.764115  0.017983  1
  H  H13  1  0.750000  0.400171  0.195074  1
  H  H14  1  0.750000  0.900171  0.304926  1
  H  H15  1  0.250000  0.264115  0.482017  1
