# generated using pymatgen
data_YbYHo6(B6Ru)4
_symmetry_space_group_name_H-M   'P 1'
_cell_length_a   3.65168000
_cell_length_b   9.12679466
_cell_length_c   11.51146931
_cell_angle_alpha   89.90757579
_cell_angle_beta   90.00000000
_cell_angle_gamma   90.00000000
_symmetry_Int_Tables_number   1
_chemical_formula_structural   YbYHo6(B6Ru)4
_chemical_formula_sum   'Yb1 Y1 Ho6 B24 Ru4'
_cell_volume   383.65528725
_cell_formula_units_Z   1
loop_
 _symmetry_equiv_pos_site_id
 _symmetry_equiv_pos_as_xyz
  1  'x, y, z'
loop_
 _atom_site_type_symbol
 _atom_site_label
 _atom_site_symmetry_multiplicity
 _atom_site_fract_x
 _atom_site_fract_y
 _atom_site_fract_z
 _atom_site_occupancy
  Yb  Yb0  1  0.000000  0.676741  0.586137  1
  Y  Y1  1  0.000000  0.323783  0.415195  1
  Ho  Ho2  1  0.000000  0.821965  0.085157  1
  Ho  Ho3  1  0.000000  0.177540  0.913849  1
  Ho  Ho4  1  0.000000  0.941687  0.371704  1
  Ho  Ho5  1  0.000000  0.056243  0.629169  1
  Ho  Ho6  1  0.000000  0.443521  0.128035  1
  Ho  Ho7  1  0.000000  0.557402  0.870281  1
  B  B8  1  0.500000  0.554546  0.432646  1
  B  B9  1  0.500000  0.446267  0.567800  1
  B  B10  1  0.500000  0.053912  0.067169  1
  B  B11  1  0.500000  0.946672  0.933445  1
  B  B12  1  0.500000  0.747894  0.418793  1
  B  B13  1  0.500000  0.251813  0.581450  1
  B  B14  1  0.500000  0.248139  0.080398  1
  B  B15  1  0.500000  0.752440  0.919303  1
  B  B16  1  0.500000  0.790190  0.265378  1
  B  B17  1  0.500000  0.208812  0.734499  1
  B  B18  1  0.500000  0.290215  0.233695  1
  B  B19  1  0.500000  0.710440  0.766160  1
  B  B20  1  0.500000  0.631320  0.184536  1
  B  B21  1  0.500000  0.368428  0.814482  1
  B  B22  1  0.500000  0.130783  0.314660  1
  B  B23  1  0.500000  0.869020  0.685919  1
  B  B24  1  0.500000  0.982963  0.212319  1
  B  B25  1  0.500000  0.016836  0.788374  1
  B  B26  1  0.500000  0.483696  0.287298  1
  B  B27  1  0.500000  0.516445  0.712237  1
  B  B28  1  0.500000  0.607196  0.029156  1
  B  B29  1  0.500000  0.392751  0.970166  1
  B  B30  1  0.500000  0.104480  0.471170  1
  B  B31  1  0.500000  0.896268  0.528791  1
  Ru  Ru32  1  0.000000  0.638048  0.319631  1
  Ru  Ru33  1  0.000000  0.360725  0.679927  1
  Ru  Ru34  1  0.000000  0.137228  0.178629  1
  Ru  Ru35  1  0.000000  0.863592  0.822441  1
