# generated using pymatgen
data_La4Re16Si7Ge
_symmetry_space_group_name_H-M   'P 1'
_cell_length_a   4.16912600
_cell_length_b   7.36088335
_cell_length_c   15.56716200
_cell_angle_alpha   89.79888129
_cell_angle_beta   90.00000000
_cell_angle_gamma   90.00000000
_symmetry_Int_Tables_number   1
_chemical_formula_structural   La4Re16Si7Ge
_chemical_formula_sum   'La4 Re16 Si7 Ge1'
_cell_volume   477.72913185
_cell_formula_units_Z   1
loop_
 _symmetry_equiv_pos_site_id
 _symmetry_equiv_pos_as_xyz
  1  'x, y, z'
loop_
 _atom_site_type_symbol
 _atom_site_label
 _atom_site_symmetry_multiplicity
 _atom_site_fract_x
 _atom_site_fract_y
 _atom_site_fract_z
 _atom_site_occupancy
  La  La0  1  0.000000  0.578491  0.117945  1
  La  La1  1  0.000000  0.420223  0.881967  1
  La  La2  1  0.500000  0.082505  0.381174  1
  La  La3  1  0.500000  0.922587  0.619817  1
  Re  Re4  1  0.000000  0.135969  0.051858  1
  Re  Re5  1  0.000000  0.861793  0.947990  1
  Re  Re6  1  0.500000  0.633583  0.446206  1
  Re  Re7  1  0.500000  0.363538  0.552392  1
  Re  Re8  1  0.000000  0.732077  0.319752  1
  Re  Re9  1  0.000000  0.266765  0.680280  1
  Re  Re10  1  0.500000  0.232070  0.178981  1
  Re  Re11  1  0.500000  0.766074  0.820555  1
  Re  Re12  1  0.000000  0.432487  0.417818  1
  Re  Re13  1  0.000000  0.564760  0.581522  1
  Re  Re14  1  0.500000  0.932569  0.081531  1
  Re  Re15  1  0.500000  0.065280  0.918566  1
  Re  Re16  1  0.000000  0.991122  0.206350  1
  Re  Re17  1  0.000000  0.006655  0.793640  1
  Re  Re18  1  0.500000  0.490217  0.292656  1
  Re  Re19  1  0.500000  0.507615  0.706666  1
  Si  Si20  1  0.000000  0.181050  0.525908  1
  Si  Si21  1  0.500000  0.323469  0.024584  1
  Si  Si22  1  0.500000  0.674729  0.975258  1
  Si  Si23  1  0.000000  0.293511  0.272636  1
  Si  Si24  1  0.000000  0.704824  0.726532  1
  Si  Si25  1  0.500000  0.792874  0.226588  1
  Si  Si26  1  0.500000  0.205958  0.774080  1
  Ge  Ge27  1  0.000000  0.837207  0.476750  1
