# generated using pymatgen
data_YbTm5(CoSn6)2
_symmetry_space_group_name_H-M   'P 1'
_cell_length_a   8.40773205
_cell_length_b   8.40773165
_cell_length_c   13.07527000
_cell_angle_alpha   89.99558999
_cell_angle_beta   90.00440976
_cell_angle_gamma   148.44839937
_symmetry_Int_Tables_number   1
_chemical_formula_structural   YbTm5(CoSn6)2
_chemical_formula_sum   'Yb1 Tm5 Co2 Sn12'
_cell_volume   483.64988119
_cell_formula_units_Z   1
loop_
 _symmetry_equiv_pos_site_id
 _symmetry_equiv_pos_as_xyz
  1  'x, y, z'
loop_
 _atom_site_type_symbol
 _atom_site_label
 _atom_site_symmetry_multiplicity
 _atom_site_fract_x
 _atom_site_fract_y
 _atom_site_fract_z
 _atom_site_occupancy
  Yb  Yb0  1  0.899641  0.100359  0.402978  1
  Tm  Tm1  1  0.898301  0.101699  0.094839  1
  Tm  Tm2  1  0.101805  0.898195  0.596440  1
  Tm  Tm3  1  0.901353  0.098647  0.752322  1
  Tm  Tm4  1  0.101161  0.898839  0.905081  1
  Tm  Tm5  1  0.099171  0.900829  0.248442  1
  Co  Co6  1  0.298964  0.701036  0.249868  1
  Co  Co7  1  0.699658  0.300342  0.749934  1
  Sn  Sn8  1  0.757778  0.242222  0.572431  1
  Sn  Sn9  1  0.428009  0.571991  0.576933  1
  Sn  Sn10  1  0.573854  0.426146  0.424714  1
  Sn  Sn11  1  0.732629  0.267371  0.248656  1
  Sn  Sn12  1  0.266569  0.733431  0.750323  1
  Sn  Sn13  1  0.242710  0.757290  0.071134  1
  Sn  Sn14  1  0.242549  0.757451  0.428829  1
  Sn  Sn15  1  0.573073  0.426927  0.073786  1
  Sn  Sn16  1  0.454977  0.545023  0.247320  1
  Sn  Sn17  1  0.545160  0.454840  0.751220  1
  Sn  Sn18  1  0.756920  0.243080  0.928247  1
  Sn  Sn19  1  0.425718  0.574282  0.926502  1
