# generated using pymatgen
data_Pr4Ga9Ge(Ir2Rh)2
_symmetry_space_group_name_H-M   'P 1'
_cell_length_a   8.66308165
_cell_length_b   8.70564551
_cell_length_c   8.70564487
_cell_angle_alpha   140.87424373
_cell_angle_beta   107.84978487
_cell_angle_gamma   85.34340465
_symmetry_Int_Tables_number   1
_chemical_formula_structural   Pr4Ga9Ge(Ir2Rh)2
_chemical_formula_sum   'Pr4 Ga9 Ge1 Ir4 Rh2'
_cell_volume   380.72223891
_cell_formula_units_Z   1
loop_
 _symmetry_equiv_pos_site_id
 _symmetry_equiv_pos_as_xyz
  1  'x, y, z'
loop_
 _atom_site_type_symbol
 _atom_site_label
 _atom_site_symmetry_multiplicity
 _atom_site_fract_x
 _atom_site_fract_y
 _atom_site_fract_z
 _atom_site_occupancy
  Pr  Pr0  1  0.864847  0.636922  0.227923  1
  Pr  Pr1  1  0.136140  0.364211  0.771929  1
  Pr  Pr2  1  0.407048  0.136530  0.270518  1
  Pr  Pr3  1  0.587959  0.861775  0.726183  1
  Ga  Ga4  1  0.501264  0.751111  0.251610  1
  Ga  Ga5  1  0.501264  0.249655  0.750154  1
  Ga  Ga6  1  0.209229  0.959198  0.749056  1
  Ga  Ga7  1  0.790365  0.541282  0.749979  1
  Ga  Ga8  1  0.790365  0.040387  0.249083  1
  Ga  Ga9  1  0.209229  0.460175  0.250032  1
  Ga  Ga10  1  0.075740  0.907192  0.168548  1
  Ga  Ga11  1  0.922539  0.089769  0.832770  1
  Ga  Ga12  1  0.741129  0.409111  0.332018  1
  Ge  Ge13  1  0.258791  0.592049  0.666741  1
  Ir  Ir14  1  0.255498  0.853789  0.401709  1
  Ir  Ir15  1  0.746676  0.147537  0.599138  1
  Ir  Ir16  1  0.451212  0.353447  0.097765  1
  Ir  Ir17  1  0.545535  0.645965  0.899570  1
  Rh  Rh18  1  0.002584  0.749664  0.752355  1
  Rh  Rh19  1  0.002584  0.250229  0.252920  1
