# generated using pymatgen
data_Ce4Mg3ZnIr4
_symmetry_space_group_name_H-M   'P 1'
_cell_length_a   4.06939300
_cell_length_b   7.11615564
_cell_length_c   8.66356953
_cell_angle_alpha   90.72824180
_cell_angle_beta   90.00000000
_cell_angle_gamma   90.00000000
_symmetry_Int_Tables_number   1
_chemical_formula_structural   Ce4Mg3ZnIr4
_chemical_formula_sum   'Ce4 Mg3 Zn1 Ir4'
_cell_volume   250.86314115
_cell_formula_units_Z   1
loop_
 _symmetry_equiv_pos_site_id
 _symmetry_equiv_pos_as_xyz
  1  'x, y, z'
loop_
 _atom_site_type_symbol
 _atom_site_label
 _atom_site_symmetry_multiplicity
 _atom_site_fract_x
 _atom_site_fract_y
 _atom_site_fract_z
 _atom_site_occupancy
  Ce  Ce0  1  0.250000  0.535024  0.190646  1
  Ce  Ce1  1  0.750000  0.460996  0.811997  1
  Ce  Ce2  1  0.250000  0.047210  0.322412  1
  Ce  Ce3  1  0.750000  0.961500  0.679086  1
  Mg  Mg4  1  0.250000  0.134808  0.942969  1
  Mg  Mg5  1  0.750000  0.864345  0.057605  1
  Mg  Mg6  1  0.250000  0.626690  0.553181  1
  Zn  Zn7  1  0.750000  0.366874  0.443458  1
  Ir  Ir8  1  0.750000  0.758114  0.366867  1
  Ir  Ir9  1  0.250000  0.243662  0.631991  1
  Ir  Ir10  1  0.750000  0.260639  0.137081  1
  Ir  Ir11  1  0.250000  0.740138  0.862708  1
