# generated using pymatgen
data_Tm3LuMo3Os5
_symmetry_space_group_name_H-M   'P 1'
_cell_length_a   5.55961400
_cell_length_b   5.37739052
_cell_length_c   8.61558801
_cell_angle_alpha   89.99452058
_cell_angle_beta   90.00037839
_cell_angle_gamma   121.12899054
_symmetry_Int_Tables_number   1
_chemical_formula_structural   Tm3LuMo3Os5
_chemical_formula_sum   'Tm3 Lu1 Mo3 Os5'
_cell_volume   220.48434250
_cell_formula_units_Z   1
loop_
 _symmetry_equiv_pos_site_id
 _symmetry_equiv_pos_as_xyz
  1  'x, y, z'
loop_
 _atom_site_type_symbol
 _atom_site_label
 _atom_site_symmetry_multiplicity
 _atom_site_fract_x
 _atom_site_fract_y
 _atom_site_fract_z
 _atom_site_occupancy
  Tm  Tm0  1  0.333653  0.667287  0.433022  1
  Tm  Tm1  1  0.333649  0.667297  0.067056  1
  Tm  Tm2  1  0.667234  0.334492  0.937939  1
  Lu  Lu3  1  0.667293  0.334608  0.561902  1
  Mo  Mo4  1  0.997415  0.994808  0.493511  1
  Mo  Mo5  1  0.997436  0.994848  0.006470  1
  Mo  Mo6  1  0.173335  0.346735  0.749818  1
  Os  Os7  1  0.172409  0.832001  0.749799  1
  Os  Os8  1  0.659589  0.832020  0.749797  1
  Os  Os9  1  0.823729  0.647421  0.250295  1
  Os  Os10  1  0.830199  0.174218  0.250197  1
  Os  Os11  1  0.344060  0.174264  0.250193  1
