# generated using pymatgen
data_Dy2YBiRh3Pb2
_symmetry_space_group_name_H-M   'P 1'
_cell_length_a   7.71099362
_cell_length_b   7.75795704
_cell_length_c   3.88774900
_cell_angle_alpha   90.00000000
_cell_angle_beta   90.00000000
_cell_angle_gamma   120.11747509
_symmetry_Int_Tables_number   1
_chemical_formula_structural   Dy2YBiRh3Pb2
_chemical_formula_sum   'Dy2 Y1 Bi1 Rh3 Pb2'
_cell_volume   201.17372010
_cell_formula_units_Z   1
loop_
 _symmetry_equiv_pos_site_id
 _symmetry_equiv_pos_as_xyz
  1  'x, y, z'
loop_
 _atom_site_type_symbol
 _atom_site_label
 _atom_site_symmetry_multiplicity
 _atom_site_fract_x
 _atom_site_fract_y
 _atom_site_fract_z
 _atom_site_occupancy
  Dy  Dy0  1  0.408292  0.403509  0.000000  1
  Dy  Dy1  1  0.999985  0.599948  0.000000  1
  Y  Y2  1  0.592362  0.995369  0.000000  1
  Bi  Bi3  1  0.999966  0.264658  0.500000  1
  Rh  Rh4  1  0.667972  0.335792  0.500000  1
  Rh  Rh5  1  0.000623  0.002574  0.000000  1
  Rh  Rh6  1  0.330718  0.665165  0.500000  1
  Pb  Pb7  1  0.265535  0.999224  0.500000  1
  Pb  Pb8  1  0.734548  0.733762  0.500000  1
