# generated using pymatgen
data_Ho8VRe(OsC4)2
_symmetry_space_group_name_H-M   'P 1'
_cell_length_a   5.07000400
_cell_length_b   6.52441450
_cell_length_c   9.79902422
_cell_angle_alpha   90.07737397
_cell_angle_beta   90.00000000
_cell_angle_gamma   90.00000000
_symmetry_Int_Tables_number   1
_chemical_formula_structural   Ho8VRe(OsC4)2
_chemical_formula_sum   'Ho8 V1 Re1 Os2 C8'
_cell_volume   324.13974123
_cell_formula_units_Z   1
loop_
 _symmetry_equiv_pos_site_id
 _symmetry_equiv_pos_as_xyz
  1  'x, y, z'
loop_
 _atom_site_type_symbol
 _atom_site_label
 _atom_site_symmetry_multiplicity
 _atom_site_fract_x
 _atom_site_fract_y
 _atom_site_fract_z
 _atom_site_occupancy
  Ho  Ho0  1  0.250000  0.467154  0.781568  1
  Ho  Ho1  1  0.750000  0.034909  0.280689  1
  Ho  Ho2  1  0.250000  0.966000  0.712679  1
  Ho  Ho3  1  0.750000  0.528510  0.215712  1
  Ho  Ho4  1  0.250000  0.818956  0.058571  1
  Ho  Ho5  1  0.750000  0.678963  0.555300  1
  Ho  Ho6  1  0.250000  0.325615  0.441828  1
  Ho  Ho7  1  0.750000  0.179803  0.943323  1
  V  V8  1  0.250000  0.779323  0.366303  1
  Re  Re9  1  0.750000  0.720763  0.866189  1
  Os  Os10  1  0.250000  0.277863  0.134773  1
  Os  Os11  1  0.750000  0.220188  0.633586  1
  C  C12  1  0.250000  0.176747  0.950481  1
  C  C13  1  0.750000  0.822618  0.051988  1
  C  C14  1  0.250000  0.679653  0.549922  1
  C  C15  1  0.750000  0.324360  0.451061  1
  C  C16  1  0.250000  0.043375  0.261840  1
  C  C17  1  0.750000  0.454205  0.760062  1
  C  C18  1  0.250000  0.546424  0.241697  1
  C  C19  1  0.750000  0.954571  0.742429  1
