# generated using pymatgen
data_Na5Zr3Cu16As11P
_symmetry_space_group_name_H-M   'P 1'
_cell_length_a   13.16186404
_cell_length_b   13.16186368
_cell_length_c   3.98622300
_cell_angle_alpha   90.00000000
_cell_angle_beta   90.00000000
_cell_angle_gamma   120.06380910
_symmetry_Int_Tables_number   1
_chemical_formula_structural   Na5Zr3Cu16As11P
_chemical_formula_sum   'Na5 Zr3 Cu16 As11 P1'
_cell_volume   597.65066637
_cell_formula_units_Z   1
loop_
 _symmetry_equiv_pos_site_id
 _symmetry_equiv_pos_as_xyz
  1  'x, y, z'
loop_
 _atom_site_type_symbol
 _atom_site_label
 _atom_site_symmetry_multiplicity
 _atom_site_fract_x
 _atom_site_fract_y
 _atom_site_fract_z
 _atom_site_occupancy
  Na  Na0  1  0.184583  0.184583  0.500000  1
  Na  Na1  1  0.814824  0.998404  0.500000  1
  Na  Na2  1  0.998404  0.814824  0.500000  1
  Na  Na3  1  0.334142  0.667109  0.000000  1
  Na  Na4  1  0.667109  0.334142  0.000000  1
  Zr  Zr5  1  0.571523  0.571523  0.000000  1
  Zr  Zr6  1  0.431292  0.000395  0.000000  1
  Zr  Zr7  1  0.000395  0.431292  0.000000  1
  Cu  Cu8  1  0.731082  0.731082  0.500000  1
  Cu  Cu9  1  0.275073  0.999936  0.500000  1
  Cu  Cu10  1  0.999936  0.275073  0.500000  1
  Cu  Cu11  1  0.181143  0.369430  0.000000  1
  Cu  Cu12  1  0.636797  0.812781  0.000000  1
  Cu  Cu13  1  0.188898  0.818255  0.000000  1
  Cu  Cu14  1  0.812781  0.636797  0.000000  1
  Cu  Cu15  1  0.818255  0.188898  0.000000  1
  Cu  Cu16  1  0.369430  0.181143  0.000000  1
  Cu  Cu17  1  0.359697  0.481452  0.500000  1
  Cu  Cu18  1  0.518924  0.877869  0.500000  1
  Cu  Cu19  1  0.121739  0.641119  0.500000  1
  Cu  Cu20  1  0.877869  0.518924  0.500000  1
  Cu  Cu21  1  0.641119  0.121739  0.500000  1
  Cu  Cu22  1  0.481452  0.359697  0.500000  1
  Cu  Cu23  1  0.989193  0.989193  0.000000  1
  As  As24  1  0.174975  0.999224  0.000000  1
  As  As25  1  0.999224  0.174975  0.000000  1
  As  As26  1  0.171156  0.485472  0.500000  1
  As  As27  1  0.515697  0.686408  0.500000  1
  As  As28  1  0.314569  0.829451  0.500000  1
  As  As29  1  0.686408  0.515697  0.500000  1
  As  As30  1  0.829451  0.314569  0.500000  1
  As  As31  1  0.485472  0.171156  0.500000  1
  As  As32  1  0.364209  0.364209  0.000000  1
  As  As33  1  0.636727  0.998756  0.000000  1
  As  As34  1  0.998756  0.636727  0.000000  1
  P  P35  1  0.817698  0.817698  0.000000  1
