# generated using pymatgen
data_Dy3Er(CCl)2
_symmetry_space_group_name_H-M   'P 1'
_cell_length_a   3.63108300
_cell_length_b   3.63108128
_cell_length_c   13.55627500
_cell_angle_alpha   90.00000000
_cell_angle_beta   90.00000000
_cell_angle_gamma   119.99998835
_symmetry_Int_Tables_number   1
_chemical_formula_structural   Dy3Er(CCl)2
_chemical_formula_sum   'Dy3 Er1 C2 Cl2'
_cell_volume   154.79010668
_cell_formula_units_Z   1
loop_
 _symmetry_equiv_pos_site_id
 _symmetry_equiv_pos_as_xyz
  1  'x, y, z'
loop_
 _atom_site_type_symbol
 _atom_site_label
 _atom_site_symmetry_multiplicity
 _atom_site_fract_x
 _atom_site_fract_y
 _atom_site_fract_z
 _atom_site_occupancy
  Dy  Dy0  1  0.333333  0.666667  0.594658  1
  Dy  Dy1  1  0.666667  0.333333  0.405655  1
  Dy  Dy2  1  0.666667  0.333333  0.093681  1
  Er  Er3  1  0.333333  0.666667  0.906652  1
  C  C4  1  0.000000  0.000000  0.997789  1
  C  C5  1  0.000000  0.000000  0.500181  1
  Cl  Cl6  1  0.333333  0.666667  0.249634  1
  Cl  Cl7  1  0.666667  0.333333  0.751749  1
