# generated using pymatgen
data_Tm10IrOs2Rh
_symmetry_space_group_name_H-M   'P 1'
_cell_length_a   6.34448112
_cell_length_b   7.26244414
_cell_length_c   8.32377992
_cell_angle_alpha   96.56270726
_cell_angle_beta   112.40076513
_cell_angle_gamma   90.04665258
_symmetry_Int_Tables_number   1
_chemical_formula_structural   Tm10IrOs2Rh
_chemical_formula_sum   'Tm10 Ir1 Os2 Rh1'
_cell_volume   351.85458343
_cell_formula_units_Z   1
loop_
 _symmetry_equiv_pos_site_id
 _symmetry_equiv_pos_as_xyz
  1  'x, y, z'
loop_
 _atom_site_type_symbol
 _atom_site_label
 _atom_site_symmetry_multiplicity
 _atom_site_fract_x
 _atom_site_fract_y
 _atom_site_fract_z
 _atom_site_occupancy
  Tm  Tm0  1  0.969296  0.916073  0.179115  1
  Tm  Tm1  1  0.789913  0.584493  0.821088  1
  Tm  Tm2  1  0.026084  0.081887  0.816619  1
  Tm  Tm3  1  0.210246  0.417713  0.184674  1
  Tm  Tm4  1  0.653186  0.818061  0.440506  1
  Tm  Tm5  1  0.212329  0.682760  0.559238  1
  Tm  Tm6  1  0.350853  0.177946  0.560484  1
  Tm  Tm7  1  0.787186  0.320586  0.437395  1
  Tm  Tm8  1  0.423141  0.750669  0.000291  1
  Tm  Tm9  1  0.579456  0.249537  0.000915  1
  Ir  Ir10  1  0.393375  0.077313  0.219504  1
  Os  Os11  1  0.824229  0.575134  0.217210  1
  Os  Os12  1  0.607330  0.924357  0.783112  1
  Rh  Rh13  1  0.173376  0.423472  0.779850  1
