# generated using pymatgen
data_Nd2Pt3Rh
_symmetry_space_group_name_H-M   'P 1'
_cell_length_a   5.50635422
_cell_length_b   5.49883639
_cell_length_c   5.49883700
_cell_angle_alpha   60.00000237
_cell_angle_beta   60.04515587
_cell_angle_gamma   60.04514764
_symmetry_Int_Tables_number   1
_chemical_formula_structural   Nd2Pt3Rh
_chemical_formula_sum   'Nd2 Pt3 Rh1'
_cell_volume   117.81127493
_cell_formula_units_Z   1
loop_
 _symmetry_equiv_pos_site_id
 _symmetry_equiv_pos_as_xyz
  1  'x, y, z'
loop_
 _atom_site_type_symbol
 _atom_site_label
 _atom_site_symmetry_multiplicity
 _atom_site_fract_x
 _atom_site_fract_y
 _atom_site_fract_z
 _atom_site_occupancy
  Nd  Nd0  1  0.749718  0.750094  0.750094  1
  Nd  Nd1  1  0.500282  0.499906  0.499906  1
  Pt  Pt2  1  0.125000  0.125000  0.625000  1
  Pt  Pt3  1  0.125000  0.625000  0.125000  1
  Pt  Pt4  1  0.125000  0.125000  0.125000  1
  Rh  Rh5  1  0.625000  0.125000  0.125000  1
