# generated using pymatgen
data_Tb7DyHf6O24
_symmetry_space_group_name_H-M   'P 1'
_cell_length_a   6.38573164
_cell_length_b   6.48281937
_cell_length_c   12.84900007
_cell_angle_alpha   99.17481292
_cell_angle_beta   99.30644030
_cell_angle_gamma   99.25572828
_symmetry_Int_Tables_number   1
_chemical_formula_structural   Tb7DyHf6O24
_chemical_formula_sum   'Tb7 Dy1 Hf6 O24'
_cell_volume   508.60295709
_cell_formula_units_Z   1
loop_
 _symmetry_equiv_pos_site_id
 _symmetry_equiv_pos_as_xyz
  1  'x, y, z'
loop_
 _atom_site_type_symbol
 _atom_site_label
 _atom_site_symmetry_multiplicity
 _atom_site_fract_x
 _atom_site_fract_y
 _atom_site_fract_z
 _atom_site_occupancy
  Tb  Tb0  1  0.295075  0.610667  0.818213  1
  Tb  Tb1  1  0.385696  0.866299  0.597714  1
  Tb  Tb2  1  0.858464  0.695983  0.948033  1
  Tb  Tb3  1  0.309259  0.612724  0.318082  1
  Tb  Tb4  1  0.141581  0.304038  0.052061  1
  Tb  Tb5  1  0.704972  0.389034  0.181889  1
  Tb  Tb6  1  0.691043  0.387567  0.681845  1
  Dy  Dy7  1  0.614153  0.133921  0.402303  1
  Hf  Hf8  1  0.008914  0.007202  0.254344  1
  Hf  Hf9  1  0.393329  0.856182  0.093406  1
  Hf  Hf10  1  0.991294  0.993037  0.745878  1
  Hf  Hf11  1  0.852357  0.669813  0.447807  1
  Hf  Hf12  1  0.147264  0.329691  0.551919  1
  Hf  Hf13  1  0.606927  0.143988  0.906626  1
  O  O14  1  0.315605  0.968862  0.796384  1
  O  O15  1  0.080715  0.923867  0.096763  1
  O  O16  1  0.319061  0.948387  0.286243  1
  O  O17  1  0.022811  0.882061  0.589824  1
  O  O18  1  0.563450  0.834429  0.962655  1
  O  O19  1  0.593091  0.818079  0.461655  1
  O  O20  1  0.188048  0.598514  0.972751  1
  O  O21  1  0.928734  0.684975  0.778523  1
  O  O22  1  0.429717  0.588442  0.157370  1
  O  O23  1  0.169960  0.576081  0.466130  1
  O  O24  1  0.926663  0.701901  0.295633  1
  O  O25  1  0.570335  0.411641  0.842736  1
  O  O26  1  0.403031  0.563485  0.656237  1
  O  O27  1  0.071270  0.315047  0.221486  1
  O  O28  1  0.811943  0.401438  0.027304  1
  O  O29  1  0.596849  0.435305  0.343917  1
  O  O30  1  0.073444  0.297936  0.704325  1
  O  O31  1  0.829631  0.423204  0.533610  1
  O  O32  1  0.436556  0.165572  0.037366  1
  O  O33  1  0.407428  0.182930  0.537315  1
  O  O34  1  0.919533  0.075999  0.903444  1
  O  O35  1  0.684427  0.031073  0.203646  1
  O  O36  1  0.975696  0.117806  0.410115  1
  O  O37  1  0.681674  0.052820  0.714451  1
