# generated using pymatgen
data_Nd2CdPdAu
_symmetry_space_group_name_H-M   'P 1'
_cell_length_a   7.99385174
_cell_length_b   7.99385174
_cell_length_c   3.90969800
_cell_angle_alpha   90.00000000
_cell_angle_beta   90.00000000
_cell_angle_gamma   89.07623072
_symmetry_Int_Tables_number   1
_chemical_formula_structural   Nd2CdPdAu
_chemical_formula_sum   'Nd4 Cd2 Pd2 Au2'
_cell_volume   249.80374345
_cell_formula_units_Z   2
loop_
 _symmetry_equiv_pos_site_id
 _symmetry_equiv_pos_as_xyz
  1  'x, y, z'
loop_
 _atom_site_type_symbol
 _atom_site_label
 _atom_site_symmetry_multiplicity
 _atom_site_fract_x
 _atom_site_fract_y
 _atom_site_fract_z
 _atom_site_occupancy
  Nd  Nd0  1  0.666604  0.166604  0.500000  1
  Nd  Nd1  1  0.333396  0.833396  0.500000  1
  Nd  Nd2  1  0.178666  0.321334  0.500000  1
  Nd  Nd3  1  0.821334  0.678666  0.500000  1
  Cd  Cd4  1  0.000000  0.000000  0.000000  1
  Cd  Cd5  1  0.500000  0.500000  0.000000  1
  Pd  Pd6  1  0.626564  0.873436  0.000000  1
  Pd  Pd7  1  0.373436  0.126564  0.000000  1
  Au  Au8  1  0.128026  0.628026  0.000000  1
  Au  Au9  1  0.871974  0.371974  0.000000  1
