# generated using pymatgen
data_Tb5Pr(WO7)2
_symmetry_space_group_name_H-M   'P 1'
_cell_length_a   6.52614930
_cell_length_b   6.52614961
_cell_length_c   7.56650800
_cell_angle_alpha   89.99737987
_cell_angle_beta   90.00262184
_cell_angle_gamma   108.95766002
_symmetry_Int_Tables_number   1
_chemical_formula_structural   Tb5Pr(WO7)2
_chemical_formula_sum   'Tb5 Pr1 W2 O14'
_cell_volume   304.78245566
_cell_formula_units_Z   1
loop_
 _symmetry_equiv_pos_site_id
 _symmetry_equiv_pos_as_xyz
  1  'x, y, z'
loop_
 _atom_site_type_symbol
 _atom_site_label
 _atom_site_symmetry_multiplicity
 _atom_site_fract_x
 _atom_site_fract_y
 _atom_site_fract_z
 _atom_site_occupancy
  Tb  Tb0  1  0.465240  0.999995  0.255834  1
  Tb  Tb1  1  0.532391  0.002461  0.750704  1
  Tb  Tb2  1  0.002461  0.532391  0.249296  1
  Tb  Tb3  1  0.525801  0.525801  0.500000  1
  Tb  Tb4  1  0.999995  0.465240  0.744166  1
  Pr  Pr5  1  0.495699  0.495699  0.000000  1
  W  W6  1  0.999635  0.999635  0.000000  1
  W  W7  1  0.999889  0.999889  0.500000  1
  O  O8  1  0.061706  0.313715  0.467038  1
  O  O9  1  0.071883  0.926294  0.249764  1
  O  O10  1  0.635131  0.366441  0.259130  1
  O  O11  1  0.313715  0.061706  0.532962  1
  O  O12  1  0.919086  0.675781  0.527054  1
  O  O13  1  0.926294  0.071883  0.750236  1
  O  O14  1  0.675781  0.919086  0.472946  1
  O  O15  1  0.361596  0.639239  0.259018  1
  O  O16  1  0.681114  0.930646  0.032761  1
  O  O17  1  0.639239  0.361596  0.740982  1
  O  O18  1  0.074282  0.321974  0.027286  1
  O  O19  1  0.930646  0.681114  0.967239  1
  O  O20  1  0.366441  0.635131  0.740870  1
  O  O21  1  0.321974  0.074282  0.972714  1
