# generated using pymatgen
data_EuLuSc(GaNi2)3
_symmetry_space_group_name_H-M   'P 1'
_cell_length_a   5.17261900
_cell_length_b   5.17261785
_cell_length_c   15.62765200
_cell_angle_alpha   90.00000000
_cell_angle_beta   90.00000000
_cell_angle_gamma   119.99998815
_symmetry_Int_Tables_number   1
_chemical_formula_structural   EuLuSc(GaNi2)3
_chemical_formula_sum   'Eu2 Lu2 Sc2 Ga6 Ni12'
_cell_volume   362.11398721
_cell_formula_units_Z   2
loop_
 _symmetry_equiv_pos_site_id
 _symmetry_equiv_pos_as_xyz
  1  'x, y, z'
loop_
 _atom_site_type_symbol
 _atom_site_label
 _atom_site_symmetry_multiplicity
 _atom_site_fract_x
 _atom_site_fract_y
 _atom_site_fract_z
 _atom_site_occupancy
  Eu  Eu0  1  0.333333  0.666667  0.742336  1
  Eu  Eu1  1  0.666667  0.333333  0.257664  1
  Lu  Lu2  1  0.666667  0.333333  0.043296  1
  Lu  Lu3  1  0.333333  0.666667  0.956704  1
  Sc  Sc4  1  0.333333  0.666667  0.534133  1
  Sc  Sc5  1  0.666667  0.333333  0.465867  1
  Ga  Ga6  1  0.000000  0.000000  0.250860  1
  Ga  Ga7  1  0.000000  0.000000  0.749140  1
  Ga  Ga8  1  0.333333  0.666667  0.250755  1
  Ga  Ga9  1  0.666667  0.333333  0.749245  1
  Ga  Ga10  1  0.000000  0.000000  0.000000  1
  Ga  Ga11  1  0.000000  0.000000  0.500000  1
  Ni  Ni12  1  0.169461  0.338920  0.123449  1
  Ni  Ni13  1  0.830539  0.661080  0.876551  1
  Ni  Ni14  1  0.661080  0.830539  0.123449  1
  Ni  Ni15  1  0.829997  0.659997  0.620404  1
  Ni  Ni16  1  0.338920  0.169461  0.876551  1
  Ni  Ni17  1  0.170003  0.340003  0.379596  1
  Ni  Ni18  1  0.169461  0.830539  0.123449  1
  Ni  Ni19  1  0.340003  0.170003  0.620404  1
  Ni  Ni20  1  0.830539  0.169461  0.876551  1
  Ni  Ni21  1  0.659997  0.829997  0.379596  1
  Ni  Ni22  1  0.829997  0.170003  0.620404  1
  Ni  Ni23  1  0.170003  0.829997  0.379596  1
