# generated using pymatgen
data_Dy3Lu3Pa2(ReB6)4
_symmetry_space_group_name_H-M   'P 1'
_cell_length_a   3.67951700
_cell_length_b   9.12137275
_cell_length_c   11.49558027
_cell_angle_alpha   90.32269606
_cell_angle_beta   90.00000000
_cell_angle_gamma   90.00000000
_symmetry_Int_Tables_number   1
_chemical_formula_structural   Dy3Lu3Pa2(ReB6)4
_chemical_formula_sum   'Dy3 Lu3 Pa2 Re4 B24'
_cell_volume   385.81137469
_cell_formula_units_Z   1
loop_
 _symmetry_equiv_pos_site_id
 _symmetry_equiv_pos_as_xyz
  1  'x, y, z'
loop_
 _atom_site_type_symbol
 _atom_site_label
 _atom_site_symmetry_multiplicity
 _atom_site_fract_x
 _atom_site_fract_y
 _atom_site_fract_z
 _atom_site_occupancy
  Dy  Dy0  1  0.000000  0.823175  0.085393  1
  Dy  Dy1  1  0.000000  0.176794  0.914162  1
  Dy  Dy2  1  0.000000  0.945058  0.372906  1
  Lu  Lu3  1  0.000000  0.055203  0.628246  1
  Lu  Lu4  1  0.000000  0.443802  0.126279  1
  Lu  Lu5  1  0.000000  0.556130  0.873370  1
  Pa  Pa6  1  0.000000  0.321193  0.413433  1
  Pa  Pa7  1  0.000000  0.678983  0.587015  1
  Re  Re8  1  0.000000  0.634513  0.323782  1
  Re  Re9  1  0.000000  0.364019  0.676367  1
  Re  Re10  1  0.000000  0.142173  0.181682  1
  Re  Re11  1  0.000000  0.858827  0.817719  1
  B  B12  1  0.500000  0.553291  0.432806  1
  B  B13  1  0.500000  0.445737  0.567416  1
  B  B14  1  0.500000  0.054361  0.067109  1
  B  B15  1  0.500000  0.946222  0.932320  1
  B  B16  1  0.500000  0.748411  0.419414  1
  B  B17  1  0.500000  0.250048  0.581026  1
  B  B18  1  0.500000  0.249994  0.080367  1
  B  B19  1  0.500000  0.750517  0.919450  1
  B  B20  1  0.500000  0.790986  0.264746  1
  B  B21  1  0.500000  0.207593  0.734837  1
  B  B22  1  0.500000  0.293432  0.233761  1
  B  B23  1  0.500000  0.707296  0.766150  1
  B  B24  1  0.500000  0.629989  0.184351  1
  B  B25  1  0.500000  0.369393  0.815293  1
  B  B26  1  0.500000  0.132618  0.314272  1
  B  B27  1  0.500000  0.868791  0.685522  1
  B  B28  1  0.500000  0.982713  0.211740  1
  B  B29  1  0.500000  0.018110  0.787216  1
  B  B30  1  0.500000  0.482240  0.285751  1
  B  B31  1  0.500000  0.517228  0.714101  1
  B  B32  1  0.500000  0.601387  0.028165  1
  B  B33  1  0.500000  0.398609  0.971616  1
  B  B34  1  0.500000  0.108393  0.471429  1
  B  B35  1  0.500000  0.892768  0.530785  1
