# generated using pymatgen
data_Dy6Y(ErIn4)5
_symmetry_space_group_name_H-M   'P 1'
_cell_length_a   6.49642565
_cell_length_b   10.41562395
_cell_length_c   12.26450654
_cell_angle_alpha   90.03557264
_cell_angle_beta   89.95779416
_cell_angle_gamma   90.00513017
_symmetry_Int_Tables_number   1
_chemical_formula_structural   Dy6Y(ErIn4)5
_chemical_formula_sum   'Dy6 Y1 Er5 In20'
_cell_volume   829.86918792
_cell_formula_units_Z   1
loop_
 _symmetry_equiv_pos_site_id
 _symmetry_equiv_pos_as_xyz
  1  'x, y, z'
loop_
 _atom_site_type_symbol
 _atom_site_label
 _atom_site_symmetry_multiplicity
 _atom_site_fract_x
 _atom_site_fract_y
 _atom_site_fract_z
 _atom_site_occupancy
  Dy  Dy0  1  0.609296  0.006277  0.642134  1
  Dy  Dy1  1  0.109269  0.993500  0.857972  1
  Dy  Dy2  1  0.390785  0.506463  0.357761  1
  Dy  Dy3  1  0.109132  0.506441  0.858430  1
  Dy  Dy4  1  0.390815  0.993605  0.357754  1
  Dy  Dy5  1  0.890591  0.006502  0.142176  1
  Y  Y6  1  0.609406  0.493621  0.642170  1
  Er  Er7  1  0.349021  0.750176  0.056133  1
  Er  Er8  1  0.150193  0.750031  0.556006  1
  Er  Er9  1  0.650397  0.250276  0.944047  1
  Er  Er10  1  0.849600  0.249739  0.443898  1
  Er  Er11  1  0.891094  0.493531  0.141645  1
  In  In12  1  0.615857  0.749975  0.504625  1
  In  In13  1  0.883717  0.749256  0.005655  1
  In  In14  1  0.384111  0.250003  0.495106  1
  In  In15  1  0.115382  0.250077  0.995314  1
  In  In16  1  0.650522  0.749382  0.245285  1
  In  In17  1  0.850024  0.749977  0.745864  1
  In  In18  1  0.350011  0.250000  0.754392  1
  In  In19  1  0.149963  0.250485  0.254174  1
  In  In20  1  0.126202  0.749912  0.284786  1
  In  In21  1  0.373858  0.749947  0.784796  1
  In  In22  1  0.874061  0.249969  0.715215  1
  In  In23  1  0.627250  0.250801  0.214949  1
  In  In24  1  0.875837  0.543393  0.400669  1
  In  In25  1  0.624681  0.956186  0.901547  1
  In  In26  1  0.124374  0.043786  0.598560  1
  In  In27  1  0.375071  0.456551  0.098758  1
  In  In28  1  0.124149  0.456295  0.598507  1
  In  In29  1  0.375591  0.043901  0.098586  1
  In  In30  1  0.875570  0.956221  0.401365  1
  In  In31  1  0.624170  0.543720  0.901720  1
