# generated using pymatgen
data_La16Tb(LuIr4)3
_symmetry_space_group_name_H-M   'P 1'
_cell_length_a   11.35150600
_cell_length_b   11.35150600
_cell_length_c   6.52408800
_cell_angle_alpha   90.00000000
_cell_angle_beta   90.00000000
_cell_angle_gamma   90.00000000
_symmetry_Int_Tables_number   1
_chemical_formula_structural   La16Tb(LuIr4)3
_chemical_formula_sum   'La16 Tb1 Lu3 Ir12'
_cell_volume   840.67237495
_cell_formula_units_Z   1
loop_
 _symmetry_equiv_pos_site_id
 _symmetry_equiv_pos_as_xyz
  1  'x, y, z'
loop_
 _atom_site_type_symbol
 _atom_site_label
 _atom_site_symmetry_multiplicity
 _atom_site_fract_x
 _atom_site_fract_y
 _atom_site_fract_z
 _atom_site_occupancy
  La  La0  1  0.286158  0.087374  0.388861  1
  La  La1  1  0.286378  0.912588  0.888974  1
  La  La2  1  0.713622  0.087412  0.888974  1
  La  La3  1  0.713842  0.912626  0.388861  1
  La  La4  1  0.587646  0.787278  0.889176  1
  La  La5  1  0.587251  0.212239  0.388813  1
  La  La6  1  0.412749  0.787761  0.388813  1
  La  La7  1  0.412354  0.212722  0.889176  1
  La  La8  1  0.212239  0.412749  0.611187  1
  La  La9  1  0.212722  0.587646  0.110824  1
  La  La10  1  0.787278  0.412354  0.110824  1
  La  La11  1  0.787761  0.587251  0.611187  1
  La  La12  1  0.912588  0.713622  0.111026  1
  La  La13  1  0.912626  0.286158  0.611139  1
  La  La14  1  0.087374  0.713842  0.611139  1
  La  La15  1  0.087412  0.286378  0.111026  1
  Tb  Tb16  1  0.500000  0.500000  0.500000  1
  Lu  Lu17  1  0.000000  0.000000  0.500000  1
  Lu  Lu18  1  0.000000  0.000000  0.000000  1
  Lu  Lu19  1  0.500000  0.500000  0.000000  1
  Ir  Ir20  1  0.853512  0.145659  0.250447  1
  Ir  Ir21  1  0.854341  0.853512  0.749553  1
  Ir  Ir22  1  0.145659  0.146488  0.749553  1
  Ir  Ir23  1  0.146488  0.854341  0.250447  1
  Ir  Ir24  1  0.647276  0.351820  0.753335  1
  Ir  Ir25  1  0.648180  0.647276  0.246665  1
  Ir  Ir26  1  0.351820  0.352724  0.246665  1
  Ir  Ir27  1  0.352724  0.648180  0.753335  1
  Ir  Ir28  1  0.500000  0.000000  0.120691  1
  Ir  Ir29  1  0.500000  0.000000  0.620209  1
  Ir  Ir30  1  0.000000  0.500000  0.879309  1
  Ir  Ir31  1  0.000000  0.500000  0.379791  1
