# generated using pymatgen
data_Nd2Th3Ni19
_symmetry_space_group_name_H-M   'P 1'
_cell_length_a   4.99613564
_cell_length_b   4.99613555
_cell_length_c   16.62747370
_cell_angle_alpha   81.35931835
_cell_angle_beta   81.35931873
_cell_angle_gamma   59.99999260
_symmetry_Int_Tables_number   1
_chemical_formula_structural   Nd2Th3Ni19
_chemical_formula_sum   'Nd2 Th3 Ni19'
_cell_volume   353.98910770
_cell_formula_units_Z   1
loop_
 _symmetry_equiv_pos_site_id
 _symmetry_equiv_pos_as_xyz
  1  'x, y, z'
loop_
 _atom_site_type_symbol
 _atom_site_label
 _atom_site_symmetry_multiplicity
 _atom_site_fract_x
 _atom_site_fract_y
 _atom_site_fract_z
 _atom_site_occupancy
  Nd  Nd0  1  0.848004  0.848004  0.455987  1
  Nd  Nd1  1  0.151996  0.151996  0.544013  1
  Th  Th2  1  0.000000  0.000000  0.000000  1
  Th  Th3  1  0.921555  0.921555  0.235338  1
  Th  Th4  1  0.078445  0.078445  0.764662  1
  Ni  Ni5  1  0.500000  0.500000  0.500000  1
  Ni  Ni6  1  0.748898  0.748899  0.753303  1
  Ni  Ni7  1  0.251101  0.251101  0.246698  1
  Ni  Ni8  1  0.666652  0.666652  0.000043  1
  Ni  Ni9  1  0.333348  0.333348  0.999957  1
  Ni  Ni10  1  0.584698  0.584698  0.245907  1
  Ni  Ni11  1  0.415302  0.415302  0.754093  1
  Ni  Ni12  1  0.377734  0.377734  0.368447  1
  Ni  Ni13  1  0.876084  0.377734  0.368447  1
  Ni  Ni14  1  0.377734  0.876084  0.368447  1
  Ni  Ni15  1  0.622266  0.622266  0.631553  1
  Ni  Ni16  1  0.123916  0.622266  0.631553  1
  Ni  Ni17  1  0.622266  0.123916  0.631553  1
  Ni  Ni18  1  0.459164  0.459164  0.122322  1
  Ni  Ni19  1  0.959352  0.459164  0.122322  1
  Ni  Ni20  1  0.459164  0.959352  0.122322  1
  Ni  Ni21  1  0.540836  0.540836  0.877678  1
  Ni  Ni22  1  0.040648  0.540836  0.877678  1
  Ni  Ni23  1  0.540836  0.040648  0.877678  1
