# generated using pymatgen
data_Li7Cd(PPd3)4
_symmetry_space_group_name_H-M   'P 1'
_cell_length_a   7.20694845
_cell_length_b   7.20694861
_cell_length_c   7.20694828
_cell_angle_alpha   89.94286970
_cell_angle_beta   89.94286855
_cell_angle_gamma   89.94287381
_symmetry_Int_Tables_number   1
_chemical_formula_structural   Li7Cd(PPd3)4
_chemical_formula_sum   'Li7 Cd1 P4 Pd12'
_cell_volume   374.32910783
_cell_formula_units_Z   1
loop_
 _symmetry_equiv_pos_site_id
 _symmetry_equiv_pos_as_xyz
  1  'x, y, z'
loop_
 _atom_site_type_symbol
 _atom_site_label
 _atom_site_symmetry_multiplicity
 _atom_site_fract_x
 _atom_site_fract_y
 _atom_site_fract_z
 _atom_site_occupancy
  Li  Li0  1  0.038168  0.459082  0.551515  1
  Li  Li1  1  0.551515  0.038168  0.459082  1
  Li  Li2  1  0.459082  0.551515  0.038168  1
  Li  Li3  1  0.204461  0.709002  0.796022  1
  Li  Li4  1  0.955262  0.955262  0.955262  1
  Li  Li5  1  0.796022  0.204461  0.709002  1
  Li  Li6  1  0.709002  0.796022  0.204461  1
  Cd  Cd7  1  0.301216  0.301216  0.301216  1
  P  P8  1  0.868774  0.372924  0.117102  1
  P  P9  1  0.372924  0.117102  0.868774  1
  P  P10  1  0.626342  0.626342  0.626342  1
  P  P11  1  0.117102  0.868774  0.372924  1
  Pd  Pd12  1  0.178138  0.071849  0.618280  1
  Pd  Pd13  1  0.432468  0.373159  0.680336  1
  Pd  Pd14  1  0.071849  0.618280  0.178138  1
  Pd  Pd15  1  0.928408  0.126840  0.317830  1
  Pd  Pd16  1  0.317830  0.928408  0.126840  1
  Pd  Pd17  1  0.680336  0.432468  0.373159  1
  Pd  Pd18  1  0.573907  0.872836  0.826081  1
  Pd  Pd19  1  0.618280  0.178138  0.071849  1
  Pd  Pd20  1  0.373159  0.680336  0.432468  1
  Pd  Pd21  1  0.872836  0.826081  0.573907  1
  Pd  Pd22  1  0.126840  0.317830  0.928408  1
  Pd  Pd23  1  0.826081  0.573907  0.872836  1
