# generated using pymatgen
data_Ce7UC12
_symmetry_space_group_name_H-M   'P 1'
_cell_length_a   7.24664124
_cell_length_b   7.24664124
_cell_length_c   7.20051700
_cell_angle_alpha   109.34234257
_cell_angle_beta   109.34234257
_cell_angle_gamma   109.59979462
_symmetry_Int_Tables_number   1
_chemical_formula_structural   Ce7UC12
_chemical_formula_sum   'Ce7 U1 C12'
_cell_volume   291.54364403
_cell_formula_units_Z   1
loop_
 _symmetry_equiv_pos_site_id
 _symmetry_equiv_pos_as_xyz
  1  'x, y, z'
loop_
 _atom_site_type_symbol
 _atom_site_label
 _atom_site_symmetry_multiplicity
 _atom_site_fract_x
 _atom_site_fract_y
 _atom_site_fract_z
 _atom_site_occupancy
  Ce  Ce0  1  0.405991  0.007946  0.000404  1
  Ce  Ce1  1  0.898580  0.998885  0.999350  1
  Ce  Ce2  1  0.600306  0.601421  0.100770  1
  Ce  Ce3  1  0.000000  0.500000  0.402037  1
  Ce  Ce4  1  0.492054  0.398045  0.492458  1
  Ce  Ce5  1  0.501115  0.899695  0.500465  1
  Ce  Ce6  1  0.101955  0.094009  0.594414  1
  U  U7  1  0.000000  0.500000  0.892563  1
  C  C8  1  0.241836  0.290380  0.031015  1
  C  C9  1  0.244801  0.459817  0.195922  1
  C  C10  1  0.040183  0.784985  0.236105  1
  C  C11  1  0.209620  0.951456  0.240634  1
  C  C12  1  0.756642  0.054798  0.298284  1
  C  C13  1  0.789424  0.212790  0.497456  1
  C  C14  1  0.798156  0.743358  0.541642  1
  C  C15  1  0.923366  0.710576  0.708032  1
  C  C16  1  0.287210  0.576634  0.784666  1
  C  C17  1  0.445202  0.701844  0.743486  1
  C  C18  1  0.548544  0.258164  0.789179  1
  C  C19  1  0.715015  0.255199  0.951120  1
