# generated using pymatgen
data_CaErTh2(Ga3Rh)6
_symmetry_space_group_name_H-M   'P 1'
_cell_length_a   7.63048675
_cell_length_b   7.64547086
_cell_length_c   9.56304000
_cell_angle_alpha   90.00000000
_cell_angle_beta   90.00000000
_cell_angle_gamma   119.71101349
_symmetry_Int_Tables_number   1
_chemical_formula_structural   CaErTh2(Ga3Rh)6
_chemical_formula_sum   'Ca1 Er1 Th2 Ga18 Rh6'
_cell_volume   484.55201798
_cell_formula_units_Z   1
loop_
 _symmetry_equiv_pos_site_id
 _symmetry_equiv_pos_as_xyz
  1  'x, y, z'
loop_
 _atom_site_type_symbol
 _atom_site_label
 _atom_site_symmetry_multiplicity
 _atom_site_fract_x
 _atom_site_fract_y
 _atom_site_fract_z
 _atom_site_occupancy
  Ca  Ca0  1  0.002398  0.331092  0.750000  1
  Er  Er1  1  0.330898  0.003423  0.750000  1
  Th  Th2  1  0.997415  0.668942  0.250000  1
  Th  Th3  1  0.669214  0.997437  0.250000  1
  Ga  Ga4  1  0.132339  0.131127  0.250000  1
  Ga  Ga5  1  0.875524  0.875012  0.750000  1
  Ga  Ga6  1  0.005355  0.334529  0.074585  1
  Ga  Ga7  1  0.001220  0.667738  0.916637  1
  Ga  Ga8  1  0.001220  0.667738  0.583363  1
  Ga  Ga9  1  0.334513  0.004196  0.427276  1
  Ga  Ga10  1  0.005355  0.334529  0.425415  1
  Ga  Ga11  1  0.663335  0.999319  0.583451  1
  Ga  Ga12  1  0.663335  0.999319  0.916549  1
  Ga  Ga13  1  0.334513  0.004196  0.072724  1
  Ga  Ga14  1  0.333091  0.331797  0.565691  1
  Ga  Ga15  1  0.662991  0.662932  0.441976  1
  Ga  Ga16  1  0.662991  0.662932  0.058024  1
  Ga  Ga17  1  0.333091  0.331797  0.934309  1
  Ga  Ga18  1  0.338398  0.541555  0.250000  1
  Ga  Ga19  1  0.659470  0.450427  0.750000  1
  Ga  Ga20  1  0.541196  0.336945  0.250000  1
  Ga  Ga21  1  0.452528  0.662463  0.750000  1
  Rh  Rh22  1  0.672296  0.329323  0.002064  1
  Rh  Rh23  1  0.329059  0.672310  0.001573  1
  Rh  Rh24  1  0.329059  0.672310  0.498427  1
  Rh  Rh25  1  0.672296  0.329323  0.497936  1
  Rh  Rh26  1  0.998451  0.998646  0.001581  1
  Rh  Rh27  1  0.998451  0.998646  0.498419  1
