# generated using pymatgen
data_Tb8Ho12SnPb15
_symmetry_space_group_name_H-M   'P 1'
_cell_length_a   8.19965906
_cell_length_b   8.27583218
_cell_length_c   15.62304900
_cell_angle_alpha   90.00000000
_cell_angle_beta   90.00000000
_cell_angle_gamma   89.82946433
_symmetry_Int_Tables_number   1
_chemical_formula_structural   Tb8Ho12SnPb15
_chemical_formula_sum   'Tb8 Ho12 Sn1 Pb15'
_cell_volume   1060.15982285
_cell_formula_units_Z   1
loop_
 _symmetry_equiv_pos_site_id
 _symmetry_equiv_pos_as_xyz
  1  'x, y, z'
loop_
 _atom_site_type_symbol
 _atom_site_label
 _atom_site_symmetry_multiplicity
 _atom_site_fract_x
 _atom_site_fract_y
 _atom_site_fract_z
 _atom_site_occupancy
  Tb  Tb0  1  0.534443  0.326317  0.899297  1
  Tb  Tb1  1  0.034241  0.176794  0.600037  1
  Tb  Tb2  1  0.465522  0.676757  0.400591  1
  Tb  Tb3  1  0.965984  0.823519  0.099349  1
  Tb  Tb4  1  0.465522  0.676757  0.099409  1
  Tb  Tb5  1  0.965984  0.823519  0.400651  1
  Tb  Tb6  1  0.534443  0.326317  0.600703  1
  Tb  Tb7  1  0.034241  0.176794  0.899963  1
  Ho  Ho8  1  0.378350  0.839047  0.877304  1
  Ho  Ho9  1  0.873881  0.658274  0.621855  1
  Ho  Ho10  1  0.623682  0.158637  0.379030  1
  Ho  Ho11  1  0.124198  0.341292  0.120997  1
  Ho  Ho12  1  0.623682  0.158637  0.120970  1
  Ho  Ho13  1  0.124198  0.341292  0.379003  1
  Ho  Ho14  1  0.378350  0.839047  0.622696  1
  Ho  Ho15  1  0.873881  0.658274  0.878145  1
  Ho  Ho16  1  0.210408  0.505458  0.750000  1
  Ho  Ho17  1  0.707139  0.993111  0.750000  1
  Ho  Ho18  1  0.792182  0.495369  0.250000  1
  Ho  Ho19  1  0.292024  0.004680  0.250000  1
  Sn  Sn20  1  0.572382  0.625712  0.750000  1
  Pb  Pb21  1  0.282862  0.033963  0.042261  1
  Pb  Pb22  1  0.783079  0.465086  0.457264  1
  Pb  Pb23  1  0.716935  0.965708  0.543014  1
  Pb  Pb24  1  0.216323  0.534930  0.957364  1
  Pb  Pb25  1  0.716935  0.965708  0.956986  1
  Pb  Pb26  1  0.216323  0.534930  0.542636  1
  Pb  Pb27  1  0.282862  0.033963  0.457739  1
  Pb  Pb28  1  0.783079  0.465086  0.042736  1
  Pb  Pb29  1  0.071189  0.873778  0.750000  1
  Pb  Pb30  1  0.428518  0.374206  0.250000  1
  Pb  Pb31  1  0.929002  0.125911  0.250000  1
  Pb  Pb32  1  0.345649  0.153001  0.750000  1
  Pb  Pb33  1  0.844324  0.347933  0.750000  1
  Pb  Pb34  1  0.653789  0.847191  0.250000  1
  Pb  Pb35  1  0.154391  0.653001  0.250000  1
