# generated using pymatgen
data_Zr16ReNi4Os3
_symmetry_space_group_name_H-M   'P 1'
_cell_length_a   8.72361593
_cell_length_b   8.72361521
_cell_length_c   8.72817007
_cell_angle_alpha   60.01726705
_cell_angle_beta   60.01727134
_cell_angle_gamma   60.00000378
_symmetry_Int_Tables_number   1
_chemical_formula_structural   Zr16ReNi4Os3
_chemical_formula_sum   'Zr16 Re1 Ni4 Os3'
_cell_volume   469.80167863
_cell_formula_units_Z   1
loop_
 _symmetry_equiv_pos_site_id
 _symmetry_equiv_pos_as_xyz
  1  'x, y, z'
loop_
 _atom_site_type_symbol
 _atom_site_label
 _atom_site_symmetry_multiplicity
 _atom_site_fract_x
 _atom_site_fract_y
 _atom_site_fract_z
 _atom_site_occupancy
  Zr  Zr0  1  0.188602  0.603756  0.603888  1
  Zr  Zr1  1  0.603756  0.188602  0.603888  1
  Zr  Zr2  1  0.603756  0.603756  0.603888  1
  Zr  Zr3  1  0.604784  0.604784  0.185650  1
  Zr  Zr4  1  0.454319  0.454319  0.045545  1
  Zr  Zr5  1  0.046425  0.046425  0.453475  1
  Zr  Zr6  1  0.454319  0.045816  0.045545  1
  Zr  Zr7  1  0.046425  0.453675  0.453475  1
  Zr  Zr8  1  0.045816  0.454319  0.045545  1
  Zr  Zr9  1  0.453675  0.046425  0.453475  1
  Zr  Zr10  1  0.815258  0.815258  0.186747  1
  Zr  Zr11  1  0.184259  0.184259  0.816105  1
  Zr  Zr12  1  0.815258  0.182737  0.186747  1
  Zr  Zr13  1  0.184259  0.815376  0.816105  1
  Zr  Zr14  1  0.182737  0.815258  0.186747  1
  Zr  Zr15  1  0.815376  0.184259  0.816105  1
  Re  Re16  1  0.831482  0.831482  0.505552  1
  Ni  Ni17  1  0.825475  0.392103  0.390320  1
  Ni  Ni18  1  0.392103  0.825475  0.390320  1
  Ni  Ni19  1  0.392103  0.392103  0.390320  1
  Ni  Ni20  1  0.391125  0.391125  0.826626  1
  Os  Os21  1  0.503401  0.832644  0.831312  1
  Os  Os22  1  0.832644  0.503401  0.831312  1
  Os  Os23  1  0.832644  0.832644  0.831312  1
