# generated using pymatgen
data_Tm3Ag3C
_symmetry_space_group_name_H-M   'P 1'
_cell_length_a   9.25916069
_cell_length_b   9.25916114
_cell_length_c   9.25916100
_cell_angle_alpha   59.99999692
_cell_angle_beta   59.99999533
_cell_angle_gamma   59.99999435
_symmetry_Int_Tables_number   1
_chemical_formula_structural   Tm3Ag3C
_chemical_formula_sum   'Tm12 Ag12 C4'
_cell_volume   561.30622338
_cell_formula_units_Z   4
loop_
 _symmetry_equiv_pos_site_id
 _symmetry_equiv_pos_as_xyz
  1  'x, y, z'
loop_
 _atom_site_type_symbol
 _atom_site_label
 _atom_site_symmetry_multiplicity
 _atom_site_fract_x
 _atom_site_fract_y
 _atom_site_fract_z
 _atom_site_occupancy
  Tm  Tm0  1  0.440627  0.440627  0.059373  1
  Tm  Tm1  1  0.059373  0.440627  0.059373  1
  Tm  Tm2  1  0.440627  0.059373  0.059373  1
  Tm  Tm3  1  0.059373  0.059373  0.440627  1
  Tm  Tm4  1  0.440627  0.059373  0.440627  1
  Tm  Tm5  1  0.059373  0.440627  0.440627  1
  Tm  Tm6  1  0.809373  0.809373  0.190627  1
  Tm  Tm7  1  0.190627  0.809373  0.190627  1
  Tm  Tm8  1  0.809373  0.190627  0.190627  1
  Tm  Tm9  1  0.190627  0.190627  0.809373  1
  Tm  Tm10  1  0.809373  0.190627  0.809373  1
  Tm  Tm11  1  0.190627  0.809373  0.809373  1
  Ag  Ag12  1  0.833741  0.833741  0.498777  1
  Ag  Ag13  1  0.833741  0.498777  0.833741  1
  Ag  Ag14  1  0.498777  0.833741  0.833741  1
  Ag  Ag15  1  0.833741  0.833741  0.833741  1
  Ag  Ag16  1  0.416259  0.416259  0.751223  1
  Ag  Ag17  1  0.416259  0.751223  0.416259  1
  Ag  Ag18  1  0.751223  0.416259  0.416259  1
  Ag  Ag19  1  0.416259  0.416259  0.416259  1
  Ag  Ag20  1  0.625000  0.625000  0.125000  1
  Ag  Ag21  1  0.625000  0.125000  0.625000  1
  Ag  Ag22  1  0.125000  0.625000  0.625000  1
  Ag  Ag23  1  0.625000  0.625000  0.625000  1
  C  C24  1  0.125000  0.125000  0.625000  1
  C  C25  1  0.125000  0.625000  0.125000  1
  C  C26  1  0.625000  0.125000  0.125000  1
  C  C27  1  0.125000  0.125000  0.125000  1
