# generated using pymatgen
data_Ba4HoIrO8
_symmetry_space_group_name_H-M   'P 1'
_cell_length_a   7.42627486
_cell_length_b   7.42627411
_cell_length_c   5.96259300
_cell_angle_alpha   90.00000000
_cell_angle_beta   90.00000000
_cell_angle_gamma   132.86077940
_symmetry_Int_Tables_number   1
_chemical_formula_structural   Ba4HoIrO8
_chemical_formula_sum   'Ba4 Ho1 Ir1 O8'
_cell_volume   241.03842992
_cell_formula_units_Z   1
loop_
 _symmetry_equiv_pos_site_id
 _symmetry_equiv_pos_as_xyz
  1  'x, y, z'
loop_
 _atom_site_type_symbol
 _atom_site_label
 _atom_site_symmetry_multiplicity
 _atom_site_fract_x
 _atom_site_fract_y
 _atom_site_fract_z
 _atom_site_occupancy
  Ba  Ba0  1  0.354807  0.645193  0.000000  1
  Ba  Ba1  1  0.854346  0.145654  0.500000  1
  Ba  Ba2  1  0.145654  0.854346  0.500000  1
  Ba  Ba3  1  0.645193  0.354807  0.000000  1
  Ho  Ho4  1  0.000000  0.000000  0.000000  1
  Ir  Ir5  1  0.500000  0.500000  0.500000  1
  O  O6  1  0.259849  0.259849  0.733190  1
  O  O7  1  0.740151  0.740151  0.266810  1
  O  O8  1  0.740151  0.740151  0.733190  1
  O  O9  1  0.259849  0.259849  0.266810  1
  O  O10  1  0.165502  0.834498  0.000000  1
  O  O11  1  0.648974  0.351026  0.500000  1
  O  O12  1  0.351026  0.648974  0.500000  1
  O  O13  1  0.834498  0.165502  0.000000  1
