# generated using pymatgen
data_Zr18FeCuRe8
_symmetry_space_group_name_H-M   'P 1'
_cell_length_a   8.66617400
_cell_length_b   8.66617364
_cell_length_c   8.62052500
_cell_angle_alpha   90.00000000
_cell_angle_beta   90.00000000
_cell_angle_gamma   119.99999374
_symmetry_Int_Tables_number   1
_chemical_formula_structural   Zr18FeCuRe8
_chemical_formula_sum   'Zr18 Fe1 Cu1 Re8'
_cell_volume   560.68529479
_cell_formula_units_Z   1
loop_
 _symmetry_equiv_pos_site_id
 _symmetry_equiv_pos_as_xyz
  1  'x, y, z'
loop_
 _atom_site_type_symbol
 _atom_site_label
 _atom_site_symmetry_multiplicity
 _atom_site_fract_x
 _atom_site_fract_y
 _atom_site_fract_z
 _atom_site_occupancy
  Zr  Zr0  1  0.200769  0.799231  0.441221  1
  Zr  Zr1  1  0.200769  0.401538  0.441221  1
  Zr  Zr2  1  0.598462  0.799231  0.441221  1
  Zr  Zr3  1  0.805535  0.194465  0.554243  1
  Zr  Zr4  1  0.805535  0.611070  0.554243  1
  Zr  Zr5  1  0.388930  0.194465  0.554243  1
  Zr  Zr6  1  0.805535  0.194465  0.945757  1
  Zr  Zr7  1  0.805535  0.611070  0.945757  1
  Zr  Zr8  1  0.388930  0.194465  0.945757  1
  Zr  Zr9  1  0.200769  0.799231  0.058779  1
  Zr  Zr10  1  0.200769  0.401538  0.058779  1
  Zr  Zr11  1  0.598462  0.799231  0.058779  1
  Zr  Zr12  1  0.541532  0.458468  0.250000  1
  Zr  Zr13  1  0.541532  0.083064  0.250000  1
  Zr  Zr14  1  0.916936  0.458468  0.250000  1
  Zr  Zr15  1  0.457665  0.542335  0.750000  1
  Zr  Zr16  1  0.457665  0.915328  0.750000  1
  Zr  Zr17  1  0.084672  0.542335  0.750000  1
  Fe  Fe18  1  0.333333  0.666667  0.250000  1
  Cu  Cu19  1  0.666667  0.333333  0.750000  1
  Re  Re20  1  0.892250  0.107750  0.250000  1
  Re  Re21  1  0.892250  0.784500  0.250000  1
  Re  Re22  1  0.215500  0.107750  0.250000  1
  Re  Re23  1  0.108717  0.891283  0.750000  1
  Re  Re24  1  0.108717  0.217433  0.750000  1
  Re  Re25  1  0.782567  0.891283  0.750000  1
  Re  Re26  1  0.000000  0.000000  0.499692  1
  Re  Re27  1  0.000000  0.000000  0.000308  1
