# generated using pymatgen
data_YbV4NiO12
_symmetry_space_group_name_H-M   'P 1'
_cell_length_a   6.98796259
_cell_length_b   6.98796268
_cell_length_c   5.97452803
_cell_angle_alpha   74.18830637
_cell_angle_beta   74.18830554
_cell_angle_gamma   83.58953180
_symmetry_Int_Tables_number   1
_chemical_formula_structural   YbV4NiO12
_chemical_formula_sum   'Yb1 V4 Ni1 O12'
_cell_volume   269.86507562
_cell_formula_units_Z   1
loop_
 _symmetry_equiv_pos_site_id
 _symmetry_equiv_pos_as_xyz
  1  'x, y, z'
loop_
 _atom_site_type_symbol
 _atom_site_label
 _atom_site_symmetry_multiplicity
 _atom_site_fract_x
 _atom_site_fract_y
 _atom_site_fract_z
 _atom_site_occupancy
  Yb  Yb0  1  0.916293  0.083707  0.500000  1
  V  V1  1  0.791042  0.618636  0.500695  1
  V  V2  1  0.610577  0.789571  0.014875  1
  V  V3  1  0.381364  0.208958  0.499305  1
  V  V4  1  0.210429  0.389423  0.985125  1
  Ni  Ni5  1  0.091019  0.908981  0.000000  1
  O  O6  1  0.959748  0.801758  0.361213  1
  O  O7  1  0.911565  0.397546  0.532161  1
  O  O8  1  0.797252  0.955140  0.917413  1
  O  O9  1  0.632669  0.635066  0.303419  1
  O  O10  1  0.602454  0.088435  0.467839  1
  O  O11  1  0.653506  0.648259  0.793095  1
  O  O12  1  0.364934  0.367331  0.696581  1
  O  O13  1  0.381400  0.899096  0.040530  1
  O  O14  1  0.351741  0.346494  0.206905  1
  O  O15  1  0.198242  0.040252  0.638787  1
  O  O16  1  0.100904  0.618600  0.959470  1
  O  O17  1  0.044860  0.202748  0.082587  1
