# generated using pymatgen
data_YbDy(AlPd)2
_symmetry_space_group_name_H-M   'P 1'
_cell_length_a   4.35737700
_cell_length_b   6.99862400
_cell_length_c   7.87952800
_cell_angle_alpha   90.00000000
_cell_angle_beta   90.00000000
_cell_angle_gamma   90.00000000
_symmetry_Int_Tables_number   1
_chemical_formula_structural   YbDy(AlPd)2
_chemical_formula_sum   'Yb2 Dy2 Al4 Pd4'
_cell_volume   240.29127486
_cell_formula_units_Z   2
loop_
 _symmetry_equiv_pos_site_id
 _symmetry_equiv_pos_as_xyz
  1  'x, y, z'
loop_
 _atom_site_type_symbol
 _atom_site_label
 _atom_site_symmetry_multiplicity
 _atom_site_fract_x
 _atom_site_fract_y
 _atom_site_fract_z
 _atom_site_occupancy
  Yb  Yb0  1  0.750000  0.969172  0.678132  1
  Yb  Yb1  1  0.750000  0.469172  0.821868  1
  Dy  Dy2  1  0.250000  0.031404  0.321429  1
  Dy  Dy3  1  0.250000  0.531404  0.178571  1
  Al  Al4  1  0.250000  0.139952  0.939997  1
  Al  Al5  1  0.250000  0.639952  0.560003  1
  Al  Al6  1  0.750000  0.860584  0.063939  1
  Al  Al7  1  0.750000  0.360584  0.436061  1
  Pd  Pd8  1  0.250000  0.274490  0.619993  1
  Pd  Pd9  1  0.250000  0.774490  0.880007  1
  Pd  Pd10  1  0.750000  0.724398  0.376892  1
  Pd  Pd11  1  0.750000  0.224398  0.123108  1
