# generated using pymatgen
data_Hf5Co16(P4Ru)3
_symmetry_space_group_name_H-M   'P 1'
_cell_length_a   11.82752600
_cell_length_b   11.82752652
_cell_length_c   3.62568600
_cell_angle_alpha   90.00000000
_cell_angle_beta   90.00000000
_cell_angle_gamma   120.00000415
_symmetry_Int_Tables_number   1
_chemical_formula_structural   Hf5Co16(P4Ru)3
_chemical_formula_sum   'Hf5 Co16 P12 Ru3'
_cell_volume   439.24683918
_cell_formula_units_Z   1
loop_
 _symmetry_equiv_pos_site_id
 _symmetry_equiv_pos_as_xyz
  1  'x, y, z'
loop_
 _atom_site_type_symbol
 _atom_site_label
 _atom_site_symmetry_multiplicity
 _atom_site_fract_x
 _atom_site_fract_y
 _atom_site_fract_z
 _atom_site_occupancy
  Hf  Hf0  1  0.666667  0.333333  0.000000  1
  Hf  Hf1  1  0.333333  0.666667  0.000000  1
  Hf  Hf2  1  0.820887  0.820887  0.500000  1
  Hf  Hf3  1  0.179113  0.000000  0.500000  1
  Hf  Hf4  1  0.000000  0.179113  0.500000  1
  Co  Co5  1  0.870259  0.355133  0.500000  1
  Co  Co6  1  0.644867  0.515126  0.500000  1
  Co  Co7  1  0.484874  0.129741  0.500000  1
  Co  Co8  1  0.355133  0.870259  0.500000  1
  Co  Co9  1  0.515126  0.644867  0.500000  1
  Co  Co10  1  0.129741  0.484874  0.500000  1
  Co  Co11  1  0.806683  0.179857  0.000000  1
  Co  Co12  1  0.820143  0.626824  0.000000  1
  Co  Co13  1  0.373176  0.193317  0.000000  1
  Co  Co14  1  0.179857  0.806683  0.000000  1
  Co  Co15  1  0.626824  0.820143  0.000000  1
  Co  Co16  1  0.193317  0.373176  0.000000  1
  Co  Co17  1  0.281473  0.281473  0.500000  1
  Co  Co18  1  0.718527  0.000000  0.500000  1
  Co  Co19  1  0.000000  0.718527  0.500000  1
  Co  Co20  1  0.000000  0.000000  0.000000  1
  P  P21  1  0.685052  0.167024  0.500000  1
  P  P22  1  0.832976  0.518028  0.500000  1
  P  P23  1  0.481972  0.314948  0.500000  1
  P  P24  1  0.167024  0.685052  0.500000  1
  P  P25  1  0.518028  0.832976  0.500000  1
  P  P26  1  0.314948  0.481972  0.500000  1
  P  P27  1  0.176361  0.176361  0.000000  1
  P  P28  1  0.823639  0.000000  0.000000  1
  P  P29  1  0.000000  0.823639  0.000000  1
  P  P30  1  0.642883  0.642883  0.000000  1
  P  P31  1  0.357117  0.000000  0.000000  1
  P  P32  1  0.000000  0.357117  0.000000  1
  Ru  Ru33  1  0.449425  0.449425  0.000000  1
  Ru  Ru34  1  0.550575  0.000000  0.000000  1
  Ru  Ru35  1  0.000000  0.550575  0.000000  1
