# generated using pymatgen
data_TbTcH5
_symmetry_space_group_name_H-M   'P 1'
_cell_length_a   4.61597100
_cell_length_b   4.40859700
_cell_length_c   11.63414200
_cell_angle_alpha   90.00000000
_cell_angle_beta   90.00000000
_cell_angle_gamma   90.00000000
_symmetry_Int_Tables_number   1
_chemical_formula_structural   TbTcH5
_chemical_formula_sum   'Tb4 Tc4 H20'
_cell_volume   236.75427667
_cell_formula_units_Z   4
loop_
 _symmetry_equiv_pos_site_id
 _symmetry_equiv_pos_as_xyz
  1  'x, y, z'
loop_
 _atom_site_type_symbol
 _atom_site_label
 _atom_site_symmetry_multiplicity
 _atom_site_fract_x
 _atom_site_fract_y
 _atom_site_fract_z
 _atom_site_occupancy
  Tb  Tb0  1  0.249817  0.247439  0.645984  1
  Tb  Tb1  1  0.749817  0.252561  0.354016  1
  Tb  Tb2  1  0.250183  0.752561  0.145984  1
  Tb  Tb3  1  0.750183  0.747439  0.854016  1
  Tc  Tc4  1  0.249559  0.210109  0.913860  1
  Tc  Tc5  1  0.749559  0.289891  0.086140  1
  Tc  Tc6  1  0.250441  0.789891  0.413860  1
  Tc  Tc7  1  0.750441  0.710109  0.586140  1
  H  H8  1  0.484376  0.510419  0.497971  1
  H  H9  1  0.984376  0.989581  0.502029  1
  H  H10  1  0.015624  0.489581  0.997971  1
  H  H11  1  0.515624  0.010419  0.002029  1
  H  H12  1  0.250272  0.889389  0.833443  1
  H  H13  1  0.750272  0.610611  0.166557  1
  H  H14  1  0.249728  0.110611  0.333443  1
  H  H15  1  0.749728  0.389389  0.666557  1
  H  H16  1  0.983339  0.284966  0.814753  1
  H  H17  1  0.483339  0.215034  0.185247  1
  H  H18  1  0.516661  0.715034  0.314753  1
  H  H19  1  0.016661  0.784966  0.685247  1
  H  H20  1  0.514859  0.286971  0.814600  1
  H  H21  1  0.014859  0.213029  0.185400  1
  H  H22  1  0.985141  0.713029  0.314600  1
  H  H23  1  0.485141  0.786971  0.685400  1
  H  H24  1  0.983923  0.010261  0.002195  1
  H  H25  1  0.483923  0.489739  0.997805  1
  H  H26  1  0.516077  0.989739  0.502195  1
  H  H27  1  0.016077  0.510261  0.497805  1
