# generated using pymatgen
data_Tb2Yb(Si3Os)4
_symmetry_space_group_name_H-M   'P 1'
_cell_length_a   10.17006686
_cell_length_b   10.17006599
_cell_length_c   8.18832500
_cell_angle_alpha   90.00000000
_cell_angle_beta   90.00000000
_cell_angle_gamma   132.52699834
_symmetry_Int_Tables_number   1
_chemical_formula_structural   Tb2Yb(Si3Os)4
_chemical_formula_sum   'Tb4 Yb2 Si24 Os8'
_cell_volume   624.14561686
_cell_formula_units_Z   2
loop_
 _symmetry_equiv_pos_site_id
 _symmetry_equiv_pos_as_xyz
  1  'x, y, z'
loop_
 _atom_site_type_symbol
 _atom_site_label
 _atom_site_symmetry_multiplicity
 _atom_site_fract_x
 _atom_site_fract_y
 _atom_site_fract_z
 _atom_site_occupancy
  Tb  Tb0  1  0.502685  0.002685  0.750000  1
  Tb  Tb1  1  0.997315  0.497315  0.250000  1
  Tb  Tb2  1  0.999924  0.000076  0.000000  1
  Tb  Tb3  1  0.500076  0.499924  0.500000  1
  Yb  Yb4  1  0.500774  0.000774  0.250000  1
  Yb  Yb5  1  0.999226  0.499226  0.750000  1
  Si  Si6  1  0.794429  0.205571  0.500000  1
  Si  Si7  1  0.705571  0.294429  0.000000  1
  Si  Si8  1  0.205029  0.794971  0.500000  1
  Si  Si9  1  0.294971  0.705029  0.000000  1
  Si  Si10  1  0.673121  0.661235  0.167189  1
  Si  Si11  1  0.161235  0.173121  0.332811  1
  Si  Si12  1  0.826879  0.838765  0.667189  1
  Si  Si13  1  0.338765  0.326879  0.832811  1
  Si  Si14  1  0.844758  0.610124  0.997164  1
  Si  Si15  1  0.110124  0.344758  0.502836  1
  Si  Si16  1  0.655242  0.889876  0.497164  1
  Si  Si17  1  0.389876  0.155242  0.002836  1
  Si  Si18  1  0.155059  0.388882  0.006431  1
  Si  Si19  1  0.888882  0.655059  0.493569  1
  Si  Si20  1  0.124124  0.889836  0.727755  1
  Si  Si21  1  0.389836  0.624124  0.772245  1
  Si  Si22  1  0.375876  0.610164  0.227755  1
  Si  Si23  1  0.110164  0.875876  0.272245  1
  Si  Si24  1  0.878316  0.113335  0.272696  1
  Si  Si25  1  0.613335  0.378316  0.227304  1
  Si  Si26  1  0.621684  0.386665  0.772696  1
  Si  Si27  1  0.886665  0.121684  0.727304  1
  Si  Si28  1  0.611118  0.844941  0.993569  1
  Si  Si29  1  0.344941  0.111118  0.506431  1
  Os  Os30  1  0.625654  0.627298  0.873430  1
  Os  Os31  1  0.127298  0.125654  0.626570  1
  Os  Os32  1  0.372702  0.374346  0.126570  1
  Os  Os33  1  0.874346  0.872702  0.373430  1
  Os  Os34  1  0.170134  0.829866  0.000000  1
  Os  Os35  1  0.329866  0.670134  0.500000  1
  Os  Os36  1  0.831404  0.168596  0.000000  1
  Os  Os37  1  0.668596  0.331404  0.500000  1
