# generated using pymatgen
data_LaSi3Ni5
_symmetry_space_group_name_H-M   'P 1'
_cell_length_a   6.17190047
_cell_length_b   6.17190133
_cell_length_c   11.68150800
_cell_angle_alpha   90.00000000
_cell_angle_beta   90.00000000
_cell_angle_gamma   145.01044605
_symmetry_Int_Tables_number   1
_chemical_formula_structural   LaSi3Ni5
_chemical_formula_sum   'La2 Si6 Ni10'
_cell_volume   255.16141281
_cell_formula_units_Z   2
loop_
 _symmetry_equiv_pos_site_id
 _symmetry_equiv_pos_as_xyz
  1  'x, y, z'
loop_
 _atom_site_type_symbol
 _atom_site_label
 _atom_site_symmetry_multiplicity
 _atom_site_fract_x
 _atom_site_fract_y
 _atom_site_fract_z
 _atom_site_occupancy
  La  La0  1  0.161588  0.838412  0.250000  1
  La  La1  1  0.838412  0.161588  0.750000  1
  Si  Si2  1  0.887879  0.112121  0.250000  1
  Si  Si3  1  0.112121  0.887879  0.750000  1
  Si  Si4  1  0.383351  0.616649  0.962900  1
  Si  Si5  1  0.616649  0.383351  0.037100  1
  Si  Si6  1  0.616649  0.383351  0.462900  1
  Si  Si7  1  0.383351  0.616649  0.537100  1
  Ni  Ni8  1  0.448370  0.551630  0.354688  1
  Ni  Ni9  1  0.448370  0.551630  0.145312  1
  Ni  Ni10  1  0.803658  0.196342  0.065794  1
  Ni  Ni11  1  0.196342  0.803658  0.934206  1
  Ni  Ni12  1  0.196342  0.803658  0.565794  1
  Ni  Ni13  1  0.803658  0.196342  0.434206  1
  Ni  Ni14  1  0.000000  0.000000  0.500000  1
  Ni  Ni15  1  0.000000  0.000000  0.000000  1
  Ni  Ni16  1  0.551630  0.448370  0.854688  1
  Ni  Ni17  1  0.551630  0.448370  0.645312  1
