# generated using pymatgen
data_Nd2B2Pt3Rh3Au2
_symmetry_space_group_name_H-M   'P 1'
_cell_length_a   5.52133846
_cell_length_b   5.53849490
_cell_length_c   7.62845800
_cell_angle_alpha   90.00000000
_cell_angle_beta   90.00000000
_cell_angle_gamma   119.81459569
_symmetry_Int_Tables_number   1
_chemical_formula_structural   Nd2B2Pt3Rh3Au2
_chemical_formula_sum   'Nd2 B2 Pt3 Rh3 Au2'
_cell_volume   202.40063368
_cell_formula_units_Z   1
loop_
 _symmetry_equiv_pos_site_id
 _symmetry_equiv_pos_as_xyz
  1  'x, y, z'
loop_
 _atom_site_type_symbol
 _atom_site_label
 _atom_site_symmetry_multiplicity
 _atom_site_fract_x
 _atom_site_fract_y
 _atom_site_fract_z
 _atom_site_occupancy
  Nd  Nd0  1  0.000000  0.000000  0.495649  1
  Nd  Nd1  1  0.000000  0.000000  0.003080  1
  B  B2  1  0.334477  0.671167  0.002492  1
  B  B3  1  0.665523  0.328833  0.002492  1
  Pt  Pt4  1  0.000000  0.500000  0.805733  1
  Pt  Pt5  1  0.500000  0.500000  0.198315  1
  Pt  Pt6  1  0.500000  0.500000  0.802953  1
  Rh  Rh7  1  0.500000  0.000000  0.190401  1
  Rh  Rh8  1  0.500000  0.000000  0.811240  1
  Rh  Rh9  1  0.000000  0.500000  0.190565  1
  Au  Au10  1  0.332088  0.676601  0.498541  1
  Au  Au11  1  0.667912  0.323399  0.498541  1
