# generated using pymatgen
data_Li4TcRuCl12
_symmetry_space_group_name_H-M   'P 1'
_cell_length_a   6.07665400
_cell_length_b   6.07665336
_cell_length_c   24.84311100
_cell_angle_alpha   90.00000000
_cell_angle_beta   90.00000000
_cell_angle_gamma   120.00000346
_symmetry_Int_Tables_number   1
_chemical_formula_structural   Li4TcRuCl12
_chemical_formula_sum   'Li8 Tc2 Ru2 Cl24'
_cell_volume   794.44816865
_cell_formula_units_Z   2
loop_
 _symmetry_equiv_pos_site_id
 _symmetry_equiv_pos_as_xyz
  1  'x, y, z'
loop_
 _atom_site_type_symbol
 _atom_site_label
 _atom_site_symmetry_multiplicity
 _atom_site_fract_x
 _atom_site_fract_y
 _atom_site_fract_z
 _atom_site_occupancy
  Li  Li0  1  0.000000  0.000000  0.250035  1
  Li  Li1  1  0.000000  0.000000  0.749965  1
  Li  Li2  1  0.333333  0.666667  0.999923  1
  Li  Li3  1  0.333333  0.666667  0.500077  1
  Li  Li4  1  0.333333  0.666667  0.250035  1
  Li  Li5  1  0.666667  0.333333  0.749965  1
  Li  Li6  1  0.666667  0.333333  0.000077  1
  Li  Li7  1  0.666667  0.333333  0.499923  1
  Tc  Tc8  1  0.000000  0.000000  0.000000  1
  Tc  Tc9  1  0.000000  0.000000  0.500000  1
  Ru  Ru10  1  0.333333  0.666667  0.750005  1
  Ru  Ru11  1  0.666667  0.333333  0.249995  1
  Cl  Cl12  1  0.352820  0.019291  0.305041  1
  Cl  Cl13  1  0.333542  0.980803  0.805030  1
  Cl  Cl14  1  0.000675  0.317261  0.055782  1
  Cl  Cl15  1  0.999328  0.316580  0.555798  1
  Cl  Cl16  1  0.980709  0.333529  0.305041  1
  Cl  Cl17  1  0.019197  0.352739  0.805030  1
  Cl  Cl18  1  0.352739  0.333542  0.194970  1
  Cl  Cl19  1  0.333529  0.352820  0.694959  1
  Cl  Cl20  1  0.316580  0.317251  0.444202  1
  Cl  Cl21  1  0.317261  0.316587  0.944218  1
  Cl  Cl22  1  0.682749  0.999328  0.444202  1
  Cl  Cl23  1  0.316587  0.999325  0.055782  1
  Cl  Cl24  1  0.317251  0.000672  0.555798  1
  Cl  Cl25  1  0.682739  0.683413  0.055782  1
  Cl  Cl26  1  0.683420  0.682749  0.555798  1
  Cl  Cl27  1  0.666471  0.647180  0.305041  1
  Cl  Cl28  1  0.647261  0.666458  0.805030  1
  Cl  Cl29  1  0.980803  0.647261  0.194970  1
  Cl  Cl30  1  0.019291  0.666471  0.694959  1
  Cl  Cl31  1  0.000672  0.683420  0.444202  1
  Cl  Cl32  1  0.999325  0.682739  0.944218  1
  Cl  Cl33  1  0.683413  0.000675  0.944218  1
  Cl  Cl34  1  0.666458  0.019197  0.194970  1
  Cl  Cl35  1  0.647180  0.980709  0.694959  1
