# generated using pymatgen
data_Sm3Dy5(LuSb)12
_symmetry_space_group_name_H-M   'P 1'
_cell_length_a   8.08564433
_cell_length_b   9.14855200
_cell_length_c   11.74692000
_cell_angle_alpha   90.00000000
_cell_angle_beta   90.03285830
_cell_angle_gamma   90.00000000
_symmetry_Int_Tables_number   1
_chemical_formula_structural   Sm3Dy5(LuSb)12
_chemical_formula_sum   'Sm3 Dy5 Lu12 Sb12'
_cell_volume   868.94229038
_cell_formula_units_Z   1
loop_
 _symmetry_equiv_pos_site_id
 _symmetry_equiv_pos_as_xyz
  1  'x, y, z'
loop_
 _atom_site_type_symbol
 _atom_site_label
 _atom_site_symmetry_multiplicity
 _atom_site_fract_x
 _atom_site_fract_y
 _atom_site_fract_z
 _atom_site_occupancy
  Sm  Sm0  1  0.175832  0.750000  0.226871  1
  Sm  Sm1  1  0.676199  0.250000  0.272989  1
  Sm  Sm2  1  0.823621  0.250000  0.772613  1
  Dy  Dy3  1  0.323326  0.750000  0.727473  1
  Dy  Dy4  1  0.662859  0.750000  0.291145  1
  Dy  Dy5  1  0.163473  0.250000  0.209446  1
  Dy  Dy6  1  0.336327  0.250000  0.709214  1
  Dy  Dy7  1  0.836554  0.750000  0.790394  1
  Lu  Lu8  1  0.811498  0.937440  0.064863  1
  Lu  Lu9  1  0.312461  0.062138  0.434434  1
  Lu  Lu10  1  0.187841  0.437844  0.934470  1
  Lu  Lu11  1  0.689416  0.561846  0.565105  1
  Lu  Lu12  1  0.187841  0.062156  0.934470  1
  Lu  Lu13  1  0.689416  0.938154  0.565105  1
  Lu  Lu14  1  0.811498  0.562560  0.064863  1
  Lu  Lu15  1  0.312461  0.437862  0.434434  1
  Lu  Lu16  1  0.523836  0.250000  0.995610  1
  Lu  Lu17  1  0.025134  0.750000  0.504029  1
  Lu  Lu18  1  0.475157  0.750000  0.003415  1
  Lu  Lu19  1  0.976723  0.250000  0.496954  1
  Sb  Sb20  1  0.938934  0.992232  0.329071  1
  Sb  Sb21  1  0.438885  0.007611  0.171466  1
  Sb  Sb22  1  0.062891  0.493378  0.672193  1
  Sb  Sb23  1  0.558297  0.509204  0.827125  1
  Sb  Sb24  1  0.062891  0.006622  0.672193  1
  Sb  Sb25  1  0.558297  0.990796  0.827125  1
  Sb  Sb26  1  0.938934  0.507768  0.329071  1
  Sb  Sb27  1  0.438885  0.492389  0.171466  1
  Sb  Sb28  1  0.900868  0.250000  0.029494  1
  Sb  Sb29  1  0.401567  0.750000  0.473449  1
  Sb  Sb30  1  0.099118  0.750000  0.969758  1
  Sb  Sb31  1  0.598963  0.250000  0.529693  1
