# generated using pymatgen
data_Ti6Nb6AgSn9
_symmetry_space_group_name_H-M   'P 1'
_cell_length_a   9.37779700
_cell_length_b   9.37779774
_cell_length_c   5.71552100
_cell_angle_alpha   90.00000000
_cell_angle_beta   90.00000000
_cell_angle_gamma   120.00000092
_symmetry_Int_Tables_number   1
_chemical_formula_structural   Ti6Nb6AgSn9
_chemical_formula_sum   'Ti6 Nb6 Ag1 Sn9'
_cell_volume   435.29947316
_cell_formula_units_Z   1
loop_
 _symmetry_equiv_pos_site_id
 _symmetry_equiv_pos_as_xyz
  1  'x, y, z'
loop_
 _atom_site_type_symbol
 _atom_site_label
 _atom_site_symmetry_multiplicity
 _atom_site_fract_x
 _atom_site_fract_y
 _atom_site_fract_z
 _atom_site_occupancy
  Ti  Ti0  1  0.842673  0.685346  0.755849  1
  Ti  Ti1  1  0.157327  0.842673  0.244151  1
  Ti  Ti2  1  0.685346  0.842673  0.244151  1
  Ti  Ti3  1  0.314654  0.157327  0.755849  1
  Ti  Ti4  1  0.842673  0.157327  0.755849  1
  Ti  Ti5  1  0.157327  0.314654  0.244151  1
  Nb  Nb6  1  0.500000  0.000000  0.500000  1
  Nb  Nb7  1  0.500000  0.500000  0.000000  1
  Nb  Nb8  1  0.000000  0.500000  0.000000  1
  Nb  Nb9  1  0.000000  0.500000  0.500000  1
  Nb  Nb10  1  0.500000  0.000000  0.000000  1
  Nb  Nb11  1  0.500000  0.500000  0.500000  1
  Ag  Ag12  1  0.000000  0.000000  0.500000  1
  Sn  Sn13  1  0.198547  0.397094  0.746316  1
  Sn  Sn14  1  0.801453  0.198547  0.253684  1
  Sn  Sn15  1  0.397094  0.198547  0.253684  1
  Sn  Sn16  1  0.602906  0.801453  0.746316  1
  Sn  Sn17  1  0.198547  0.801453  0.746316  1
  Sn  Sn18  1  0.801453  0.602906  0.253684  1
  Sn  Sn19  1  0.666667  0.333333  0.752664  1
  Sn  Sn20  1  0.333333  0.666667  0.247336  1
  Sn  Sn21  1  0.000000  0.000000  0.000000  1
