# generated using pymatgen
data_CaZr(Co5As3)2
_symmetry_space_group_name_H-M   'P 1'
_cell_length_a   3.75416700
_cell_length_b   12.16626546
_cell_length_c   10.64749502
_cell_angle_alpha   89.90240842
_cell_angle_beta   90.00000000
_cell_angle_gamma   90.00000000
_symmetry_Int_Tables_number   1
_chemical_formula_structural   CaZr(Co5As3)2
_chemical_formula_sum   'Ca2 Zr2 Co20 As12'
_cell_volume   486.31502950
_cell_formula_units_Z   2
loop_
 _symmetry_equiv_pos_site_id
 _symmetry_equiv_pos_as_xyz
  1  'x, y, z'
loop_
 _atom_site_type_symbol
 _atom_site_label
 _atom_site_symmetry_multiplicity
 _atom_site_fract_x
 _atom_site_fract_y
 _atom_site_fract_z
 _atom_site_occupancy
  Ca  Ca0  1  0.250000  0.796747  0.583004  1
  Ca  Ca1  1  0.750000  0.203253  0.416996  1
  Zr  Zr2  1  0.750000  0.700548  0.078911  1
  Zr  Zr3  1  0.250000  0.299452  0.921089  1
  Co  Co4  1  0.750000  0.695933  0.379007  1
  Co  Co5  1  0.250000  0.304067  0.620993  1
  Co  Co6  1  0.250000  0.801695  0.888679  1
  Co  Co7  1  0.750000  0.198305  0.111321  1
  Co  Co8  1  0.750000  0.992072  0.211268  1
  Co  Co9  1  0.250000  0.007928  0.788732  1
  Co  Co10  1  0.250000  0.509694  0.714381  1
  Co  Co11  1  0.750000  0.490306  0.285619  1
  Co  Co12  1  0.750000  0.677096  0.787418  1
  Co  Co13  1  0.250000  0.322904  0.212582  1
  Co  Co14  1  0.250000  0.820691  0.280630  1
  Co  Co15  1  0.750000  0.179309  0.719370  1
  Co  Co16  1  0.750000  0.930810  0.970461  1
  Co  Co17  1  0.250000  0.069190  0.029539  1
  Co  Co18  1  0.250000  0.566791  0.466872  1
  Co  Co19  1  0.750000  0.433209  0.533128  1
  Co  Co20  1  0.750000  0.989866  0.593548  1
  Co  Co21  1  0.250000  0.010134  0.406452  1
  Co  Co22  1  0.250000  0.513986  0.090381  1
  Co  Co23  1  0.750000  0.486013  0.909619  1
  As  As24  1  0.750000  0.614945  0.584139  1
  As  As25  1  0.250000  0.385055  0.415861  1
  As  As26  1  0.250000  0.884796  0.085154  1
  As  As27  1  0.750000  0.115204  0.914846  1
  As  As28  1  0.750000  0.890088  0.399790  1
  As  As29  1  0.250000  0.109912  0.600210  1
  As  As30  1  0.250000  0.610808  0.901007  1
  As  As31  1  0.750000  0.389192  0.098993  1
  As  As32  1  0.750000  0.870291  0.768760  1
  As  As33  1  0.250000  0.129709  0.231240  1
  As  As34  1  0.250000  0.629781  0.265348  1
  As  As35  1  0.750000  0.370219  0.734652  1
