# generated using pymatgen
data_Tm2Mn3Cr2(PIr)7
_symmetry_space_group_name_H-M   'P 1'
_cell_length_a   9.37007018
_cell_length_b   9.40505087
_cell_length_c   3.83666000
_cell_angle_alpha   90.00000000
_cell_angle_beta   90.00000000
_cell_angle_gamma   120.09158876
_symmetry_Int_Tables_number   1
_chemical_formula_structural   Tm2Mn3Cr2(PIr)7
_chemical_formula_sum   'Tm2 Mn3 Cr2 P7 Ir7'
_cell_volume   292.54075915
_cell_formula_units_Z   1
loop_
 _symmetry_equiv_pos_site_id
 _symmetry_equiv_pos_as_xyz
  1  'x, y, z'
loop_
 _atom_site_type_symbol
 _atom_site_label
 _atom_site_symmetry_multiplicity
 _atom_site_fract_x
 _atom_site_fract_y
 _atom_site_fract_z
 _atom_site_occupancy
  Tm  Tm0  1  0.001823  0.000835  0.000000  1
  Tm  Tm1  1  0.667175  0.331401  0.500000  1
  Mn  Mn2  1  0.225600  0.399221  0.000000  1
  Mn  Mn3  1  0.603540  0.824555  0.000000  1
  Mn  Mn4  1  0.172351  0.776434  0.000000  1
  Cr  Cr5  1  0.432145  0.883558  0.500000  1
  Cr  Cr6  1  0.116558  0.546920  0.500000  1
  P  P7  1  0.442083  0.362687  0.000000  1
  P  P8  1  0.630393  0.073098  0.000000  1
  P  P9  1  0.923558  0.554382  0.000000  1
  P  P10  1  0.056210  0.270226  0.500000  1
  P  P11  1  0.733219  0.791553  0.500000  1
  P  P12  1  0.212580  0.941846  0.500000  1
  P  P13  1  0.332608  0.669613  0.000000  1
  Ir  Ir14  1  0.693307  0.597201  0.000000  1
  Ir  Ir15  1  0.398763  0.094258  0.000000  1
  Ir  Ir16  1  0.903573  0.303135  0.000000  1
  Ir  Ir17  1  0.275391  0.221951  0.500000  1
  Ir  Ir18  1  0.778563  0.054792  0.500000  1
  Ir  Ir19  1  0.942197  0.723757  0.500000  1
  Ir  Ir20  1  0.458360  0.578576  0.500000  1
