# generated using pymatgen
data_Nb3GaRe2Si2Mo
_symmetry_space_group_name_H-M   'P 1'
_cell_length_a   7.00079516
_cell_length_b   6.97977282
_cell_length_c   3.30829600
_cell_angle_alpha   90.00000000
_cell_angle_beta   90.00000000
_cell_angle_gamma   120.16574126
_symmetry_Int_Tables_number   1
_chemical_formula_structural   Nb3GaRe2Si2Mo
_chemical_formula_sum   'Nb3 Ga1 Re2 Si2 Mo1'
_cell_volume   139.76418626
_cell_formula_units_Z   1
loop_
 _symmetry_equiv_pos_site_id
 _symmetry_equiv_pos_as_xyz
  1  'x, y, z'
loop_
 _atom_site_type_symbol
 _atom_site_label
 _atom_site_symmetry_multiplicity
 _atom_site_fract_x
 _atom_site_fract_y
 _atom_site_fract_z
 _atom_site_occupancy
  Nb  Nb0  1  0.407458  0.008212  0.500000  1
  Nb  Nb1  1  0.987618  0.391663  0.500000  1
  Nb  Nb2  1  0.603949  0.600972  0.500000  1
  Ga  Ga3  1  0.330000  0.664074  0.000000  1
  Re  Re4  1  0.992890  0.739829  0.000000  1
  Re  Re5  1  0.260696  0.252676  0.000000  1
  Si  Si6  1  0.665495  0.335765  0.000000  1
  Si  Si7  1  0.003296  0.000087  0.500000  1
  Mo  Mo8  1  0.748597  0.006724  0.000000  1
