# generated using pymatgen
data_Tb4AgRh
_symmetry_space_group_name_H-M   'P 1'
_cell_length_a   9.59252979
_cell_length_b   9.59252957
_cell_length_c   9.59253000
_cell_angle_alpha   60.00000543
_cell_angle_beta   60.00000617
_cell_angle_gamma   60.00000338
_symmetry_Int_Tables_number   1
_chemical_formula_structural   Tb4AgRh
_chemical_formula_sum   'Tb16 Ag4 Rh4'
_cell_volume   624.14359888
_cell_formula_units_Z   4
loop_
 _symmetry_equiv_pos_site_id
 _symmetry_equiv_pos_as_xyz
  1  'x, y, z'
loop_
 _atom_site_type_symbol
 _atom_site_label
 _atom_site_symmetry_multiplicity
 _atom_site_fract_x
 _atom_site_fract_y
 _atom_site_fract_z
 _atom_site_occupancy
  Tb  Tb0  1  0.811898  0.811898  0.188102  1
  Tb  Tb1  1  0.811898  0.188102  0.811898  1
  Tb  Tb2  1  0.188102  0.188102  0.811898  1
  Tb  Tb3  1  0.647293  0.058120  0.647293  1
  Tb  Tb4  1  0.064451  0.064451  0.435549  1
  Tb  Tb5  1  0.435549  0.435549  0.064451  1
  Tb  Tb6  1  0.647293  0.647293  0.647293  1
  Tb  Tb7  1  0.811898  0.188102  0.188102  1
  Tb  Tb8  1  0.188102  0.811898  0.811898  1
  Tb  Tb9  1  0.058120  0.647293  0.647293  1
  Tb  Tb10  1  0.435549  0.064451  0.064451  1
  Tb  Tb11  1  0.435549  0.064451  0.435549  1
  Tb  Tb12  1  0.064451  0.435549  0.064451  1
  Tb  Tb13  1  0.647293  0.647293  0.058120  1
  Tb  Tb14  1  0.188102  0.811898  0.188102  1
  Tb  Tb15  1  0.064451  0.435549  0.435549  1
  Ag  Ag16  1  0.417732  0.417732  0.417732  1
  Ag  Ag17  1  0.417732  0.417732  0.746804  1
  Ag  Ag18  1  0.417732  0.746804  0.417732  1
  Ag  Ag19  1  0.746804  0.417732  0.417732  1
  Rh  Rh20  1  0.856654  0.430038  0.856654  1
  Rh  Rh21  1  0.856654  0.856654  0.856654  1
  Rh  Rh22  1  0.856654  0.856654  0.430038  1
  Rh  Rh23  1  0.430038  0.856654  0.856654  1
