# generated using pymatgen
data_Ba10GeBi4As
_symmetry_space_group_name_H-M   'P 1'
_cell_length_a   14.29572200
_cell_length_b   10.60370700
_cell_length_c   9.20300500
_cell_angle_alpha   90.00000000
_cell_angle_beta   90.00000000
_cell_angle_gamma   90.00000000
_symmetry_Int_Tables_number   1
_chemical_formula_structural   Ba10GeBi4As
_chemical_formula_sum   'Ba20 Ge2 Bi8 As2'
_cell_volume   1395.06187734
_cell_formula_units_Z   2
loop_
 _symmetry_equiv_pos_site_id
 _symmetry_equiv_pos_as_xyz
  1  'x, y, z'
loop_
 _atom_site_type_symbol
 _atom_site_label
 _atom_site_symmetry_multiplicity
 _atom_site_fract_x
 _atom_site_fract_y
 _atom_site_fract_z
 _atom_site_occupancy
  Ba  Ba0  1  0.076425  0.530005  0.817422  1
  Ba  Ba1  1  0.576425  0.969995  0.682578  1
  Ba  Ba2  1  0.923702  0.028758  0.181516  1
  Ba  Ba3  1  0.423702  0.471242  0.318484  1
  Ba  Ba4  1  0.923702  0.471242  0.181516  1
  Ba  Ba5  1  0.423702  0.028758  0.318484  1
  Ba  Ba6  1  0.076425  0.969995  0.817422  1
  Ba  Ba7  1  0.576425  0.530005  0.682578  1
  Ba  Ba8  1  0.001032  0.750000  0.448189  1
  Ba  Ba9  1  0.501032  0.750000  0.051811  1
  Ba  Ba10  1  0.999285  0.250000  0.555393  1
  Ba  Ba11  1  0.499285  0.250000  0.944607  1
  Ba  Ba12  1  0.212977  0.750000  0.166513  1
  Ba  Ba13  1  0.712977  0.750000  0.333487  1
  Ba  Ba14  1  0.785812  0.250000  0.832441  1
  Ba  Ba15  1  0.285812  0.250000  0.667559  1
  Ba  Ba16  1  0.300497  0.750000  0.647635  1
  Ba  Ba17  1  0.800497  0.750000  0.852365  1
  Ba  Ba18  1  0.699013  0.250000  0.353247  1
  Ba  Ba19  1  0.199013  0.250000  0.146753  1
  Ge  Ge20  1  0.510999  0.250000  0.559828  1
  Ge  Ge21  1  0.010999  0.250000  0.940172  1
  Bi  Bi22  1  0.330850  0.507655  0.938950  1
  Bi  Bi23  1  0.830850  0.992345  0.561050  1
  Bi  Bi24  1  0.669753  0.004822  0.062848  1
  Bi  Bi25  1  0.169753  0.495178  0.437152  1
  Bi  Bi26  1  0.669753  0.495178  0.062848  1
  Bi  Bi27  1  0.169753  0.004822  0.437152  1
  Bi  Bi28  1  0.330850  0.992345  0.938950  1
  Bi  Bi29  1  0.830850  0.507655  0.561050  1
  As  As30  1  0.488925  0.750000  0.437875  1
  As  As31  1  0.988925  0.750000  0.062125  1
