# generated using pymatgen
data_LiVCo4As3
_symmetry_space_group_name_H-M   'P 1'
_cell_length_a   3.63811300
_cell_length_b   10.62064500
_cell_length_c   12.27206900
_cell_angle_alpha   90.00000000
_cell_angle_beta   90.00000000
_cell_angle_gamma   90.00000000
_symmetry_Int_Tables_number   1
_chemical_formula_structural   LiVCo4As3
_chemical_formula_sum   'Li4 V4 Co16 As12'
_cell_volume   474.18178282
_cell_formula_units_Z   4
loop_
 _symmetry_equiv_pos_site_id
 _symmetry_equiv_pos_as_xyz
  1  'x, y, z'
loop_
 _atom_site_type_symbol
 _atom_site_label
 _atom_site_symmetry_multiplicity
 _atom_site_fract_x
 _atom_site_fract_y
 _atom_site_fract_z
 _atom_site_occupancy
  Li  Li0  1  0.250000  0.578432  0.703859  1
  Li  Li1  1  0.250000  0.921568  0.203859  1
  Li  Li2  1  0.750000  0.421568  0.296141  1
  Li  Li3  1  0.750000  0.078432  0.796141  1
  V  V4  1  0.250000  0.701084  0.989121  1
  V  V5  1  0.250000  0.798916  0.489121  1
  V  V6  1  0.750000  0.298916  0.010879  1
  V  V7  1  0.750000  0.201084  0.510879  1
  Co  Co8  1  0.250000  0.405157  0.488807  1
  Co  Co9  1  0.250000  0.094843  0.988807  1
  Co  Co10  1  0.750000  0.594843  0.511193  1
  Co  Co11  1  0.750000  0.905157  0.011193  1
  Co  Co12  1  0.250000  0.212862  0.174612  1
  Co  Co13  1  0.250000  0.287138  0.674612  1
  Co  Co14  1  0.750000  0.787138  0.825388  1
  Co  Co15  1  0.750000  0.712862  0.325388  1
  Co  Co16  1  0.250000  0.880547  0.696714  1
  Co  Co17  1  0.250000  0.619453  0.196714  1
  Co  Co18  1  0.750000  0.119453  0.303286  1
  Co  Co19  1  0.750000  0.380547  0.803286  1
  Co  Co20  1  0.250000  0.461923  0.937031  1
  Co  Co21  1  0.250000  0.038077  0.437031  1
  Co  Co22  1  0.750000  0.538077  0.062969  1
  Co  Co23  1  0.750000  0.961923  0.562969  1
  As  As24  1  0.250000  0.417887  0.124405  1
  As  As25  1  0.250000  0.082113  0.624405  1
  As  As26  1  0.750000  0.582113  0.875595  1
  As  As27  1  0.750000  0.917887  0.375595  1
  As  As28  1  0.250000  0.256517  0.862543  1
  As  As29  1  0.250000  0.243483  0.362543  1
  As  As30  1  0.750000  0.743483  0.137457  1
  As  As31  1  0.750000  0.756517  0.637457  1
  As  As32  1  0.250000  0.588120  0.386199  1
  As  As33  1  0.250000  0.911880  0.886199  1
  As  As34  1  0.750000  0.411880  0.613801  1
  As  As35  1  0.750000  0.088120  0.113801  1
