# generated using pymatgen
data_KZr6OsCl15
_symmetry_space_group_name_H-M   'P 1'
_cell_length_a   10.16216700
_cell_length_b   14.48589800
_cell_length_c   19.36113900
_cell_angle_alpha   90.00000000
_cell_angle_beta   90.00000000
_cell_angle_gamma   90.00000000
_symmetry_Int_Tables_number   1
_chemical_formula_structural   KZr6OsCl15
_chemical_formula_sum   'K4 Zr24 Os4 Cl60'
_cell_volume   2850.11676910
_cell_formula_units_Z   4
loop_
 _symmetry_equiv_pos_site_id
 _symmetry_equiv_pos_as_xyz
  1  'x, y, z'
loop_
 _atom_site_type_symbol
 _atom_site_label
 _atom_site_symmetry_multiplicity
 _atom_site_fract_x
 _atom_site_fract_y
 _atom_site_fract_z
 _atom_site_occupancy
  K  K0  1  0.667153  0.252831  0.750000  1
  K  K1  1  0.667153  0.747169  0.750000  1
  K  K2  1  0.332847  0.252831  0.250000  1
  K  K3  1  0.332847  0.747169  0.250000  1
  Zr  Zr4  1  0.332851  0.375865  0.968273  1
  Zr  Zr5  1  0.157352  0.124339  0.843426  1
  Zr  Zr6  1  0.842648  0.875661  0.156574  1
  Zr  Zr7  1  0.667149  0.624135  0.468273  1
  Zr  Zr8  1  0.667149  0.375865  0.468273  1
  Zr  Zr9  1  0.667149  0.375865  0.031727  1
  Zr  Zr10  1  0.587360  0.500000  0.622119  1
  Zr  Zr11  1  0.332851  0.375865  0.531727  1
  Zr  Zr12  1  0.332851  0.624135  0.531727  1
  Zr  Zr13  1  0.667149  0.624135  0.031727  1
  Zr  Zr14  1  0.842648  0.875661  0.343426  1
  Zr  Zr15  1  0.157352  0.124339  0.656574  1
  Zr  Zr16  1  0.587360  0.500000  0.877881  1
  Zr  Zr17  1  0.910728  0.000000  0.750000  1
  Zr  Zr18  1  0.842648  0.124339  0.156574  1
  Zr  Zr19  1  0.412640  0.500000  0.122119  1
  Zr  Zr20  1  0.332851  0.624135  0.968273  1
  Zr  Zr21  1  0.157352  0.875661  0.656574  1
  Zr  Zr22  1  0.089272  0.000000  0.250000  1
  Zr  Zr23  1  0.596909  0.000000  0.250000  1
  Zr  Zr24  1  0.412640  0.500000  0.377881  1
  Zr  Zr25  1  0.842648  0.124339  0.343426  1
  Zr  Zr26  1  0.403091  0.000000  0.750000  1
  Zr  Zr27  1  0.157352  0.875661  0.843426  1
  Os  Os28  1  0.156896  0.000000  0.750000  1
  Os  Os29  1  0.500000  0.500000  0.500000  1
  Os  Os30  1  0.500000  0.500000  0.000000  1
  Os  Os31  1  0.843104  0.000000  0.250000  1
  Cl  Cl32  1  0.414909  0.126918  0.655918  1
  Cl  Cl33  1  0.500000  0.247147  0.500000  1
  Cl  Cl34  1  0.151763  0.250784  0.940902  1
  Cl  Cl35  1  0.500000  0.752853  0.500000  1
  Cl  Cl36  1  0.585091  0.873082  0.344082  1
  Cl  Cl37  1  0.579055  0.626357  0.158877  1
  Cl  Cl38  1  0.839010  0.500000  0.065523  1
  Cl  Cl39  1  0.101124  0.128025  0.344446  1
  Cl  Cl40  1  0.757859  0.628558  0.595365  1
  Cl  Cl41  1  0.898876  0.128025  0.844446  1
  Cl  Cl42  1  0.842342  0.000000  0.060383  1
  Cl  Cl43  1  0.242141  0.371442  0.404635  1
  Cl  Cl44  1  0.500000  0.247147  0.000000  1
  Cl  Cl45  1  0.160990  0.500000  0.934477  1
  Cl  Cl46  1  0.308650  0.500000  0.250000  1
  Cl  Cl47  1  0.500000  0.752853  0.000000  1
  Cl  Cl48  1  0.157658  0.000000  0.560383  1
  Cl  Cl49  1  0.420945  0.373643  0.658877  1
  Cl  Cl50  1  0.414909  0.873082  0.844082  1
  Cl  Cl51  1  0.242141  0.371442  0.095365  1
  Cl  Cl52  1  0.842342  0.000000  0.439617  1
  Cl  Cl53  1  0.898876  0.871975  0.844446  1
  Cl  Cl54  1  0.101124  0.128025  0.155554  1
  Cl  Cl55  1  0.839010  0.500000  0.434477  1
  Cl  Cl56  1  0.579055  0.626357  0.341123  1
  Cl  Cl57  1  0.151763  0.749216  0.559098  1
  Cl  Cl58  1  0.585091  0.873082  0.155918  1
  Cl  Cl59  1  0.657220  0.000000  0.750000  1
  Cl  Cl60  1  0.848855  0.746694  0.250000  1
  Cl  Cl61  1  0.420945  0.626357  0.841123  1
  Cl  Cl62  1  0.848237  0.250784  0.059098  1
  Cl  Cl63  1  0.757859  0.371442  0.904635  1
  Cl  Cl64  1  0.585091  0.126918  0.344082  1
  Cl  Cl65  1  0.848237  0.749216  0.059098  1
  Cl  Cl66  1  0.342780  0.000000  0.250000  1
  Cl  Cl67  1  0.579055  0.373643  0.341123  1
  Cl  Cl68  1  0.757859  0.371442  0.595365  1
  Cl  Cl69  1  0.848855  0.253306  0.250000  1
  Cl  Cl70  1  0.691350  0.500000  0.750000  1
  Cl  Cl71  1  0.151763  0.250784  0.559098  1
  Cl  Cl72  1  0.160990  0.500000  0.565523  1
  Cl  Cl73  1  0.101124  0.871975  0.344446  1
  Cl  Cl74  1  0.242141  0.628558  0.404635  1
  Cl  Cl75  1  0.898876  0.871975  0.655554  1
  Cl  Cl76  1  0.414909  0.126918  0.844082  1
  Cl  Cl77  1  0.242141  0.628558  0.095365  1
  Cl  Cl78  1  0.420945  0.626357  0.658877  1
  Cl  Cl79  1  0.101124  0.871975  0.155554  1
  Cl  Cl80  1  0.151763  0.749216  0.940902  1
  Cl  Cl81  1  0.414909  0.873082  0.655918  1
  Cl  Cl82  1  0.157658  0.000000  0.939617  1
  Cl  Cl83  1  0.151145  0.746694  0.750000  1
  Cl  Cl84  1  0.757859  0.628558  0.904635  1
  Cl  Cl85  1  0.579055  0.373643  0.158877  1
  Cl  Cl86  1  0.898876  0.128025  0.655554  1
  Cl  Cl87  1  0.848237  0.749216  0.440902  1
  Cl  Cl88  1  0.420945  0.373643  0.841123  1
  Cl  Cl89  1  0.585091  0.126918  0.155918  1
  Cl  Cl90  1  0.151145  0.253306  0.750000  1
  Cl  Cl91  1  0.848237  0.250784  0.440902  1
