# generated using pymatgen
data_Tb6Y6TcRu3
_symmetry_space_group_name_H-M   'P 1'
_cell_length_a   6.33855080
_cell_length_b   7.36599476
_cell_length_c   9.25276225
_cell_angle_alpha   89.97328251
_cell_angle_beta   90.00137532
_cell_angle_gamma   90.06541392
_symmetry_Int_Tables_number   1
_chemical_formula_structural   Tb6Y6TcRu3
_chemical_formula_sum   'Tb6 Y6 Tc1 Ru3'
_cell_volume   432.00866076
_cell_formula_units_Z   1
loop_
 _symmetry_equiv_pos_site_id
 _symmetry_equiv_pos_as_xyz
  1  'x, y, z'
loop_
 _atom_site_type_symbol
 _atom_site_label
 _atom_site_symmetry_multiplicity
 _atom_site_fract_x
 _atom_site_fract_y
 _atom_site_fract_z
 _atom_site_occupancy
  Tb  Tb0  1  0.632940  0.041413  0.250013  1
  Tb  Tb1  1  0.364878  0.956186  0.749976  1
  Tb  Tb2  1  0.134852  0.456557  0.749958  1
  Tb  Tb3  1  0.870870  0.543280  0.250018  1
  Tb  Tb4  1  0.167534  0.175971  0.065422  1
  Tb  Tb5  1  0.831341  0.823796  0.934750  1
  Y  Y6  1  0.665878  0.324634  0.936480  1
  Y  Y7  1  0.831394  0.824048  0.564644  1
  Y  Y8  1  0.332516  0.676132  0.064820  1
  Y  Y9  1  0.167467  0.175656  0.435213  1
  Y  Y10  1  0.332127  0.676013  0.435302  1
  Y  Y11  1  0.666146  0.324734  0.563417  1
  Tc  Tc12  1  0.463671  0.385093  0.249673  1
  Ru  Ru13  1  0.538252  0.616913  0.750437  1
  Ru  Ru14  1  0.963006  0.114417  0.750476  1
  Ru  Ru15  1  0.037130  0.885158  0.249401  1
