# generated using pymatgen
data_Pr5InBi2Br
_symmetry_space_group_name_H-M   'P 1'
_cell_length_a   9.80923200
_cell_length_b   9.69517226
_cell_length_c   6.79895800
_cell_angle_alpha   90.00000000
_cell_angle_beta   90.00000000
_cell_angle_gamma   120.38993864
_symmetry_Int_Tables_number   1
_chemical_formula_structural   Pr5InBi2Br
_chemical_formula_sum   'Pr10 In2 Bi4 Br2'
_cell_volume   557.75518441
_cell_formula_units_Z   2
loop_
 _symmetry_equiv_pos_site_id
 _symmetry_equiv_pos_as_xyz
  1  'x, y, z'
loop_
 _atom_site_type_symbol
 _atom_site_label
 _atom_site_symmetry_multiplicity
 _atom_site_fract_x
 _atom_site_fract_y
 _atom_site_fract_z
 _atom_site_occupancy
  Pr  Pr0  1  0.272245  0.000000  0.750000  1
  Pr  Pr1  1  0.727755  0.000000  0.250000  1
  Pr  Pr2  1  0.998023  0.266682  0.750000  1
  Pr  Pr3  1  0.001977  0.733318  0.250000  1
  Pr  Pr4  1  0.731341  0.733318  0.750000  1
  Pr  Pr5  1  0.268659  0.266682  0.250000  1
  Pr  Pr6  1  0.335530  0.671061  0.500000  1
  Pr  Pr7  1  0.664470  0.328939  0.500000  1
  Pr  Pr8  1  0.664470  0.328939  0.000000  1
  Pr  Pr9  1  0.335530  0.671061  0.000000  1
  In  In10  1  0.610833  0.000000  0.750000  1
  In  In11  1  0.389167  0.000000  0.250000  1
  Bi  Bi12  1  0.999059  0.615540  0.750000  1
  Bi  Bi13  1  0.000941  0.384460  0.250000  1
  Bi  Bi14  1  0.383520  0.384460  0.750000  1
  Bi  Bi15  1  0.616480  0.615540  0.250000  1
  Br  Br16  1  0.000000  0.000000  0.500000  1
  Br  Br17  1  0.000000  0.000000  0.000000  1
