# generated using pymatgen
data_YbLu3Ga18Ir5Rh
_symmetry_space_group_name_H-M   'P 1'
_cell_length_a   7.54866841
_cell_length_b   7.55291436
_cell_length_c   9.48706204
_cell_angle_alpha   89.96579430
_cell_angle_beta   89.97310640
_cell_angle_gamma   119.76330903
_symmetry_Int_Tables_number   1
_chemical_formula_structural   YbLu3Ga18Ir5Rh
_chemical_formula_sum   'Yb1 Lu3 Ga18 Ir5 Rh1'
_cell_volume   469.54575452
_cell_formula_units_Z   1
loop_
 _symmetry_equiv_pos_site_id
 _symmetry_equiv_pos_as_xyz
  1  'x, y, z'
loop_
 _atom_site_type_symbol
 _atom_site_label
 _atom_site_symmetry_multiplicity
 _atom_site_fract_x
 _atom_site_fract_y
 _atom_site_fract_z
 _atom_site_occupancy
  Yb  Yb0  1  0.997684  0.668972  0.249350  1
  Lu  Lu1  1  0.001454  0.330970  0.750704  1
  Lu  Lu2  1  0.668993  0.998643  0.249271  1
  Lu  Lu3  1  0.330414  0.001230  0.750717  1
  Ga  Ga4  1  0.338957  0.548588  0.249937  1
  Ga  Ga5  1  0.661152  0.451589  0.750052  1
  Ga  Ga6  1  0.548310  0.338481  0.249976  1
  Ga  Ga7  1  0.451541  0.661050  0.750021  1
  Ga  Ga8  1  0.999601  0.334897  0.081087  1
  Ga  Ga9  1  0.000384  0.665166  0.918922  1
  Ga  Ga10  1  0.000291  0.665651  0.581004  1
  Ga  Ga11  1  0.334129  0.999578  0.419154  1
  Ga  Ga12  1  0.999730  0.334384  0.419072  1
  Ga  Ga13  1  0.665755  0.000499  0.581083  1
  Ga  Ga14  1  0.665268  0.000572  0.918802  1
  Ga  Ga15  1  0.334497  0.999377  0.080989  1
  Ga  Ga16  1  0.331132  0.331068  0.566752  1
  Ga  Ga17  1  0.668994  0.668698  0.434257  1
  Ga  Ga18  1  0.668284  0.667966  0.065758  1
  Ga  Ga19  1  0.332093  0.331956  0.933266  1
  Ga  Ga20  1  0.126099  0.126318  0.250576  1
  Ga  Ga21  1  0.873770  0.873765  0.749365  1
  Ir  Ir22  1  0.671504  0.327549  0.999607  1
  Ir  Ir23  1  0.328507  0.671715  0.999204  1
  Ir  Ir24  1  0.328486  0.671670  0.500760  1
  Ir  Ir25  1  0.671442  0.327569  0.500457  1
  Ir  Ir26  1  0.000750  0.001156  0.999039  1
  Rh  Rh27  1  0.000778  0.000924  0.500820  1
