# generated using pymatgen
data_UNbCrB6
_symmetry_space_group_name_H-M   'P 1'
_cell_length_a   3.44815500
_cell_length_b   8.89162300
_cell_length_c   11.23013400
_cell_angle_alpha   90.00000000
_cell_angle_beta   90.00000000
_cell_angle_gamma   90.00000000
_symmetry_Int_Tables_number   1
_chemical_formula_structural   UNbCrB6
_chemical_formula_sum   'U4 Nb4 Cr4 B24'
_cell_volume   344.31247545
_cell_formula_units_Z   4
loop_
 _symmetry_equiv_pos_site_id
 _symmetry_equiv_pos_as_xyz
  1  'x, y, z'
loop_
 _atom_site_type_symbol
 _atom_site_label
 _atom_site_symmetry_multiplicity
 _atom_site_fract_x
 _atom_site_fract_y
 _atom_site_fract_z
 _atom_site_occupancy
  U  U0  1  0.000000  0.823481  0.086110  1
  U  U1  1  0.000000  0.176519  0.913890  1
  U  U2  1  0.000000  0.323481  0.413890  1
  U  U3  1  0.000000  0.676519  0.586110  1
  Nb  Nb4  1  0.000000  0.444446  0.128153  1
  Nb  Nb5  1  0.000000  0.555554  0.871847  1
  Nb  Nb6  1  0.000000  0.944446  0.371847  1
  Nb  Nb7  1  0.000000  0.055554  0.628153  1
  Cr  Cr8  1  0.000000  0.141249  0.180535  1
  Cr  Cr9  1  0.000000  0.858751  0.819465  1
  Cr  Cr10  1  0.000000  0.641249  0.319465  1
  Cr  Cr11  1  0.000000  0.358751  0.680535  1
  B  B12  1  0.500000  0.053101  0.066187  1
  B  B13  1  0.500000  0.946899  0.933813  1
  B  B14  1  0.500000  0.553101  0.433813  1
  B  B15  1  0.500000  0.446899  0.566187  1
  B  B16  1  0.500000  0.252193  0.080674  1
  B  B17  1  0.500000  0.747807  0.919326  1
  B  B18  1  0.500000  0.752193  0.419326  1
  B  B19  1  0.500000  0.247807  0.580674  1
  B  B20  1  0.500000  0.295745  0.235584  1
  B  B21  1  0.500000  0.704255  0.764416  1
  B  B22  1  0.500000  0.795745  0.264416  1
  B  B23  1  0.500000  0.204255  0.735584  1
  B  B24  1  0.500000  0.130720  0.317311  1
  B  B25  1  0.500000  0.869280  0.682689  1
  B  B26  1  0.500000  0.630720  0.182689  1
  B  B27  1  0.500000  0.369280  0.817311  1
  B  B28  1  0.500000  0.480822  0.286742  1
  B  B29  1  0.500000  0.519178  0.713258  1
  B  B30  1  0.500000  0.980822  0.213258  1
  B  B31  1  0.500000  0.019178  0.786742  1
  B  B32  1  0.500000  0.101499  0.472808  1
  B  B33  1  0.500000  0.898501  0.527192  1
  B  B34  1  0.500000  0.601499  0.027192  1
  B  B35  1  0.500000  0.398501  0.972808  1
