# generated using pymatgen
data_Zr6AlNiSe
_symmetry_space_group_name_H-M   'P 1'
_cell_length_a   7.74793800
_cell_length_b   7.74793788
_cell_length_c   3.48546400
_cell_angle_alpha   90.00000000
_cell_angle_beta   90.00000000
_cell_angle_gamma   120.00000050
_symmetry_Int_Tables_number   1
_chemical_formula_structural   Zr6AlNiSe
_chemical_formula_sum   'Zr6 Al1 Ni1 Se1'
_cell_volume   181.20221325
_cell_formula_units_Z   1
loop_
 _symmetry_equiv_pos_site_id
 _symmetry_equiv_pos_as_xyz
  1  'x, y, z'
loop_
 _atom_site_type_symbol
 _atom_site_label
 _atom_site_symmetry_multiplicity
 _atom_site_fract_x
 _atom_site_fract_y
 _atom_site_fract_z
 _atom_site_occupancy
  Zr  Zr0  1  0.247907  0.994740  0.000000  1
  Zr  Zr1  1  0.746833  0.752093  0.000000  1
  Zr  Zr2  1  0.005260  0.253167  0.000000  1
  Zr  Zr3  1  0.597840  0.010464  0.500000  1
  Zr  Zr4  1  0.412624  0.402160  0.500000  1
  Zr  Zr5  1  0.989536  0.587376  0.500000  1
  Al  Al6  1  0.333333  0.666667  0.000000  1
  Ni  Ni7  1  0.000000  0.000000  0.500000  1
  Se  Se8  1  0.666667  0.333333  0.000000  1
