# generated using pymatgen
data_Ca2LaCu2Ni7
_symmetry_space_group_name_H-M   'P 1'
_cell_length_a   8.66500476
_cell_length_b   8.66500492
_cell_length_c   8.66771945
_cell_angle_alpha   33.92051076
_cell_angle_beta   33.92050784
_cell_angle_gamma   33.83853454
_symmetry_Int_Tables_number   1
_chemical_formula_structural   Ca2LaCu2Ni7
_chemical_formula_sum   'Ca2 La1 Cu2 Ni7'
_cell_volume   180.36089849
_cell_formula_units_Z   1
loop_
 _symmetry_equiv_pos_site_id
 _symmetry_equiv_pos_as_xyz
  1  'x, y, z'
loop_
 _atom_site_type_symbol
 _atom_site_label
 _atom_site_symmetry_multiplicity
 _atom_site_fract_x
 _atom_site_fract_y
 _atom_site_fract_z
 _atom_site_occupancy
  Ca  Ca0  1  0.141661  0.141661  0.145462  1
  Ca  Ca1  1  0.858546  0.858546  0.857701  1
  La  La2  1  0.998875  0.998875  0.997746  1
  Cu  Cu3  1  0.582362  0.582362  0.081129  1
  Cu  Cu4  1  0.329411  0.329411  0.338615  1
  Ni  Ni5  1  0.913406  0.420209  0.419239  1
  Ni  Ni6  1  0.420209  0.913406  0.419239  1
  Ni  Ni7  1  0.496434  0.496434  0.507548  1
  Ni  Ni8  1  0.581278  0.085106  0.580601  1
  Ni  Ni9  1  0.085106  0.581278  0.580601  1
  Ni  Ni10  1  0.673043  0.673043  0.656256  1
  Ni  Ni11  1  0.419670  0.419670  0.915863  1
