# generated using pymatgen
data_K3LiOsO4
_symmetry_space_group_name_H-M   'P 1'
_cell_length_a   6.00722752
_cell_length_b   7.30577528
_cell_length_c   7.30592935
_cell_angle_alpha   94.75384173
_cell_angle_beta   100.40798345
_cell_angle_gamma   79.59231925
_symmetry_Int_Tables_number   1
_chemical_formula_structural   K3LiOsO4
_chemical_formula_sum   'K6 Li2 Os2 O8'
_cell_volume   309.75578955
_cell_formula_units_Z   2
loop_
 _symmetry_equiv_pos_site_id
 _symmetry_equiv_pos_as_xyz
  1  'x, y, z'
loop_
 _atom_site_type_symbol
 _atom_site_label
 _atom_site_symmetry_multiplicity
 _atom_site_fract_x
 _atom_site_fract_y
 _atom_site_fract_z
 _atom_site_occupancy
  K  K0  1  0.970125  0.755774  0.067217  1
  K  K1  1  0.470121  0.932773  0.244227  1
  K  K2  1  0.250001  0.404384  0.404385  1
  K  K3  1  0.749999  0.595616  0.595614  1
  K  K4  1  0.529879  0.067227  0.755773  1
  K  K5  1  0.029876  0.244226  0.932783  1
  Li  Li6  1  0.750001  0.266225  0.266223  1
  Li  Li7  1  0.249999  0.733776  0.733777  1
  Os  Os8  1  0.500000  0.500000  0.000000  1
  Os  Os9  1  0.000001  0.000000  0.500001  1
  O  O10  1  0.471142  0.266865  0.086918  1
  O  O11  1  0.752552  0.515857  0.199815  1
  O  O12  1  0.028854  0.086917  0.266869  1
  O  O13  1  0.252554  0.800186  0.484149  1
  O  O14  1  0.747446  0.199815  0.515852  1
  O  O15  1  0.971145  0.913083  0.733131  1
  O  O16  1  0.247449  0.484143  0.800185  1
  O  O17  1  0.528857  0.733136  0.913081  1
