# generated using pymatgen
data_Gd2Cu17
_symmetry_space_group_name_H-M   'P 1'
_cell_length_a   8.26279100
_cell_length_b   8.62779217
_cell_length_c   8.62779200
_cell_angle_alpha   119.99565925
_cell_angle_beta   90.00000000
_cell_angle_gamma   90.00000000
_symmetry_Int_Tables_number   1
_chemical_formula_structural   Gd2Cu17
_chemical_formula_sum   'Gd4 Cu34'
_cell_volume   532.69146166
_cell_formula_units_Z   2
loop_
 _symmetry_equiv_pos_site_id
 _symmetry_equiv_pos_as_xyz
  1  'x, y, z'
loop_
 _atom_site_type_symbol
 _atom_site_label
 _atom_site_symmetry_multiplicity
 _atom_site_fract_x
 _atom_site_fract_y
 _atom_site_fract_z
 _atom_site_occupancy
  Gd  Gd0  1  0.250000  0.001005  0.998995  1
  Gd  Gd1  1  0.750000  0.998995  0.001005  1
  Gd  Gd2  1  0.750000  0.666589  0.333411  1
  Gd  Gd3  1  0.250000  0.333411  0.666589  1
  Cu  Cu4  1  0.103172  0.666727  0.333273  1
  Cu  Cu5  1  0.896828  0.333273  0.666727  1
  Cu  Cu6  1  0.603172  0.333273  0.666727  1
  Cu  Cu7  1  0.396828  0.666727  0.333273  1
  Cu  Cu8  1  0.000000  0.500000  0.000000  1
  Cu  Cu9  1  0.000000  0.500000  0.500000  1
  Cu  Cu10  1  0.000000  0.000000  0.500000  1
  Cu  Cu11  1  0.500000  0.500000  0.000000  1
  Cu  Cu12  1  0.500000  0.500000  0.500000  1
  Cu  Cu13  1  0.500000  0.000000  0.500000  1
  Cu  Cu14  1  0.250000  0.671454  0.039507  1
  Cu  Cu15  1  0.250000  0.369440  0.329345  1
  Cu  Cu16  1  0.250000  0.959395  0.629007  1
  Cu  Cu17  1  0.250000  0.370993  0.040605  1
  Cu  Cu18  1  0.250000  0.960493  0.328546  1
  Cu  Cu19  1  0.250000  0.670655  0.630560  1
  Cu  Cu20  1  0.750000  0.328546  0.960493  1
  Cu  Cu21  1  0.750000  0.630560  0.670655  1
  Cu  Cu22  1  0.750000  0.040605  0.370993  1
  Cu  Cu23  1  0.750000  0.629007  0.959395  1
  Cu  Cu24  1  0.750000  0.039507  0.671454  1
  Cu  Cu25  1  0.750000  0.329345  0.369440  1
  Cu  Cu26  1  0.980708  0.834654  0.669208  1
  Cu  Cu27  1  0.980815  0.834263  0.165737  1
  Cu  Cu28  1  0.980708  0.330792  0.165346  1
  Cu  Cu29  1  0.019292  0.165346  0.330792  1
  Cu  Cu30  1  0.019185  0.165737  0.834263  1
  Cu  Cu31  1  0.019292  0.669208  0.834654  1
  Cu  Cu32  1  0.480708  0.165346  0.330792  1
  Cu  Cu33  1  0.480815  0.165737  0.834263  1
  Cu  Cu34  1  0.480708  0.669208  0.834654  1
  Cu  Cu35  1  0.519292  0.834654  0.669208  1
  Cu  Cu36  1  0.519185  0.834263  0.165737  1
  Cu  Cu37  1  0.519292  0.330792  0.165346  1
