# generated using pymatgen
data_TcMo2Ir5
_symmetry_space_group_name_H-M   'P 1'
_cell_length_a   5.52373600
_cell_length_b   5.55386476
_cell_length_c   4.42199900
_cell_angle_alpha   90.00000000
_cell_angle_beta   90.00000000
_cell_angle_gamma   119.82070979
_symmetry_Int_Tables_number   1
_chemical_formula_structural   TcMo2Ir5
_chemical_formula_sum   'Tc1 Mo2 Ir5'
_cell_volume   117.69534090
_cell_formula_units_Z   1
loop_
 _symmetry_equiv_pos_site_id
 _symmetry_equiv_pos_as_xyz
  1  'x, y, z'
loop_
 _atom_site_type_symbol
 _atom_site_label
 _atom_site_symmetry_multiplicity
 _atom_site_fract_x
 _atom_site_fract_y
 _atom_site_fract_z
 _atom_site_occupancy
  Tc  Tc0  1  0.832921  0.665842  0.250000  1
  Mo  Mo1  1  0.332593  0.665189  0.250000  1
  Mo  Mo2  1  0.667752  0.335502  0.750000  1
  Ir  Ir3  1  0.166749  0.833414  0.750000  1
  Ir  Ir4  1  0.666666  0.833414  0.750000  1
  Ir  Ir5  1  0.332461  0.167495  0.250000  1
  Ir  Ir6  1  0.835034  0.167495  0.250000  1
  Ir  Ir7  1  0.165824  0.331648  0.750000  1
