# generated using pymatgen
data_Tb9GdC4Cl17
_symmetry_space_group_name_H-M   'P 1'
_cell_length_a   8.56260966
_cell_length_b   9.24969598
_cell_length_c   11.55677205
_cell_angle_alpha   104.87415804
_cell_angle_beta   95.96136493
_cell_angle_gamma   110.12473396
_symmetry_Int_Tables_number   1
_chemical_formula_structural   Tb9GdC4Cl17
_chemical_formula_sum   'Tb9 Gd1 C4 Cl17'
_cell_volume   811.79328185
_cell_formula_units_Z   1
loop_
 _symmetry_equiv_pos_site_id
 _symmetry_equiv_pos_as_xyz
  1  'x, y, z'
loop_
 _atom_site_type_symbol
 _atom_site_label
 _atom_site_symmetry_multiplicity
 _atom_site_fract_x
 _atom_site_fract_y
 _atom_site_fract_z
 _atom_site_occupancy
  Tb  Tb0  1  0.651853  0.489230  0.438285  1
  Tb  Tb1  1  0.348060  0.511518  0.561456  1
  Tb  Tb2  1  0.084668  0.425656  0.271865  1
  Tb  Tb3  1  0.915819  0.574710  0.728380  1
  Tb  Tb4  1  0.410617  0.370627  0.139675  1
  Tb  Tb5  1  0.589227  0.629317  0.860822  1
  Tb  Tb6  1  0.489683  0.781350  0.342337  1
  Tb  Tb7  1  0.509942  0.218993  0.657495  1
  Tb  Tb8  1  0.211794  0.100265  0.308416  1
  Gd  Gd9  1  0.790259  0.902425  0.692065  1
  C  C10  1  0.398158  0.530535  0.344980  1
  C  C11  1  0.601807  0.470241  0.654951  1
  C  C12  1  0.329001  0.363658  0.339548  1
  C  C13  1  0.671652  0.637408  0.660929  1
  Cl  Cl14  1  0.105046  0.350331  0.041499  1
  Cl  Cl15  1  0.894766  0.649174  0.958581  1
  Cl  Cl16  1  0.809668  0.819307  0.442301  1
  Cl  Cl17  1  0.189847  0.178767  0.555600  1
  Cl  Cl18  1  0.999822  0.499549  0.499879  1
  Cl  Cl19  1  0.299625  0.046438  0.093983  1
  Cl  Cl20  1  0.698167  0.952408  0.907648  1
  Cl  Cl21  1  0.909436  0.107298  0.248404  1
  Cl  Cl22  1  0.093821  0.891128  0.751997  1
  Cl  Cl23  1  0.546076  0.129700  0.410722  1
  Cl  Cl24  1  0.451943  0.869994  0.588636  1
  Cl  Cl25  1  0.739659  0.413432  0.212682  1
  Cl  Cl26  1  0.259945  0.585143  0.787125  1
  Cl  Cl27  1  0.164203  0.756736  0.285246  1
  Cl  Cl28  1  0.835786  0.245303  0.714714  1
  Cl  Cl29  1  0.534111  0.683605  0.111479  1
  Cl  Cl30  1  0.465542  0.315759  0.888298  1
