# generated using pymatgen
data_Ba8Tm4Al3CoO20
_symmetry_space_group_name_H-M   'P 1'
_cell_length_a   6.06241994
_cell_length_b   7.74579080
_cell_length_c   12.56491197
_cell_angle_alpha   91.37212278
_cell_angle_beta   89.93571614
_cell_angle_gamma   90.00230415
_symmetry_Int_Tables_number   1
_chemical_formula_structural   Ba8Tm4Al3CoO20
_chemical_formula_sum   'Ba8 Tm4 Al3 Co1 O20'
_cell_volume   589.85655244
_cell_formula_units_Z   1
loop_
 _symmetry_equiv_pos_site_id
 _symmetry_equiv_pos_as_xyz
  1  'x, y, z'
loop_
 _atom_site_type_symbol
 _atom_site_label
 _atom_site_symmetry_multiplicity
 _atom_site_fract_x
 _atom_site_fract_y
 _atom_site_fract_z
 _atom_site_occupancy
  Ba  Ba0  1  0.755917  0.488333  0.355809  1
  Ba  Ba1  1  0.744373  0.988805  0.856587  1
  Ba  Ba2  1  0.243904  0.509781  0.643583  1
  Ba  Ba3  1  0.256409  0.009254  0.142444  1
  Ba  Ba4  1  0.753568  0.997398  0.376514  1
  Ba  Ba5  1  0.746148  0.497328  0.877316  1
  Ba  Ba6  1  0.247148  0.004351  0.621177  1
  Ba  Ba7  1  0.253717  0.504834  0.121779  1
  Tm  Tm8  1  0.748707  0.260814  0.628741  1
  Tm  Tm9  1  0.751571  0.760579  0.129990  1
  Tm  Tm10  1  0.251264  0.738886  0.371881  1
  Tm  Tm11  1  0.248481  0.237684  0.872260  1
  Al  Al12  1  0.741966  0.746352  0.582126  1
  Al  Al13  1  0.757795  0.245482  0.082488  1
  Al  Al14  1  0.257912  0.254242  0.417665  1
  Co  Co15  1  0.242816  0.754123  0.912464  1
  O  O16  1  0.756353  0.962112  0.636827  1
  O  O17  1  0.743849  0.461114  0.137118  1
  O  O18  1  0.243727  0.038342  0.363541  1
  O  O19  1  0.256337  0.527790  0.865487  1
  O  O20  1  0.740794  0.063863  0.166491  1
  O  O21  1  0.759533  0.564705  0.666210  1
  O  O22  1  0.260727  0.946998  0.831876  1
  O  O23  1  0.241343  0.436639  0.334442  1
  O  O24  1  0.530748  0.747974  0.265769  1
  O  O25  1  0.970022  0.249072  0.764327  1
  O  O26  1  0.469718  0.253211  0.735415  1
  O  O27  1  0.031982  0.751492  0.235786  1
  O  O28  1  0.534199  0.231581  0.987928  1
  O  O29  1  0.965397  0.732859  0.487466  1
  O  O30  1  0.474156  0.767697  0.014965  1
  O  O31  1  0.034288  0.267784  0.512601  1
  O  O32  1  0.014463  0.234135  0.011150  1
  O  O33  1  0.484339  0.735550  0.511839  1
  O  O34  1  0.972356  0.764384  0.988394  1
  O  O35  1  0.513974  0.264455  0.489543  1
