# generated using pymatgen
data_Yb5Co16(Si4Ir)3
_symmetry_space_group_name_H-M   'P 1'
_cell_length_a   12.25685230
_cell_length_b   12.25685362
_cell_length_c   3.78794800
_cell_angle_alpha   90.00000000
_cell_angle_beta   90.00000000
_cell_angle_gamma   120.33795884
_symmetry_Int_Tables_number   1
_chemical_formula_structural   Yb5Co16(Si4Ir)3
_chemical_formula_sum   'Yb5 Co16 Si12 Ir3'
_cell_volume   491.13796598
_cell_formula_units_Z   1
loop_
 _symmetry_equiv_pos_site_id
 _symmetry_equiv_pos_as_xyz
  1  'x, y, z'
loop_
 _atom_site_type_symbol
 _atom_site_label
 _atom_site_symmetry_multiplicity
 _atom_site_fract_x
 _atom_site_fract_y
 _atom_site_fract_z
 _atom_site_occupancy
  Yb  Yb0  1  0.333543  0.667779  0.000000  1
  Yb  Yb1  1  0.667779  0.333543  0.000000  1
  Yb  Yb2  1  0.186016  0.186016  0.500000  1
  Yb  Yb3  1  0.815187  0.999190  0.500000  1
  Yb  Yb4  1  0.999190  0.815187  0.500000  1
  Co  Co5  1  0.195695  0.816891  0.000000  1
  Co  Co6  1  0.184946  0.380838  0.000000  1
  Co  Co7  1  0.618273  0.800567  0.000000  1
  Co  Co8  1  0.816891  0.195695  0.000000  1
  Co  Co9  1  0.380838  0.184946  0.000000  1
  Co  Co10  1  0.800567  0.618273  0.000000  1
  Co  Co11  1  0.713438  0.713438  0.500000  1
  Co  Co12  1  0.283384  0.000295  0.500000  1
  Co  Co13  1  0.000295  0.283384  0.500000  1
  Co  Co14  1  0.122493  0.643747  0.500000  1
  Co  Co15  1  0.357730  0.479320  0.500000  1
  Co  Co16  1  0.521082  0.876862  0.500000  1
  Co  Co17  1  0.643747  0.122493  0.500000  1
  Co  Co18  1  0.479320  0.357730  0.500000  1
  Co  Co19  1  0.876862  0.521082  0.500000  1
  Co  Co20  1  0.559518  0.559518  0.000000  1
  Si  Si21  1  0.805752  0.805752  0.000000  1
  Si  Si22  1  0.191007  0.000468  0.000000  1
  Si  Si23  1  0.000468  0.191007  0.000000  1
  Si  Si24  1  0.314746  0.836910  0.500000  1
  Si  Si25  1  0.164161  0.478942  0.500000  1
  Si  Si26  1  0.521106  0.683482  0.500000  1
  Si  Si27  1  0.836910  0.314746  0.500000  1
  Si  Si28  1  0.478942  0.164161  0.500000  1
  Si  Si29  1  0.683482  0.521106  0.500000  1
  Si  Si30  1  0.373935  0.373935  0.000000  1
  Si  Si31  1  0.632517  0.998920  0.000000  1
  Si  Si32  1  0.998920  0.632517  0.000000  1
  Ir  Ir33  1  0.442259  0.000282  0.000000  1
  Ir  Ir34  1  0.000282  0.442259  0.000000  1
  Ir  Ir35  1  0.998719  0.998719  0.000000  1
