# generated using pymatgen
data_Tb2Er2Ga4Pd3Ru
_symmetry_space_group_name_H-M   'P 1'
_cell_length_a   4.42226100
_cell_length_b   6.89448966
_cell_length_c   7.70443100
_cell_angle_alpha   89.58007419
_cell_angle_beta   90.00000000
_cell_angle_gamma   90.00000000
_symmetry_Int_Tables_number   1
_chemical_formula_structural   Tb2Er2Ga4Pd3Ru
_chemical_formula_sum   'Tb2 Er2 Ga4 Pd3 Ru1'
_cell_volume   234.89588111
_cell_formula_units_Z   1
loop_
 _symmetry_equiv_pos_site_id
 _symmetry_equiv_pos_as_xyz
  1  'x, y, z'
loop_
 _atom_site_type_symbol
 _atom_site_label
 _atom_site_symmetry_multiplicity
 _atom_site_fract_x
 _atom_site_fract_y
 _atom_site_fract_z
 _atom_site_occupancy
  Tb  Tb0  1  0.750000  0.525202  0.813046  1
  Tb  Tb1  1  0.750000  0.022604  0.690824  1
  Er  Er2  1  0.250000  0.486753  0.194124  1
  Er  Er3  1  0.250000  0.977256  0.300424  1
  Ga  Ga4  1  0.250000  0.829622  0.931183  1
  Ga  Ga5  1  0.750000  0.158527  0.073102  1
  Ga  Ga6  1  0.250000  0.333140  0.570434  1
  Ga  Ga7  1  0.750000  0.670495  0.425314  1
  Pd  Pd8  1  0.250000  0.222118  0.898743  1
  Pd  Pd9  1  0.750000  0.280819  0.393876  1
  Pd  Pd10  1  0.250000  0.723324  0.603679  1
  Ru  Ru11  1  0.750000  0.770142  0.105251  1
