# generated using pymatgen
data_Tb11Tl8InPdRh3
_symmetry_space_group_name_H-M   'P 1'
_cell_length_a   13.30964214
_cell_length_b   13.31422589
_cell_length_c   3.71010400
_cell_angle_alpha   90.00000000
_cell_angle_beta   90.00000000
_cell_angle_gamma   111.14564024
_symmetry_Int_Tables_number   1
_chemical_formula_structural   Tb11Tl8InPdRh3
_chemical_formula_sum   'Tb11 Tl8 In1 Pd1 Rh3'
_cell_volume   613.18955661
_cell_formula_units_Z   1
loop_
 _symmetry_equiv_pos_site_id
 _symmetry_equiv_pos_as_xyz
  1  'x, y, z'
loop_
 _atom_site_type_symbol
 _atom_site_label
 _atom_site_symmetry_multiplicity
 _atom_site_fract_x
 _atom_site_fract_y
 _atom_site_fract_z
 _atom_site_occupancy
  Tb  Tb0  1  0.418914  0.083554  0.000000  1
  Tb  Tb1  1  0.579000  0.917311  0.000000  1
  Tb  Tb2  1  0.085053  0.420564  0.000000  1
  Tb  Tb3  1  0.921847  0.580870  0.000000  1
  Tb  Tb4  1  0.159655  0.840932  0.000000  1
  Tb  Tb5  1  0.840429  0.159364  0.000000  1
  Tb  Tb6  1  0.374894  0.624114  0.000000  1
  Tb  Tb7  1  0.619086  0.368254  0.000000  1
  Tb  Tb8  1  0.312087  0.312961  0.000000  1
  Tb  Tb9  1  0.684807  0.691864  0.000000  1
  Tb  Tb10  1  0.999702  0.999804  0.000000  1
  Tl  Tl11  1  0.367804  0.843936  0.500000  1
  Tl  Tl12  1  0.631973  0.155395  0.500000  1
  Tl  Tl13  1  0.846900  0.368497  0.500000  1
  Tl  Tl14  1  0.157322  0.631853  0.500000  1
  Tl  Tl15  1  0.217349  0.072553  0.500000  1
  Tl  Tl16  1  0.781786  0.928097  0.500000  1
  Tl  Tl17  1  0.071786  0.217622  0.500000  1
  Tl  Tl18  1  0.929537  0.782502  0.500000  1
  In  In19  1  0.499764  0.500397  0.500000  1
  Pd  Pd20  1  0.749302  0.548231  0.500000  1
  Rh  Rh21  1  0.450753  0.249408  0.500000  1
  Rh  Rh22  1  0.551110  0.752613  0.500000  1
  Rh  Rh23  1  0.249140  0.449305  0.500000  1
