# generated using pymatgen
data_SrTb5NdFeI12
_symmetry_space_group_name_H-M   'P 1'
_cell_length_a   9.89867398
_cell_length_b   9.83322952
_cell_length_c   9.82565882
_cell_angle_alpha   106.07713554
_cell_angle_beta   106.37102836
_cell_angle_gamma   106.55811690
_symmetry_Int_Tables_number   1
_chemical_formula_structural   SrTb5NdFeI12
_chemical_formula_sum   'Sr1 Tb5 Nd1 Fe1 I12'
_cell_volume   810.48522453
_cell_formula_units_Z   1
loop_
 _symmetry_equiv_pos_site_id
 _symmetry_equiv_pos_as_xyz
  1  'x, y, z'
loop_
 _atom_site_type_symbol
 _atom_site_label
 _atom_site_symmetry_multiplicity
 _atom_site_fract_x
 _atom_site_fract_y
 _atom_site_fract_z
 _atom_site_occupancy
  Sr  Sr0  1  0.500054  0.499780  0.500400  1
  Tb  Tb1  1  0.019173  0.089247  0.283522  1
  Tb  Tb2  1  0.296678  0.021108  0.093963  1
  Tb  Tb3  1  0.910217  0.717857  0.980175  1
  Tb  Tb4  1  0.980273  0.908710  0.716472  1
  Tb  Tb5  1  0.702957  0.979020  0.906030  1
  Nd  Nd6  1  0.091566  0.289769  0.019699  1
  Fe  Fe7  1  0.000283  0.001255  0.999767  1
  I  I8  1  0.453801  0.367563  0.139114  1
  I  I9  1  0.137318  0.447041  0.374458  1
  I  I10  1  0.365043  0.134628  0.445923  1
  I  I11  1  0.554749  0.632500  0.864960  1
  I  I12  1  0.863684  0.553817  0.634041  1
  I  I13  1  0.635050  0.864624  0.553772  1
  I  I14  1  0.769235  0.316784  0.923664  1
  I  I15  1  0.926021  0.775949  0.316854  1
  I  I16  1  0.318143  0.925757  0.775841  1
  I  I17  1  0.222343  0.683603  0.074148  1
  I  I18  1  0.071773  0.217707  0.673208  1
  I  I19  1  0.681639  0.073279  0.223987  1
