# generated using pymatgen
data_Dy20IrRu10Au
_symmetry_space_group_name_H-M   'P 1'
_cell_length_a   10.86563163
_cell_length_b   10.86563178
_cell_length_c   6.41006461
_cell_angle_alpha   89.90350064
_cell_angle_beta   89.90350154
_cell_angle_gamma   89.53829727
_symmetry_Int_Tables_number   1
_chemical_formula_structural   Dy20IrRu10Au
_chemical_formula_sum   'Dy20 Ir1 Ru10 Au1'
_cell_volume   756.75804244
_cell_formula_units_Z   1
loop_
 _symmetry_equiv_pos_site_id
 _symmetry_equiv_pos_as_xyz
  1  'x, y, z'
loop_
 _atom_site_type_symbol
 _atom_site_label
 _atom_site_symmetry_multiplicity
 _atom_site_fract_x
 _atom_site_fract_y
 _atom_site_fract_z
 _atom_site_occupancy
  Dy  Dy0  1  0.287925  0.084838  0.377669  1
  Dy  Dy1  1  0.294143  0.913196  0.877116  1
  Dy  Dy2  1  0.702310  0.081917  0.863355  1
  Dy  Dy3  1  0.702940  0.905823  0.380427  1
  Dy  Dy4  1  0.586410  0.790163  0.879561  1
  Dy  Dy5  1  0.575356  0.207077  0.374168  1
  Dy  Dy6  1  0.412399  0.790811  0.377860  1
  Dy  Dy7  1  0.412330  0.207594  0.877713  1
  Dy  Dy8  1  0.209837  0.413590  0.620439  1
  Dy  Dy9  1  0.209189  0.587601  0.122140  1
  Dy  Dy10  1  0.792923  0.424644  0.125832  1
  Dy  Dy11  1  0.792406  0.587670  0.622287  1
  Dy  Dy12  1  0.915162  0.712075  0.122331  1
  Dy  Dy13  1  0.918083  0.297690  0.636645  1
  Dy  Dy14  1  0.086804  0.705857  0.622884  1
  Dy  Dy15  1  0.094177  0.297060  0.119573  1
  Dy  Dy16  1  0.001740  0.994390  0.503626  1
  Dy  Dy17  1  0.005610  0.998260  0.996374  1
  Dy  Dy18  1  0.501996  0.498140  0.999887  1
  Dy  Dy19  1  0.501860  0.498004  0.500113  1
  Ir  Ir20  1  0.347197  0.652803  0.750000  1
  Ru  Ru21  1  0.848195  0.849753  0.751052  1
  Ru  Ru22  1  0.150247  0.151805  0.748948  1
  Ru  Ru23  1  0.153517  0.846483  0.250000  1
  Ru  Ru24  1  0.655326  0.344674  0.750000  1
  Ru  Ru25  1  0.651163  0.652875  0.252024  1
  Ru  Ru26  1  0.347125  0.348837  0.247976  1
  Ru  Ru27  1  0.498814  0.998366  0.125322  1
  Ru  Ru28  1  0.499016  0.998442  0.623427  1
  Ru  Ru29  1  0.001558  0.500984  0.876573  1
  Ru  Ru30  1  0.001634  0.501186  0.374678  1
  Au  Au31  1  0.842607  0.157393  0.250000  1
