# generated using pymatgen
data_AcHoCu2Ni5
_symmetry_space_group_name_H-M   'P 1'
_cell_length_a   5.12900434
_cell_length_b   5.12900187
_cell_length_c   12.38576600
_cell_angle_alpha   78.05033062
_cell_angle_beta   78.05032506
_cell_angle_gamma   59.99999554
_symmetry_Int_Tables_number   1
_chemical_formula_structural   AcHoCu2Ni5
_chemical_formula_sum   'Ac2 Ho2 Cu4 Ni10'
_cell_volume   273.99219447
_cell_formula_units_Z   2
loop_
 _symmetry_equiv_pos_site_id
 _symmetry_equiv_pos_as_xyz
  1  'x, y, z'
loop_
 _atom_site_type_symbol
 _atom_site_label
 _atom_site_symmetry_multiplicity
 _atom_site_fract_x
 _atom_site_fract_y
 _atom_site_fract_z
 _atom_site_occupancy
  Ac  Ac0  1  0.947606  0.947606  0.157181  1
  Ac  Ac1  1  0.052394  0.052394  0.842819  1
  Ho  Ho2  1  0.850937  0.850937  0.447190  1
  Ho  Ho3  1  0.149063  0.149063  0.552810  1
  Cu  Cu4  1  0.722933  0.722933  0.831203  1
  Cu  Cu5  1  0.277067  0.277067  0.168797  1
  Cu  Cu6  1  0.610085  0.610085  0.169745  1
  Cu  Cu7  1  0.389915  0.389915  0.830255  1
  Ni  Ni8  1  0.500000  0.500000  0.500000  1
  Ni  Ni9  1  0.000000  0.500000  0.000000  1
  Ni  Ni10  1  0.500000  0.000000  0.000000  1
  Ni  Ni11  1  0.500000  0.500000  0.000000  1
  Ni  Ni12  1  0.385576  0.385576  0.338107  1
  Ni  Ni13  1  0.890742  0.385576  0.338107  1
  Ni  Ni14  1  0.385576  0.890742  0.338107  1
  Ni  Ni15  1  0.614424  0.614424  0.661893  1
  Ni  Ni16  1  0.109258  0.614424  0.661893  1
  Ni  Ni17  1  0.614424  0.109258  0.661893  1
