# generated using pymatgen
data_Pr2Nd2HoRu2
_symmetry_space_group_name_H-M   'P 1'
_cell_length_a   6.60774976
_cell_length_b   7.35289268
_cell_length_c   8.82757291
_cell_angle_alpha   96.01920133
_cell_angle_beta   111.97905874
_cell_angle_gamma   89.99999337
_symmetry_Int_Tables_number   1
_chemical_formula_structural   Pr2Nd2HoRu2
_chemical_formula_sum   'Pr4 Nd4 Ho2 Ru4'
_cell_volume   395.17411116
_cell_formula_units_Z   2
loop_
 _symmetry_equiv_pos_site_id
 _symmetry_equiv_pos_as_xyz
  1  'x, y, z'
loop_
 _atom_site_type_symbol
 _atom_site_label
 _atom_site_symmetry_multiplicity
 _atom_site_fract_x
 _atom_site_fract_y
 _atom_site_fract_z
 _atom_site_occupancy
  Pr  Pr0  1  0.977339  0.915951  0.183194  1
  Pr  Pr1  1  0.794145  0.584049  0.816806  1
  Pr  Pr2  1  0.022661  0.084049  0.816806  1
  Pr  Pr3  1  0.205855  0.415951  0.183194  1
  Nd  Nd4  1  0.638503  0.813427  0.429897  1
  Nd  Nd5  1  0.208605  0.686573  0.570103  1
  Nd  Nd6  1  0.361497  0.186573  0.570103  1
  Nd  Nd7  1  0.791395  0.313427  0.429897  1
  Ho  Ho8  1  0.428957  0.750000  0.000000  1
  Ho  Ho9  1  0.571043  0.250000  0.000000  1
  Ru  Ru10  1  0.814286  0.572586  0.215600  1
  Ru  Ru11  1  0.598685  0.927414  0.784400  1
  Ru  Ru12  1  0.185714  0.427414  0.784400  1
  Ru  Ru13  1  0.401315  0.072586  0.215600  1
