# generated using pymatgen
data_TbY2Mn(Co4P3)2
_symmetry_space_group_name_H-M   'P 1'
_cell_length_a   3.68841000
_cell_length_b   10.52740000
_cell_length_c   12.18283000
_cell_angle_alpha   90.00000000
_cell_angle_beta   90.00000000
_cell_angle_gamma   90.00000000
_symmetry_Int_Tables_number   1
_chemical_formula_structural   TbY2Mn(Co4P3)2
_chemical_formula_sum   'Tb2 Y4 Mn2 Co16 P12'
_cell_volume   473.05158246
_cell_formula_units_Z   2
loop_
 _symmetry_equiv_pos_site_id
 _symmetry_equiv_pos_as_xyz
  1  'x, y, z'
loop_
 _atom_site_type_symbol
 _atom_site_label
 _atom_site_symmetry_multiplicity
 _atom_site_fract_x
 _atom_site_fract_y
 _atom_site_fract_z
 _atom_site_occupancy
  Tb  Tb0  1  0.000000  0.500000  0.522504  1
  Tb  Tb1  1  0.500000  0.000000  0.477496  1
  Y  Y2  1  0.500000  0.817937  0.205220  1
  Y  Y3  1  0.500000  0.182063  0.205220  1
  Y  Y4  1  0.000000  0.682063  0.794780  1
  Y  Y5  1  0.000000  0.317937  0.794780  1
  Mn  Mn6  1  0.500000  0.500000  0.158253  1
  Mn  Mn7  1  0.000000  0.000000  0.841747  1
  Co  Co8  1  0.500000  0.500000  0.702763  1
  Co  Co9  1  0.000000  0.000000  0.297237  1
  Co  Co10  1  0.000000  0.500000  0.986058  1
  Co  Co11  1  0.500000  0.000000  0.013942  1
  Co  Co12  1  0.500000  0.333197  0.994016  1
  Co  Co13  1  0.500000  0.666803  0.994016  1
  Co  Co14  1  0.000000  0.166803  0.005984  1
  Co  Co15  1  0.000000  0.833197  0.005984  1
  Co  Co16  1  0.500000  0.296628  0.430287  1
  Co  Co17  1  0.500000  0.703372  0.430287  1
  Co  Co18  1  0.000000  0.203372  0.569713  1
  Co  Co19  1  0.000000  0.796628  0.569713  1
  Co  Co20  1  0.500000  0.879754  0.709732  1
  Co  Co21  1  0.500000  0.120246  0.709732  1
  Co  Co22  1  0.000000  0.620246  0.290268  1
  Co  Co23  1  0.000000  0.379754  0.290268  1
  P  P24  1  0.500000  0.500000  0.882722  1
  P  P25  1  0.000000  0.000000  0.117278  1
  P  P26  1  0.500000  0.500000  0.344269  1
  P  P27  1  0.000000  0.000000  0.655731  1
  P  P28  1  0.500000  0.310647  0.616016  1
  P  P29  1  0.500000  0.689353  0.616016  1
  P  P30  1  0.000000  0.189353  0.383984  1
  P  P31  1  0.000000  0.810647  0.383984  1
  P  P32  1  0.500000  0.847406  0.893269  1
  P  P33  1  0.500000  0.152594  0.893269  1
  P  P34  1  0.000000  0.652594  0.106731  1
  P  P35  1  0.000000  0.347406  0.106731  1
