# generated using pymatgen
data_Tb8CdNi2Ag
_symmetry_space_group_name_H-M   'P 1'
_cell_length_a   9.53587856
_cell_length_b   9.53587789
_cell_length_c   9.51769400
_cell_angle_alpha   60.06305947
_cell_angle_beta   60.06306177
_cell_angle_gamma   60.08420336
_symmetry_Int_Tables_number   1
_chemical_formula_structural   Tb8CdNi2Ag
_chemical_formula_sum   'Tb16 Cd2 Ni4 Ag2'
_cell_volume   612.95354841
_cell_formula_units_Z   2
loop_
 _symmetry_equiv_pos_site_id
 _symmetry_equiv_pos_as_xyz
  1  'x, y, z'
loop_
 _atom_site_type_symbol
 _atom_site_label
 _atom_site_symmetry_multiplicity
 _atom_site_fract_x
 _atom_site_fract_y
 _atom_site_fract_z
 _atom_site_occupancy
  Tb  Tb0  1  0.348795  0.348795  0.347810  1
  Tb  Tb1  1  0.348795  0.348795  0.954601  1
  Tb  Tb2  1  0.350845  0.950047  0.349554  1
  Tb  Tb3  1  0.950047  0.350845  0.349554  1
  Tb  Tb4  1  0.811489  0.188887  0.189814  1
  Tb  Tb5  1  0.188887  0.811489  0.809809  1
  Tb  Tb6  1  0.188887  0.811489  0.189814  1
  Tb  Tb7  1  0.811489  0.188887  0.809809  1
  Tb  Tb8  1  0.189730  0.189730  0.810270  1
  Tb  Tb9  1  0.811195  0.811195  0.188805  1
  Tb  Tb10  1  0.933038  0.563822  0.564696  1
  Tb  Tb11  1  0.563822  0.933038  0.938443  1
  Tb  Tb12  1  0.563822  0.933038  0.564696  1
  Tb  Tb13  1  0.933038  0.563822  0.938443  1
  Tb  Tb14  1  0.563605  0.563605  0.936395  1
  Tb  Tb15  1  0.935817  0.935817  0.564183  1
  Cd  Cd16  1  0.581471  0.259127  0.579701  1
  Cd  Cd17  1  0.259127  0.581471  0.579701  1
  Ni  Ni18  1  0.142919  0.142919  0.143134  1
  Ni  Ni19  1  0.142919  0.142919  0.571028  1
  Ni  Ni20  1  0.141896  0.572280  0.142912  1
  Ni  Ni21  1  0.572280  0.141896  0.142912  1
  Ag  Ag22  1  0.583043  0.583043  0.581649  1
  Ag  Ag23  1  0.583043  0.583043  0.252265  1
