# generated using pymatgen
data_NdScFe3P7Ru9
_symmetry_space_group_name_H-M   'P 1'
_cell_length_a   9.30424700
_cell_length_b   9.30424515
_cell_length_c   3.85297500
_cell_angle_alpha   90.00000000
_cell_angle_beta   90.00000000
_cell_angle_gamma   119.99999590
_symmetry_Int_Tables_number   1
_chemical_formula_structural   NdScFe3P7Ru9
_chemical_formula_sum   'Nd1 Sc1 Fe3 P7 Ru9'
_cell_volume   288.86120381
_cell_formula_units_Z   1
loop_
 _symmetry_equiv_pos_site_id
 _symmetry_equiv_pos_as_xyz
  1  'x, y, z'
loop_
 _atom_site_type_symbol
 _atom_site_label
 _atom_site_symmetry_multiplicity
 _atom_site_fract_x
 _atom_site_fract_y
 _atom_site_fract_z
 _atom_site_occupancy
  Nd  Nd0  1  0.333333  0.666667  0.000000  1
  Sc  Sc1  1  0.666667  0.333333  0.500000  1
  Fe  Fe2  1  0.732126  0.892008  0.000000  1
  Fe  Fe3  1  0.107992  0.840117  0.000000  1
  Fe  Fe4  1  0.159883  0.267874  0.000000  1
  P  P5  1  0.607837  0.723433  0.500000  1
  P  P6  1  0.000000  0.000000  0.000000  1
  P  P7  1  0.276567  0.884404  0.500000  1
  P  P8  1  0.115596  0.392163  0.500000  1
  P  P9  1  0.888961  0.579837  0.000000  1
  P  P10  1  0.420163  0.309124  0.000000  1
  P  P11  1  0.690876  0.111039  0.000000  1
  Ru  Ru12  1  0.563875  0.954826  0.500000  1
  Ru  Ru13  1  0.390952  0.436125  0.500000  1
  Ru  Ru14  1  0.912713  0.114881  0.500000  1
  Ru  Ru15  1  0.202168  0.087287  0.500000  1
  Ru  Ru16  1  0.885119  0.797832  0.500000  1
  Ru  Ru17  1  0.420291  0.065325  0.000000  1
  Ru  Ru18  1  0.934675  0.354968  0.000000  1
  Ru  Ru19  1  0.645032  0.579709  0.000000  1
  Ru  Ru20  1  0.045174  0.609048  0.500000  1
