# generated using pymatgen
data_Yb4SmTh3(ReC2)4
_symmetry_space_group_name_H-M   'P 1'
_cell_length_a   5.22946500
_cell_length_b   6.53550245
_cell_length_c   10.35231786
_cell_angle_alpha   90.09911481
_cell_angle_beta   90.00000000
_cell_angle_gamma   90.00000000
_symmetry_Int_Tables_number   1
_chemical_formula_structural   Yb4SmTh3(ReC2)4
_chemical_formula_sum   'Yb4 Sm1 Th3 Re4 C8'
_cell_volume   353.81251533
_cell_formula_units_Z   1
loop_
 _symmetry_equiv_pos_site_id
 _symmetry_equiv_pos_as_xyz
  1  'x, y, z'
loop_
 _atom_site_type_symbol
 _atom_site_label
 _atom_site_symmetry_multiplicity
 _atom_site_fract_x
 _atom_site_fract_y
 _atom_site_fract_z
 _atom_site_occupancy
  Yb  Yb0  1  0.250000  0.533543  0.231889  1
  Yb  Yb1  1  0.750000  0.467808  0.769739  1
  Yb  Yb2  1  0.750000  0.965121  0.726403  1
  Yb  Yb3  1  0.250000  0.031783  0.272610  1
  Sm  Sm4  1  0.250000  0.701543  0.555309  1
  Th  Th5  1  0.750000  0.300536  0.445411  1
  Th  Th6  1  0.750000  0.796824  0.055513  1
  Th  Th7  1  0.250000  0.202208  0.947337  1
  Re  Re8  1  0.250000  0.728375  0.859635  1
  Re  Re9  1  0.750000  0.273035  0.137848  1
  Re  Re10  1  0.750000  0.773008  0.361950  1
  Re  Re11  1  0.250000  0.228824  0.639533  1
  C  C12  1  0.250000  0.468364  0.755359  1
  C  C13  1  0.750000  0.532010  0.246249  1
  C  C14  1  0.750000  0.033823  0.254918  1
  C  C15  1  0.250000  0.967852  0.744172  1
  C  C16  1  0.250000  0.822702  0.038899  1
  C  C17  1  0.750000  0.178231  0.959136  1
  C  C18  1  0.750000  0.679301  0.537266  1
  C  C19  1  0.250000  0.315109  0.460826  1
