# generated using pymatgen
data_Nd17Er2TmSn16
_symmetry_space_group_name_H-M   'P 1'
_cell_length_a   8.25476500
_cell_length_b   8.40903227
_cell_length_c   15.95243900
_cell_angle_alpha   90.00000000
_cell_angle_beta   90.00000000
_cell_angle_gamma   89.96845985
_symmetry_Int_Tables_number   1
_chemical_formula_structural   Nd17Er2TmSn16
_chemical_formula_sum   'Nd17 Er2 Tm1 Sn16'
_cell_volume   1107.33176993
_cell_formula_units_Z   1
loop_
 _symmetry_equiv_pos_site_id
 _symmetry_equiv_pos_as_xyz
  1  'x, y, z'
loop_
 _atom_site_type_symbol
 _atom_site_label
 _atom_site_symmetry_multiplicity
 _atom_site_fract_x
 _atom_site_fract_y
 _atom_site_fract_z
 _atom_site_occupancy
  Nd  Nd0  1  0.017982  0.181167  0.401576  1
  Nd  Nd1  1  0.367520  0.837868  0.120692  1
  Nd  Nd2  1  0.133208  0.336948  0.620697  1
  Nd  Nd3  1  0.481449  0.681873  0.901941  1
  Nd  Nd4  1  0.867200  0.662153  0.121791  1
  Nd  Nd5  1  0.133208  0.336948  0.879303  1
  Nd  Nd6  1  0.481449  0.681873  0.598059  1
  Nd  Nd7  1  0.631522  0.162241  0.620376  1
  Nd  Nd8  1  0.803212  0.498004  0.750000  1
  Nd  Nd9  1  0.867200  0.662153  0.378209  1
  Nd  Nd10  1  0.017982  0.181167  0.098424  1
  Nd  Nd11  1  0.982427  0.819599  0.901827  1
  Nd  Nd12  1  0.631522  0.162241  0.879624  1
  Nd  Nd13  1  0.518215  0.318906  0.099022  1
  Nd  Nd14  1  0.367520  0.837868  0.379308  1
  Nd  Nd15  1  0.982427  0.819599  0.598173  1
  Nd  Nd16  1  0.518215  0.318906  0.400978  1
  Er  Er17  1  0.198750  0.502223  0.250000  1
  Er  Er18  1  0.699049  0.998029  0.250000  1
  Tm  Tm19  1  0.301219  0.002874  0.750000  1
  Sn  Sn20  1  0.792285  0.463650  0.541300  1
  Sn  Sn21  1  0.708054  0.964854  0.455504  1
  Sn  Sn22  1  0.674338  0.857919  0.750000  1
  Sn  Sn23  1  0.207429  0.534556  0.455549  1
  Sn  Sn24  1  0.292270  0.034662  0.955940  1
  Sn  Sn25  1  0.824660  0.352087  0.250000  1
  Sn  Sn26  1  0.792285  0.463650  0.958700  1
  Sn  Sn27  1  0.563237  0.616919  0.250000  1
  Sn  Sn28  1  0.207429  0.534556  0.044451  1
  Sn  Sn29  1  0.432335  0.382277  0.750000  1
  Sn  Sn30  1  0.178257  0.648706  0.750000  1
  Sn  Sn31  1  0.937388  0.114159  0.750000  1
  Sn  Sn32  1  0.292270  0.034662  0.544060  1
  Sn  Sn33  1  0.708054  0.964854  0.044496  1
  Sn  Sn34  1  0.323994  0.146669  0.250000  1
  Sn  Sn35  1  0.064444  0.883180  0.250000  1
