# generated using pymatgen
data_HoLu3Mo4F28
_symmetry_space_group_name_H-M   'P 1'
_cell_length_a   5.51567627
_cell_length_b   8.82109602
_cell_length_c   11.95100700
_cell_angle_alpha   62.69585369
_cell_angle_beta   89.94801941
_cell_angle_gamma   89.96691296
_symmetry_Int_Tables_number   1
_chemical_formula_structural   HoLu3Mo4F28
_chemical_formula_sum   'Ho1 Lu3 Mo4 F28'
_cell_volume   516.68296217
_cell_formula_units_Z   1
loop_
 _symmetry_equiv_pos_site_id
 _symmetry_equiv_pos_as_xyz
  1  'x, y, z'
loop_
 _atom_site_type_symbol
 _atom_site_label
 _atom_site_symmetry_multiplicity
 _atom_site_fract_x
 _atom_site_fract_y
 _atom_site_fract_z
 _atom_site_occupancy
  Ho  Ho0  1  0.257391  0.815843  0.264869  1
  Lu  Lu1  1  0.742097  0.184202  0.735033  1
  Lu  Lu2  1  0.758998  0.187025  0.234923  1
  Lu  Lu3  1  0.243020  0.816373  0.765200  1
  Mo  Mo4  1  0.756832  0.726371  0.041168  1
  Mo  Mo5  1  0.242452  0.274736  0.956248  1
  Mo  Mo6  1  0.257309  0.271665  0.458042  1
  Mo  Mo7  1  0.743257  0.726287  0.544712  1
  F  F8  1  0.952657  0.705733  0.413548  1
  F  F9  1  0.048828  0.292076  0.585889  1
  F  F10  1  0.452859  0.293663  0.085796  1
  F  F11  1  0.549647  0.706686  0.913498  1
  F  F12  1  0.461849  0.727814  0.140582  1
  F  F13  1  0.534668  0.269983  0.858312  1
  F  F14  1  0.962401  0.270293  0.358174  1
  F  F15  1  0.034187  0.730580  0.640892  1
  F  F16  1  0.955808  0.745305  0.173018  1
  F  F17  1  0.037027  0.253585  0.824272  1
  F  F18  1  0.460585  0.252330  0.326304  1
  F  F19  1  0.536443  0.746959  0.677741  1
  F  F20  1  0.772219  0.475229  0.141694  1
  F  F21  1  0.226573  0.525674  0.857277  1
  F  F22  1  0.273633  0.521800  0.358666  1
  F  F23  1  0.726992  0.475182  0.642527  1
  F  F24  1  0.936697  0.275853  0.048377  1
  F  F25  1  0.066869  0.725361  0.949228  1
  F  F26  1  0.440164  0.722287  0.454927  1
  F  F27  1  0.565180  0.274241  0.550663  1
  F  F28  1  0.737737  0.976490  0.446494  1
  F  F29  1  0.260076  0.021161  0.555136  1
  F  F30  1  0.237700  0.023987  0.052389  1
  F  F31  1  0.760504  0.977275  0.944587  1
  F  F32  1  0.586134  0.973254  0.232192  1
  F  F33  1  0.421032  0.028500  0.767914  1
  F  F34  1  0.079544  0.034588  0.267651  1
  F  F35  1  0.920632  0.971608  0.732055  1
