# generated using pymatgen
data_LiLuSi4Tc3
_symmetry_space_group_name_H-M   'P 1'
_cell_length_a   6.65831800
_cell_length_b   6.54598260
_cell_length_c   6.65399000
_cell_angle_alpha   70.64452705
_cell_angle_beta   90.00000000
_cell_angle_gamma   90.00000000
_symmetry_Int_Tables_number   1
_chemical_formula_structural   LiLuSi4Tc3
_chemical_formula_sum   'Li2 Lu2 Si8 Tc6'
_cell_volume   273.62416959
_cell_formula_units_Z   2
loop_
 _symmetry_equiv_pos_site_id
 _symmetry_equiv_pos_as_xyz
  1  'x, y, z'
loop_
 _atom_site_type_symbol
 _atom_site_label
 _atom_site_symmetry_multiplicity
 _atom_site_fract_x
 _atom_site_fract_y
 _atom_site_fract_z
 _atom_site_occupancy
  Li  Li0  1  0.164415  0.960131  0.182822  1
  Li  Li1  1  0.335585  0.460131  0.182822  1
  Lu  Lu2  1  0.837586  0.056596  0.812077  1
  Lu  Lu3  1  0.662414  0.556596  0.812077  1
  Si  Si4  1  0.523324  0.127069  0.108673  1
  Si  Si5  1  0.351517  0.638773  0.480314  1
  Si  Si6  1  0.874691  0.864164  0.488348  1
  Si  Si7  1  0.055162  0.368906  0.920431  1
  Si  Si8  1  0.148483  0.138773  0.480314  1
  Si  Si9  1  0.625309  0.364164  0.488348  1
  Si  Si10  1  0.976676  0.627069  0.108673  1
  Si  Si11  1  0.444838  0.868906  0.920431  1
  Tc  Tc12  1  0.838393  0.241857  0.240145  1
  Tc  Tc13  1  0.338962  0.249920  0.760268  1
  Tc  Tc14  1  0.161038  0.749920  0.760268  1
  Tc  Tc15  1  0.661607  0.741857  0.240145  1
  Tc  Tc16  1  0.501091  0.992584  0.506926  1
  Tc  Tc17  1  0.998909  0.492584  0.506926  1
