# generated using pymatgen
data_Ca3Nd(NiH6)2
_symmetry_space_group_name_H-M   'P 1'
_cell_length_a   7.05348097
_cell_length_b   7.05348013
_cell_length_c   5.08785602
_cell_angle_alpha   90.00198809
_cell_angle_beta   90.00198482
_cell_angle_gamma   137.68041939
_symmetry_Int_Tables_number   1
_chemical_formula_structural   Ca3Nd(NiH6)2
_chemical_formula_sum   'Ca3 Nd1 Ni2 H12'
_cell_volume   170.42289942
_cell_formula_units_Z   1
loop_
 _symmetry_equiv_pos_site_id
 _symmetry_equiv_pos_as_xyz
  1  'x, y, z'
loop_
 _atom_site_type_symbol
 _atom_site_label
 _atom_site_symmetry_multiplicity
 _atom_site_fract_x
 _atom_site_fract_y
 _atom_site_fract_z
 _atom_site_occupancy
  Ca  Ca0  1  0.645202  0.354798  0.000000  1
  Ca  Ca1  1  0.856009  0.143991  0.500000  1
  Ca  Ca2  1  0.358043  0.641957  0.000000  1
  Nd  Nd3  1  0.142463  0.857537  0.500000  1
  Ni  Ni4  1  0.500960  0.499040  0.500000  1
  Ni  Ni5  1  0.000267  0.999733  0.000000  1
  H  H6  1  0.000455  0.503725  0.749045  1
  H  H7  1  0.496275  0.999545  0.250955  1
  H  H8  1  0.000379  0.503635  0.250999  1
  H  H9  1  0.496365  0.999621  0.749001  1
  H  H10  1  0.380607  0.619393  0.500000  1
  H  H11  1  0.879704  0.120296  0.000000  1
  H  H12  1  0.621131  0.378869  0.500000  1
  H  H13  1  0.120228  0.879772  0.000000  1
  H  H14  1  0.249865  0.248912  0.747667  1
  H  H15  1  0.751088  0.750135  0.252333  1
  H  H16  1  0.248969  0.248005  0.251176  1
  H  H17  1  0.751995  0.751031  0.748824  1
