# generated using pymatgen
data_Cs3NaSn3Se8
_symmetry_space_group_name_H-M   'P 1'
_cell_length_a   9.01489100
_cell_length_b   9.01489100
_cell_length_c   14.07793400
_cell_angle_alpha   90.00000000
_cell_angle_beta   90.00000000
_cell_angle_gamma   90.00000000
_symmetry_Int_Tables_number   1
_chemical_formula_structural   Cs3NaSn3Se8
_chemical_formula_sum   'Cs6 Na2 Sn6 Se16'
_cell_volume   1144.08919694
_cell_formula_units_Z   2
loop_
 _symmetry_equiv_pos_site_id
 _symmetry_equiv_pos_as_xyz
  1  'x, y, z'
loop_
 _atom_site_type_symbol
 _atom_site_label
 _atom_site_symmetry_multiplicity
 _atom_site_fract_x
 _atom_site_fract_y
 _atom_site_fract_z
 _atom_site_occupancy
  Cs  Cs0  1  0.000000  0.000000  0.215304  1
  Cs  Cs1  1  0.500000  0.500000  0.500000  1
  Cs  Cs2  1  0.000000  0.000000  0.784696  1
  Cs  Cs3  1  0.500000  0.500000  0.215304  1
  Cs  Cs4  1  0.500000  0.500000  0.784696  1
  Cs  Cs5  1  0.000000  0.000000  0.500000  1
  Na  Na6  1  0.500000  0.000000  0.500000  1
  Na  Na7  1  0.000000  0.500000  0.500000  1
  Sn  Sn8  1  0.000000  0.500000  0.746743  1
  Sn  Sn9  1  0.500000  0.000000  0.253257  1
  Sn  Sn10  1  0.500000  0.000000  0.746743  1
  Sn  Sn11  1  0.500000  0.000000  0.000000  1
  Sn  Sn12  1  0.000000  0.500000  0.253257  1
  Sn  Sn13  1  0.000000  0.500000  0.000000  1
  Se  Se14  1  0.834696  0.334696  0.350866  1
  Se  Se15  1  0.849261  0.650739  0.121623  1
  Se  Se16  1  0.150739  0.650739  0.878377  1
  Se  Se17  1  0.150739  0.349261  0.121623  1
  Se  Se18  1  0.650739  0.150739  0.121623  1
  Se  Se19  1  0.665304  0.165304  0.649134  1
  Se  Se20  1  0.334696  0.834696  0.649134  1
  Se  Se21  1  0.834696  0.665304  0.649134  1
  Se  Se22  1  0.165304  0.665304  0.350866  1
  Se  Se23  1  0.849261  0.349261  0.878377  1
  Se  Se24  1  0.349261  0.849261  0.121623  1
  Se  Se25  1  0.650739  0.849261  0.878377  1
  Se  Se26  1  0.334696  0.165304  0.350866  1
  Se  Se27  1  0.665304  0.834696  0.350866  1
  Se  Se28  1  0.349261  0.150739  0.878377  1
  Se  Se29  1  0.165304  0.334696  0.649134  1
