# generated using pymatgen
data_Ho4Al18Co5Ag
_symmetry_space_group_name_H-M   'P 1'
_cell_length_a   7.42868240
_cell_length_b   7.42868356
_cell_length_c   9.35202600
_cell_angle_alpha   89.92482354
_cell_angle_beta   89.92481582
_cell_angle_gamma   119.29913951
_symmetry_Int_Tables_number   1
_chemical_formula_structural   Ho4Al18Co5Ag
_chemical_formula_sum   'Ho4 Al18 Co5 Ag1'
_cell_volume   450.07256008
_cell_formula_units_Z   1
loop_
 _symmetry_equiv_pos_site_id
 _symmetry_equiv_pos_as_xyz
  1  'x, y, z'
loop_
 _atom_site_type_symbol
 _atom_site_label
 _atom_site_symmetry_multiplicity
 _atom_site_fract_x
 _atom_site_fract_y
 _atom_site_fract_z
 _atom_site_occupancy
  Ho  Ho0  1  0.995368  0.677170  0.251603  1
  Ho  Ho1  1  0.004632  0.322830  0.748397  1
  Ho  Ho2  1  0.677170  0.995368  0.251603  1
  Ho  Ho3  1  0.322830  0.004632  0.748397  1
  Al  Al4  1  0.136020  0.136020  0.262995  1
  Al  Al5  1  0.863980  0.863980  0.737005  1
  Al  Al6  1  0.331975  0.331975  0.543001  1
  Al  Al7  1  0.654830  0.654830  0.052647  1
  Al  Al8  1  0.345170  0.345170  0.947353  1
  Al  Al9  1  0.668025  0.668025  0.456999  1
  Al  Al10  1  0.339667  0.557725  0.252479  1
  Al  Al11  1  0.660333  0.442275  0.747521  1
  Al  Al12  1  0.557725  0.339667  0.252479  1
  Al  Al13  1  0.442275  0.660333  0.747521  1
  Al  Al14  1  0.000848  0.349084  0.076681  1
  Al  Al15  1  0.003314  0.663098  0.569750  1
  Al  Al16  1  0.336902  0.996686  0.430250  1
  Al  Al17  1  0.650916  0.999152  0.923319  1
  Al  Al18  1  0.999152  0.650916  0.923319  1
  Al  Al19  1  0.996686  0.336902  0.430250  1
  Al  Al20  1  0.663098  0.003314  0.569750  1
  Al  Al21  1  0.349084  0.000848  0.076681  1
  Co  Co22  1  0.000000  0.000000  0.500000  1
  Co  Co23  1  0.670979  0.329021  0.000000  1
  Co  Co24  1  0.328841  0.671159  0.500000  1
  Co  Co25  1  0.329021  0.670979  0.000000  1
  Co  Co26  1  0.671159  0.328841  0.500000  1
  Ag  Ag27  1  0.000000  0.000000  0.000000  1
