# generated using pymatgen
data_Ca2Tb3Sn3Cl
_symmetry_space_group_name_H-M   'P 1'
_cell_length_a   9.12888313
_cell_length_b   9.12621472
_cell_length_c   6.88131400
_cell_angle_alpha   90.00000000
_cell_angle_beta   90.00000000
_cell_angle_gamma   119.99033812
_symmetry_Int_Tables_number   1
_chemical_formula_structural   Ca2Tb3Sn3Cl
_chemical_formula_sum   'Ca4 Tb6 Sn6 Cl2'
_cell_volume   496.53813829
_cell_formula_units_Z   2
loop_
 _symmetry_equiv_pos_site_id
 _symmetry_equiv_pos_as_xyz
  1  'x, y, z'
loop_
 _atom_site_type_symbol
 _atom_site_label
 _atom_site_symmetry_multiplicity
 _atom_site_fract_x
 _atom_site_fract_y
 _atom_site_fract_z
 _atom_site_occupancy
  Ca  Ca0  1  0.743621  0.999101  0.750000  1
  Ca  Ca1  1  0.743621  0.744519  0.250000  1
  Ca  Ca2  1  0.999974  0.256170  0.250000  1
  Ca  Ca3  1  0.999974  0.743804  0.750000  1
  Tb  Tb4  1  0.669039  0.334519  0.000000  1
  Tb  Tb5  1  0.334279  0.667140  0.500000  1
  Tb  Tb6  1  0.669039  0.334519  0.500000  1
  Tb  Tb7  1  0.334279  0.667140  0.000000  1
  Tb  Tb8  1  0.256094  0.254776  0.750000  1
  Tb  Tb9  1  0.256094  0.001318  0.250000  1
  Sn  Sn10  1  0.596352  0.596884  0.750000  1
  Sn  Sn11  1  0.003604  0.607424  0.250000  1
  Sn  Sn12  1  0.596352  0.999468  0.250000  1
  Sn  Sn13  1  0.394342  0.002627  0.750000  1
  Sn  Sn14  1  0.003604  0.396181  0.750000  1
  Sn  Sn15  1  0.394342  0.391715  0.250000  1
  Cl  Cl16  1  0.002695  0.001348  0.500000  1
  Cl  Cl17  1  0.002695  0.001348  0.000000  1
