# generated using pymatgen
data_Yb12YHo7Ge16
_symmetry_space_group_name_H-M   'P 1'
_cell_length_a   7.43631804
_cell_length_b   7.86493502
_cell_length_c   15.15195803
_cell_angle_alpha   89.99877518
_cell_angle_beta   90.00736228
_cell_angle_gamma   90.00902448
_symmetry_Int_Tables_number   1
_chemical_formula_structural   Yb12YHo7Ge16
_chemical_formula_sum   'Yb12 Y1 Ho7 Ge16'
_cell_volume   886.17979594
_cell_formula_units_Z   1
loop_
 _symmetry_equiv_pos_site_id
 _symmetry_equiv_pos_as_xyz
  1  'x, y, z'
loop_
 _atom_site_type_symbol
 _atom_site_label
 _atom_site_symmetry_multiplicity
 _atom_site_fract_x
 _atom_site_fract_y
 _atom_site_fract_z
 _atom_site_occupancy
  Yb  Yb0  1  0.979039  0.814257  0.404537  1
  Yb  Yb1  1  0.479048  0.685711  0.095468  1
  Yb  Yb2  1  0.520953  0.314277  0.595476  1
  Yb  Yb3  1  0.020925  0.185729  0.904498  1
  Yb  Yb4  1  0.020957  0.185724  0.595478  1
  Yb  Yb5  1  0.521004  0.314286  0.904483  1
  Yb  Yb6  1  0.479045  0.685719  0.404528  1
  Yb  Yb7  1  0.978981  0.814208  0.095469  1
  Yb  Yb8  1  0.346859  0.018261  0.749999  1
  Yb  Yb9  1  0.846850  0.481733  0.750002  1
  Yb  Yb10  1  0.153109  0.518351  0.250036  1
  Yb  Yb11  1  0.653234  0.981669  0.250038  1
  Y  Y12  1  0.318465  0.172715  0.121269  1
  Ho  Ho13  1  0.818528  0.327366  0.378718  1
  Ho  Ho14  1  0.181461  0.672662  0.878689  1
  Ho  Ho15  1  0.681466  0.827344  0.621302  1
  Ho  Ho16  1  0.318546  0.172654  0.378719  1
  Ho  Ho17  1  0.818565  0.327395  0.121300  1
  Ho  Ho18  1  0.181459  0.672656  0.621299  1
  Ho  Ho19  1  0.681490  0.827313  0.878677  1
  Ge  Ge20  1  0.846273  0.533476  0.540239  1
  Ge  Ge21  1  0.346370  0.966298  0.959573  1
  Ge  Ge22  1  0.653722  0.033468  0.459761  1
  Ge  Ge23  1  0.153418  0.466947  0.040116  1
  Ge  Ge24  1  0.153722  0.466518  0.459758  1
  Ge  Ge25  1  0.654032  0.033334  0.040142  1
  Ge  Ge26  1  0.346279  0.966524  0.540242  1
  Ge  Ge27  1  0.846271  0.533490  0.959754  1
  Ge  Ge28  1  0.977473  0.882515  0.749996  1
  Ge  Ge29  1  0.477475  0.617486  0.750000  1
  Ge  Ge30  1  0.522766  0.382767  0.250160  1
  Ge  Ge31  1  0.022283  0.117377  0.250129  1
  Ge  Ge32  1  0.235136  0.384215  0.749999  1
  Ge  Ge33  1  0.735145  0.115777  0.750000  1
  Ge  Ge34  1  0.264770  0.883980  0.250143  1
  Ge  Ge35  1  0.764881  0.615796  0.250006  1
