# generated using pymatgen
data_V3RuI12
_symmetry_space_group_name_H-M   'P 1'
_cell_length_a   6.59842500
_cell_length_b   7.64123444
_cell_length_c   13.21776500
_cell_angle_alpha   90.00000000
_cell_angle_beta   90.00000000
_cell_angle_gamma   89.96481078
_symmetry_Int_Tables_number   1
_chemical_formula_structural   V3RuI12
_chemical_formula_sum   'V3 Ru1 I12'
_cell_volume   666.44107085
_cell_formula_units_Z   1
loop_
 _symmetry_equiv_pos_site_id
 _symmetry_equiv_pos_as_xyz
  1  'x, y, z'
loop_
 _atom_site_type_symbol
 _atom_site_label
 _atom_site_symmetry_multiplicity
 _atom_site_fract_x
 _atom_site_fract_y
 _atom_site_fract_z
 _atom_site_occupancy
  V  V0  1  0.740992  0.254128  0.500000  1
  V  V1  1  0.226217  0.745909  0.000000  1
  V  V2  1  0.259080  0.254131  0.500000  1
  Ru  Ru3  1  0.766987  0.745938  0.000000  1
  I  I4  1  0.000103  0.968231  0.500000  1
  I  I5  1  0.505190  0.022038  0.000000  1
  I  I6  1  0.499786  0.545415  0.500000  1
  I  I7  1  0.996909  0.455605  0.000000  1
  I  I8  1  0.999785  0.396717  0.356726  1
  I  I9  1  0.505863  0.608075  0.138343  1
  I  I10  1  0.999785  0.396717  0.643274  1
  I  I11  1  0.505863  0.608075  0.861657  1
  I  I12  1  0.996526  0.891005  0.145729  1
  I  I13  1  0.500195  0.108505  0.353840  1
  I  I14  1  0.996526  0.891005  0.854271  1
  I  I15  1  0.500195  0.108505  0.646160  1
