# generated using pymatgen
data_Er4Ga3Si
_symmetry_space_group_name_H-M   'P 1'
_cell_length_a   4.30880500
_cell_length_b   3.94172200
_cell_length_c   10.72776600
_cell_angle_alpha   90.00000000
_cell_angle_beta   90.00000000
_cell_angle_gamma   90.00000000
_symmetry_Int_Tables_number   1
_chemical_formula_structural   Er4Ga3Si
_chemical_formula_sum   'Er4 Ga3 Si1'
_cell_volume   182.20157348
_cell_formula_units_Z   1
loop_
 _symmetry_equiv_pos_site_id
 _symmetry_equiv_pos_as_xyz
  1  'x, y, z'
loop_
 _atom_site_type_symbol
 _atom_site_label
 _atom_site_symmetry_multiplicity
 _atom_site_fract_x
 _atom_site_fract_y
 _atom_site_fract_z
 _atom_site_occupancy
  Er  Er0  1  0.500000  0.500000  0.356126  1
  Er  Er1  1  0.000000  0.500000  0.861539  1
  Er  Er2  1  0.000000  0.000000  0.139527  1
  Er  Er3  1  0.500000  0.000000  0.641946  1
  Ga  Ga4  1  0.000000  0.500000  0.579337  1
  Ga  Ga5  1  0.000000  0.000000  0.419442  1
  Ga  Ga6  1  0.500000  0.000000  0.925377  1
  Si  Si7  1  0.500000  0.500000  0.076707  1
