# generated using pymatgen
data_Er5ThTcIr
_symmetry_space_group_name_H-M   'P 1'
_cell_length_a   6.32308200
_cell_length_b   7.28661100
_cell_length_c   9.28755900
_cell_angle_alpha   90.00000000
_cell_angle_beta   90.00000000
_cell_angle_gamma   90.00000000
_symmetry_Int_Tables_number   1
_chemical_formula_structural   Er5ThTcIr
_chemical_formula_sum   'Er10 Th2 Tc2 Ir2'
_cell_volume   427.91349672
_cell_formula_units_Z   2
loop_
 _symmetry_equiv_pos_site_id
 _symmetry_equiv_pos_as_xyz
  1  'x, y, z'
loop_
 _atom_site_type_symbol
 _atom_site_label
 _atom_site_symmetry_multiplicity
 _atom_site_fract_x
 _atom_site_fract_y
 _atom_site_fract_z
 _atom_site_occupancy
  Er  Er0  1  0.332345  0.676213  0.063312  1
  Er  Er1  1  0.167655  0.176213  0.436688  1
  Er  Er2  1  0.670099  0.323882  0.566576  1
  Er  Er3  1  0.829901  0.823882  0.933424  1
  Er  Er4  1  0.670099  0.323882  0.933424  1
  Er  Er5  1  0.829901  0.823882  0.566576  1
  Er  Er6  1  0.332345  0.676213  0.436688  1
  Er  Er7  1  0.167655  0.176213  0.063312  1
  Er  Er8  1  0.135085  0.461528  0.750000  1
  Er  Er9  1  0.364915  0.961528  0.750000  1
  Th  Th10  1  0.863107  0.547717  0.250000  1
  Th  Th11  1  0.636893  0.047717  0.250000  1
  Tc  Tc12  1  0.022968  0.873236  0.250000  1
  Tc  Tc13  1  0.477032  0.373236  0.250000  1
  Ir  Ir14  1  0.955998  0.117328  0.750000  1
  Ir  Ir15  1  0.544002  0.617328  0.750000  1
