# generated using pymatgen
data_Ho11ErGa9Si9Ge2
_symmetry_space_group_name_H-M   'P 1'
_cell_length_a   5.94084600
_cell_length_b   5.94084645
_cell_length_c   18.61949300
_cell_angle_alpha   90.00000000
_cell_angle_beta   90.00000000
_cell_angle_gamma   102.86645173
_symmetry_Int_Tables_number   1
_chemical_formula_structural   Ho11ErGa9Si9Ge2
_chemical_formula_sum   'Ho11 Er1 Ga9 Si9 Ge2'
_cell_volume   640.65005329
_cell_formula_units_Z   1
loop_
 _symmetry_equiv_pos_site_id
 _symmetry_equiv_pos_as_xyz
  1  'x, y, z'
loop_
 _atom_site_type_symbol
 _atom_site_label
 _atom_site_symmetry_multiplicity
 _atom_site_fract_x
 _atom_site_fract_y
 _atom_site_fract_z
 _atom_site_occupancy
  Ho  Ho0  1  0.659329  0.659329  0.500000  1
  Ho  Ho1  1  0.341493  0.341493  0.250404  1
  Ho  Ho2  1  0.341493  0.341493  0.749596  1
  Ho  Ho3  1  0.200430  0.802018  0.127820  1
  Ho  Ho4  1  0.198623  0.801556  0.625104  1
  Ho  Ho5  1  0.200430  0.802018  0.872180  1
  Ho  Ho6  1  0.198623  0.801556  0.374896  1
  Ho  Ho7  1  0.802018  0.200430  0.127820  1
  Ho  Ho8  1  0.801556  0.198623  0.625104  1
  Ho  Ho9  1  0.801556  0.198623  0.374896  1
  Ho  Ho10  1  0.802018  0.200430  0.872180  1
  Er  Er11  1  0.652129  0.652129  0.000000  1
  Ga  Ga12  1  0.317862  0.317862  0.902080  1
  Ga  Ga13  1  0.322869  0.322869  0.402107  1
  Ga  Ga14  1  0.678119  0.678119  0.347939  1
  Ga  Ga15  1  0.678009  0.678009  0.848037  1
  Ga  Ga16  1  0.317862  0.317862  0.097920  1
  Ga  Ga17  1  0.322869  0.322869  0.597893  1
  Ga  Ga18  1  0.678009  0.678009  0.151963  1
  Ga  Ga19  1  0.678119  0.678119  0.652061  1
  Ga  Ga20  1  0.038600  0.038600  0.000000  1
  Si  Si21  1  0.484118  0.087887  0.500000  1
  Si  Si22  1  0.913159  0.516938  0.250359  1
  Si  Si23  1  0.913159  0.516938  0.749641  1
  Si  Si24  1  0.516938  0.913159  0.250359  1
  Si  Si25  1  0.516938  0.913159  0.749641  1
  Si  Si26  1  0.087887  0.484118  0.500000  1
  Si  Si27  1  0.051563  0.051563  0.500000  1
  Si  Si28  1  0.949649  0.949649  0.250640  1
  Si  Si29  1  0.949649  0.949649  0.749360  1
  Ge  Ge30  1  0.498324  0.086603  0.000000  1
  Ge  Ge31  1  0.086603  0.498324  0.000000  1
