# generated using pymatgen
data_Ce3Th2SiSb3
_symmetry_space_group_name_H-M   'P 1'
_cell_length_a   9.50187900
_cell_length_b   9.50187880
_cell_length_c   6.39347600
_cell_angle_alpha   90.00000000
_cell_angle_beta   90.00000000
_cell_angle_gamma   120.03894768
_symmetry_Int_Tables_number   1
_chemical_formula_structural   Ce3Th2SiSb3
_chemical_formula_sum   'Ce6 Th4 Si2 Sb6'
_cell_volume   499.70773846
_cell_formula_units_Z   2
loop_
 _symmetry_equiv_pos_site_id
 _symmetry_equiv_pos_as_xyz
  1  'x, y, z'
loop_
 _atom_site_type_symbol
 _atom_site_label
 _atom_site_symmetry_multiplicity
 _atom_site_fract_x
 _atom_site_fract_y
 _atom_site_fract_z
 _atom_site_occupancy
  Ce  Ce0  1  0.667457  0.333723  0.000915  1
  Ce  Ce1  1  0.333723  0.667457  0.000915  1
  Ce  Ce2  1  0.333723  0.667457  0.499085  1
  Ce  Ce3  1  0.667457  0.333723  0.499085  1
  Ce  Ce4  1  0.737725  0.000306  0.250000  1
  Ce  Ce5  1  0.000306  0.737725  0.250000  1
  Th  Th6  1  0.741640  0.741640  0.750000  1
  Th  Th7  1  0.257355  0.000512  0.750000  1
  Th  Th8  1  0.000512  0.257355  0.750000  1
  Th  Th9  1  0.261962  0.261962  0.250000  1
  Si  Si10  1  0.997862  0.997862  0.010103  1
  Si  Si11  1  0.997862  0.997862  0.489897  1
  Sb  Sb12  1  0.390042  0.390042  0.750000  1
  Sb  Sb13  1  0.610860  0.000370  0.750000  1
  Sb  Sb14  1  0.000370  0.610860  0.750000  1
  Sb  Sb15  1  0.615029  0.615029  0.250000  1
  Sb  Sb16  1  0.386979  0.999135  0.250000  1
  Sb  Sb17  1  0.999135  0.386979  0.250000  1
