# generated using pymatgen
data_Tb2Pr5Nd3Ir4
_symmetry_space_group_name_H-M   'P 1'
_cell_length_a   6.69480872
_cell_length_b   7.30036537
_cell_length_c   9.05446634
_cell_angle_alpha   96.48959261
_cell_angle_beta   112.85352100
_cell_angle_gamma   90.02755440
_symmetry_Int_Tables_number   1
_chemical_formula_structural   Tb2Pr5Nd3Ir4
_chemical_formula_sum   'Tb2 Pr5 Nd3 Ir4'
_cell_volume   404.70530563
_cell_formula_units_Z   1
loop_
 _symmetry_equiv_pos_site_id
 _symmetry_equiv_pos_as_xyz
  1  'x, y, z'
loop_
 _atom_site_type_symbol
 _atom_site_label
 _atom_site_symmetry_multiplicity
 _atom_site_fract_x
 _atom_site_fract_y
 _atom_site_fract_z
 _atom_site_occupancy
  Tb  Tb0  1  0.438980  0.748372  0.999464  1
  Tb  Tb1  1  0.560882  0.251663  0.000129  1
  Pr  Pr2  1  0.979289  0.923607  0.182553  1
  Pr  Pr3  1  0.793550  0.576600  0.812424  1
  Pr  Pr4  1  0.021062  0.076924  0.817760  1
  Pr  Pr5  1  0.206568  0.423047  0.188425  1
  Pr  Pr6  1  0.641571  0.810789  0.428190  1
  Nd  Nd7  1  0.211297  0.689516  0.568497  1
  Nd  Nd8  1  0.358495  0.189371  0.573127  1
  Nd  Nd9  1  0.788803  0.310391  0.431522  1
  Ir  Ir10  1  0.813497  0.571565  0.218877  1
  Ir  Ir11  1  0.597889  0.929681  0.792283  1
  Ir  Ir12  1  0.186630  0.427796  0.779386  1
  Ir  Ir13  1  0.401487  0.070677  0.207362  1
