# generated using pymatgen
data_Sc22Fe2(RuRh)3
_symmetry_space_group_name_H-M   'P 1'
_cell_length_a   9.41666562
_cell_length_b   9.43256693
_cell_length_c   9.43785817
_cell_angle_alpha   60.05951102
_cell_angle_beta   60.03710166
_cell_angle_gamma   60.09290797
_symmetry_Int_Tables_number   1
_chemical_formula_structural   Sc22Fe2(RuRh)3
_chemical_formula_sum   'Sc22 Fe2 Ru3 Rh3'
_cell_volume   593.61741491
_cell_formula_units_Z   1
loop_
 _symmetry_equiv_pos_site_id
 _symmetry_equiv_pos_as_xyz
  1  'x, y, z'
loop_
 _atom_site_type_symbol
 _atom_site_label
 _atom_site_symmetry_multiplicity
 _atom_site_fract_x
 _atom_site_fract_y
 _atom_site_fract_z
 _atom_site_occupancy
  Sc  Sc0  1  0.808639  0.807634  0.192366  1
  Sc  Sc1  1  0.191729  0.807233  0.192767  1
  Sc  Sc2  1  0.807602  0.192398  0.192398  1
  Sc  Sc3  1  0.191361  0.192366  0.807634  1
  Sc  Sc4  1  0.808271  0.192767  0.807233  1
  Sc  Sc5  1  0.192398  0.807602  0.807602  1
  Sc  Sc6  1  0.614584  0.611971  0.157577  1
  Sc  Sc7  1  0.615868  0.157577  0.611971  1
  Sc  Sc8  1  0.156273  0.613960  0.612871  1
  Sc  Sc9  1  0.616896  0.612871  0.613960  1
  Sc  Sc10  1  0.385416  0.388029  0.842423  1
  Sc  Sc11  1  0.384132  0.842423  0.388029  1
  Sc  Sc12  1  0.843727  0.386040  0.387129  1
  Sc  Sc13  1  0.383104  0.387129  0.386040  1
  Sc  Sc14  1  0.843153  0.842130  0.474004  1
  Sc  Sc15  1  0.840713  0.474004  0.842130  1
  Sc  Sc16  1  0.474119  0.840278  0.843254  1
  Sc  Sc17  1  0.842350  0.843254  0.840278  1
  Sc  Sc18  1  0.156847  0.157870  0.525996  1
  Sc  Sc19  1  0.159287  0.525996  0.157870  1
  Sc  Sc20  1  0.525881  0.159722  0.156746  1
  Sc  Sc21  1  0.157650  0.156746  0.159722  1
  Fe  Fe22  1  0.000000  0.000000  0.000000  1
  Fe  Fe23  1  0.500000  0.500000  0.500000  1
  Ru  Ru24  1  0.000000  0.000000  0.500000  1
  Ru  Ru25  1  0.000000  0.500000  0.500000  1
  Ru  Ru26  1  0.500000  0.500000  0.000000  1
  Rh  Rh27  1  0.500000  0.000000  0.500000  1
  Rh  Rh28  1  0.000000  0.500000  0.000000  1
  Rh  Rh29  1  0.500000  0.000000  0.000000  1
