# generated using pymatgen
data_TmBi3(MoO6)2
_symmetry_space_group_name_H-M   'P 1'
_cell_length_a   10.43862041
_cell_length_b   10.43862032
_cell_length_c   5.52272661
_cell_angle_alpha   77.13672446
_cell_angle_beta   77.13672713
_cell_angle_gamma   68.75587550
_symmetry_Int_Tables_number   1
_chemical_formula_structural   TmBi3(MoO6)2
_chemical_formula_sum   'Tm2 Bi6 Mo4 O24'
_cell_volume   540.09820106
_cell_formula_units_Z   2
loop_
 _symmetry_equiv_pos_site_id
 _symmetry_equiv_pos_as_xyz
  1  'x, y, z'
loop_
 _atom_site_type_symbol
 _atom_site_label
 _atom_site_symmetry_multiplicity
 _atom_site_fract_x
 _atom_site_fract_y
 _atom_site_fract_z
 _atom_site_occupancy
  Tm  Tm0  1  0.096153  0.903847  0.750000  1
  Tm  Tm1  1  0.903847  0.096153  0.250000  1
  Bi  Bi2  1  0.726201  0.958643  0.936560  1
  Bi  Bi3  1  0.273799  0.041357  0.063440  1
  Bi  Bi4  1  0.041357  0.273799  0.563440  1
  Bi  Bi5  1  0.958643  0.726201  0.436560  1
  Bi  Bi6  1  0.660951  0.339049  0.750000  1
  Bi  Bi7  1  0.339049  0.660951  0.250000  1
  Mo  Mo8  1  0.538616  0.798135  0.572569  1
  Mo  Mo9  1  0.461384  0.201865  0.427431  1
  Mo  Mo10  1  0.201865  0.461384  0.927431  1
  Mo  Mo11  1  0.798135  0.538616  0.072569  1
  O  O12  1  0.552303  0.638210  0.775599  1
  O  O13  1  0.447697  0.361790  0.224401  1
  O  O14  1  0.361790  0.447697  0.724401  1
  O  O15  1  0.638210  0.552303  0.275599  1
  O  O16  1  0.892830  0.934385  0.590855  1
  O  O17  1  0.107170  0.065615  0.409145  1
  O  O18  1  0.065615  0.107170  0.909145  1
  O  O19  1  0.934385  0.892830  0.090855  1
  O  O20  1  0.602958  0.168275  0.610029  1
  O  O21  1  0.397042  0.831725  0.389971  1
  O  O22  1  0.831725  0.397042  0.889971  1
  O  O23  1  0.168275  0.602958  0.110029  1
  O  O24  1  0.298594  0.206713  0.633529  1
  O  O25  1  0.701406  0.793287  0.366471  1
  O  O26  1  0.793287  0.701406  0.866471  1
  O  O27  1  0.206713  0.298594  0.133529  1
  O  O28  1  0.738791  0.155770  0.019257  1
  O  O29  1  0.261209  0.844230  0.980743  1
  O  O30  1  0.844230  0.261209  0.480743  1
  O  O31  1  0.155770  0.738791  0.519257  1
  O  O32  1  0.504255  0.929510  0.762651  1
  O  O33  1  0.495745  0.070490  0.237349  1
  O  O34  1  0.070490  0.495745  0.737349  1
  O  O35  1  0.929510  0.504255  0.262651  1
