# generated using pymatgen
data_Zr8Al14SiRh7
_symmetry_space_group_name_H-M   'P 1'
_cell_length_a   8.90192782
_cell_length_b   8.90192658
_cell_length_c   8.90192772
_cell_angle_alpha   120.25243851
_cell_angle_beta   119.78985968
_cell_angle_gamma   89.96383937
_symmetry_Int_Tables_number   1
_chemical_formula_structural   Zr8Al14SiRh7
_chemical_formula_sum   'Zr8 Al14 Si1 Rh7'
_cell_volume   498.64256097
_cell_formula_units_Z   1
loop_
 _symmetry_equiv_pos_site_id
 _symmetry_equiv_pos_as_xyz
  1  'x, y, z'
loop_
 _atom_site_type_symbol
 _atom_site_label
 _atom_site_symmetry_multiplicity
 _atom_site_fract_x
 _atom_site_fract_y
 _atom_site_fract_z
 _atom_site_occupancy
  Zr  Zr0  1  0.802919  0.297253  0.088843  1
  Zr  Zr1  1  0.208410  0.297253  0.494334  1
  Zr  Zr2  1  0.197402  0.697402  0.500000  1
  Zr  Zr3  1  0.208410  0.714076  0.911157  1
  Zr  Zr4  1  0.802919  0.714076  0.505666  1
  Zr  Zr5  1  0.788205  0.288205  0.500000  1
  Zr  Zr6  1  0.379544  0.120589  0.741046  1
  Zr  Zr7  1  0.379544  0.638498  0.258954  1
  Al  Al8  1  0.160913  0.330976  0.170061  1
  Al  Al9  1  0.160913  0.990853  0.829939  1
  Al  Al10  1  0.152247  0.338404  0.813842  1
  Al  Al11  1  0.524559  0.338404  0.186158  1
  Al  Al12  1  0.836050  0.661833  0.825785  1
  Al  Al13  1  0.836050  0.010263  0.174215  1
  Al  Al14  1  0.834643  0.663404  0.171239  1
  Al  Al15  1  0.492165  0.663404  0.828761  1
  Al  Al16  1  0.380684  0.120917  0.259768  1
  Al  Al17  1  0.861149  0.120917  0.740232  1
  Al  Al18  1  0.622714  0.879428  0.256715  1
  Al  Al19  1  0.622714  0.365999  0.743285  1
  Al  Al20  1  0.623267  0.878789  0.744477  1
  Al  Al21  1  0.134311  0.878789  0.255523  1
  Si  Si22  1  0.992808  0.492808  0.500000  1
  Rh  Rh23  1  0.998067  0.999042  0.500728  1
  Rh  Rh24  1  0.498314  0.999042  0.000974  1
  Rh  Rh25  1  0.498882  0.498882  0.000000  1
  Rh  Rh26  1  0.498314  0.497339  0.499272  1
  Rh  Rh27  1  0.998067  0.497339  0.999026  1
  Rh  Rh28  1  0.999373  0.999373  0.000000  1
  Rh  Rh29  1  0.506441  0.006441  0.500000  1
