# generated using pymatgen
data_Gd2Zr3Sn4
_symmetry_space_group_name_H-M   'P 1'
_cell_length_a   7.81377000
_cell_length_b   7.89239000
_cell_length_c   14.86945700
_cell_angle_alpha   90.00000000
_cell_angle_beta   90.00000000
_cell_angle_gamma   90.00000000
_symmetry_Int_Tables_number   1
_chemical_formula_structural   Gd2Zr3Sn4
_chemical_formula_sum   'Gd8 Zr12 Sn16'
_cell_volume   916.98930509
_cell_formula_units_Z   4
loop_
 _symmetry_equiv_pos_site_id
 _symmetry_equiv_pos_as_xyz
  1  'x, y, z'
loop_
 _atom_site_type_symbol
 _atom_site_label
 _atom_site_symmetry_multiplicity
 _atom_site_fract_x
 _atom_site_fract_y
 _atom_site_fract_z
 _atom_site_occupancy
  Gd  Gd0  1  0.509361  0.323694  0.906891  1
  Gd  Gd1  1  0.009361  0.176306  0.593109  1
  Gd  Gd2  1  0.490639  0.676306  0.406891  1
  Gd  Gd3  1  0.990639  0.823694  0.093109  1
  Gd  Gd4  1  0.490639  0.676306  0.093109  1
  Gd  Gd5  1  0.990639  0.823694  0.406891  1
  Gd  Gd6  1  0.509361  0.323694  0.593109  1
  Gd  Gd7  1  0.009361  0.176306  0.906891  1
  Zr  Zr8  1  0.344880  0.837242  0.871229  1
  Zr  Zr9  1  0.844880  0.662758  0.628771  1
  Zr  Zr10  1  0.655120  0.162758  0.371229  1
  Zr  Zr11  1  0.155120  0.337242  0.128771  1
  Zr  Zr12  1  0.655120  0.162758  0.128771  1
  Zr  Zr13  1  0.155120  0.337242  0.371229  1
  Zr  Zr14  1  0.344880  0.837242  0.628771  1
  Zr  Zr15  1  0.844880  0.662758  0.871229  1
  Zr  Zr16  1  0.168170  0.509930  0.750000  1
  Zr  Zr17  1  0.668170  0.990070  0.750000  1
  Zr  Zr18  1  0.831830  0.490070  0.250000  1
  Zr  Zr19  1  0.331830  0.009930  0.250000  1
  Sn  Sn20  1  0.316556  0.041389  0.042955  1
  Sn  Sn21  1  0.816556  0.458611  0.457045  1
  Sn  Sn22  1  0.683444  0.958611  0.542955  1
  Sn  Sn23  1  0.183444  0.541389  0.957045  1
  Sn  Sn24  1  0.683444  0.958611  0.957045  1
  Sn  Sn25  1  0.183444  0.541389  0.542955  1
  Sn  Sn26  1  0.316556  0.041389  0.457045  1
  Sn  Sn27  1  0.816556  0.458611  0.042955  1
  Sn  Sn28  1  0.539746  0.619373  0.750000  1
  Sn  Sn29  1  0.039746  0.880627  0.750000  1
  Sn  Sn30  1  0.460254  0.380627  0.250000  1
  Sn  Sn31  1  0.960254  0.119373  0.250000  1
  Sn  Sn32  1  0.313113  0.151659  0.750000  1
  Sn  Sn33  1  0.813113  0.348341  0.750000  1
  Sn  Sn34  1  0.686887  0.848341  0.250000  1
  Sn  Sn35  1  0.186887  0.651659  0.250000  1
