# generated using pymatgen
data_Ba2CuSb4Rh
_symmetry_space_group_name_H-M   'P 1'
_cell_length_a   9.59045855
_cell_length_b   9.59045835
_cell_length_c   4.97258600
_cell_angle_alpha   90.00000000
_cell_angle_beta   90.00000000
_cell_angle_gamma   150.46257352
_symmetry_Int_Tables_number   1
_chemical_formula_structural   Ba2CuSb4Rh
_chemical_formula_sum   'Ba2 Cu1 Sb4 Rh1'
_cell_volume   225.47629877
_cell_formula_units_Z   1
loop_
 _symmetry_equiv_pos_site_id
 _symmetry_equiv_pos_as_xyz
  1  'x, y, z'
loop_
 _atom_site_type_symbol
 _atom_site_label
 _atom_site_symmetry_multiplicity
 _atom_site_fract_x
 _atom_site_fract_y
 _atom_site_fract_z
 _atom_site_occupancy
  Ba  Ba0  1  0.395478  0.604522  0.750000  1
  Ba  Ba1  1  0.608440  0.391560  0.250000  1
  Cu  Cu2  1  0.185304  0.814696  0.750000  1
  Sb  Sb3  1  0.043471  0.956529  0.750000  1
  Sb  Sb4  1  0.953801  0.046199  0.250000  1
  Sb  Sb5  1  0.250634  0.749366  0.250000  1
  Sb  Sb6  1  0.751917  0.248083  0.750000  1
  Rh  Rh7  1  0.810952  0.189048  0.250000  1
