# generated using pymatgen
data_Zn2H8Os
_symmetry_space_group_name_H-M   'P 1'
_cell_length_a   5.62327988
_cell_length_b   4.50614912
_cell_length_c   6.05891178
_cell_angle_alpha   91.43790992
_cell_angle_beta   97.27421193
_cell_angle_gamma   114.16273367
_symmetry_Int_Tables_number   1
_chemical_formula_structural   Zn2H8Os
_chemical_formula_sum   'Zn2 H8 Os1'
_cell_volume   138.44742919
_cell_formula_units_Z   1
loop_
 _symmetry_equiv_pos_site_id
 _symmetry_equiv_pos_as_xyz
  1  'x, y, z'
loop_
 _atom_site_type_symbol
 _atom_site_label
 _atom_site_symmetry_multiplicity
 _atom_site_fract_x
 _atom_site_fract_y
 _atom_site_fract_z
 _atom_site_occupancy
  Zn  Zn0  1  0.990303  0.532686  0.187908  1
  Zn  Zn1  1  0.971427  0.529272  0.732526  1
  H  H2  1  0.254029  0.407153  0.059008  1
  H  H3  1  0.778230  0.070112  0.116031  1
  H  H4  1  0.112724  0.979515  0.219294  1
  H  H5  1  0.103129  0.155921  0.716013  1
  H  H6  1  0.946763  0.516557  0.455553  1
  H  H7  1  0.748131  0.049225  0.783355  1
  H  H8  1  0.260272  0.972756  0.914701  1
  H  H9  1  0.754722  0.661101  0.907993  1
  Os  Os10  1  0.000274  0.045707  0.957616  1
