# generated using pymatgen
data_ErTm7Ti3Si16Mo9
_symmetry_space_group_name_H-M   'P 1'
_cell_length_a   6.88272901
_cell_length_b   6.88286589
_cell_length_c   12.73535914
_cell_angle_alpha   89.98937188
_cell_angle_beta   90.00111863
_cell_angle_gamma   89.76831436
_symmetry_Int_Tables_number   1
_chemical_formula_structural   ErTm7Ti3Si16Mo9
_chemical_formula_sum   'Er1 Tm7 Ti3 Si16 Mo9'
_cell_volume   603.30596118
_cell_formula_units_Z   1
loop_
 _symmetry_equiv_pos_site_id
 _symmetry_equiv_pos_as_xyz
  1  'x, y, z'
loop_
 _atom_site_type_symbol
 _atom_site_label
 _atom_site_symmetry_multiplicity
 _atom_site_fract_x
 _atom_site_fract_y
 _atom_site_fract_z
 _atom_site_occupancy
  Er  Er0  1  0.999973  0.659434  0.031042  1
  Tm  Tm1  1  0.339755  0.001490  0.468670  1
  Tm  Tm2  1  0.497447  0.839291  0.719397  1
  Tm  Tm3  1  0.499010  0.161450  0.217644  1
  Tm  Tm4  1  0.839306  0.497441  0.280648  1
  Tm  Tm5  1  0.161515  0.499009  0.782323  1
  Tm  Tm6  1  0.659281  0.000270  0.968924  1
  Tm  Tm7  1  0.001513  0.339759  0.531313  1
  Ti  Ti8  1  0.169909  0.831563  0.248730  1
  Ti  Ti9  1  0.831529  0.169867  0.751327  1
  Ti  Ti10  1  0.668889  0.668899  0.499997  1
  Si  Si11  1  0.200983  0.129897  0.683046  1
  Si  Si12  1  0.373287  0.697452  0.933481  1
  Si  Si13  1  0.629564  0.299043  0.433060  1
  Si  Si14  1  0.697275  0.372874  0.066455  1
  Si  Si15  1  0.299054  0.629579  0.566950  1
  Si  Si16  1  0.796575  0.871233  0.183731  1
  Si  Si17  1  0.129901  0.200921  0.316951  1
  Si  Si18  1  0.871011  0.796731  0.816314  1
  Si  Si19  1  0.288632  0.963770  0.061752  1
  Si  Si20  1  0.539167  0.792017  0.313634  1
  Si  Si21  1  0.458378  0.210120  0.815137  1
  Si  Si22  1  0.791995  0.539251  0.686367  1
  Si  Si23  1  0.210305  0.458272  0.185001  1
  Si  Si24  1  0.709049  0.040920  0.563927  1
  Si  Si25  1  0.963605  0.288211  0.938206  1
  Si  Si26  1  0.040936  0.709072  0.436041  1
  Mo  Mo27  1  0.331533  0.331387  0.999991  1
  Mo  Mo28  1  0.155654  0.000966  0.872855  1
  Mo  Mo29  1  0.496983  0.666747  0.124435  1
  Mo  Mo30  1  0.505257  0.340604  0.624493  1
  Mo  Mo31  1  0.666553  0.496903  0.875514  1
  Mo  Mo32  1  0.340615  0.505248  0.375538  1
  Mo  Mo33  1  0.840699  0.993981  0.374258  1
  Mo  Mo34  1  0.000900  0.155625  0.127089  1
  Mo  Mo35  1  0.993961  0.840702  0.625757  1
