# generated using pymatgen
data_Y6Ho2InAgPd2
_symmetry_space_group_name_H-M   'P 1'
_cell_length_a   9.72322392
_cell_length_b   9.72322496
_cell_length_c   9.74853100
_cell_angle_alpha   59.91387139
_cell_angle_beta   59.91386786
_cell_angle_gamma   59.89993055
_symmetry_Int_Tables_number   1
_chemical_formula_structural   Y6Ho2InAgPd2
_chemical_formula_sum   'Y12 Ho4 In2 Ag2 Pd4'
_cell_volume   650.35354974
_cell_formula_units_Z   2
loop_
 _symmetry_equiv_pos_site_id
 _symmetry_equiv_pos_as_xyz
  1  'x, y, z'
loop_
 _atom_site_type_symbol
 _atom_site_label
 _atom_site_symmetry_multiplicity
 _atom_site_fract_x
 _atom_site_fract_y
 _atom_site_fract_z
 _atom_site_occupancy
  Y  Y0  1  0.809567  0.190793  0.190207  1
  Y  Y1  1  0.190840  0.809373  0.809593  1
  Y  Y2  1  0.190807  0.809376  0.190367  1
  Y  Y3  1  0.809407  0.191035  0.809495  1
  Y  Y4  1  0.189070  0.188896  0.811094  1
  Y  Y5  1  0.808251  0.808110  0.191930  1
  Y  Y6  1  0.939787  0.565642  0.564149  1
  Y  Y7  1  0.565511  0.939691  0.930395  1
  Y  Y8  1  0.565613  0.939869  0.564097  1
  Y  Y9  1  0.939750  0.565549  0.930437  1
  Y  Y10  1  0.565764  0.565922  0.934120  1
  Y  Y11  1  0.936740  0.936652  0.563161  1
  Ho  Ho12  1  0.354538  0.354605  0.353853  1
  Ho  Ho13  1  0.354476  0.354713  0.937071  1
  Ho  Ho14  1  0.356368  0.935653  0.354022  1
  Ho  Ho15  1  0.935741  0.356414  0.353868  1
  In  In16  1  0.580384  0.580408  0.585232  1
  In  In17  1  0.580478  0.580451  0.253728  1
  Ag  Ag18  1  0.582547  0.245990  0.585737  1
  Ag  Ag19  1  0.245964  0.582601  0.585756  1
  Pd  Pd20  1  0.145227  0.145200  0.147345  1
  Pd  Pd21  1  0.145396  0.145356  0.562010  1
  Pd  Pd22  1  0.145296  0.562467  0.146128  1
  Pd  Pd23  1  0.562476  0.145232  0.146206  1
