# generated using pymatgen
data_TaNb7V2(SiB2)2
_symmetry_space_group_name_H-M   'P 1'
_cell_length_a   7.25761122
_cell_length_b   7.25761171
_cell_length_c   7.25716716
_cell_angle_alpha   129.89318642
_cell_angle_beta   129.89319047
_cell_angle_gamma   73.58023235
_symmetry_Int_Tables_number   1
_chemical_formula_structural   TaNb7V2(SiB2)2
_chemical_formula_sum   'Ta1 Nb7 V2 Si2 B4'
_cell_volume   219.57761581
_cell_formula_units_Z   1
loop_
 _symmetry_equiv_pos_site_id
 _symmetry_equiv_pos_as_xyz
  1  'x, y, z'
loop_
 _atom_site_type_symbol
 _atom_site_label
 _atom_site_symmetry_multiplicity
 _atom_site_fract_x
 _atom_site_fract_y
 _atom_site_fract_z
 _atom_site_occupancy
  Ta  Ta0  1  0.305382  0.805382  0.839789  1
  Nb  Nb1  1  0.534036  0.694364  0.500285  1
  Nb  Nb2  1  0.034726  0.534726  0.840549  1
  Nb  Nb3  1  0.694349  0.194349  0.159676  1
  Nb  Nb4  1  0.965591  0.465591  0.159532  1
  Nb  Nb5  1  0.194364  0.034036  0.500285  1
  Nb  Nb6  1  0.465070  0.305642  0.499576  1
  Nb  Nb7  1  0.805642  0.965070  0.499576  1
  V  V8  1  0.999761  0.000197  0.000376  1
  V  V9  1  0.500197  0.499761  0.000376  1
  Si  Si10  1  0.249966  0.249638  0.999908  1
  Si  Si11  1  0.749638  0.749966  0.999908  1
  B  B12  1  0.619193  0.119193  0.738301  1
  B  B13  1  0.120048  0.381941  0.501281  1
  B  B14  1  0.881941  0.620048  0.501281  1
  B  B15  1  0.380096  0.880096  0.259301  1
