# generated using pymatgen
data_Ba8Tb3Ho(FeO5)4
_symmetry_space_group_name_H-M   'P 1'
_cell_length_a   6.15542703
_cell_length_b   7.96060904
_cell_length_c   12.76862709
_cell_angle_alpha   91.25385115
_cell_angle_beta   90.00395617
_cell_angle_gamma   89.98978205
_symmetry_Int_Tables_number   1
_chemical_formula_structural   Ba8Tb3Ho(FeO5)4
_chemical_formula_sum   'Ba8 Tb3 Ho1 Fe4 O20'
_cell_volume   625.52500864
_cell_formula_units_Z   1
loop_
 _symmetry_equiv_pos_site_id
 _symmetry_equiv_pos_as_xyz
  1  'x, y, z'
loop_
 _atom_site_type_symbol
 _atom_site_label
 _atom_site_symmetry_multiplicity
 _atom_site_fract_x
 _atom_site_fract_y
 _atom_site_fract_z
 _atom_site_occupancy
  Ba  Ba0  1  0.760732  0.487745  0.353379  1
  Ba  Ba1  1  0.739786  0.989079  0.853866  1
  Ba  Ba2  1  0.239193  0.511385  0.646972  1
  Ba  Ba3  1  0.260229  0.012224  0.145663  1
  Ba  Ba4  1  0.756799  0.995984  0.377236  1
  Ba  Ba5  1  0.743722  0.495246  0.877436  1
  Ba  Ba6  1  0.243054  0.004590  0.623596  1
  Ba  Ba7  1  0.256461  0.503815  0.121895  1
  Tb  Tb8  1  0.749322  0.262539  0.630399  1
  Tb  Tb9  1  0.750736  0.762545  0.129659  1
  Tb  Tb10  1  0.250732  0.737429  0.370055  1
  Ho  Ho11  1  0.249461  0.238082  0.869770  1
  Fe  Fe12  1  0.736140  0.744714  0.585820  1
  Fe  Fe13  1  0.763168  0.244967  0.084421  1
  Fe  Fe14  1  0.263975  0.254612  0.415083  1
  Fe  Fe15  1  0.236400  0.754421  0.914286  1
  O  O16  1  0.765014  0.969075  0.639539  1
  O  O17  1  0.735646  0.468681  0.138749  1
  O  O18  1  0.234956  0.031034  0.360490  1
  O  O19  1  0.264308  0.529760  0.861382  1
  O  O20  1  0.733232  0.056679  0.171409  1
  O  O21  1  0.767420  0.556276  0.672311  1
  O  O22  1  0.266696  0.945725  0.829206  1
  O  O23  1  0.232642  0.443351  0.327792  1
  O  O24  1  0.550651  0.747318  0.275499  1
  O  O25  1  0.953623  0.247440  0.775130  1
  O  O26  1  0.450894  0.252635  0.726509  1
  O  O27  1  0.050692  0.752745  0.224351  1
  O  O28  1  0.546208  0.229577  0.976938  1
  O  O29  1  0.950355  0.729130  0.477159  1
  O  O30  1  0.450558  0.770624  0.022587  1
  O  O31  1  0.048995  0.270860  0.522984  1
  O  O32  1  0.043405  0.236540  0.019538  1
  O  O33  1  0.454914  0.736793  0.522270  1
  O  O34  1  0.955635  0.763064  0.977902  1
  O  O35  1  0.544246  0.263317  0.478719  1
