# generated using pymatgen
data_Tb2LuSi2Ag3Ge
_symmetry_space_group_name_H-M   'P 1'
_cell_length_a   7.07082082
_cell_length_b   7.10106118
_cell_length_c   4.22471500
_cell_angle_alpha   90.00000000
_cell_angle_beta   90.00000000
_cell_angle_gamma   120.14157717
_symmetry_Int_Tables_number   1
_chemical_formula_structural   Tb2LuSi2Ag3Ge
_chemical_formula_sum   'Tb2 Lu1 Si2 Ag3 Ge1'
_cell_volume   183.44242790
_cell_formula_units_Z   1
loop_
 _symmetry_equiv_pos_site_id
 _symmetry_equiv_pos_as_xyz
  1  'x, y, z'
loop_
 _atom_site_type_symbol
 _atom_site_label
 _atom_site_symmetry_multiplicity
 _atom_site_fract_x
 _atom_site_fract_y
 _atom_site_fract_z
 _atom_site_occupancy
  Tb  Tb0  1  0.419225  0.420093  0.500000  1
  Tb  Tb1  1  0.580775  0.000868  0.500000  1
  Lu  Lu2  1  0.000000  0.581470  0.500000  1
  Si  Si3  1  0.670835  0.335892  0.000000  1
  Si  Si4  1  0.329165  0.665059  0.000000  1
  Ag  Ag5  1  0.745963  0.744905  0.000000  1
  Ag  Ag6  1  0.254037  0.998942  0.000000  1
  Ag  Ag7  1  0.000000  0.256499  0.000000  1
  Ge  Ge8  1  0.000000  0.996271  0.500000  1
