# generated using pymatgen
data_Ac11In9Pd4
_symmetry_space_group_name_H-M   'P 1'
_cell_length_a   14.11441360
_cell_length_b   14.11441302
_cell_length_c   4.09030300
_cell_angle_alpha   90.00000000
_cell_angle_beta   90.00000000
_cell_angle_gamma   111.79974870
_symmetry_Int_Tables_number   1
_chemical_formula_structural   Ac11In9Pd4
_chemical_formula_sum   'Ac11 In9 Pd4'
_cell_volume   756.58405226
_cell_formula_units_Z   1
loop_
 _symmetry_equiv_pos_site_id
 _symmetry_equiv_pos_as_xyz
  1  'x, y, z'
loop_
 _atom_site_type_symbol
 _atom_site_label
 _atom_site_symmetry_multiplicity
 _atom_site_fract_x
 _atom_site_fract_y
 _atom_site_fract_z
 _atom_site_occupancy
  Ac  Ac0  1  0.418525  0.073943  0.000000  1
  Ac  Ac1  1  0.581475  0.926057  0.000000  1
  Ac  Ac2  1  0.073943  0.418525  0.000000  1
  Ac  Ac3  1  0.926057  0.581475  0.000000  1
  Ac  Ac4  1  0.161980  0.838020  0.000000  1
  Ac  Ac5  1  0.838020  0.161980  0.000000  1
  Ac  Ac6  1  0.371164  0.628836  0.000000  1
  Ac  Ac7  1  0.628836  0.371164  0.000000  1
  Ac  Ac8  1  0.307825  0.307825  0.000000  1
  Ac  Ac9  1  0.692175  0.692175  0.000000  1
  Ac  Ac10  1  0.000000  0.000000  0.000000  1
  In  In11  1  0.365618  0.839008  0.500000  1
  In  In12  1  0.634382  0.160992  0.500000  1
  In  In13  1  0.839008  0.365618  0.500000  1
  In  In14  1  0.160992  0.634382  0.500000  1
  In  In15  1  0.218045  0.077022  0.500000  1
  In  In16  1  0.781955  0.922978  0.500000  1
  In  In17  1  0.077022  0.218045  0.500000  1
  In  In18  1  0.922978  0.781955  0.500000  1
  In  In19  1  0.500000  0.500000  0.500000  1
  Pd  Pd20  1  0.452053  0.248638  0.500000  1
  Pd  Pd21  1  0.547947  0.751362  0.500000  1
  Pd  Pd22  1  0.248638  0.452053  0.500000  1
  Pd  Pd23  1  0.751362  0.547947  0.500000  1
