# generated using pymatgen
data_TaMoO4
_symmetry_space_group_name_H-M   'P 1'
_cell_length_a   5.84990200
_cell_length_b   4.82209280
_cell_length_c   5.25220796
_cell_angle_alpha   89.06278707
_cell_angle_beta   90.00004151
_cell_angle_gamma   89.99993537
_symmetry_Int_Tables_number   1
_chemical_formula_structural   TaMoO4
_chemical_formula_sum   'Ta2 Mo2 O8'
_cell_volume   148.13850746
_cell_formula_units_Z   2
loop_
 _symmetry_equiv_pos_site_id
 _symmetry_equiv_pos_as_xyz
  1  'x, y, z'
loop_
 _atom_site_type_symbol
 _atom_site_label
 _atom_site_symmetry_multiplicity
 _atom_site_fract_x
 _atom_site_fract_y
 _atom_site_fract_z
 _atom_site_occupancy
  Ta  Ta0  1  0.834976  0.000000  0.250000  1
  Ta  Ta1  1  0.165024  0.000000  0.750000  1
  Mo  Mo2  1  0.340504  0.500000  0.250000  1
  Mo  Mo3  1  0.659496  0.500000  0.750000  1
  O  O4  1  0.621596  0.740156  0.401287  1
  O  O5  1  0.621596  0.259844  0.098713  1
  O  O6  1  0.378404  0.259844  0.598713  1
  O  O7  1  0.378404  0.740156  0.901287  1
  O  O8  1  0.106463  0.785009  0.432945  1
  O  O9  1  0.106464  0.214991  0.067056  1
  O  O10  1  0.893537  0.214991  0.567055  1
  O  O11  1  0.893536  0.785009  0.932944  1
