# generated using pymatgen
data_TbDy4Nb3(Co4P3)4
_symmetry_space_group_name_H-M   'P 1'
_cell_length_a   12.17627500
_cell_length_b   12.17627521
_cell_length_c   3.70025800
_cell_angle_alpha   90.00000000
_cell_angle_beta   90.00000000
_cell_angle_gamma   119.99999672
_symmetry_Int_Tables_number   1
_chemical_formula_structural   TbDy4Nb3(Co4P3)4
_chemical_formula_sum   'Tb1 Dy4 Nb3 Co16 P12'
_cell_volume   475.10713844
_cell_formula_units_Z   1
loop_
 _symmetry_equiv_pos_site_id
 _symmetry_equiv_pos_as_xyz
  1  'x, y, z'
loop_
 _atom_site_type_symbol
 _atom_site_label
 _atom_site_symmetry_multiplicity
 _atom_site_fract_x
 _atom_site_fract_y
 _atom_site_fract_z
 _atom_site_occupancy
  Tb  Tb0  1  0.666667  0.333333  0.000000  1
  Dy  Dy1  1  0.815919  0.999998  0.500000  1
  Dy  Dy2  1  0.000002  0.815921  0.500000  1
  Dy  Dy3  1  0.184079  0.184081  0.500000  1
  Dy  Dy4  1  0.333333  0.666667  0.000000  1
  Nb  Nb5  1  0.443528  0.999971  0.000000  1
  Nb  Nb6  1  0.000029  0.443557  0.000000  1
  Nb  Nb7  1  0.556443  0.556472  0.000000  1
  Co  Co8  1  0.278821  0.999991  0.500000  1
  Co  Co9  1  0.000009  0.278830  0.500000  1
  Co  Co10  1  0.721170  0.721179  0.500000  1
  Co  Co11  1  0.625976  0.803341  0.000000  1
  Co  Co12  1  0.196659  0.822635  0.000000  1
  Co  Co13  1  0.177365  0.374024  0.000000  1
  Co  Co14  1  0.373939  0.177315  0.000000  1
  Co  Co15  1  0.803376  0.626061  0.000000  1
  Co  Co16  1  0.822685  0.196624  0.000000  1
  Co  Co17  1  0.519174  0.873315  0.500000  1
  Co  Co18  1  0.126685  0.645859  0.500000  1
  Co  Co19  1  0.354141  0.480826  0.500000  1
  Co  Co20  1  0.480678  0.354158  0.500000  1
  Co  Co21  1  0.873479  0.519322  0.500000  1
  Co  Co22  1  0.645842  0.126521  0.500000  1
  Co  Co23  1  0.000000  0.000000  0.000000  1
  P  P24  1  0.178386  0.999998  0.000000  1
  P  P25  1  0.000002  0.178388  0.000000  1
  P  P26  1  0.821612  0.821614  0.000000  1
  P  P27  1  0.520848  0.688972  0.500000  1
  P  P28  1  0.311028  0.831875  0.500000  1
  P  P29  1  0.168125  0.479152  0.500000  1
  P  P30  1  0.478902  0.167905  0.500000  1
  P  P31  1  0.689003  0.521098  0.500000  1
  P  P32  1  0.832095  0.310997  0.500000  1
  P  P33  1  0.643076  0.000019  0.000000  1
  P  P34  1  0.999981  0.643057  0.000000  1
  P  P35  1  0.356943  0.356924  0.000000  1
