# generated using pymatgen
data_Y3Ho2Er3(CdPt)2
_symmetry_space_group_name_H-M   'P 1'
_cell_length_a   9.66103188
_cell_length_b   9.66103160
_cell_length_c   9.66103100
_cell_angle_alpha   59.99999862
_cell_angle_beta   59.99999959
_cell_angle_gamma   59.99999678
_symmetry_Int_Tables_number   1
_chemical_formula_structural   Y3Ho2Er3(CdPt)2
_chemical_formula_sum   'Y6 Ho4 Er6 Cd4 Pt4'
_cell_volume   637.61052751
_cell_formula_units_Z   2
loop_
 _symmetry_equiv_pos_site_id
 _symmetry_equiv_pos_as_xyz
  1  'x, y, z'
loop_
 _atom_site_type_symbol
 _atom_site_label
 _atom_site_symmetry_multiplicity
 _atom_site_fract_x
 _atom_site_fract_y
 _atom_site_fract_z
 _atom_site_occupancy
  Y  Y0  1  0.936022  0.563978  0.563978  1
  Y  Y1  1  0.563978  0.936022  0.936022  1
  Y  Y2  1  0.563978  0.936022  0.563978  1
  Y  Y3  1  0.936022  0.563978  0.936022  1
  Y  Y4  1  0.563978  0.563978  0.936022  1
  Y  Y5  1  0.936022  0.936022  0.563978  1
  Ho  Ho6  1  0.352379  0.352379  0.352379  1
  Ho  Ho7  1  0.352379  0.352379  0.942861  1
  Ho  Ho8  1  0.352379  0.942861  0.352379  1
  Ho  Ho9  1  0.942861  0.352379  0.352379  1
  Er  Er10  1  0.811044  0.188956  0.188956  1
  Er  Er11  1  0.188956  0.811044  0.811044  1
  Er  Er12  1  0.188956  0.811044  0.188956  1
  Er  Er13  1  0.811044  0.188956  0.811044  1
  Er  Er14  1  0.188956  0.188956  0.811044  1
  Er  Er15  1  0.811044  0.811044  0.188956  1
  Cd  Cd16  1  0.581737  0.581737  0.581737  1
  Cd  Cd17  1  0.581737  0.581737  0.254790  1
  Cd  Cd18  1  0.581737  0.254790  0.581737  1
  Cd  Cd19  1  0.254790  0.581737  0.581737  1
  Pt  Pt20  1  0.143237  0.143237  0.143237  1
  Pt  Pt21  1  0.143237  0.143237  0.570289  1
  Pt  Pt22  1  0.143237  0.570289  0.143237  1
  Pt  Pt23  1  0.570289  0.143237  0.143237  1
