# generated using pymatgen
data_Sr10TlIrAu4
_symmetry_space_group_name_H-M   'P 1'
_cell_length_a   9.78588400
_cell_length_b   9.78588390
_cell_length_c   9.85774700
_cell_angle_alpha   129.57772281
_cell_angle_beta   129.57772234
_cell_angle_gamma   73.74192874
_symmetry_Int_Tables_number   1
_chemical_formula_structural   Sr10TlIrAu4
_chemical_formula_sum   'Sr10 Tl1 Ir1 Au4'
_cell_volume   548.06047740
_cell_formula_units_Z   1
loop_
 _symmetry_equiv_pos_site_id
 _symmetry_equiv_pos_as_xyz
  1  'x, y, z'
loop_
 _atom_site_type_symbol
 _atom_site_label
 _atom_site_symmetry_multiplicity
 _atom_site_fract_x
 _atom_site_fract_y
 _atom_site_fract_z
 _atom_site_occupancy
  Sr  Sr0  1  0.028788  0.522751  0.828102  1
  Sr  Sr1  1  0.289331  0.816351  0.831356  1
  Sr  Sr2  1  0.977249  0.471212  0.171898  1
  Sr  Sr3  1  0.984767  0.981757  0.989049  1
  Sr  Sr4  1  0.459719  0.301641  0.483868  1
  Sr  Sr5  1  0.198359  0.040281  0.516132  1
  Sr  Sr6  1  0.683649  0.210669  0.168644  1
  Sr  Sr7  1  0.535903  0.674130  0.480827  1
  Sr  Sr8  1  0.825870  0.964097  0.519173  1
  Sr  Sr9  1  0.518243  0.515233  0.010951  1
  Tl  Tl10  1  0.748383  0.751617  0.000000  1
  Ir  Ir11  1  0.878147  0.621853  0.500000  1
  Au  Au12  1  0.624775  0.125796  0.750150  1
  Au  Au13  1  0.122732  0.377268  0.500000  1
  Au  Au14  1  0.249882  0.250118  0.000000  1
  Au  Au15  1  0.374204  0.875225  0.249850  1
