# generated using pymatgen
data_Dy2Ho2Al7Ga5
_symmetry_space_group_name_H-M   'P 1'
_cell_length_a   6.13026000
_cell_length_b   6.10953355
_cell_length_c   9.46232800
_cell_angle_alpha   89.99960480
_cell_angle_beta   90.00032238
_cell_angle_gamma   120.11283725
_symmetry_Int_Tables_number   1
_chemical_formula_structural   Dy2Ho2Al7Ga5
_chemical_formula_sum   'Dy2 Ho2 Al7 Ga5'
_cell_volume   306.56364541
_cell_formula_units_Z   1
loop_
 _symmetry_equiv_pos_site_id
 _symmetry_equiv_pos_as_xyz
  1  'x, y, z'
loop_
 _atom_site_type_symbol
 _atom_site_label
 _atom_site_symmetry_multiplicity
 _atom_site_fract_x
 _atom_site_fract_y
 _atom_site_fract_z
 _atom_site_occupancy
  Dy  Dy0  1  0.000596  0.001191  0.501275  1
  Dy  Dy1  1  0.000601  0.001193  0.998721  1
  Ho  Ho2  1  0.332923  0.665860  0.250001  1
  Ho  Ho3  1  0.666696  0.333398  0.749999  1
  Al  Al4  1  0.501148  0.500716  0.499338  1
  Al  Al5  1  0.500463  0.000927  0.500048  1
  Al  Al6  1  0.999567  0.500716  0.499341  1
  Al  Al7  1  0.501148  0.500716  0.000663  1
  Al  Al8  1  0.500463  0.000927  0.999953  1
  Al  Al9  1  0.999569  0.500716  0.000661  1
  Al  Al10  1  0.814812  0.629626  0.249999  1
  Ga  Ga11  1  0.366990  0.182645  0.250000  1
  Ga  Ga12  1  0.815659  0.182638  0.250000  1
  Ga  Ga13  1  0.184029  0.368053  0.750001  1
  Ga  Ga14  1  0.631608  0.815337  0.750000  1
  Ga  Ga15  1  0.183729  0.815339  0.750000  1
