# generated using pymatgen
data_Er4Al12Si6Os5Pd
_symmetry_space_group_name_H-M   'P 1'
_cell_length_a   7.50302384
_cell_length_b   7.46929684
_cell_length_c   9.33783766
_cell_angle_alpha   89.98396701
_cell_angle_beta   89.91198703
_cell_angle_gamma   119.93110148
_symmetry_Int_Tables_number   1
_chemical_formula_structural   Er4Al12Si6Os5Pd
_chemical_formula_sum   'Er4 Al12 Si6 Os5 Pd1'
_cell_volume   453.51668100
_cell_formula_units_Z   1
loop_
 _symmetry_equiv_pos_site_id
 _symmetry_equiv_pos_as_xyz
  1  'x, y, z'
loop_
 _atom_site_type_symbol
 _atom_site_label
 _atom_site_symmetry_multiplicity
 _atom_site_fract_x
 _atom_site_fract_y
 _atom_site_fract_z
 _atom_site_occupancy
  Er  Er0  1  0.998092  0.673198  0.249989  1
  Er  Er1  1  0.007090  0.338550  0.754988  1
  Er  Er2  1  0.673374  0.000247  0.248326  1
  Er  Er3  1  0.314899  0.992308  0.747240  1
  Al  Al4  1  0.007141  0.330704  0.425670  1
  Al  Al5  1  0.669147  0.995548  0.577782  1
  Al  Al6  1  0.661697  0.995836  0.922504  1
  Al  Al7  1  0.341173  0.005419  0.071225  1
  Al  Al8  1  0.331222  0.337441  0.563093  1
  Al  Al9  1  0.660222  0.668981  0.437018  1
  Al  Al10  1  0.661521  0.664764  0.058111  1
  Al  Al11  1  0.339457  0.333782  0.940926  1
  Al  Al12  1  0.333591  0.547870  0.249407  1
  Al  Al13  1  0.669708  0.456001  0.753497  1
  Al  Al14  1  0.544630  0.336431  0.247395  1
  Al  Al15  1  0.453701  0.663006  0.749200  1
  Si  Si16  1  0.127890  0.125956  0.249780  1
  Si  Si17  1  0.870891  0.876490  0.750084  1
  Si  Si18  1  0.003135  0.330586  0.074656  1
  Si  Si19  1  0.997032  0.667167  0.935186  1
  Si  Si20  1  0.997484  0.664119  0.570934  1
  Si  Si21  1  0.334184  0.000632  0.423440  1
  Os  Os22  1  0.689493  0.335699  0.002340  1
  Os  Os23  1  0.311892  0.663236  0.997683  1
  Os  Os24  1  0.320087  0.678990  0.499861  1
  Os  Os25  1  0.001251  0.998492  0.000246  1
  Os  Os26  1  0.007733  0.990992  0.499726  1
  Pd  Pd27  1  0.672262  0.327554  0.499692  1
