# generated using pymatgen
data_Y2Fe2Cl
_symmetry_space_group_name_H-M   'P 1'
_cell_length_a   3.88639700
_cell_length_b   3.88639766
_cell_length_c   16.17886700
_cell_angle_alpha   90.00000000
_cell_angle_beta   90.00000000
_cell_angle_gamma   120.00000293
_symmetry_Int_Tables_number   1
_chemical_formula_structural   Y2Fe2Cl
_chemical_formula_sum   'Y4 Fe4 Cl2'
_cell_volume   211.62799700
_cell_formula_units_Z   2
loop_
 _symmetry_equiv_pos_site_id
 _symmetry_equiv_pos_as_xyz
  1  'x, y, z'
loop_
 _atom_site_type_symbol
 _atom_site_label
 _atom_site_symmetry_multiplicity
 _atom_site_fract_x
 _atom_site_fract_y
 _atom_site_fract_z
 _atom_site_occupancy
  Y  Y0  1  0.000000  0.000000  0.386045  1
  Y  Y1  1  0.000000  0.000000  0.113955  1
  Y  Y2  1  0.000000  0.000000  0.613955  1
  Y  Y3  1  0.000000  0.000000  0.886045  1
  Fe  Fe4  1  0.666667  0.333333  0.992761  1
  Fe  Fe5  1  0.333333  0.666667  0.492761  1
  Fe  Fe6  1  0.666667  0.333333  0.507239  1
  Fe  Fe7  1  0.333333  0.666667  0.007239  1
  Cl  Cl8  1  0.666667  0.333333  0.250000  1
  Cl  Cl9  1  0.333333  0.666667  0.750000  1
