# generated using pymatgen
data_Nd2HoBe(PPd4)5
_symmetry_space_group_name_H-M   'P 1'
_cell_length_a   8.71875601
_cell_length_b   8.67212236
_cell_length_c   8.67212121
_cell_angle_alpha   60.35608896
_cell_angle_beta   59.82194864
_cell_angle_gamma   59.82194264
_symmetry_Int_Tables_number   1
_chemical_formula_structural   Nd2HoBe(PPd4)5
_chemical_formula_sum   'Nd2 Ho1 Be1 P5 Pd20'
_cell_volume   463.62296838
_cell_formula_units_Z   1
loop_
 _symmetry_equiv_pos_site_id
 _symmetry_equiv_pos_as_xyz
  1  'x, y, z'
loop_
 _atom_site_type_symbol
 _atom_site_label
 _atom_site_symmetry_multiplicity
 _atom_site_fract_x
 _atom_site_fract_y
 _atom_site_fract_z
 _atom_site_occupancy
  Nd  Nd0  1  0.249812  0.250188  0.250188  1
  Nd  Nd1  1  0.749812  0.750188  0.750188  1
  Ho  Ho2  1  0.995833  0.004167  0.004167  1
  Be  Be3  1  0.732295  0.267705  0.267705  1
  P  P4  1  0.262140  0.737860  0.737860  1
  P  P5  1  0.264500  0.735500  0.263080  1
  P  P6  1  0.736920  0.263080  0.735500  1
  P  P7  1  0.264500  0.263080  0.735500  1
  P  P8  1  0.736920  0.735500  0.263080  1
  Pd  Pd9  1  0.388446  0.384453  0.384453  1
  Pd  Pd10  1  0.613921  0.613633  0.613633  1
  Pd  Pd11  1  0.386367  0.386079  0.841188  1
  Pd  Pd12  1  0.386367  0.841188  0.386079  1
  Pd  Pd13  1  0.615547  0.611554  0.157351  1
  Pd  Pd14  1  0.615547  0.157351  0.611554  1
  Pd  Pd15  1  0.842649  0.384453  0.384453  1
  Pd  Pd16  1  0.158812  0.613633  0.613633  1
  Pd  Pd17  1  0.342886  0.000917  0.000917  1
  Pd  Pd18  1  0.655281  0.000917  0.000917  1
  Pd  Pd19  1  0.999083  0.344719  0.657114  1
  Pd  Pd20  1  0.999083  0.657114  0.344719  1
  Pd  Pd21  1  0.996550  0.342289  0.003450  1
  Pd  Pd22  1  0.657711  0.003450  0.342289  1
  Pd  Pd23  1  0.000949  0.653568  0.999051  1
  Pd  Pd24  1  0.346432  0.999051  0.653568  1
  Pd  Pd25  1  0.996550  0.003450  0.342289  1
  Pd  Pd26  1  0.000949  0.999051  0.653568  1
  Pd  Pd27  1  0.657711  0.342289  0.003450  1
  Pd  Pd28  1  0.346432  0.653568  0.999051  1
