# generated using pymatgen
data_Ti3CoSi2N
_symmetry_space_group_name_H-M   'P 1'
_cell_length_a   7.84284802
_cell_length_b   7.84276173
_cell_length_c   7.84272300
_cell_angle_alpha   60.00016756
_cell_angle_beta   60.00053152
_cell_angle_gamma   60.00072314
_symmetry_Int_Tables_number   1
_chemical_formula_structural   Ti3CoSi2N
_chemical_formula_sum   'Ti12 Co4 Si8 N4'
_cell_volume   341.11386041
_cell_formula_units_Z   4
loop_
 _symmetry_equiv_pos_site_id
 _symmetry_equiv_pos_as_xyz
  1  'x, y, z'
loop_
 _atom_site_type_symbol
 _atom_site_label
 _atom_site_symmetry_multiplicity
 _atom_site_fract_x
 _atom_site_fract_y
 _atom_site_fract_z
 _atom_site_occupancy
  Ti  Ti0  1  0.812196  0.811847  0.187978  1
  Ti  Ti1  1  0.187970  0.188057  0.811986  1
  Ti  Ti2  1  0.812226  0.187980  0.811820  1
  Ti  Ti3  1  0.187975  0.812015  0.188055  1
  Ti  Ti4  1  0.187975  0.812015  0.811955  1
  Ti  Ti5  1  0.812226  0.187980  0.187974  1
  Ti  Ti6  1  0.437804  0.438153  0.062022  1
  Ti  Ti7  1  0.062030  0.061943  0.438014  1
  Ti  Ti8  1  0.437774  0.062020  0.438180  1
  Ti  Ti9  1  0.062025  0.437985  0.061945  1
  Ti  Ti10  1  0.062025  0.437985  0.438045  1
  Ti  Ti11  1  0.437774  0.062020  0.062026  1
  Co  Co12  1  0.125000  0.625000  0.625000  1
  Co  Co13  1  0.625000  0.125000  0.625000  1
  Co  Co14  1  0.625000  0.625000  0.125000  1
  Co  Co15  1  0.625000  0.625000  0.625000  1
  Si  Si16  1  0.751157  0.416273  0.416285  1
  Si  Si17  1  0.416184  0.751080  0.416368  1
  Si  Si18  1  0.416191  0.416363  0.751070  1
  Si  Si19  1  0.416191  0.416363  0.416375  1
  Si  Si20  1  0.498843  0.833727  0.833715  1
  Si  Si21  1  0.833816  0.498920  0.833632  1
  Si  Si22  1  0.833809  0.833637  0.498930  1
  Si  Si23  1  0.833809  0.833637  0.833625  1
  N  N24  1  0.625000  0.125000  0.125000  1
  N  N25  1  0.125000  0.625000  0.125000  1
  N  N26  1  0.125000  0.125000  0.625000  1
  N  N27  1  0.125000  0.125000  0.125000  1
