# generated using pymatgen
data_Th2U(AlFe)3
_symmetry_space_group_name_H-M   'P 1'
_cell_length_a   6.76016917
_cell_length_b   6.75622351
_cell_length_c   4.05637200
_cell_angle_alpha   90.00000000
_cell_angle_beta   90.00000000
_cell_angle_gamma   117.01838495
_symmetry_Int_Tables_number   1
_chemical_formula_structural   Th2U(AlFe)3
_chemical_formula_sum   'Th2 U1 Al3 Fe3'
_cell_volume   165.04759491
_cell_formula_units_Z   1
loop_
 _symmetry_equiv_pos_site_id
 _symmetry_equiv_pos_as_xyz
  1  'x, y, z'
loop_
 _atom_site_type_symbol
 _atom_site_label
 _atom_site_symmetry_multiplicity
 _atom_site_fract_x
 _atom_site_fract_y
 _atom_site_fract_z
 _atom_site_occupancy
  Th  Th0  1  0.416166  0.998165  0.500000  1
  Th  Th1  1  0.998268  0.416149  0.500000  1
  U  U2  1  0.583701  0.583674  0.500000  1
  Al  Al3  1  0.765819  0.995622  0.000000  1
  Al  Al4  1  0.995559  0.765840  0.000000  1
  Al  Al5  1  0.216666  0.216672  0.000000  1
  Fe  Fe6  1  0.400611  0.637065  0.000000  1
  Fe  Fe7  1  0.636945  0.400497  0.000000  1
  Fe  Fe8  1  0.986265  0.986315  0.500000  1
