# generated using pymatgen
data_Ag5AuO8
_symmetry_space_group_name_H-M   'P 1'
_cell_length_a   9.31504184
_cell_length_b   3.83531544
_cell_length_c   5.78425775
_cell_angle_alpha   73.79338895
_cell_angle_beta   89.29464002
_cell_angle_gamma   88.92592721
_symmetry_Int_Tables_number   1
_chemical_formula_structural   Ag5AuO8
_chemical_formula_sum   'Ag5 Au1 O8'
_cell_volume   198.39692149
_cell_formula_units_Z   1
loop_
 _symmetry_equiv_pos_site_id
 _symmetry_equiv_pos_as_xyz
  1  'x, y, z'
loop_
 _atom_site_type_symbol
 _atom_site_label
 _atom_site_symmetry_multiplicity
 _atom_site_fract_x
 _atom_site_fract_y
 _atom_site_fract_z
 _atom_site_occupancy
  Ag  Ag0  1  0.859919  0.713552  0.554148  1
  Ag  Ag1  1  0.358056  0.290054  0.944575  1
  Ag  Ag2  1  0.140081  0.286448  0.445852  1
  Ag  Ag3  1  0.641944  0.709946  0.055425  1
  Ag  Ag4  1  0.000000  0.000000  0.000000  1
  Au  Au5  1  0.500000  0.000000  0.500000  1
  O  O6  1  0.688925  0.953033  0.332859  1
  O  O7  1  0.189097  0.052078  0.169811  1
  O  O8  1  0.311075  0.046967  0.667141  1
  O  O9  1  0.810903  0.947922  0.830189  1
  O  O10  1  0.953216  0.533531  0.272874  1
  O  O11  1  0.453578  0.451232  0.228619  1
  O  O12  1  0.546422  0.548768  0.771381  1
  O  O13  1  0.046784  0.466469  0.727126  1
