# generated using pymatgen
data_Pa2HgRh5
_symmetry_space_group_name_H-M   'P 1'
_cell_length_a   5.81762458
_cell_length_b   5.81762463
_cell_length_c   8.39262900
_cell_angle_alpha   90.00000000
_cell_angle_beta   90.00000000
_cell_angle_gamma   95.35519160
_symmetry_Int_Tables_number   1
_chemical_formula_structural   Pa2HgRh5
_chemical_formula_sum   'Pa4 Hg2 Rh10'
_cell_volume   282.80669111
_cell_formula_units_Z   2
loop_
 _symmetry_equiv_pos_site_id
 _symmetry_equiv_pos_as_xyz
  1  'x, y, z'
loop_
 _atom_site_type_symbol
 _atom_site_label
 _atom_site_symmetry_multiplicity
 _atom_site_fract_x
 _atom_site_fract_y
 _atom_site_fract_z
 _atom_site_occupancy
  Pa  Pa0  1  0.777747  0.222253  0.500000  1
  Pa  Pa1  1  0.222253  0.777747  0.000000  1
  Pa  Pa2  1  0.222253  0.777747  0.500000  1
  Pa  Pa3  1  0.777747  0.222253  0.000000  1
  Hg  Hg4  1  0.501380  0.501380  0.750000  1
  Hg  Hg5  1  0.498620  0.498620  0.250000  1
  Rh  Rh6  1  0.742878  0.742878  0.000807  1
  Rh  Rh7  1  0.742878  0.742878  0.499193  1
  Rh  Rh8  1  0.257122  0.257122  0.999193  1
  Rh  Rh9  1  0.257122  0.257122  0.500807  1
  Rh  Rh10  1  0.499811  0.000776  0.750000  1
  Rh  Rh11  1  0.500189  0.999224  0.250000  1
  Rh  Rh12  1  0.000613  0.000613  0.250000  1
  Rh  Rh13  1  0.999387  0.999387  0.750000  1
  Rh  Rh14  1  0.000776  0.499811  0.750000  1
  Rh  Rh15  1  0.999224  0.500189  0.250000  1
