# generated using pymatgen
data_La3Pr7Al(ZnRu2)3
_symmetry_space_group_name_H-M   'P 1'
_cell_length_a   8.52721332
_cell_length_b   8.66582768
_cell_length_c   8.52916833
_cell_angle_alpha   109.22559396
_cell_angle_beta   109.23654433
_cell_angle_gamma   109.83532198
_symmetry_Int_Tables_number   1
_chemical_formula_structural   La3Pr7Al(ZnRu2)3
_chemical_formula_sum   'La3 Pr7 Al1 Zn3 Ru6'
_cell_volume   485.85997322
_cell_formula_units_Z   1
loop_
 _symmetry_equiv_pos_site_id
 _symmetry_equiv_pos_as_xyz
  1  'x, y, z'
loop_
 _atom_site_type_symbol
 _atom_site_label
 _atom_site_symmetry_multiplicity
 _atom_site_fract_x
 _atom_site_fract_y
 _atom_site_fract_z
 _atom_site_occupancy
  La  La0  1  0.251613  0.688045  0.443276  1
  La  La1  1  0.749690  0.810494  0.057819  1
  La  La2  1  0.443084  0.251456  0.691475  1
  Pr  Pr3  1  0.686622  0.433687  0.250683  1
  Pr  Pr4  1  0.062299  0.747444  0.813058  1
  Pr  Pr5  1  0.815687  0.066682  0.751869  1
  Pr  Pr6  1  0.221072  0.221207  0.221074  1
  Pr  Pr7  1  0.498558  0.998037  0.277658  1
  Pr  Pr8  1  0.280217  0.502840  0.001060  1
  Pr  Pr9  1  0.999886  0.279153  0.499912  1
  Al  Al10  1  0.997945  0.909380  0.499625  1
  Zn  Zn11  1  0.590466  0.588786  0.585451  1
  Zn  Zn12  1  0.499899  0.002119  0.913984  1
  Zn  Zn13  1  0.913969  0.499433  0.002437  1
  Ru  Ru14  1  0.246077  0.126003  0.861596  1
  Ru  Ru15  1  0.738427  0.367044  0.621186  1
  Ru  Ru16  1  0.878444  0.251012  0.127504  1
  Ru  Ru17  1  0.116866  0.871473  0.253044  1
  Ru  Ru18  1  0.632993  0.754104  0.375573  1
  Ru  Ru19  1  0.376184  0.631601  0.751714  1
