# generated using pymatgen
data_GdLu4Sc(TeO6)3
_symmetry_space_group_name_H-M   'P 1'
_cell_length_a   9.01981866
_cell_length_b   9.02513612
_cell_length_c   5.10065742
_cell_angle_alpha   89.99999918
_cell_angle_beta   90.36371803
_cell_angle_gamma   120.01950820
_symmetry_Int_Tables_number   1
_chemical_formula_structural   GdLu4Sc(TeO6)3
_chemical_formula_sum   'Gd1 Lu4 Sc1 Te3 O18'
_cell_volume   359.51024905
_cell_formula_units_Z   1
loop_
 _symmetry_equiv_pos_site_id
 _symmetry_equiv_pos_as_xyz
  1  'x, y, z'
loop_
 _atom_site_type_symbol
 _atom_site_label
 _atom_site_symmetry_multiplicity
 _atom_site_fract_x
 _atom_site_fract_y
 _atom_site_fract_z
 _atom_site_occupancy
  Gd  Gd0  1  0.000000  0.618601  0.000000  1
  Lu  Lu1  1  0.374602  0.376179  0.999044  1
  Lu  Lu2  1  0.285140  0.999684  0.499269  1
  Lu  Lu3  1  0.714860  0.714543  0.500731  1
  Lu  Lu4  1  0.625398  0.001577  0.000956  1
  Sc  Sc5  1  0.000000  0.290911  0.500000  1
  Te  Te6  1  0.335184  0.664777  0.502417  1
  Te  Te7  1  0.000000  0.005934  0.000000  1
  Te  Te8  1  0.664816  0.329591  0.497583  1
  O  O9  1  0.082326  0.885833  0.783195  1
  O  O10  1  0.227216  0.764590  0.291201  1
  O  O11  1  0.130193  0.533520  0.709910  1
  O  O12  1  0.411280  0.867495  0.724566  1
  O  O13  1  0.232746  0.456570  0.284377  1
  O  O14  1  0.115231  0.208746  0.780192  1
  O  O15  1  0.208241  0.123649  0.206941  1
  O  O16  1  0.539938  0.776090  0.284673  1
  O  O17  1  0.460368  0.586378  0.718527  1
  O  O18  1  0.791759  0.915408  0.793059  1
  O  O19  1  0.460062  0.236152  0.715327  1
  O  O20  1  0.588720  0.456215  0.275434  1
  O  O21  1  0.539632  0.126010  0.281473  1
  O  O22  1  0.772784  0.537375  0.708799  1
  O  O23  1  0.917674  0.803507  0.216805  1
  O  O24  1  0.767254  0.223823  0.715623  1
  O  O25  1  0.869807  0.403328  0.290090  1
  O  O26  1  0.884769  0.093514  0.219808  1
