# generated using pymatgen
data_Na5La15Pb16
_symmetry_space_group_name_H-M   'P 1'
_cell_length_a   8.20914501
_cell_length_b   8.73329025
_cell_length_c   16.38467600
_cell_angle_alpha   89.98913562
_cell_angle_beta   89.71158464
_cell_angle_gamma   90.12285046
_symmetry_Int_Tables_number   1
_chemical_formula_structural   Na5La15Pb16
_chemical_formula_sum   'Na5 La15 Pb16'
_cell_volume   1174.64644780
_cell_formula_units_Z   1
loop_
 _symmetry_equiv_pos_site_id
 _symmetry_equiv_pos_as_xyz
  1  'x, y, z'
loop_
 _atom_site_type_symbol
 _atom_site_label
 _atom_site_symmetry_multiplicity
 _atom_site_fract_x
 _atom_site_fract_y
 _atom_site_fract_z
 _atom_site_occupancy
  Na  Na0  1  0.339272  0.839186  0.873450  1
  Na  Na1  1  0.166135  0.497510  0.751633  1
  Na  Na2  1  0.663293  0.003008  0.754639  1
  Na  Na3  1  0.832434  0.506098  0.249408  1
  Na  Na4  1  0.332361  0.992121  0.250108  1
  La  La5  1  0.839606  0.668046  0.626778  1
  La  La6  1  0.659766  0.167324  0.374212  1
  La  La7  1  0.163758  0.331679  0.123453  1
  La  La8  1  0.660355  0.168756  0.125407  1
  La  La9  1  0.158952  0.330701  0.373728  1
  La  La10  1  0.342327  0.830454  0.628867  1
  La  La11  1  0.838515  0.669527  0.873438  1
  La  La12  1  0.494849  0.308492  0.904385  1
  La  La13  1  0.999692  0.185850  0.597566  1
  La  La14  1  0.503621  0.685613  0.404608  1
  La  La15  1  0.003594  0.812234  0.095264  1
  La  La16  1  0.501319  0.689580  0.091520  1
  La  La17  1  0.003314  0.812799  0.404133  1
  La  La18  1  0.498942  0.313626  0.596615  1
  La  La19  1  0.999415  0.183901  0.901362  1
  Pb  Pb20  1  0.319619  0.035348  0.037584  1
  Pb  Pb21  1  0.816664  0.461039  0.461556  1
  Pb  Pb22  1  0.684676  0.961856  0.539795  1
  Pb  Pb23  1  0.180831  0.544639  0.958650  1
  Pb  Pb24  1  0.677986  0.962936  0.961424  1
  Pb  Pb25  1  0.185584  0.537768  0.538878  1
  Pb  Pb26  1  0.315462  0.037176  0.462221  1
  Pb  Pb27  1  0.821327  0.463510  0.038578  1
  Pb  Pb28  1  0.528009  0.595914  0.753460  1
  Pb  Pb29  1  0.031259  0.903625  0.751147  1
  Pb  Pb30  1  0.470258  0.403766  0.249130  1
  Pb  Pb31  1  0.971906  0.095454  0.248531  1
  Pb  Pb32  1  0.296187  0.149051  0.749119  1
  Pb  Pb33  1  0.796290  0.353317  0.750587  1
  Pb  Pb34  1  0.700060  0.853391  0.249227  1
  Pb  Pb35  1  0.202360  0.644706  0.249537  1
