# generated using pymatgen
data_La10Sn3Bi3P2
_symmetry_space_group_name_H-M   'P 1'
_cell_length_a   9.68740600
_cell_length_b   9.68740640
_cell_length_c   7.07961200
_cell_angle_alpha   90.00000000
_cell_angle_beta   90.00000000
_cell_angle_gamma   120.00001229
_symmetry_Int_Tables_number   1
_chemical_formula_structural   La10Sn3Bi3P2
_chemical_formula_sum   'La10 Sn3 Bi3 P2'
_cell_volume   575.38038888
_cell_formula_units_Z   1
loop_
 _symmetry_equiv_pos_site_id
 _symmetry_equiv_pos_as_xyz
  1  'x, y, z'
loop_
 _atom_site_type_symbol
 _atom_site_label
 _atom_site_symmetry_multiplicity
 _atom_site_fract_x
 _atom_site_fract_y
 _atom_site_fract_z
 _atom_site_occupancy
  La  La0  1  0.760766  0.760766  0.750000  1
  La  La1  1  0.239234  0.000000  0.750000  1
  La  La2  1  0.000000  0.239234  0.750000  1
  La  La3  1  0.239012  0.239012  0.250000  1
  La  La4  1  0.760988  0.000000  0.250000  1
  La  La5  1  0.000000  0.760988  0.250000  1
  La  La6  1  0.666667  0.333333  0.995886  1
  La  La7  1  0.333333  0.666667  0.995886  1
  La  La8  1  0.333333  0.666667  0.504114  1
  La  La9  1  0.666667  0.333333  0.504114  1
  Sn  Sn10  1  0.397130  0.397130  0.750000  1
  Sn  Sn11  1  0.602870  0.000000  0.750000  1
  Sn  Sn12  1  0.000000  0.602870  0.750000  1
  Bi  Bi13  1  0.603596  0.603596  0.250000  1
  Bi  Bi14  1  0.396404  0.000000  0.250000  1
  Bi  Bi15  1  0.000000  0.396404  0.250000  1
  P  P16  1  0.000000  0.000000  0.001173  1
  P  P17  1  0.000000  0.000000  0.498827  1
