# generated using pymatgen
data_La6Yb2DyIr6
_symmetry_space_group_name_H-M   'P 1'
_cell_length_a   7.67701651
_cell_length_b   7.67701644
_cell_length_c   7.67701768
_cell_angle_alpha   70.38252339
_cell_angle_beta   70.38253185
_cell_angle_gamma   70.38251710
_symmetry_Int_Tables_number   1
_chemical_formula_structural   La6Yb2DyIr6
_chemical_formula_sum   'La6 Yb2 Dy1 Ir6'
_cell_volume   388.56762755
_cell_formula_units_Z   1
loop_
 _symmetry_equiv_pos_site_id
 _symmetry_equiv_pos_as_xyz
  1  'x, y, z'
loop_
 _atom_site_type_symbol
 _atom_site_label
 _atom_site_symmetry_multiplicity
 _atom_site_fract_x
 _atom_site_fract_y
 _atom_site_fract_z
 _atom_site_occupancy
  La  La0  1  0.145514  0.391774  0.679983  1
  La  La1  1  0.679983  0.145514  0.391774  1
  La  La2  1  0.391774  0.679983  0.145514  1
  La  La3  1  0.855281  0.606199  0.320176  1
  La  La4  1  0.320176  0.855281  0.606199  1
  La  La5  1  0.606199  0.320176  0.855281  1
  Yb  Yb6  1  0.002159  0.002159  0.002159  1
  Yb  Yb7  1  0.195452  0.195452  0.195452  1
  Dy  Dy8  1  0.807996  0.807996  0.807996  1
  Ir  Ir9  1  0.949170  0.169313  0.589029  1
  Ir  Ir10  1  0.589029  0.949170  0.169313  1
  Ir  Ir11  1  0.169313  0.589029  0.949170  1
  Ir  Ir12  1  0.043874  0.819206  0.424877  1
  Ir  Ir13  1  0.424877  0.043874  0.819206  1
  Ir  Ir14  1  0.819206  0.424877  0.043874  1
