# generated using pymatgen
data_La6Y2HoRh6
_symmetry_space_group_name_H-M   'P 1'
_cell_length_a   7.65282886
_cell_length_b   7.65282697
_cell_length_c   7.65282900
_cell_angle_alpha   70.86765464
_cell_angle_beta   70.86764370
_cell_angle_gamma   70.86764965
_symmetry_Int_Tables_number   1
_chemical_formula_structural   La6Y2HoRh6
_chemical_formula_sum   'La6 Y2 Ho1 Rh6'
_cell_volume   387.66873285
_cell_formula_units_Z   1
loop_
 _symmetry_equiv_pos_site_id
 _symmetry_equiv_pos_as_xyz
  1  'x, y, z'
loop_
 _atom_site_type_symbol
 _atom_site_label
 _atom_site_symmetry_multiplicity
 _atom_site_fract_x
 _atom_site_fract_y
 _atom_site_fract_z
 _atom_site_occupancy
  La  La0  1  0.159020  0.388444  0.672161  1
  La  La1  1  0.672161  0.159020  0.388444  1
  La  La2  1  0.388444  0.672161  0.159020  1
  La  La3  1  0.840980  0.611556  0.327839  1
  La  La4  1  0.327839  0.840980  0.611556  1
  La  La5  1  0.611556  0.327839  0.840980  1
  Y  Y6  1  0.802211  0.802211  0.802211  1
  Y  Y7  1  0.197789  0.197789  0.197789  1
  Ho  Ho8  1  0.000000  0.000000  0.000000  1
  Rh  Rh9  1  0.957261  0.161203  0.593259  1
  Rh  Rh10  1  0.593259  0.957261  0.161203  1
  Rh  Rh11  1  0.161203  0.593259  0.957261  1
  Rh  Rh12  1  0.042739  0.838797  0.406741  1
  Rh  Rh13  1  0.406741  0.042739  0.838797  1
  Rh  Rh14  1  0.838797  0.406741  0.042739  1
