# generated using pymatgen
data_La3Sm3Sn7Hg3
_symmetry_space_group_name_H-M   'P 1'
_cell_length_a   6.61242010
_cell_length_b   6.61763039
_cell_length_c   10.48006792
_cell_angle_alpha   90.43884427
_cell_angle_beta   90.45346014
_cell_angle_gamma   102.76110986
_symmetry_Int_Tables_number   1
_chemical_formula_structural   La3Sm3Sn7Hg3
_chemical_formula_sum   'La3 Sm3 Sn7 Hg3'
_cell_volume   447.23032133
_cell_formula_units_Z   1
loop_
 _symmetry_equiv_pos_site_id
 _symmetry_equiv_pos_as_xyz
  1  'x, y, z'
loop_
 _atom_site_type_symbol
 _atom_site_label
 _atom_site_symmetry_multiplicity
 _atom_site_fract_x
 _atom_site_fract_y
 _atom_site_fract_z
 _atom_site_occupancy
  La  La0  1  0.206536  0.792032  0.000607  1
  La  La1  1  0.796619  0.206050  0.500103  1
  La  La2  1  0.792239  0.206015  0.000416  1
  Sm  Sm3  1  0.627301  0.628311  0.251504  1
  Sm  Sm4  1  0.371846  0.372587  0.744997  1
  Sm  Sm5  1  0.204994  0.797867  0.499400  1
  Sn  Sn6  1  0.016909  0.014790  0.248278  1
  Sn  Sn7  1  0.985200  0.982938  0.750285  1
  Sn  Sn8  1  0.689508  0.689152  0.545478  1
  Sn  Sn9  1  0.489135  0.069844  0.249808  1
  Sn  Sn10  1  0.932823  0.511023  0.751187  1
  Sn  Sn11  1  0.506558  0.929319  0.749896  1
  Sn  Sn12  1  0.073346  0.493674  0.251051  1
  Hg  Hg13  1  0.313263  0.313280  0.038968  1
  Hg  Hg14  1  0.686035  0.686476  0.960527  1
  Hg  Hg15  1  0.307688  0.306641  0.457495  1
