# generated using pymatgen
data_SmEr7Hf12Si15Au
_symmetry_space_group_name_H-M   'P 1'
_cell_length_a   7.25753855
_cell_length_b   7.30803669
_cell_length_c   13.37600415
_cell_angle_alpha   89.89590812
_cell_angle_beta   89.89451516
_cell_angle_gamma   90.01024617
_symmetry_Int_Tables_number   1
_chemical_formula_structural   SmEr7Hf12Si15Au
_chemical_formula_sum   'Sm1 Er7 Hf12 Si15 Au1'
_cell_volume   709.43891215
_cell_formula_units_Z   1
loop_
 _symmetry_equiv_pos_site_id
 _symmetry_equiv_pos_as_xyz
  1  'x, y, z'
loop_
 _atom_site_type_symbol
 _atom_site_label
 _atom_site_symmetry_multiplicity
 _atom_site_fract_x
 _atom_site_fract_y
 _atom_site_fract_z
 _atom_site_occupancy
  Sm  Sm0  1  0.988153  0.346622  0.214138  1
  Er  Er1  1  0.005382  0.654265  0.715639  1
  Er  Er2  1  0.155548  0.498185  0.466980  1
  Er  Er3  1  0.504330  0.843157  0.032690  1
  Er  Er4  1  0.844422  0.502832  0.964273  1
  Er  Er5  1  0.497346  0.153436  0.538385  1
  Er  Er6  1  0.343803  0.997125  0.784536  1
  Er  Er7  1  0.661017  0.996816  0.284150  1
  Hf  Hf8  1  0.175552  0.176224  0.998302  1
  Hf  Hf9  1  0.826209  0.825036  0.501302  1
  Hf  Hf10  1  0.325006  0.682016  0.248924  1
  Hf  Hf11  1  0.676136  0.323932  0.750282  1
  Hf  Hf12  1  0.146105  0.998562  0.375524  1
  Hf  Hf13  1  0.853217  0.002387  0.873759  1
  Hf  Hf14  1  0.504090  0.648716  0.625353  1
  Hf  Hf15  1  0.353259  0.495656  0.874246  1
  Hf  Hf16  1  0.494392  0.351812  0.120683  1
  Hf  Hf17  1  0.650954  0.512236  0.381894  1
  Hf  Hf18  1  0.996068  0.146834  0.627146  1
  Hf  Hf19  1  0.000287  0.849658  0.123090  1
  Si  Si20  1  0.639533  0.706076  0.818645  1
  Si  Si21  1  0.204689  0.860724  0.568685  1
  Si  Si22  1  0.139796  0.795409  0.930921  1
  Si  Si23  1  0.793188  0.136984  0.064397  1
  Si  Si24  1  0.857848  0.200359  0.436147  1
  Si  Si25  1  0.296157  0.360752  0.682442  1
  Si  Si26  1  0.701061  0.642314  0.181705  1
  Si  Si27  1  0.294140  0.044504  0.181413  1
  Si  Si28  1  0.704091  0.949828  0.686025  1
  Si  Si29  1  0.447631  0.797126  0.436309  1
  Si  Si30  1  0.204587  0.551712  0.062480  1
  Si  Si31  1  0.548511  0.202488  0.933787  1
  Si  Si32  1  0.796696  0.449815  0.567219  1
  Si  Si33  1  0.048800  0.296671  0.814811  1
  Si  Si34  1  0.950683  0.706997  0.314427  1
  Au  Au35  1  0.371319  0.292729  0.319295  1
