# generated using pymatgen
data_Zr5Nb(SiOs)6
_symmetry_space_group_name_H-M   'P 1'
_cell_length_a   7.62212906
_cell_length_b   7.61884343
_cell_length_c   7.62212926
_cell_angle_alpha   127.92324932
_cell_angle_beta   121.12018818
_cell_angle_gamma   82.45920813
_symmetry_Int_Tables_number   1
_chemical_formula_structural   Zr5Nb(SiOs)6
_chemical_formula_sum   'Zr5 Nb1 Si6 Os6'
_cell_volume   287.29829875
_cell_formula_units_Z   1
loop_
 _symmetry_equiv_pos_site_id
 _symmetry_equiv_pos_as_xyz
  1  'x, y, z'
loop_
 _atom_site_type_symbol
 _atom_site_label
 _atom_site_symmetry_multiplicity
 _atom_site_fract_x
 _atom_site_fract_y
 _atom_site_fract_z
 _atom_site_occupancy
  Zr  Zr0  1  0.450090  0.411273  0.461183  1
  Zr  Zr1  1  0.549460  0.002475  0.953015  1
  Zr  Zr2  1  0.030246  0.010082  0.479837  1
  Zr  Zr3  1  0.968281  0.442651  0.974369  1
  Zr  Zr4  1  0.246723  0.577874  0.831150  1
  Nb  Nb5  1  0.750742  0.584579  0.333837  1
  Si  Si6  1  0.231438  0.996059  0.264621  1
  Si  Si7  1  0.776810  0.003110  0.726300  1
  Si  Si8  1  0.166072  0.670572  0.507128  1
  Si  Si9  1  0.823830  0.338715  0.495138  1
  Si  Si10  1  0.663443  0.670572  0.004501  1
  Si  Si11  1  0.343579  0.338715  0.014886  1
  Os  Os12  1  0.978353  0.247787  0.226527  1
  Os  Os13  1  0.521260  0.247787  0.769435  1
  Os  Os14  1  0.394922  0.757619  0.398766  1
  Os  Os15  1  0.595880  0.000255  0.350237  1
  Os  Os16  1  0.858852  0.757619  0.862696  1
  Os  Os17  1  0.150018  0.000255  0.904376  1
