# generated using pymatgen
data_CeNd4P12Ru17Pt2
_symmetry_space_group_name_H-M   'P 1'
_cell_length_a   12.64853311
_cell_length_b   12.72945856
_cell_length_c   4.01748900
_cell_angle_alpha   90.00000000
_cell_angle_beta   90.00000000
_cell_angle_gamma   120.25529190
_symmetry_Int_Tables_number   1
_chemical_formula_structural   CeNd4P12Ru17Pt2
_chemical_formula_sum   'Ce1 Nd4 P12 Ru17 Pt2'
_cell_volume   558.74344998
_cell_formula_units_Z   1
loop_
 _symmetry_equiv_pos_site_id
 _symmetry_equiv_pos_as_xyz
  1  'x, y, z'
loop_
 _atom_site_type_symbol
 _atom_site_label
 _atom_site_symmetry_multiplicity
 _atom_site_fract_x
 _atom_site_fract_y
 _atom_site_fract_z
 _atom_site_occupancy
  Ce  Ce0  1  0.670623  0.334644  0.000000  1
  Nd  Nd1  1  0.184315  0.182876  0.500000  1
  Nd  Nd2  1  0.815531  0.998486  0.500000  1
  Nd  Nd3  1  0.999939  0.814042  0.500000  1
  Nd  Nd4  1  0.329054  0.664310  0.000000  1
  P  P5  1  0.811484  0.812103  0.000000  1
  P  P6  1  0.188664  0.000953  0.000000  1
  P  P7  1  0.999804  0.185868  0.000000  1
  P  P8  1  0.170954  0.475500  0.500000  1
  P  P9  1  0.519571  0.701934  0.500000  1
  P  P10  1  0.297170  0.821118  0.500000  1
  P  P11  1  0.702612  0.523640  0.500000  1
  P  P12  1  0.829130  0.304857  0.500000  1
  P  P13  1  0.480258  0.182625  0.500000  1
  P  P14  1  0.367063  0.368075  0.000000  1
  P  P15  1  0.632171  0.998921  0.000000  1
  P  P16  1  0.000898  0.625291  0.000000  1
  Ru  Ru17  1  0.999063  0.444780  0.000000  1
  Ru  Ru18  1  0.709013  0.710179  0.500000  1
  Ru  Ru19  1  0.291359  0.002150  0.500000  1
  Ru  Ru20  1  0.999375  0.283762  0.500000  1
  Ru  Ru21  1  0.184183  0.378180  0.000000  1
  Ru  Ru22  1  0.617898  0.803514  0.000000  1
  Ru  Ru23  1  0.195140  0.816980  0.000000  1
  Ru  Ru24  1  0.805112  0.620325  0.000000  1
  Ru  Ru25  1  0.813937  0.194112  0.000000  1
  Ru  Ru26  1  0.383489  0.187443  0.000000  1
  Ru  Ru27  1  0.367624  0.492909  0.500000  1
  Ru  Ru28  1  0.507865  0.880021  0.500000  1
  Ru  Ru29  1  0.121462  0.629942  0.500000  1
  Ru  Ru30  1  0.875177  0.505656  0.500000  1
  Ru  Ru31  1  0.632634  0.129351  0.500000  1
  Ru  Ru32  1  0.495440  0.372131  0.500000  1
  Ru  Ru33  1  0.000044  0.998931  0.000000  1
  Pt  Pt34  1  0.551856  0.551445  0.000000  1
  Pt  Pt35  1  0.450088  0.002946  0.000000  1
