# generated using pymatgen
data_Th3AlCd2Pd3
_symmetry_space_group_name_H-M   'P 1'
_cell_length_a   7.63034598
_cell_length_b   7.51563676
_cell_length_c   4.13848900
_cell_angle_alpha   90.00000000
_cell_angle_beta   90.00000000
_cell_angle_gamma   119.50394394
_symmetry_Int_Tables_number   1
_chemical_formula_structural   Th3AlCd2Pd3
_chemical_formula_sum   'Th3 Al1 Cd2 Pd3'
_cell_volume   206.55308154
_cell_formula_units_Z   1
loop_
 _symmetry_equiv_pos_site_id
 _symmetry_equiv_pos_as_xyz
  1  'x, y, z'
loop_
 _atom_site_type_symbol
 _atom_site_label
 _atom_site_symmetry_multiplicity
 _atom_site_fract_x
 _atom_site_fract_y
 _atom_site_fract_z
 _atom_site_occupancy
  Th  Th0  1  0.409638  0.412468  0.500000  1
  Th  Th1  1  0.590362  0.002830  0.500000  1
  Th  Th2  1  0.000000  0.578869  0.500000  1
  Al  Al3  1  0.000000  0.239602  0.000000  1
  Cd  Cd4  1  0.755553  0.754913  0.000000  1
  Cd  Cd5  1  0.244447  0.999360  0.000000  1
  Pd  Pd6  1  0.682347  0.329522  0.000000  1
  Pd  Pd7  1  0.317653  0.647176  0.000000  1
  Pd  Pd8  1  0.000000  0.035260  0.500000  1
