# generated using pymatgen
data_TaBeCoB2
_symmetry_space_group_name_H-M   'P 1'
_cell_length_a   3.19410872
_cell_length_b   3.19410915
_cell_length_c   5.00080843
_cell_angle_alpha   108.62418238
_cell_angle_beta   108.62419384
_cell_angle_gamma   90.00000103
_symmetry_Int_Tables_number   1
_chemical_formula_structural   TaBeCoB2
_chemical_formula_sum   'Ta1 Be1 Co1 B2'
_cell_volume   45.51991301
_cell_formula_units_Z   1
loop_
 _symmetry_equiv_pos_site_id
 _symmetry_equiv_pos_as_xyz
  1  'x, y, z'
loop_
 _atom_site_type_symbol
 _atom_site_label
 _atom_site_symmetry_multiplicity
 _atom_site_fract_x
 _atom_site_fract_y
 _atom_site_fract_z
 _atom_site_occupancy
  Ta  Ta0  1  0.000000  0.000000  0.000000  1
  Be  Be1  1  0.749999  0.249998  0.500000  1
  Co  Co2  1  0.249998  0.749999  0.500000  1
  B  B3  1  0.599653  0.599653  0.199306  1
  B  B4  1  0.400347  0.400347  0.800694  1
