# generated using pymatgen
data_TbLu2(Co3P2)3
_symmetry_space_group_name_H-M   'P 1'
_cell_length_a   3.67324500
_cell_length_b   10.46695400
_cell_length_c   12.11728300
_cell_angle_alpha   90.00000000
_cell_angle_beta   90.00000000
_cell_angle_gamma   90.00000000
_symmetry_Int_Tables_number   1
_chemical_formula_structural   TbLu2(Co3P2)3
_chemical_formula_sum   'Tb2 Lu4 Co18 P12'
_cell_volume   465.88149736
_cell_formula_units_Z   2
loop_
 _symmetry_equiv_pos_site_id
 _symmetry_equiv_pos_as_xyz
  1  'x, y, z'
loop_
 _atom_site_type_symbol
 _atom_site_label
 _atom_site_symmetry_multiplicity
 _atom_site_fract_x
 _atom_site_fract_y
 _atom_site_fract_z
 _atom_site_occupancy
  Tb  Tb0  1  0.000000  0.500000  0.523080  1
  Tb  Tb1  1  0.500000  0.000000  0.476920  1
  Lu  Lu2  1  0.500000  0.818515  0.205841  1
  Lu  Lu3  1  0.500000  0.181485  0.205841  1
  Lu  Lu4  1  0.000000  0.681485  0.794159  1
  Lu  Lu5  1  0.000000  0.318515  0.794159  1
  Co  Co6  1  0.500000  0.500000  0.159576  1
  Co  Co7  1  0.000000  0.000000  0.840424  1
  Co  Co8  1  0.500000  0.500000  0.705572  1
  Co  Co9  1  0.000000  0.000000  0.294428  1
  Co  Co10  1  0.000000  0.500000  0.987110  1
  Co  Co11  1  0.500000  0.000000  0.012890  1
  Co  Co12  1  0.500000  0.333014  0.994839  1
  Co  Co13  1  0.500000  0.666986  0.994839  1
  Co  Co14  1  0.000000  0.166986  0.005161  1
  Co  Co15  1  0.000000  0.833014  0.005161  1
  Co  Co16  1  0.500000  0.296863  0.430085  1
  Co  Co17  1  0.500000  0.703137  0.430085  1
  Co  Co18  1  0.000000  0.203137  0.569915  1
  Co  Co19  1  0.000000  0.796863  0.569915  1
  Co  Co20  1  0.500000  0.878075  0.710012  1
  Co  Co21  1  0.500000  0.121925  0.710012  1
  Co  Co22  1  0.000000  0.621925  0.289988  1
  Co  Co23  1  0.000000  0.378075  0.289988  1
  P  P24  1  0.500000  0.500000  0.882915  1
  P  P25  1  0.000000  0.000000  0.117085  1
  P  P26  1  0.500000  0.500000  0.343875  1
  P  P27  1  0.000000  0.000000  0.656125  1
  P  P28  1  0.500000  0.310486  0.617516  1
  P  P29  1  0.500000  0.689514  0.617516  1
  P  P30  1  0.000000  0.189514  0.382484  1
  P  P31  1  0.000000  0.810486  0.382484  1
  P  P32  1  0.500000  0.846107  0.891755  1
  P  P33  1  0.500000  0.153893  0.891755  1
  P  P34  1  0.000000  0.653893  0.108245  1
  P  P35  1  0.000000  0.346107  0.108245  1
