# generated using pymatgen
data_HoScCo12SiP6
_symmetry_space_group_name_H-M   'P 1'
_cell_length_a   8.96885900
_cell_length_b   8.96885948
_cell_length_c   3.55986400
_cell_angle_alpha   90.00000000
_cell_angle_beta   90.00000000
_cell_angle_gamma   120.00000193
_symmetry_Int_Tables_number   1
_chemical_formula_structural   HoScCo12SiP6
_chemical_formula_sum   'Ho1 Sc1 Co12 Si1 P6'
_cell_volume   247.99244250
_cell_formula_units_Z   1
loop_
 _symmetry_equiv_pos_site_id
 _symmetry_equiv_pos_as_xyz
  1  'x, y, z'
loop_
 _atom_site_type_symbol
 _atom_site_label
 _atom_site_symmetry_multiplicity
 _atom_site_fract_x
 _atom_site_fract_y
 _atom_site_fract_z
 _atom_site_occupancy
  Ho  Ho0  1  0.666667  0.333333  0.500000  1
  Sc  Sc1  1  0.333333  0.666667  0.000000  1
  Co  Co2  1  0.123609  0.840275  0.000000  1
  Co  Co3  1  0.384642  0.439010  0.500000  1
  Co  Co4  1  0.716666  0.876391  0.000000  1
  Co  Co5  1  0.560990  0.945631  0.500000  1
  Co  Co6  1  0.231659  0.100342  0.500000  1
  Co  Co7  1  0.868684  0.768341  0.500000  1
  Co  Co8  1  0.899658  0.131316  0.500000  1
  Co  Co9  1  0.941053  0.375191  0.000000  1
  Co  Co10  1  0.624809  0.565864  0.000000  1
  Co  Co11  1  0.434136  0.058947  0.000000  1
  Co  Co12  1  0.054369  0.615358  0.500000  1
  Co  Co13  1  0.159725  0.283334  0.000000  1
  Si  Si14  1  0.000000  0.000000  0.000000  1
  P  P15  1  0.592734  0.709333  0.500000  1
  P  P16  1  0.707207  0.113302  0.000000  1
  P  P17  1  0.886698  0.593906  0.000000  1
  P  P18  1  0.406094  0.292793  0.000000  1
  P  P19  1  0.290667  0.883402  0.500000  1
  P  P20  1  0.116598  0.407266  0.500000  1
