# generated using pymatgen
data_Pa10ReSb7
_symmetry_space_group_name_H-M   'P 1'
_cell_length_a   9.22205900
_cell_length_b   9.22205856
_cell_length_c   6.23306200
_cell_angle_alpha   90.00000000
_cell_angle_beta   90.00000000
_cell_angle_gamma   120.00001232
_symmetry_Int_Tables_number   1
_chemical_formula_structural   Pa10ReSb7
_chemical_formula_sum   'Pa10 Re1 Sb7'
_cell_volume   459.07939097
_cell_formula_units_Z   1
loop_
 _symmetry_equiv_pos_site_id
 _symmetry_equiv_pos_as_xyz
  1  'x, y, z'
loop_
 _atom_site_type_symbol
 _atom_site_label
 _atom_site_symmetry_multiplicity
 _atom_site_fract_x
 _atom_site_fract_y
 _atom_site_fract_z
 _atom_site_occupancy
  Pa  Pa0  1  0.333333  0.666667  0.000000  1
  Pa  Pa1  1  0.666667  0.333333  0.000000  1
  Pa  Pa2  1  0.666667  0.333333  0.500000  1
  Pa  Pa3  1  0.333333  0.666667  0.500000  1
  Pa  Pa4  1  0.271650  0.000000  0.225190  1
  Pa  Pa5  1  0.728350  0.000000  0.774810  1
  Pa  Pa6  1  0.000000  0.271650  0.225190  1
  Pa  Pa7  1  0.000000  0.728350  0.774810  1
  Pa  Pa8  1  0.728350  0.728350  0.225190  1
  Pa  Pa9  1  0.271650  0.271650  0.774810  1
  Re  Re10  1  0.000000  0.000000  0.000000  1
  Sb  Sb11  1  0.000000  0.000000  0.500000  1
  Sb  Sb12  1  0.616749  0.000000  0.260055  1
  Sb  Sb13  1  0.383251  0.000000  0.739945  1
  Sb  Sb14  1  0.000000  0.616749  0.260055  1
  Sb  Sb15  1  0.000000  0.383251  0.739945  1
  Sb  Sb16  1  0.383251  0.383251  0.260055  1
  Sb  Sb17  1  0.616749  0.616749  0.739945  1
