# generated using pymatgen
data_YbP2OsRu
_symmetry_space_group_name_H-M   'P 1'
_cell_length_a   5.58102194
_cell_length_b   5.58102170
_cell_length_c   5.58102200
_cell_angle_alpha   136.69804575
_cell_angle_beta   136.69804310
_cell_angle_gamma   62.90297459
_symmetry_Int_Tables_number   1
_chemical_formula_structural   YbP2OsRu
_chemical_formula_sum   'Yb1 P2 Os1 Ru1'
_cell_volume   80.74785775
_cell_formula_units_Z   1
loop_
 _symmetry_equiv_pos_site_id
 _symmetry_equiv_pos_as_xyz
  1  'x, y, z'
loop_
 _atom_site_type_symbol
 _atom_site_label
 _atom_site_symmetry_multiplicity
 _atom_site_fract_x
 _atom_site_fract_y
 _atom_site_fract_z
 _atom_site_occupancy
  Yb  Yb0  1  0.000000  0.000000  0.000000  1
  P  P1  1  0.369954  0.369954  0.000000  1
  P  P2  1  0.630046  0.630046  0.000000  1
  Os  Os3  1  0.250000  0.750000  0.500000  1
  Ru  Ru4  1  0.750000  0.250000  0.500000  1
