# generated using pymatgen
data_NdDy7(AlRu)8
_symmetry_space_group_name_H-M   'P 1'
_cell_length_a   4.07627000
_cell_length_b   6.99860842
_cell_length_c   15.92342202
_cell_angle_alpha   89.86391196
_cell_angle_beta   90.00000000
_cell_angle_gamma   90.00000000
_symmetry_Int_Tables_number   1
_chemical_formula_structural   NdDy7(AlRu)8
_chemical_formula_sum   'Nd1 Dy7 Al8 Ru8'
_cell_volume   454.26556565
_cell_formula_units_Z   1
loop_
 _symmetry_equiv_pos_site_id
 _symmetry_equiv_pos_as_xyz
  1  'x, y, z'
loop_
 _atom_site_type_symbol
 _atom_site_label
 _atom_site_symmetry_multiplicity
 _atom_site_fract_x
 _atom_site_fract_y
 _atom_site_fract_z
 _atom_site_occupancy
  Nd  Nd0  1  0.250000  0.534379  0.721048  1
  Dy  Dy1  1  0.750000  0.964152  0.219484  1
  Dy  Dy2  1  0.250000  0.159858  0.561658  1
  Dy  Dy3  1  0.750000  0.843305  0.436054  1
  Dy  Dy4  1  0.750000  0.463893  0.280702  1
  Dy  Dy5  1  0.750000  0.339613  0.063572  1
  Dy  Dy6  1  0.250000  0.657040  0.938627  1
  Dy  Dy7  1  0.250000  0.035596  0.781660  1
  Al  Al8  1  0.750000  0.502711  0.562991  1
  Al  Al9  1  0.750000  0.360365  0.851839  1
  Al  Al10  1  0.750000  0.998609  0.935971  1
  Al  Al11  1  0.750000  0.869146  0.649261  1
  Al  Al12  1  0.250000  0.501262  0.433821  1
  Al  Al13  1  0.250000  0.997495  0.066202  1
  Al  Al14  1  0.250000  0.634045  0.151313  1
  Al  Al15  1  0.250000  0.136362  0.348576  1
  Ru  Ru16  1  0.750000  0.752452  0.813898  1
  Ru  Ru17  1  0.250000  0.233490  0.937762  1
  Ru  Ru18  1  0.750000  0.266221  0.435937  1
  Ru  Ru19  1  0.250000  0.753924  0.311467  1
  Ru  Ru20  1  0.750000  0.763301  0.064338  1
  Ru  Ru21  1  0.750000  0.241158  0.685586  1
  Ru  Ru22  1  0.250000  0.252683  0.187237  1
  Ru  Ru23  1  0.250000  0.738940  0.560998  1
