# generated using pymatgen
data_Na16TiSnP8
_symmetry_space_group_name_H-M   'P 1'
_cell_length_a   9.61754227
_cell_length_b   9.61754291
_cell_length_c   9.61754300
_cell_angle_alpha   60.00000312
_cell_angle_beta   60.00000091
_cell_angle_gamma   59.99999885
_symmetry_Int_Tables_number   1
_chemical_formula_structural   Na16TiSnP8
_chemical_formula_sum   'Na16 Ti1 Sn1 P8'
_cell_volume   629.03872793
_cell_formula_units_Z   1
loop_
 _symmetry_equiv_pos_site_id
 _symmetry_equiv_pos_as_xyz
  1  'x, y, z'
loop_
 _atom_site_type_symbol
 _atom_site_label
 _atom_site_symmetry_multiplicity
 _atom_site_fract_x
 _atom_site_fract_y
 _atom_site_fract_z
 _atom_site_occupancy
  Na  Na0  1  0.625203  0.625203  0.124391  1
  Na  Na1  1  0.625203  0.124391  0.625203  1
  Na  Na2  1  0.124391  0.625203  0.625203  1
  Na  Na3  1  0.625203  0.625203  0.625203  1
  Na  Na4  1  0.031253  0.468747  0.468747  1
  Na  Na5  1  0.772725  0.227275  0.227275  1
  Na  Na6  1  0.468747  0.031253  0.468747  1
  Na  Na7  1  0.468747  0.468747  0.031253  1
  Na  Na8  1  0.031253  0.031253  0.468747  1
  Na  Na9  1  0.031253  0.468747  0.031253  1
  Na  Na10  1  0.468747  0.031253  0.031253  1
  Na  Na11  1  0.772725  0.227275  0.772725  1
  Na  Na12  1  0.227275  0.772725  0.227275  1
  Na  Na13  1  0.227275  0.227275  0.772725  1
  Na  Na14  1  0.772725  0.772725  0.227275  1
  Na  Na15  1  0.227275  0.772725  0.772725  1
  Ti  Ti16  1  0.500000  0.500000  0.500000  1
  Sn  Sn17  1  0.750000  0.750000  0.750000  1
  P  P18  1  0.859260  0.859260  0.422223  1
  P  P19  1  0.859260  0.422223  0.859260  1
  P  P20  1  0.396820  0.396820  0.809538  1
  P  P21  1  0.396820  0.809538  0.396820  1
  P  P22  1  0.809538  0.396820  0.396820  1
  P  P23  1  0.859260  0.859260  0.859260  1
  P  P24  1  0.422223  0.859260  0.859260  1
  P  P25  1  0.396820  0.396820  0.396820  1
