# generated using pymatgen
data_DyHo10Ni4Hg9
_symmetry_space_group_name_H-M   'P 1'
_cell_length_a   3.57944100
_cell_length_b   12.86971950
_cell_length_c   12.86972025
_cell_angle_alpha   112.25800228
_cell_angle_beta   90.00000000
_cell_angle_gamma   90.00000000
_symmetry_Int_Tables_number   1
_chemical_formula_structural   DyHo10Ni4Hg9
_chemical_formula_sum   'Dy1 Ho10 Ni4 Hg9'
_cell_volume   548.68615991
_cell_formula_units_Z   1
loop_
 _symmetry_equiv_pos_site_id
 _symmetry_equiv_pos_as_xyz
  1  'x, y, z'
loop_
 _atom_site_type_symbol
 _atom_site_label
 _atom_site_symmetry_multiplicity
 _atom_site_fract_x
 _atom_site_fract_y
 _atom_site_fract_z
 _atom_site_occupancy
  Dy  Dy0  1  0.000000  0.000000  0.000000  1
  Ho  Ho1  1  0.000000  0.918582  0.583640  1
  Ho  Ho2  1  0.000000  0.081418  0.416360  1
  Ho  Ho3  1  0.000000  0.583640  0.918582  1
  Ho  Ho4  1  0.000000  0.416360  0.081418  1
  Ho  Ho5  1  0.000000  0.165765  0.834235  1
  Ho  Ho6  1  0.000000  0.834235  0.165765  1
  Ho  Ho7  1  0.000000  0.373228  0.626772  1
  Ho  Ho8  1  0.000000  0.626772  0.373228  1
  Ho  Ho9  1  0.000000  0.690332  0.690332  1
  Ho  Ho10  1  0.000000  0.309668  0.309668  1
  Ni  Ni11  1  0.500000  0.748674  0.549355  1
  Ni  Ni12  1  0.500000  0.251326  0.450645  1
  Ni  Ni13  1  0.500000  0.549355  0.748674  1
  Ni  Ni14  1  0.500000  0.450645  0.251326  1
  Hg  Hg15  1  0.500000  0.154204  0.629117  1
  Hg  Hg16  1  0.500000  0.845796  0.370883  1
  Hg  Hg17  1  0.500000  0.629117  0.154204  1
  Hg  Hg18  1  0.500000  0.370883  0.845796  1
  Hg  Hg19  1  0.500000  0.927837  0.781066  1
  Hg  Hg20  1  0.500000  0.072163  0.218934  1
  Hg  Hg21  1  0.500000  0.781066  0.927837  1
  Hg  Hg22  1  0.500000  0.218934  0.072163  1
  Hg  Hg23  1  0.500000  0.500000  0.500000  1
