# generated using pymatgen
data_ScTaCo4As3
_symmetry_space_group_name_H-M   'P 1'
_cell_length_a   3.74240400
_cell_length_b   10.80820200
_cell_length_c   12.39431700
_cell_angle_alpha   90.00000000
_cell_angle_beta   90.00000000
_cell_angle_gamma   90.00000000
_symmetry_Int_Tables_number   1
_chemical_formula_structural   ScTaCo4As3
_chemical_formula_sum   'Sc4 Ta4 Co16 As12'
_cell_volume   501.33349440
_cell_formula_units_Z   4
loop_
 _symmetry_equiv_pos_site_id
 _symmetry_equiv_pos_as_xyz
  1  'x, y, z'
loop_
 _atom_site_type_symbol
 _atom_site_label
 _atom_site_symmetry_multiplicity
 _atom_site_fract_x
 _atom_site_fract_y
 _atom_site_fract_z
 _atom_site_occupancy
  Sc  Sc0  1  0.250000  0.578426  0.707074  1
  Sc  Sc1  1  0.250000  0.921574  0.207074  1
  Sc  Sc2  1  0.750000  0.421574  0.292926  1
  Sc  Sc3  1  0.750000  0.078426  0.792926  1
  Ta  Ta4  1  0.250000  0.703677  0.990948  1
  Ta  Ta5  1  0.250000  0.796323  0.490948  1
  Ta  Ta6  1  0.750000  0.296323  0.009052  1
  Ta  Ta7  1  0.750000  0.203677  0.509052  1
  Co  Co8  1  0.250000  0.403539  0.485930  1
  Co  Co9  1  0.250000  0.096461  0.985930  1
  Co  Co10  1  0.750000  0.596461  0.514070  1
  Co  Co11  1  0.750000  0.903539  0.014070  1
  Co  Co12  1  0.250000  0.217281  0.173136  1
  Co  Co13  1  0.250000  0.282720  0.673136  1
  Co  Co14  1  0.750000  0.782720  0.826864  1
  Co  Co15  1  0.750000  0.717280  0.326864  1
  Co  Co16  1  0.250000  0.885183  0.699823  1
  Co  Co17  1  0.250000  0.614817  0.199823  1
  Co  Co18  1  0.750000  0.114817  0.300177  1
  Co  Co19  1  0.750000  0.385183  0.800177  1
  Co  Co20  1  0.250000  0.463907  0.933764  1
  Co  Co21  1  0.250000  0.036093  0.433764  1
  Co  Co22  1  0.750000  0.536093  0.066236  1
  Co  Co23  1  0.750000  0.963907  0.566236  1
  As  As24  1  0.250000  0.420824  0.122109  1
  As  As25  1  0.250000  0.079176  0.622109  1
  As  As26  1  0.750000  0.579176  0.877891  1
  As  As27  1  0.750000  0.920824  0.377891  1
  As  As28  1  0.250000  0.261408  0.858229  1
  As  As29  1  0.250000  0.238592  0.358229  1
  As  As30  1  0.750000  0.738592  0.141771  1
  As  As31  1  0.750000  0.761408  0.641771  1
  As  As32  1  0.250000  0.587396  0.387571  1
  As  As33  1  0.250000  0.912604  0.887571  1
  As  As34  1  0.750000  0.412604  0.612429  1
  As  As35  1  0.750000  0.087396  0.112429  1
