# generated using pymatgen
data_Hf6Tc3Os2Rh
_symmetry_space_group_name_H-M   'P 1'
_cell_length_a   4.61030000
_cell_length_b   6.51029200
_cell_length_c   13.84343600
_cell_angle_alpha   90.00000000
_cell_angle_beta   90.00002898
_cell_angle_gamma   90.00000000
_symmetry_Int_Tables_number   1
_chemical_formula_structural   Hf6Tc3Os2Rh
_chemical_formula_sum   'Hf12 Tc6 Os4 Rh2'
_cell_volume   415.50241451
_cell_formula_units_Z   2
loop_
 _symmetry_equiv_pos_site_id
 _symmetry_equiv_pos_as_xyz
  1  'x, y, z'
loop_
 _atom_site_type_symbol
 _atom_site_label
 _atom_site_symmetry_multiplicity
 _atom_site_fract_x
 _atom_site_fract_y
 _atom_site_fract_z
 _atom_site_occupancy
  Hf  Hf0  1  0.499998  0.248986  0.998461  1
  Hf  Hf1  1  0.499998  0.751015  0.998461  1
  Hf  Hf2  1  0.999998  0.251008  0.168203  1
  Hf  Hf3  1  0.999998  0.748993  0.168203  1
  Hf  Hf4  1  0.500002  0.251298  0.334793  1
  Hf  Hf5  1  0.500002  0.748702  0.334793  1
  Hf  Hf6  1  0.999999  0.249707  0.499934  1
  Hf  Hf7  1  0.999999  0.750293  0.499934  1
  Hf  Hf8  1  0.499995  0.250295  0.666735  1
  Hf  Hf9  1  0.499995  0.749705  0.666735  1
  Hf  Hf10  1  0.999994  0.248700  0.831871  1
  Hf  Hf11  1  0.999994  0.751301  0.831871  1
  Tc  Tc12  1  0.999992  0.000000  0.001129  1
  Tc  Tc13  1  0.499990  0.500000  0.165532  1
  Tc  Tc14  1  0.000001  0.000000  0.331464  1
  Tc  Tc15  1  0.499998  0.500000  0.499353  1
  Tc  Tc16  1  0.999993  0.000000  0.667311  1
  Tc  Tc17  1  0.500008  0.500000  0.835213  1
  Os  Os18  1  0.999994  0.500000  0.332354  1
  Os  Os19  1  0.500020  0.000000  0.499504  1
  Os  Os20  1  0.000012  0.500000  0.667169  1
  Os  Os21  1  0.500006  0.000000  0.834313  1
  Rh  Rh22  1  0.999996  0.500000  0.000584  1
  Rh  Rh23  1  0.500018  0.000000  0.166081  1
