# generated using pymatgen
data_Dy8MoW3C8
_symmetry_space_group_name_H-M   'P 1'
_cell_length_a   5.74463568
_cell_length_b   5.74463538
_cell_length_c   9.89803700
_cell_angle_alpha   90.00000000
_cell_angle_beta   90.00000000
_cell_angle_gamma   90.02302948
_symmetry_Int_Tables_number   1
_chemical_formula_structural   Dy8MoW3C8
_chemical_formula_sum   'Dy8 Mo1 W3 C8'
_cell_volume   326.64348289
_cell_formula_units_Z   1
loop_
 _symmetry_equiv_pos_site_id
 _symmetry_equiv_pos_as_xyz
  1  'x, y, z'
loop_
 _atom_site_type_symbol
 _atom_site_label
 _atom_site_symmetry_multiplicity
 _atom_site_fract_x
 _atom_site_fract_y
 _atom_site_fract_z
 _atom_site_occupancy
  Dy  Dy0  1  0.299999  0.700001  0.157252  1
  Dy  Dy1  1  0.699763  0.300237  0.842418  1
  Dy  Dy2  1  0.800164  0.798616  0.342802  1
  Dy  Dy3  1  0.201384  0.199836  0.657198  1
  Dy  Dy4  1  0.699763  0.300237  0.157582  1
  Dy  Dy5  1  0.299999  0.700001  0.842748  1
  Dy  Dy6  1  0.201384  0.199836  0.342802  1
  Dy  Dy7  1  0.800164  0.798616  0.657198  1
  Mo  Mo8  1  0.677378  0.322622  0.500000  1
  W  W9  1  0.323376  0.676624  0.500000  1
  W  W10  1  0.821785  0.822297  0.000000  1
  W  W11  1  0.177703  0.178215  0.000000  1
  C  C12  1  0.999817  0.000183  0.846498  1
  C  C13  1  0.498476  0.501524  0.653886  1
  C  C14  1  0.498476  0.501524  0.346114  1
  C  C15  1  0.500009  0.000166  0.000000  1
  C  C16  1  0.499534  0.998826  0.500000  1
  C  C17  1  0.999834  0.499991  0.000000  1
  C  C18  1  0.001174  0.500466  0.500000  1
  C  C19  1  0.999817  0.000183  0.153502  1
