# generated using pymatgen
data_Sm3ZnIn3HgRh
_symmetry_space_group_name_H-M   'P 1'
_cell_length_a   7.95979300
_cell_length_b   7.95979143
_cell_length_c   3.92146200
_cell_angle_alpha   90.00000000
_cell_angle_beta   90.00000000
_cell_angle_gamma   119.99999406
_symmetry_Int_Tables_number   1
_chemical_formula_structural   Sm3ZnIn3HgRh
_chemical_formula_sum   'Sm3 Zn1 In3 Hg1 Rh1'
_cell_volume   215.17020344
_cell_formula_units_Z   1
loop_
 _symmetry_equiv_pos_site_id
 _symmetry_equiv_pos_as_xyz
  1  'x, y, z'
loop_
 _atom_site_type_symbol
 _atom_site_label
 _atom_site_symmetry_multiplicity
 _atom_site_fract_x
 _atom_site_fract_y
 _atom_site_fract_z
 _atom_site_occupancy
  Sm  Sm0  1  0.972094  0.391375  0.500000  1
  Sm  Sm1  1  0.608625  0.580718  0.500000  1
  Sm  Sm2  1  0.419282  0.027906  0.500000  1
  Zn  Zn3  1  0.000000  0.000000  0.500000  1
  In  In4  1  0.257802  0.253465  0.000000  1
  In  In5  1  0.995662  0.742198  0.000000  1
  In  In6  1  0.746535  0.004338  0.000000  1
  Hg  Hg7  1  0.333333  0.666667  0.000000  1
  Rh  Rh8  1  0.666667  0.333333  0.000000  1
