# generated using pymatgen
data_Ta15Ti9As8
_symmetry_space_group_name_H-M   'P 1'
_cell_length_a   7.73723534
_cell_length_b   7.73860343
_cell_length_c   14.45725418
_cell_angle_alpha   89.70706036
_cell_angle_beta   89.74095531
_cell_angle_gamma   38.91365556
_symmetry_Int_Tables_number   1
_chemical_formula_structural   Ta15Ti9As8
_chemical_formula_sum   'Ta15 Ti9 As8'
_cell_volume   543.73929383
_cell_formula_units_Z   1
loop_
 _symmetry_equiv_pos_site_id
 _symmetry_equiv_pos_as_xyz
  1  'x, y, z'
loop_
 _atom_site_type_symbol
 _atom_site_label
 _atom_site_symmetry_multiplicity
 _atom_site_fract_x
 _atom_site_fract_y
 _atom_site_fract_z
 _atom_site_occupancy
  Ta  Ta0  1  0.020949  0.507505  0.298779  1
  Ta  Ta1  1  0.507086  0.021239  0.799900  1
  Ta  Ta2  1  0.978435  0.492972  0.700077  1
  Ta  Ta3  1  0.806153  0.294370  0.986890  1
  Ta  Ta4  1  0.704925  0.193925  0.513415  1
  Ta  Ta5  1  0.194825  0.705149  0.014240  1
  Ta  Ta6  1  0.294617  0.805958  0.486260  1
  Ta  Ta7  1  0.891418  0.423501  0.492664  1
  Ta  Ta8  1  0.577342  0.106591  0.007891  1
  Ta  Ta9  1  0.107632  0.576145  0.506653  1
  Ta  Ta10  1  0.425514  0.890908  0.993224  1
  Ta  Ta11  1  0.027939  0.489034  0.908566  1
  Ta  Ta12  1  0.510457  0.973247  0.591387  1
  Ta  Ta13  1  0.970861  0.513569  0.092430  1
  Ta  Ta14  1  0.487173  0.028538  0.407040  1
  Ti  Ti15  1  0.577476  0.544749  0.164255  1
  Ti  Ti16  1  0.454277  0.424294  0.336033  1
  Ti  Ti17  1  0.423365  0.454551  0.835791  1
  Ti  Ti18  1  0.544304  0.577627  0.664414  1
  Ti  Ti19  1  0.066118  0.096272  0.315383  1
  Ti  Ti20  1  0.904532  0.934001  0.184089  1
  Ti  Ti21  1  0.933066  0.904481  0.684488  1
  Ti  Ti22  1  0.097222  0.064729  0.815816  1
  Ti  Ti23  1  0.491576  0.979688  0.200058  1
  As  As24  1  0.069657  0.104986  0.635586  1
  As  As25  1  0.895481  0.929662  0.864924  1
  As  As26  1  0.927695  0.896089  0.363535  1
  As  As27  1  0.108631  0.069309  0.136089  1
  As  As28  1  0.403181  0.362463  0.666699  1
  As  As29  1  0.639434  0.594956  0.833401  1
  As  As30  1  0.595706  0.639860  0.332499  1
  As  As31  1  0.362951  0.399631  0.167523  1
