# generated using pymatgen
data_Dy2FeSiI
_symmetry_space_group_name_H-M   'P 1'
_cell_length_a   4.02847000
_cell_length_b   4.02847006
_cell_length_c   16.80922400
_cell_angle_alpha   90.00000000
_cell_angle_beta   90.00000000
_cell_angle_gamma   119.99998312
_symmetry_Int_Tables_number   1
_chemical_formula_structural   Dy2FeSiI
_chemical_formula_sum   'Dy4 Fe2 Si2 I2'
_cell_volume   236.24283398
_cell_formula_units_Z   2
loop_
 _symmetry_equiv_pos_site_id
 _symmetry_equiv_pos_as_xyz
  1  'x, y, z'
loop_
 _atom_site_type_symbol
 _atom_site_label
 _atom_site_symmetry_multiplicity
 _atom_site_fract_x
 _atom_site_fract_y
 _atom_site_fract_z
 _atom_site_occupancy
  Dy  Dy0  1  0.000000  0.000000  0.103749  1
  Dy  Dy1  1  0.000000  0.000000  0.603749  1
  Dy  Dy2  1  0.000000  0.000000  0.895382  1
  Dy  Dy3  1  0.000000  0.000000  0.395382  1
  Fe  Fe4  1  0.333333  0.666667  0.001069  1
  Fe  Fe5  1  0.666667  0.333333  0.501069  1
  Si  Si6  1  0.666667  0.333333  0.999209  1
  Si  Si7  1  0.333333  0.666667  0.499209  1
  I  I8  1  0.666667  0.333333  0.250590  1
  I  I9  1  0.333333  0.666667  0.750590  1
