# generated using pymatgen
data_HoLu2Al3Ga2Ni
_symmetry_space_group_name_H-M   'P 1'
_cell_length_a   6.84011876
_cell_length_b   6.81162536
_cell_length_c   4.21714100
_cell_angle_alpha   90.00000000
_cell_angle_beta   90.00000000
_cell_angle_gamma   119.86228473
_symmetry_Int_Tables_number   1
_chemical_formula_structural   HoLu2Al3Ga2Ni
_chemical_formula_sum   'Ho1 Lu2 Al3 Ga2 Ni1'
_cell_volume   170.39786670
_cell_formula_units_Z   1
loop_
 _symmetry_equiv_pos_site_id
 _symmetry_equiv_pos_as_xyz
  1  'x, y, z'
loop_
 _atom_site_type_symbol
 _atom_site_label
 _atom_site_symmetry_multiplicity
 _atom_site_fract_x
 _atom_site_fract_y
 _atom_site_fract_z
 _atom_site_occupancy
  Ho  Ho0  1  0.000000  0.410854  0.500000  1
  Lu  Lu1  1  0.591484  0.592068  0.500000  1
  Lu  Lu2  1  0.408516  0.000584  0.500000  1
  Al  Al3  1  0.000000  0.767662  0.000000  1
  Al  Al4  1  0.233094  0.232370  0.000000  1
  Al  Al5  1  0.766906  0.999276  0.000000  1
  Ga  Ga6  1  0.335979  0.668413  0.000000  1
  Ga  Ga7  1  0.664021  0.332433  0.000000  1
  Ni  Ni8  1  0.000000  0.996340  0.500000  1
