# generated using pymatgen
data_Sc4(Ga8Pt3)3
_symmetry_space_group_name_H-M   'P 1'
_cell_length_a   7.50504717
_cell_length_b   7.49883555
_cell_length_c   13.20112331
_cell_angle_alpha   84.63355386
_cell_angle_beta   79.14321250
_cell_angle_gamma   60.02248501
_symmetry_Int_Tables_number   1
_chemical_formula_structural   Sc4(Ga8Pt3)3
_chemical_formula_sum   'Sc4 Ga24 Pt9'
_cell_volume   632.03801592
_cell_formula_units_Z   1
loop_
 _symmetry_equiv_pos_site_id
 _symmetry_equiv_pos_as_xyz
  1  'x, y, z'
loop_
 _atom_site_type_symbol
 _atom_site_label
 _atom_site_symmetry_multiplicity
 _atom_site_fract_x
 _atom_site_fract_y
 _atom_site_fract_z
 _atom_site_occupancy
  Sc  Sc0  1  0.392991  0.167048  0.809976  1
  Sc  Sc1  1  0.607009  0.832952  0.190024  1
  Sc  Sc2  1  0.730746  0.498901  0.809784  1
  Sc  Sc3  1  0.269254  0.501099  0.190216  1
  Ga  Ga4  1  0.679731  0.833433  0.935474  1
  Ga  Ga5  1  0.320269  0.166567  0.064526  1
  Ga  Ga6  1  0.146552  0.833941  0.561052  1
  Ga  Ga7  1  0.853448  0.166059  0.438948  1
  Ga  Ga8  1  0.480202  0.167208  0.557989  1
  Ga  Ga9  1  0.519798  0.832792  0.442011  1
  Ga  Ga10  1  0.226274  0.165947  0.317978  1
  Ga  Ga11  1  0.773726  0.834053  0.682022  1
  Ga  Ga12  1  0.437988  0.501449  0.681894  1
  Ga  Ga13  1  0.562012  0.498551  0.318106  1
  Ga  Ga14  1  0.104602  0.166026  0.682906  1
  Ga  Ga15  1  0.895398  0.833974  0.317094  1
  Ga  Ga16  1  0.363249  0.491352  0.935279  1
  Ga  Ga17  1  0.636751  0.508648  0.064721  1
  Ga  Ga18  1  0.020230  0.175147  0.938328  1
  Ga  Ga19  1  0.979770  0.824853  0.061672  1
  Ga  Ga20  1  0.185587  0.499931  0.441897  1
  Ga  Ga21  1  0.814413  0.500069  0.558103  1
  Ga  Ga22  1  0.731943  0.165057  0.182091  1
  Ga  Ga23  1  0.268057  0.834943  0.817909  1
  Ga  Ga24  1  0.060182  0.627665  0.817480  1
  Ga  Ga25  1  0.939818  0.372335  0.182520  1
  Ga  Ga26  1  0.851371  0.043699  0.817461  1
  Ga  Ga27  1  0.148629  0.956301  0.182539  1
  Pt  Pt28  1  0.119630  0.493396  0.640118  1
  Pt  Pt29  1  0.880370  0.506604  0.359882  1
  Pt  Pt30  1  0.662904  0.168467  0.999786  1
  Pt  Pt31  1  0.337096  0.831533  0.000214  1
  Pt  Pt32  1  0.539282  0.166096  0.359699  1
  Pt  Pt33  1  0.460718  0.833904  0.640301  1
  Pt  Pt34  1  0.779357  0.174057  0.638533  1
  Pt  Pt35  1  0.220643  0.825943  0.361467  1
  Pt  Pt36  1  0.000000  0.500000  0.000000  1
