# generated using pymatgen
data_La4Nd8Tc3Ru
_symmetry_space_group_name_H-M   'P 1'
_cell_length_a   6.65896758
_cell_length_b   7.39555124
_cell_length_c   9.84964000
_cell_angle_alpha   90.00000000
_cell_angle_beta   90.00000000
_cell_angle_gamma   89.96160027
_symmetry_Int_Tables_number   1
_chemical_formula_structural   La4Nd8Tc3Ru
_chemical_formula_sum   'La4 Nd8 Tc3 Ru1'
_cell_volume   485.06251105
_cell_formula_units_Z   1
loop_
 _symmetry_equiv_pos_site_id
 _symmetry_equiv_pos_as_xyz
  1  'x, y, z'
loop_
 _atom_site_type_symbol
 _atom_site_label
 _atom_site_symmetry_multiplicity
 _atom_site_fract_x
 _atom_site_fract_y
 _atom_site_fract_z
 _atom_site_occupancy
  La  La0  1  0.864409  0.561498  0.250000  1
  La  La1  1  0.632751  0.061090  0.250000  1
  La  La2  1  0.136292  0.437077  0.750000  1
  La  La3  1  0.363894  0.937666  0.750000  1
  Nd  Nd4  1  0.328593  0.670306  0.067892  1
  Nd  Nd5  1  0.168413  0.170558  0.433378  1
  Nd  Nd6  1  0.668824  0.330468  0.566411  1
  Nd  Nd7  1  0.831333  0.830075  0.933764  1
  Nd  Nd8  1  0.668824  0.330468  0.933589  1
  Nd  Nd9  1  0.831333  0.830075  0.566236  1
  Nd  Nd10  1  0.328593  0.670306  0.432108  1
  Nd  Nd11  1  0.168413  0.170558  0.066622  1
  Tc  Tc12  1  0.029070  0.869075  0.250000  1
  Tc  Tc13  1  0.467913  0.370466  0.250000  1
  Tc  Tc14  1  0.970806  0.131101  0.750000  1
  Ru  Ru15  1  0.540536  0.629214  0.750000  1
