# generated using pymatgen
data_RbCd4Ga5Se12
_symmetry_space_group_name_H-M   'P 1'
_cell_length_a   9.06822924
_cell_length_b   9.12558709
_cell_length_c   9.37017966
_cell_angle_alpha   108.55149150
_cell_angle_beta   106.48536097
_cell_angle_gamma   108.13829364
_symmetry_Int_Tables_number   1
_chemical_formula_structural   RbCd4Ga5Se12
_chemical_formula_sum   'Rb1 Cd4 Ga5 Se12'
_cell_volume   632.38599870
_cell_formula_units_Z   1
loop_
 _symmetry_equiv_pos_site_id
 _symmetry_equiv_pos_as_xyz
  1  'x, y, z'
loop_
 _atom_site_type_symbol
 _atom_site_label
 _atom_site_symmetry_multiplicity
 _atom_site_fract_x
 _atom_site_fract_y
 _atom_site_fract_z
 _atom_site_occupancy
  Rb  Rb0  1  0.998217  0.002379  0.004805  1
  Cd  Cd1  1  0.488868  0.339319  0.935084  1
  Cd  Cd2  1  0.625675  0.707977  0.401880  1
  Cd  Cd3  1  0.407181  0.642491  0.717941  1
  Cd  Cd4  1  0.715172  0.402550  0.635464  1
  Ga  Ga5  1  0.188758  0.554945  0.026700  1
  Ga  Ga6  1  0.022650  0.186412  0.554329  1
  Ga  Ga7  1  0.562820  0.023327  0.193582  1
  Ga  Ga8  1  0.935959  0.470613  0.333562  1
  Ga  Ga9  1  0.321204  0.929442  0.469041  1
  Se  Se10  1  0.874033  0.633540  0.546032  1
  Se  Se11  1  0.546677  0.885857  0.632106  1
  Se  Se12  1  0.658298  0.585467  0.874639  1
  Se  Se13  1  0.354379  0.430711  0.148212  1
  Se  Se14  1  0.147737  0.371448  0.439564  1
  Se  Se15  1  0.432423  0.139821  0.367687  1
  Se  Se16  1  0.066506  0.674698  0.222992  1
  Se  Se17  1  0.212095  0.065210  0.661957  1
  Se  Se18  1  0.698604  0.215793  0.084099  1
  Se  Se19  1  0.781857  0.936335  0.301580  1
  Se  Se20  1  0.300736  0.784928  0.949420  1
  Se  Se21  1  0.941349  0.297936  0.780525  1
