# generated using pymatgen
data_La2Al7Ga2Ir3
_symmetry_space_group_name_H-M   'P 1'
_cell_length_a   7.64586600
_cell_length_b   7.64121712
_cell_length_c   9.73518600
_cell_angle_alpha   90.00000000
_cell_angle_beta   90.00000000
_cell_angle_gamma   119.43399338
_symmetry_Int_Tables_number   1
_chemical_formula_structural   La2Al7Ga2Ir3
_chemical_formula_sum   'La4 Al14 Ga4 Ir6'
_cell_volume   495.35088110
_cell_formula_units_Z   2
loop_
 _symmetry_equiv_pos_site_id
 _symmetry_equiv_pos_as_xyz
  1  'x, y, z'
loop_
 _atom_site_type_symbol
 _atom_site_label
 _atom_site_symmetry_multiplicity
 _atom_site_fract_x
 _atom_site_fract_y
 _atom_site_fract_z
 _atom_site_occupancy
  La  La0  1  0.997339  0.671158  0.250000  1
  La  La1  1  0.002661  0.328842  0.750000  1
  La  La2  1  0.669160  0.994819  0.250000  1
  La  La3  1  0.330840  0.005181  0.750000  1
  Al  Al4  1  0.004093  0.335100  0.071713  1
  Al  Al5  1  0.995907  0.664900  0.928287  1
  Al  Al6  1  0.995907  0.664900  0.571713  1
  Al  Al7  1  0.335511  0.004742  0.428115  1
  Al  Al8  1  0.004093  0.335100  0.428287  1
  Al  Al9  1  0.664489  0.995258  0.571885  1
  Al  Al10  1  0.664489  0.995258  0.928115  1
  Al  Al11  1  0.335511  0.004742  0.071885  1
  Al  Al12  1  0.335138  0.335452  0.546424  1
  Al  Al13  1  0.664862  0.664548  0.453576  1
  Al  Al14  1  0.664862  0.664548  0.046424  1
  Al  Al15  1  0.335138  0.335452  0.953576  1
  Al  Al16  1  0.543922  0.338586  0.250000  1
  Al  Al17  1  0.456078  0.661414  0.750000  1
  Ga  Ga18  1  0.132397  0.132654  0.250000  1
  Ga  Ga19  1  0.867603  0.867346  0.750000  1
  Ga  Ga20  1  0.338215  0.542333  0.250000  1
  Ga  Ga21  1  0.661785  0.457667  0.750000  1
  Ir  Ir22  1  0.669921  0.329095  0.002203  1
  Ir  Ir23  1  0.330079  0.670905  0.997797  1
  Ir  Ir24  1  0.330079  0.670905  0.502203  1
  Ir  Ir25  1  0.669921  0.329095  0.497797  1
  Ir  Ir26  1  0.000000  0.000000  0.000000  1
  Ir  Ir27  1  0.000000  0.000000  0.500000  1
