# generated using pymatgen
data_Cs6Mn(NbBr6)3
_symmetry_space_group_name_H-M   'P 1'
_cell_length_a   7.92804200
_cell_length_b   7.92804133
_cell_length_c   19.45360000
_cell_angle_alpha   90.00000000
_cell_angle_beta   90.00000000
_cell_angle_gamma   120.00000280
_symmetry_Int_Tables_number   1
_chemical_formula_structural   Cs6Mn(NbBr6)3
_chemical_formula_sum   'Cs6 Mn1 Nb3 Br18'
_cell_volume   1058.91828828
_cell_formula_units_Z   1
loop_
 _symmetry_equiv_pos_site_id
 _symmetry_equiv_pos_as_xyz
  1  'x, y, z'
loop_
 _atom_site_type_symbol
 _atom_site_label
 _atom_site_symmetry_multiplicity
 _atom_site_fract_x
 _atom_site_fract_y
 _atom_site_fract_z
 _atom_site_occupancy
  Cs  Cs0  1  0.000000  0.000000  0.249850  1
  Cs  Cs1  1  0.000000  0.000000  0.759187  1
  Cs  Cs2  1  0.333333  0.666667  0.062046  1
  Cs  Cs3  1  0.666667  0.333333  0.570976  1
  Cs  Cs4  1  0.333333  0.666667  0.427933  1
  Cs  Cs5  1  0.666667  0.333333  0.929536  1
  Mn  Mn6  1  0.333333  0.666667  0.851527  1
  Nb  Nb7  1  0.666667  0.333333  0.321796  1
  Nb  Nb8  1  0.666667  0.333333  0.179426  1
  Nb  Nb9  1  0.333333  0.666667  0.662071  1
  Br  Br10  1  0.822895  0.177105  0.400033  1
  Br  Br11  1  0.822895  0.645790  0.400033  1
  Br  Br12  1  0.354210  0.177105  0.400033  1
  Br  Br13  1  0.661008  0.830504  0.909143  1
  Br  Br14  1  0.175441  0.350882  0.588481  1
  Br  Br15  1  0.169496  0.830504  0.909143  1
  Br  Br16  1  0.169496  0.338992  0.909143  1
  Br  Br17  1  0.822504  0.177496  0.102460  1
  Br  Br18  1  0.354992  0.177496  0.102460  1
  Br  Br19  1  0.649118  0.824559  0.588481  1
  Br  Br20  1  0.498389  0.996776  0.251089  1
  Br  Br21  1  0.486341  0.513659  0.744012  1
  Br  Br22  1  0.027318  0.513659  0.744012  1
  Br  Br23  1  0.003224  0.501611  0.251089  1
  Br  Br24  1  0.498389  0.501611  0.251089  1
  Br  Br25  1  0.486341  0.972682  0.744012  1
  Br  Br26  1  0.822504  0.645008  0.102460  1
  Br  Br27  1  0.175441  0.824559  0.588481  1
