# generated using pymatgen
data_Hf9VFeOs3
_symmetry_space_group_name_H-M   'P 1'
_cell_length_a   8.40633700
_cell_length_b   8.57617939
_cell_length_c   8.57617800
_cell_angle_alpha   120.00503992
_cell_angle_beta   90.00000000
_cell_angle_gamma   90.00000000
_symmetry_Int_Tables_number   1
_chemical_formula_structural   Hf9VFeOs3
_chemical_formula_sum   'Hf18 V2 Fe2 Os6'
_cell_volume   535.43038488
_cell_formula_units_Z   2
loop_
 _symmetry_equiv_pos_site_id
 _symmetry_equiv_pos_as_xyz
  1  'x, y, z'
loop_
 _atom_site_type_symbol
 _atom_site_label
 _atom_site_symmetry_multiplicity
 _atom_site_fract_x
 _atom_site_fract_y
 _atom_site_fract_z
 _atom_site_occupancy
  Hf  Hf0  1  0.558817  0.800662  0.601328  1
  Hf  Hf1  1  0.558816  0.800678  0.199322  1
  Hf  Hf2  1  0.558817  0.398672  0.199338  1
  Hf  Hf3  1  0.441183  0.199338  0.398672  1
  Hf  Hf4  1  0.441184  0.199322  0.800678  1
  Hf  Hf5  1  0.441183  0.601328  0.800662  1
  Hf  Hf6  1  0.058817  0.199338  0.398672  1
  Hf  Hf7  1  0.058816  0.199322  0.800678  1
  Hf  Hf8  1  0.058817  0.601328  0.800662  1
  Hf  Hf9  1  0.941183  0.800662  0.601328  1
  Hf  Hf10  1  0.941184  0.800678  0.199322  1
  Hf  Hf11  1  0.941183  0.398672  0.199338  1
  Hf  Hf12  1  0.750000  0.459790  0.919591  1
  Hf  Hf13  1  0.750000  0.459789  0.540211  1
  Hf  Hf14  1  0.750000  0.080409  0.540210  1
  Hf  Hf15  1  0.250000  0.540210  0.080409  1
  Hf  Hf16  1  0.250000  0.540211  0.459789  1
  Hf  Hf17  1  0.250000  0.919591  0.459790  1
  V  V18  1  0.500000  0.000000  0.000000  1
  V  V19  1  0.000000  0.000000  0.000000  1
  Fe  Fe20  1  0.750000  0.666674  0.333326  1
  Fe  Fe21  1  0.250000  0.333326  0.666674  1
  Os  Os22  1  0.750000  0.110234  0.220440  1
  Os  Os23  1  0.750000  0.110220  0.889780  1
  Os  Os24  1  0.750000  0.779560  0.889766  1
  Os  Os25  1  0.250000  0.889766  0.779560  1
  Os  Os26  1  0.250000  0.889780  0.110220  1
  Os  Os27  1  0.250000  0.220440  0.110234  1
