# generated using pymatgen
data_La9Ho2Tm9Pb16
_symmetry_space_group_name_H-M   'P 1'
_cell_length_a   8.30786328
_cell_length_b   8.35423494
_cell_length_c   15.82218500
_cell_angle_alpha   90.04139665
_cell_angle_beta   90.14133850
_cell_angle_gamma   90.25493038
_symmetry_Int_Tables_number   1
_chemical_formula_structural   La9Ho2Tm9Pb16
_chemical_formula_sum   'La9 Ho2 Tm9 Pb16'
_cell_volume   1098.13756053
_cell_formula_units_Z   1
loop_
 _symmetry_equiv_pos_site_id
 _symmetry_equiv_pos_as_xyz
  1  'x, y, z'
loop_
 _atom_site_type_symbol
 _atom_site_label
 _atom_site_symmetry_multiplicity
 _atom_site_fract_x
 _atom_site_fract_y
 _atom_site_fract_z
 _atom_site_occupancy
  La  La0  1  0.132451  0.339414  0.618797  1
  La  La1  1  0.475330  0.678799  0.597606  1
  La  La2  1  0.976920  0.822570  0.905821  1
  La  La3  1  0.522878  0.322660  0.096280  1
  La  La4  1  0.024995  0.176687  0.400904  1
  La  La5  1  0.522664  0.322631  0.401831  1
  La  La6  1  0.022622  0.177155  0.096554  1
  La  La7  1  0.478088  0.678506  0.904536  1
  La  La8  1  0.975844  0.822614  0.596941  1
  Ho  Ho9  1  0.199716  0.506811  0.248119  1
  Ho  Ho10  1  0.699559  0.994708  0.250215  1
  Tm  Tm11  1  0.636007  0.158962  0.623694  1
  Tm  Tm12  1  0.136664  0.342540  0.877543  1
  Tm  Tm13  1  0.363258  0.842781  0.122685  1
  Tm  Tm14  1  0.865077  0.656125  0.377396  1
  Tm  Tm15  1  0.366677  0.842862  0.373798  1
  Tm  Tm16  1  0.863429  0.658103  0.123064  1
  Tm  Tm17  1  0.635675  0.156390  0.879797  1
  Tm  Tm18  1  0.799812  0.493612  0.751501  1
  Tm  Tm19  1  0.302826  0.004617  0.751628  1
  Pb  Pb20  1  0.703478  0.958411  0.456238  1
  Pb  Pb21  1  0.200746  0.542768  0.043430  1
  Pb  Pb22  1  0.297783  0.043270  0.956623  1
  Pb  Pb23  1  0.784776  0.463037  0.543236  1
  Pb  Pb24  1  0.304827  0.032659  0.542269  1
  Pb  Pb25  1  0.800042  0.457576  0.956536  1
  Pb  Pb26  1  0.701069  0.956753  0.045114  1
  Pb  Pb27  1  0.204236  0.547168  0.450513  1
  Pb  Pb28  1  0.442213  0.368580  0.753880  1
  Pb  Pb29  1  0.936473  0.125919  0.752986  1
  Pb  Pb30  1  0.562014  0.629841  0.248898  1
  Pb  Pb31  1  0.060073  0.870081  0.249579  1
  Pb  Pb32  1  0.666418  0.853274  0.751334  1
  Pb  Pb33  1  0.164427  0.651687  0.752575  1
  Pb  Pb34  1  0.334909  0.147425  0.248693  1
  Pb  Pb35  1  0.836022  0.353008  0.249389  1
