# generated using pymatgen
data_LaTbSi3
_symmetry_space_group_name_H-M   'P 1'
_cell_length_a   3.98961500
_cell_length_b   4.37351787
_cell_length_c   12.59942076
_cell_angle_alpha   99.99488868
_cell_angle_beta   90.00000000
_cell_angle_gamma   90.00000000
_symmetry_Int_Tables_number   1
_chemical_formula_structural   LaTbSi3
_chemical_formula_sum   'La2 Tb2 Si6'
_cell_volume   216.50641169
_cell_formula_units_Z   2
loop_
 _symmetry_equiv_pos_site_id
 _symmetry_equiv_pos_as_xyz
  1  'x, y, z'
loop_
 _atom_site_type_symbol
 _atom_site_label
 _atom_site_symmetry_multiplicity
 _atom_site_fract_x
 _atom_site_fract_y
 _atom_site_fract_z
 _atom_site_occupancy
  La  La0  1  0.750000  0.429202  0.858404  1
  La  La1  1  0.250000  0.570798  0.141596  1
  Tb  Tb2  1  0.750000  0.702804  0.405610  1
  Tb  Tb3  1  0.250000  0.297196  0.594390  1
  Si  Si4  1  0.750000  0.025324  0.050647  1
  Si  Si5  1  0.250000  0.974676  0.949353  1
  Si  Si6  1  0.750000  0.120839  0.241679  1
  Si  Si7  1  0.250000  0.879161  0.758321  1
  Si  Si8  1  0.750000  0.821428  0.642857  1
  Si  Si9  1  0.250000  0.178572  0.357143  1
