# generated using pymatgen
data_Pm2CuOs3
_symmetry_space_group_name_H-M   'P 1'
_cell_length_a   5.45654600
_cell_length_b   5.33442829
_cell_length_c   5.33445100
_cell_angle_alpha   59.99365379
_cell_angle_beta   60.73527879
_cell_angle_gamma   60.73697498
_symmetry_Int_Tables_number   1
_chemical_formula_structural   Pm2CuOs3
_chemical_formula_sum   'Pm2 Cu1 Os3'
_cell_volume   110.99483909
_cell_formula_units_Z   1
loop_
 _symmetry_equiv_pos_site_id
 _symmetry_equiv_pos_as_xyz
  1  'x, y, z'
loop_
 _atom_site_type_symbol
 _atom_site_label
 _atom_site_symmetry_multiplicity
 _atom_site_fract_x
 _atom_site_fract_y
 _atom_site_fract_z
 _atom_site_occupancy
  Pm  Pm0  1  0.741187  0.752947  0.752936  1
  Pm  Pm1  1  0.008813  0.997053  0.997064  1
  Cu  Cu2  1  0.875000  0.375000  0.375000  1
  Os  Os3  1  0.375000  0.875000  0.375000  1
  Os  Os4  1  0.375000  0.375000  0.875000  1
  Os  Os5  1  0.375000  0.375000  0.375000  1
