# generated using pymatgen
data_Eu4MgIr
_symmetry_space_group_name_H-M   'P 1'
_cell_length_a   10.25985469
_cell_length_b   10.25985513
_cell_length_c   10.25985600
_cell_angle_alpha   60.00000364
_cell_angle_beta   60.00000223
_cell_angle_gamma   60.00000290
_symmetry_Int_Tables_number   1
_chemical_formula_structural   Eu4MgIr
_chemical_formula_sum   'Eu16 Mg4 Ir4'
_cell_volume   763.67528331
_cell_formula_units_Z   4
loop_
 _symmetry_equiv_pos_site_id
 _symmetry_equiv_pos_as_xyz
  1  'x, y, z'
loop_
 _atom_site_type_symbol
 _atom_site_label
 _atom_site_symmetry_multiplicity
 _atom_site_fract_x
 _atom_site_fract_y
 _atom_site_fract_z
 _atom_site_occupancy
  Eu  Eu0  1  0.448244  0.051756  0.448244  1
  Eu  Eu1  1  0.809646  0.809646  0.190354  1
  Eu  Eu2  1  0.051756  0.448244  0.051756  1
  Eu  Eu3  1  0.190354  0.809646  0.190354  1
  Eu  Eu4  1  0.809646  0.190354  0.190354  1
  Eu  Eu5  1  0.051756  0.051756  0.448244  1
  Eu  Eu6  1  0.658050  0.658050  0.658050  1
  Eu  Eu7  1  0.658050  0.025849  0.658050  1
  Eu  Eu8  1  0.190354  0.809646  0.809646  1
  Eu  Eu9  1  0.025849  0.658050  0.658050  1
  Eu  Eu10  1  0.051756  0.448244  0.448244  1
  Eu  Eu11  1  0.190354  0.190354  0.809646  1
  Eu  Eu12  1  0.658050  0.658050  0.025849  1
  Eu  Eu13  1  0.448244  0.051756  0.051756  1
  Eu  Eu14  1  0.809646  0.190354  0.809646  1
  Eu  Eu15  1  0.448244  0.448244  0.051756  1
  Mg  Mg16  1  0.731775  0.422742  0.422742  1
  Mg  Mg17  1  0.422742  0.422742  0.422742  1
  Mg  Mg18  1  0.422742  0.731775  0.422742  1
  Mg  Mg19  1  0.422742  0.422742  0.731775  1
  Ir  Ir20  1  0.862217  0.862217  0.862217  1
  Ir  Ir21  1  0.862217  0.413349  0.862217  1
  Ir  Ir22  1  0.862217  0.862217  0.413349  1
  Ir  Ir23  1  0.413349  0.862217  0.862217  1
