# generated using pymatgen
data_LiTb4Dy12Cd3Co4
_symmetry_space_group_name_H-M   'P 1'
_cell_length_a   9.47836881
_cell_length_b   9.48057719
_cell_length_c   9.50484716
_cell_angle_alpha   60.09067073
_cell_angle_beta   60.07545731
_cell_angle_gamma   59.99799826
_symmetry_Int_Tables_number   1
_chemical_formula_structural   LiTb4Dy12Cd3Co4
_chemical_formula_sum   'Li1 Tb4 Dy12 Cd3 Co4'
_cell_volume   604.69453305
_cell_formula_units_Z   1
loop_
 _symmetry_equiv_pos_site_id
 _symmetry_equiv_pos_as_xyz
  1  'x, y, z'
loop_
 _atom_site_type_symbol
 _atom_site_label
 _atom_site_symmetry_multiplicity
 _atom_site_fract_x
 _atom_site_fract_y
 _atom_site_fract_z
 _atom_site_occupancy
  Li  Li0  1  0.822335  0.822449  0.532756  1
  Tb  Tb1  1  0.188525  0.812265  0.186794  1
  Tb  Tb2  1  0.597045  0.597060  0.208819  1
  Tb  Tb3  1  0.187204  0.186937  0.812718  1
  Tb  Tb4  1  0.062388  0.438417  0.060966  1
  Dy  Dy5  1  0.438382  0.438296  0.060775  1
  Dy  Dy6  1  0.594700  0.594255  0.596941  1
  Dy  Dy7  1  0.187184  0.813003  0.812721  1
  Dy  Dy8  1  0.063822  0.064245  0.436518  1
  Dy  Dy9  1  0.438458  0.062583  0.060788  1
  Dy  Dy10  1  0.813081  0.186923  0.812920  1
  Dy  Dy11  1  0.435259  0.064187  0.436396  1
  Dy  Dy12  1  0.594701  0.214198  0.596865  1
  Dy  Dy13  1  0.812349  0.812480  0.186623  1
  Dy  Dy14  1  0.214087  0.594473  0.597020  1
  Dy  Dy15  1  0.812208  0.188537  0.186774  1
  Dy  Dy16  1  0.063862  0.435481  0.436376  1
  Cd  Cd17  1  0.831292  0.831601  0.827104  1
  Cd  Cd18  1  0.509953  0.831380  0.827148  1
  Cd  Cd19  1  0.831142  0.510139  0.827108  1
  Co  Co20  1  0.391685  0.391354  0.389465  1
  Co  Co21  1  0.827464  0.391374  0.389759  1
  Co  Co22  1  0.391621  0.827481  0.389566  1
  Co  Co23  1  0.391256  0.390884  0.827077  1
