# generated using pymatgen
data_Sm8Dy5Tm7Sn16
_symmetry_space_group_name_H-M   'P 1'
_cell_length_a   8.04779448
_cell_length_b   8.20364850
_cell_length_c   15.50155315
_cell_angle_alpha   89.98780659
_cell_angle_beta   89.98978555
_cell_angle_gamma   89.96173273
_symmetry_Int_Tables_number   1
_chemical_formula_structural   Sm8Dy5Tm7Sn16
_chemical_formula_sum   'Sm8 Dy5 Tm7 Sn16'
_cell_volume   1023.43206906
_cell_formula_units_Z   1
loop_
 _symmetry_equiv_pos_site_id
 _symmetry_equiv_pos_as_xyz
  1  'x, y, z'
loop_
 _atom_site_type_symbol
 _atom_site_label
 _atom_site_symmetry_multiplicity
 _atom_site_fract_x
 _atom_site_fract_y
 _atom_site_fract_z
 _atom_site_occupancy
  Sm  Sm0  1  0.518717  0.321212  0.902386  1
  Sm  Sm1  1  0.018788  0.178997  0.597219  1
  Sm  Sm2  1  0.481120  0.678944  0.402879  1
  Sm  Sm3  1  0.981436  0.820902  0.097136  1
  Sm  Sm4  1  0.481146  0.679050  0.097483  1
  Sm  Sm5  1  0.981286  0.820733  0.402640  1
  Sm  Sm6  1  0.518885  0.320886  0.597502  1
  Sm  Sm7  1  0.018614  0.179026  0.902559  1
  Dy  Dy8  1  0.365624  0.835898  0.877588  1
  Dy  Dy9  1  0.865495  0.664119  0.622425  1
  Dy  Dy10  1  0.634455  0.164180  0.377651  1
  Dy  Dy11  1  0.134628  0.335809  0.122494  1
  Dy  Dy12  1  0.634788  0.164103  0.122215  1
  Tm  Tm13  1  0.134791  0.336214  0.377691  1
  Tm  Tm14  1  0.365092  0.836070  0.622493  1
  Tm  Tm15  1  0.865107  0.663844  0.877282  1
  Tm  Tm16  1  0.197518  0.503659  0.749826  1
  Tm  Tm17  1  0.697565  0.996347  0.750110  1
  Tm  Tm18  1  0.802760  0.496768  0.250109  1
  Tm  Tm19  1  0.302191  0.003422  0.250330  1
  Sn  Sn20  1  0.297005  0.037716  0.042228  1
  Sn  Sn21  1  0.798377  0.461943  0.457599  1
  Sn  Sn22  1  0.701557  0.961961  0.542406  1
  Sn  Sn23  1  0.201517  0.538099  0.957565  1
  Sn  Sn24  1  0.703862  0.961061  0.957566  1
  Sn  Sn25  1  0.203617  0.538261  0.541757  1
  Sn  Sn26  1  0.296487  0.038157  0.458319  1
  Sn  Sn27  1  0.797295  0.462968  0.041436  1
  Sn  Sn28  1  0.563498  0.621958  0.749933  1
  Sn  Sn29  1  0.063487  0.878152  0.749970  1
  Sn  Sn30  1  0.435874  0.378646  0.250411  1
  Sn  Sn31  1  0.937179  0.121792  0.250421  1
  Sn  Sn32  1  0.327513  0.144904  0.749681  1
  Sn  Sn33  1  0.827505  0.354879  0.750292  1
  Sn  Sn34  1  0.672650  0.854403  0.250061  1
  Sn  Sn35  1  0.172575  0.644918  0.250337  1
