# generated using pymatgen
data_CaLu7(B6Ru)4
_symmetry_space_group_name_H-M   'P 1'
_cell_length_a   3.59838800
_cell_length_b   9.04335014
_cell_length_c   11.42213105
_cell_angle_alpha   89.92291513
_cell_angle_beta   90.00000000
_cell_angle_gamma   90.00000000
_symmetry_Int_Tables_number   1
_chemical_formula_structural   CaLu7(B6Ru)4
_chemical_formula_sum   'Ca1 Lu7 B24 Ru4'
_cell_volume   371.69274234
_cell_formula_units_Z   1
loop_
 _symmetry_equiv_pos_site_id
 _symmetry_equiv_pos_as_xyz
  1  'x, y, z'
loop_
 _atom_site_type_symbol
 _atom_site_label
 _atom_site_symmetry_multiplicity
 _atom_site_fract_x
 _atom_site_fract_y
 _atom_site_fract_z
 _atom_site_occupancy
  Ca  Ca0  1  0.000000  0.322065  0.413872  1
  Lu  Lu1  1  0.000000  0.676967  0.585003  1
  Lu  Lu2  1  0.000000  0.821644  0.086210  1
  Lu  Lu3  1  0.000000  0.178989  0.914707  1
  Lu  Lu4  1  0.000000  0.943815  0.371494  1
  Lu  Lu5  1  0.000000  0.057332  0.628074  1
  Lu  Lu6  1  0.000000  0.443247  0.128705  1
  Lu  Lu7  1  0.000000  0.556212  0.872605  1
  B  B8  1  0.500000  0.555020  0.433336  1
  B  B9  1  0.500000  0.446838  0.567734  1
  B  B10  1  0.500000  0.052822  0.065513  1
  B  B11  1  0.500000  0.946104  0.933338  1
  B  B12  1  0.500000  0.749632  0.419950  1
  B  B13  1  0.500000  0.250802  0.581684  1
  B  B14  1  0.500000  0.248597  0.079468  1
  B  B15  1  0.500000  0.750836  0.920230  1
  B  B16  1  0.500000  0.792663  0.265186  1
  B  B17  1  0.500000  0.208382  0.735382  1
  B  B18  1  0.500000  0.290566  0.233082  1
  B  B19  1  0.500000  0.708271  0.765706  1
  B  B20  1  0.500000  0.631778  0.184507  1
  B  B21  1  0.500000  0.369118  0.816370  1
  B  B22  1  0.500000  0.129739  0.314126  1
  B  B23  1  0.500000  0.868842  0.684359  1
  B  B24  1  0.500000  0.981496  0.211661  1
  B  B25  1  0.500000  0.017966  0.787377  1
  B  B26  1  0.500000  0.483431  0.286791  1
  B  B27  1  0.500000  0.518279  0.713214  1
  B  B28  1  0.500000  0.606234  0.029336  1
  B  B29  1  0.500000  0.394182  0.971082  1
  B  B30  1  0.500000  0.101397  0.471991  1
  B  B31  1  0.500000  0.895845  0.528761  1
  Ru  Ru32  1  0.000000  0.640718  0.319699  1
  Ru  Ru33  1  0.000000  0.361961  0.681547  1
  Ru  Ru34  1  0.000000  0.136128  0.176963  1
  Ru  Ru35  1  0.000000  0.862080  0.820934  1
