# generated using pymatgen
data_Mn2MoSeO8
_symmetry_space_group_name_H-M   'P 1'
_cell_length_a   5.24371145
_cell_length_b   6.83024400
_cell_length_c   5.24371117
_cell_angle_alpha   90.00000000
_cell_angle_beta   112.61451422
_cell_angle_gamma   90.00000000
_symmetry_Int_Tables_number   1
_chemical_formula_structural   Mn2MoSeO8
_chemical_formula_sum   'Mn2 Mo1 Se1 O8'
_cell_volume   173.36784734
_cell_formula_units_Z   1
loop_
 _symmetry_equiv_pos_site_id
 _symmetry_equiv_pos_as_xyz
  1  'x, y, z'
loop_
 _atom_site_type_symbol
 _atom_site_label
 _atom_site_symmetry_multiplicity
 _atom_site_fract_x
 _atom_site_fract_y
 _atom_site_fract_z
 _atom_site_occupancy
  Mn  Mn0  1  0.999515  0.500004  0.000485  1
  Mn  Mn1  1  0.999515  0.999996  0.000485  1
  Mo  Mo2  1  0.356281  0.250000  0.643719  1
  Se  Se3  1  0.648196  0.750000  0.351804  1
  O  O4  1  0.238704  0.460453  0.761296  1
  O  O5  1  0.754596  0.547900  0.245404  1
  O  O6  1  0.238704  0.039547  0.761296  1
  O  O7  1  0.754596  0.952100  0.245404  1
  O  O8  1  0.296050  0.750000  0.231839  1
  O  O9  1  0.734805  0.250000  0.789125  1
  O  O10  1  0.768161  0.750000  0.703950  1
  O  O11  1  0.210875  0.250000  0.265195  1
