# generated using pymatgen
data_Tm12ZnNi4Sn
_symmetry_space_group_name_H-M   'P 1'
_cell_length_a   8.23147104
_cell_length_b   8.23418233
_cell_length_c   8.23036397
_cell_angle_alpha   106.14778061
_cell_angle_beta   109.66013663
_cell_angle_gamma   112.69943314
_symmetry_Int_Tables_number   1
_chemical_formula_structural   Tm12ZnNi4Sn
_chemical_formula_sum   'Tm12 Zn1 Ni4 Sn1'
_cell_volume   427.88430962
_cell_formula_units_Z   1
loop_
 _symmetry_equiv_pos_site_id
 _symmetry_equiv_pos_as_xyz
  1  'x, y, z'
loop_
 _atom_site_type_symbol
 _atom_site_label
 _atom_site_symmetry_multiplicity
 _atom_site_fract_x
 _atom_site_fract_y
 _atom_site_fract_z
 _atom_site_occupancy
  Tm  Tm0  1  0.699279  0.272778  0.971866  1
  Tm  Tm1  1  0.300719  0.727272  0.028174  1
  Tm  Tm2  1  0.699309  0.727475  0.426560  1
  Tm  Tm3  1  0.300685  0.272480  0.573385  1
  Tm  Tm4  1  0.806686  0.131369  0.324713  1
  Tm  Tm5  1  0.806607  0.482066  0.675216  1
  Tm  Tm6  1  0.193313  0.868631  0.675301  1
  Tm  Tm7  1  0.193401  0.517937  0.324793  1
  Tm  Tm8  1  0.610512  0.790442  0.820160  1
  Tm  Tm9  1  0.970538  0.790536  0.180010  1
  Tm  Tm10  1  0.029439  0.209461  0.819971  1
  Tm  Tm11  1  0.389479  0.209569  0.179820  1
  Zn  Zn12  1  0.499943  0.500001  0.999936  1
  Ni  Ni13  1  0.851870  0.500092  0.351917  1
  Ni  Ni14  1  0.148214  0.499898  0.648167  1
  Ni  Ni15  1  0.000020  0.125847  0.125860  1
  Ni  Ni16  1  0.999980  0.874155  0.874144  1
  Sn  Sn17  1  0.500008  0.999991  0.500007  1
