# generated using pymatgen
data_Na3Pr4EuTe8
_symmetry_space_group_name_H-M   'P 1'
_cell_length_a   9.17797481
_cell_length_b   9.17797503
_cell_length_c   9.19239165
_cell_angle_alpha   60.05186073
_cell_angle_beta   60.05186070
_cell_angle_gamma   59.99999794
_symmetry_Int_Tables_number   1
_chemical_formula_structural   Na3Pr4EuTe8
_chemical_formula_sum   'Na3 Pr4 Eu1 Te8'
_cell_volume   547.95795503
_cell_formula_units_Z   1
loop_
 _symmetry_equiv_pos_site_id
 _symmetry_equiv_pos_as_xyz
  1  'x, y, z'
loop_
 _atom_site_type_symbol
 _atom_site_label
 _atom_site_symmetry_multiplicity
 _atom_site_fract_x
 _atom_site_fract_y
 _atom_site_fract_z
 _atom_site_occupancy
  Na  Na0  1  0.125000  0.625000  0.125000  1
  Na  Na1  1  0.625000  0.125000  0.125000  1
  Na  Na2  1  0.125000  0.125000  0.125000  1
  Pr  Pr3  1  0.625000  0.125000  0.625000  1
  Pr  Pr4  1  0.625000  0.625000  0.625000  1
  Pr  Pr5  1  0.125000  0.625000  0.625000  1
  Pr  Pr6  1  0.625000  0.625000  0.125000  1
  Eu  Eu7  1  0.125000  0.125000  0.625000  1
  Te  Te8  1  0.376997  0.869323  0.376682  1
  Te  Te9  1  0.873003  0.380677  0.873318  1
  Te  Te10  1  0.872428  0.872428  0.382716  1
  Te  Te11  1  0.873003  0.873003  0.873318  1
  Te  Te12  1  0.869323  0.376997  0.376682  1
  Te  Te13  1  0.377572  0.377572  0.867284  1
  Te  Te14  1  0.376997  0.376997  0.376682  1
  Te  Te15  1  0.380677  0.873003  0.873318  1
