# generated using pymatgen
data_NaVNiP2O9
_symmetry_space_group_name_H-M   'P 1'
_cell_length_a   6.47149500
_cell_length_b   7.49245200
_cell_length_c   14.26355600
_cell_angle_alpha   90.00000000
_cell_angle_beta   90.00000000
_cell_angle_gamma   90.00000000
_symmetry_Int_Tables_number   1
_chemical_formula_structural   NaVNiP2O9
_chemical_formula_sum   'Na4 V4 Ni4 P8 O36'
_cell_volume   691.60225532
_cell_formula_units_Z   4
loop_
 _symmetry_equiv_pos_site_id
 _symmetry_equiv_pos_as_xyz
  1  'x, y, z'
loop_
 _atom_site_type_symbol
 _atom_site_label
 _atom_site_symmetry_multiplicity
 _atom_site_fract_x
 _atom_site_fract_y
 _atom_site_fract_z
 _atom_site_occupancy
  Na  Na0  1  0.750000  0.873636  0.781574  1
  Na  Na1  1  0.750000  0.626364  0.281574  1
  Na  Na2  1  0.250000  0.126364  0.218426  1
  Na  Na3  1  0.250000  0.373636  0.718426  1
  V  V4  1  0.750000  0.352552  0.878367  1
  V  V5  1  0.250000  0.647448  0.121633  1
  V  V6  1  0.250000  0.852552  0.621633  1
  V  V7  1  0.750000  0.147448  0.378367  1
  Ni  Ni8  1  0.500000  0.000000  0.000000  1
  Ni  Ni9  1  0.500000  0.500000  0.500000  1
  Ni  Ni10  1  0.000000  0.500000  0.500000  1
  Ni  Ni11  1  0.000000  0.000000  0.000000  1
  P  P12  1  0.250000  0.350143  0.939765  1
  P  P13  1  0.750000  0.649857  0.060235  1
  P  P14  1  0.750000  0.850143  0.560235  1
  P  P15  1  0.250000  0.149857  0.439765  1
  P  P16  1  0.750000  0.395850  0.690894  1
  P  P17  1  0.250000  0.604150  0.309106  1
  P  P18  1  0.250000  0.895850  0.809106  1
  P  P19  1  0.750000  0.104150  0.190894  1
  O  O20  1  0.052598  0.602151  0.367708  1
  O  O21  1  0.552598  0.397849  0.632292  1
  O  O22  1  0.947402  0.102151  0.132292  1
  O  O23  1  0.447402  0.897849  0.867708  1
  O  O24  1  0.947402  0.397849  0.632292  1
  O  O25  1  0.447402  0.602151  0.367708  1
  O  O26  1  0.052598  0.897849  0.867708  1
  O  O27  1  0.552598  0.102151  0.132292  1
  O  O28  1  0.250000  0.337059  0.484026  1
  O  O29  1  0.750000  0.662941  0.515974  1
  O  O30  1  0.750000  0.837059  0.015974  1
  O  O31  1  0.250000  0.162941  0.984026  1
  O  O32  1  0.750000  0.158702  0.940129  1
  O  O33  1  0.250000  0.841298  0.059871  1
  O  O34  1  0.250000  0.658702  0.559871  1
  O  O35  1  0.750000  0.341298  0.440129  1
  O  O36  1  0.750000  0.225912  0.760471  1
  O  O37  1  0.250000  0.774088  0.239529  1
  O  O38  1  0.250000  0.725912  0.739529  1
  O  O39  1  0.750000  0.274088  0.260471  1
  O  O40  1  0.442233  0.124806  0.376111  1
  O  O41  1  0.942233  0.875194  0.623889  1
  O  O42  1  0.557767  0.624806  0.123889  1
  O  O43  1  0.057767  0.375194  0.876111  1
  O  O44  1  0.557767  0.875194  0.623889  1
  O  O45  1  0.057767  0.124806  0.376111  1
  O  O46  1  0.442233  0.375194  0.876111  1
  O  O47  1  0.942233  0.624806  0.123889  1
  O  O48  1  0.750000  0.961351  0.272624  1
  O  O49  1  0.250000  0.038649  0.727376  1
  O  O50  1  0.250000  0.461351  0.227376  1
  O  O51  1  0.750000  0.538649  0.772624  1
  O  O52  1  0.750000  0.988159  0.479985  1
  O  O53  1  0.250000  0.011841  0.520015  1
  O  O54  1  0.250000  0.488159  0.020015  1
  O  O55  1  0.750000  0.511841  0.979985  1
