# generated using pymatgen
data_Ho2Er2B16Mo3W
_symmetry_space_group_name_H-M   'P 1'
_cell_length_a   3.61255900
_cell_length_b   6.02217800
_cell_length_c   11.63306531
_cell_angle_alpha   89.98469669
_cell_angle_beta   90.00000000
_cell_angle_gamma   90.00000000
_symmetry_Int_Tables_number   1
_chemical_formula_structural   Ho2Er2B16Mo3W
_chemical_formula_sum   'Ho2 Er2 B16 Mo3 W1'
_cell_volume   253.08283328
_cell_formula_units_Z   1
loop_
 _symmetry_equiv_pos_site_id
 _symmetry_equiv_pos_as_xyz
  1  'x, y, z'
loop_
 _atom_site_type_symbol
 _atom_site_label
 _atom_site_symmetry_multiplicity
 _atom_site_fract_x
 _atom_site_fract_y
 _atom_site_fract_z
 _atom_site_occupancy
  Ho  Ho0  1  0.000000  0.627080  0.350532  1
  Ho  Ho1  1  0.000000  0.372900  0.649781  1
  Er  Er2  1  0.000000  0.127344  0.149527  1
  Er  Er3  1  0.000000  0.873126  0.850248  1
  B  B4  1  0.500000  0.787944  0.186844  1
  B  B5  1  0.500000  0.212726  0.813539  1
  B  B6  1  0.500000  0.286950  0.313520  1
  B  B7  1  0.500000  0.712893  0.686662  1
  B  B8  1  0.500000  0.867578  0.031723  1
  B  B9  1  0.500000  0.133032  0.967793  1
  B  B10  1  0.500000  0.367132  0.468058  1
  B  B11  1  0.500000  0.632829  0.532017  1
  B  B12  1  0.500000  0.885488  0.452398  1
  B  B13  1  0.500000  0.114474  0.547711  1
  B  B14  1  0.500000  0.385056  0.047440  1
  B  B15  1  0.500000  0.614344  0.952088  1
  B  B16  1  0.500000  0.976344  0.306200  1
  B  B17  1  0.500000  0.023943  0.693962  1
  B  B18  1  0.500000  0.475406  0.193831  1
  B  B19  1  0.500000  0.523774  0.806242  1
  Mo  Mo20  1  0.000000  0.369197  0.915702  1
  Mo  Mo21  1  0.000000  0.129988  0.416085  1
  Mo  Mo22  1  0.000000  0.869921  0.583877  1
  W  W23  1  0.000000  0.630530  0.084218  1
