# generated using pymatgen
data_LiEr2Si4Pd
_symmetry_space_group_name_H-M   'P 1'
_cell_length_a   3.83069300
_cell_length_b   7.33059200
_cell_length_c   10.02772400
_cell_angle_alpha   90.00000000
_cell_angle_beta   90.00000000
_cell_angle_gamma   90.00000000
_symmetry_Int_Tables_number   1
_chemical_formula_structural   LiEr2Si4Pd
_chemical_formula_sum   'Li2 Er4 Si8 Pd2'
_cell_volume   281.59099911
_cell_formula_units_Z   2
loop_
 _symmetry_equiv_pos_site_id
 _symmetry_equiv_pos_as_xyz
  1  'x, y, z'
loop_
 _atom_site_type_symbol
 _atom_site_label
 _atom_site_symmetry_multiplicity
 _atom_site_fract_x
 _atom_site_fract_y
 _atom_site_fract_z
 _atom_site_occupancy
  Li  Li0  1  0.750000  0.005307  0.604770  1
  Li  Li1  1  0.750000  0.505307  0.895230  1
  Er  Er2  1  0.250000  0.143344  0.871296  1
  Er  Er3  1  0.250000  0.643344  0.628704  1
  Er  Er4  1  0.750000  0.862172  0.132713  1
  Er  Er5  1  0.750000  0.362172  0.367287  1
  Si  Si6  1  0.250000  0.226498  0.569724  1
  Si  Si7  1  0.250000  0.726498  0.930276  1
  Si  Si8  1  0.750000  0.768149  0.430816  1
  Si  Si9  1  0.750000  0.268149  0.069184  1
  Si  Si10  1  0.250000  0.656709  0.316984  1
  Si  Si11  1  0.250000  0.156709  0.183016  1
  Si  Si12  1  0.750000  0.343343  0.679699  1
  Si  Si13  1  0.750000  0.843343  0.820301  1
  Pd  Pd14  1  0.250000  0.994476  0.392395  1
  Pd  Pd15  1  0.250000  0.494476  0.107605  1
