# generated using pymatgen
data_Zr24Ge3Se5
_symmetry_space_group_name_H-M   'P 1'
_cell_length_a   11.03850937
_cell_length_b   11.06527281
_cell_length_c   5.49827196
_cell_angle_alpha   89.95655661
_cell_angle_beta   89.79727690
_cell_angle_gamma   89.99421734
_symmetry_Int_Tables_number   1
_chemical_formula_structural   Zr24Ge3Se5
_chemical_formula_sum   'Zr24 Ge3 Se5'
_cell_volume   671.57717654
_cell_formula_units_Z   1
loop_
 _symmetry_equiv_pos_site_id
 _symmetry_equiv_pos_as_xyz
  1  'x, y, z'
loop_
 _atom_site_type_symbol
 _atom_site_label
 _atom_site_symmetry_multiplicity
 _atom_site_fract_x
 _atom_site_fract_y
 _atom_site_fract_z
 _atom_site_occupancy
  Zr  Zr0  1  0.916163  0.605534  0.542769  1
  Zr  Zr1  1  0.084008  0.395472  0.539794  1
  Zr  Zr2  1  0.895551  0.415145  0.034933  1
  Zr  Zr3  1  0.104723  0.583332  0.039259  1
  Zr  Zr4  1  0.583863  0.896856  0.960118  1
  Zr  Zr5  1  0.416050  0.103023  0.960788  1
  Zr  Zr6  1  0.604007  0.083567  0.462253  1
  Zr  Zr7  1  0.396770  0.916105  0.460842  1
  Zr  Zr8  1  0.859625  0.973730  0.717433  1
  Zr  Zr9  1  0.139381  0.026214  0.717284  1
  Zr  Zr10  1  0.528187  0.360864  0.215191  1
  Zr  Zr11  1  0.475139  0.639881  0.217634  1
  Zr  Zr12  1  0.638664  0.525404  0.784487  1
  Zr  Zr13  1  0.360250  0.474296  0.782442  1
  Zr  Zr14  1  0.972717  0.140307  0.282390  1
  Zr  Zr15  1  0.025060  0.859995  0.283447  1
  Zr  Zr16  1  0.816638  0.715022  0.011566  1
  Zr  Zr17  1  0.182346  0.285474  0.009589  1
  Zr  Zr18  1  0.785265  0.319095  0.513773  1
  Zr  Zr19  1  0.214639  0.681743  0.509664  1
  Zr  Zr20  1  0.681792  0.785552  0.490054  1
  Zr  Zr21  1  0.319003  0.214786  0.487455  1
  Zr  Zr22  1  0.714253  0.181414  0.987296  1
  Zr  Zr23  1  0.284747  0.818536  0.988736  1
  Ge  Ge24  1  0.295802  0.460084  0.287740  1
  Ge  Ge25  1  0.960138  0.204904  0.787923  1
  Ge  Ge26  1  0.039352  0.795108  0.789308  1
  Se  Se27  1  0.792868  0.960646  0.211630  1
  Se  Se28  1  0.206548  0.039487  0.212223  1
  Se  Se29  1  0.538192  0.292327  0.711419  1
  Se  Se30  1  0.460207  0.707366  0.711734  1
  Se  Se31  1  0.708055  0.538729  0.288827  1
