# generated using pymatgen
data_Rb2CrNiS4
_symmetry_space_group_name_H-M   'P 1'
_cell_length_a   13.53979495
_cell_length_b   12.04958140
_cell_length_c   7.20614715
_cell_angle_alpha   85.44388632
_cell_angle_beta   62.51429215
_cell_angle_gamma   32.04181829
_symmetry_Int_Tables_number   1
_chemical_formula_structural   Rb2CrNiS4
_chemical_formula_sum   'Rb4 Cr2 Ni2 S8'
_cell_volume   414.50901722
_cell_formula_units_Z   2
loop_
 _symmetry_equiv_pos_site_id
 _symmetry_equiv_pos_as_xyz
  1  'x, y, z'
loop_
 _atom_site_type_symbol
 _atom_site_label
 _atom_site_symmetry_multiplicity
 _atom_site_fract_x
 _atom_site_fract_y
 _atom_site_fract_z
 _atom_site_occupancy
  Rb  Rb0  1  0.572461  0.572461  0.927539  1
  Rb  Rb1  1  0.927539  0.927539  0.572461  1
  Rb  Rb2  1  0.322461  0.322461  0.677539  1
  Rb  Rb3  1  0.677539  0.677539  0.322461  1
  Cr  Cr4  1  0.750000  0.750000  0.750000  1
  Cr  Cr5  1  0.500000  0.500000  0.500000  1
  Ni  Ni6  1  0.000000  0.000000  0.000000  1
  Ni  Ni7  1  0.250000  0.250000  0.250000  1
  S  S8  1  0.222458  0.881526  0.593988  1
  S  S9  1  0.302029  0.593988  0.881526  1
  S  S10  1  0.593988  0.302029  0.222458  1
  S  S11  1  0.881526  0.222458  0.302029  1
  S  S12  1  0.368474  0.027542  0.947971  1
  S  S13  1  0.947971  0.656012  0.368474  1
  S  S14  1  0.656012  0.947971  0.027542  1
  S  S15  1  0.027542  0.368474  0.656012  1
