# generated using pymatgen
data_Lu12Hg2Ru3
_symmetry_space_group_name_H-M   'P 1'
_cell_length_a   8.24493212
_cell_length_b   8.24493267
_cell_length_c   8.24493300
_cell_angle_alpha   109.11316028
_cell_angle_beta   109.11317631
_cell_angle_gamma   110.18972656
_symmetry_Int_Tables_number   1
_chemical_formula_structural   Lu12Hg2Ru3
_chemical_formula_sum   'Lu12 Hg2 Ru3'
_cell_volume   431.40792735
_cell_formula_units_Z   1
loop_
 _symmetry_equiv_pos_site_id
 _symmetry_equiv_pos_as_xyz
  1  'x, y, z'
loop_
 _atom_site_type_symbol
 _atom_site_label
 _atom_site_symmetry_multiplicity
 _atom_site_fract_x
 _atom_site_fract_y
 _atom_site_fract_z
 _atom_site_occupancy
  Lu  Lu0  1  0.317348  0.317348  0.634699  1
  Lu  Lu1  1  0.682652  0.682652  0.365301  1
  Lu  Lu2  1  0.682652  0.317348  0.000000  1
  Lu  Lu3  1  0.317348  0.682652  0.000000  1
  Lu  Lu4  1  0.184467  0.428350  0.243882  1
  Lu  Lu5  1  0.815533  0.571650  0.756118  1
  Lu  Lu6  1  0.184467  0.940585  0.756118  1
  Lu  Lu7  1  0.940585  0.184467  0.756118  1
  Lu  Lu8  1  0.815533  0.059415  0.243882  1
  Lu  Lu9  1  0.059415  0.815533  0.243882  1
  Lu  Lu10  1  0.428350  0.184467  0.243882  1
  Lu  Lu11  1  0.571650  0.815533  0.756118  1
  Hg  Hg12  1  0.000000  0.500000  0.500000  1
  Hg  Hg13  1  0.500000  0.000000  0.500000  1
  Ru  Ru14  1  0.343168  0.343168  0.000000  1
  Ru  Ru15  1  0.656832  0.656832  0.000000  1
  Ru  Ru16  1  0.000000  0.000000  0.000000  1
