# generated using pymatgen
data_LiDy3Mg2Si2Ag
_symmetry_space_group_name_H-M   'P 1'
_cell_length_a   7.24091543
_cell_length_b   7.24091602
_cell_length_c   4.29533700
_cell_angle_alpha   90.00000000
_cell_angle_beta   90.00000000
_cell_angle_gamma   120.49456327
_symmetry_Int_Tables_number   1
_chemical_formula_structural   LiDy3Mg2Si2Ag
_chemical_formula_sum   'Li1 Dy3 Mg2 Si2 Ag1'
_cell_volume   194.05681067
_cell_formula_units_Z   1
loop_
 _symmetry_equiv_pos_site_id
 _symmetry_equiv_pos_as_xyz
  1  'x, y, z'
loop_
 _atom_site_type_symbol
 _atom_site_label
 _atom_site_symmetry_multiplicity
 _atom_site_fract_x
 _atom_site_fract_y
 _atom_site_fract_z
 _atom_site_occupancy
  Li  Li0  1  0.747939  0.747939  0.000000  1
  Dy  Dy1  1  0.431690  0.431690  0.500000  1
  Dy  Dy2  1  0.575990  0.997126  0.500000  1
  Dy  Dy3  1  0.997126  0.575990  0.500000  1
  Mg  Mg4  1  0.246653  0.998633  0.000000  1
  Mg  Mg5  1  0.998633  0.246653  0.000000  1
  Si  Si6  1  0.668331  0.336431  0.000000  1
  Si  Si7  1  0.336431  0.668331  0.000000  1
  Ag  Ag8  1  0.997208  0.997208  0.500000  1
