# generated using pymatgen
data_NaTl2Fe3F12
_symmetry_space_group_name_H-M   'P 1'
_cell_length_a   7.60947900
_cell_length_b   12.29789900
_cell_length_c   12.94025200
_cell_angle_alpha   90.00000000
_cell_angle_beta   90.00000000
_cell_angle_gamma   90.00000000
_symmetry_Int_Tables_number   1
_chemical_formula_structural   NaTl2Fe3F12
_chemical_formula_sum   'Na4 Tl8 Fe12 F48'
_cell_volume   1210.95660046
_cell_formula_units_Z   4
loop_
 _symmetry_equiv_pos_site_id
 _symmetry_equiv_pos_as_xyz
  1  'x, y, z'
loop_
 _atom_site_type_symbol
 _atom_site_label
 _atom_site_symmetry_multiplicity
 _atom_site_fract_x
 _atom_site_fract_y
 _atom_site_fract_z
 _atom_site_occupancy
  Na  Na0  1  0.250000  0.984068  0.732030  1
  Na  Na1  1  0.250000  0.484068  0.767970  1
  Na  Na2  1  0.750000  0.015932  0.267970  1
  Na  Na3  1  0.750000  0.515932  0.232030  1
  Tl  Tl4  1  0.750000  0.542570  0.602593  1
  Tl  Tl5  1  0.750000  0.042570  0.897407  1
  Tl  Tl6  1  0.250000  0.457430  0.397407  1
  Tl  Tl7  1  0.250000  0.957430  0.102593  1
  Tl  Tl8  1  0.750000  0.469503  0.929114  1
  Tl  Tl9  1  0.750000  0.969503  0.570886  1
  Tl  Tl10  1  0.250000  0.530497  0.070886  1
  Tl  Tl11  1  0.250000  0.030497  0.429114  1
  Fe  Fe12  1  0.499941  0.251592  0.669683  1
  Fe  Fe13  1  0.000059  0.751592  0.830317  1
  Fe  Fe14  1  0.999941  0.748408  0.330317  1
  Fe  Fe15  1  0.500059  0.248408  0.169683  1
  Fe  Fe16  1  0.500059  0.748408  0.330317  1
  Fe  Fe17  1  0.999941  0.248408  0.169683  1
  Fe  Fe18  1  0.000059  0.251592  0.669683  1
  Fe  Fe19  1  0.499941  0.751592  0.830317  1
  Fe  Fe20  1  0.250000  0.209998  0.919018  1
  Fe  Fe21  1  0.250000  0.709998  0.580982  1
  Fe  Fe22  1  0.750000  0.790002  0.080982  1
  Fe  Fe23  1  0.750000  0.290002  0.419018  1
  F  F24  1  0.564079  0.298814  0.527528  1
  F  F25  1  0.935921  0.798814  0.972472  1
  F  F26  1  0.064079  0.701186  0.472472  1
  F  F27  1  0.435921  0.201186  0.027528  1
  F  F28  1  0.435921  0.701186  0.472472  1
  F  F29  1  0.064079  0.201186  0.027528  1
  F  F30  1  0.935921  0.298814  0.527528  1
  F  F31  1  0.564079  0.798814  0.972472  1
  F  F32  1  0.750000  0.210500  0.697991  1
  F  F33  1  0.750000  0.710500  0.802009  1
  F  F34  1  0.250000  0.789500  0.302009  1
  F  F35  1  0.250000  0.289500  0.197991  1
  F  F36  1  0.534910  0.397605  0.718037  1
  F  F37  1  0.965090  0.897605  0.781963  1
  F  F38  1  0.034910  0.602395  0.281963  1
  F  F39  1  0.465090  0.102395  0.218037  1
  F  F40  1  0.465090  0.602395  0.281963  1
  F  F41  1  0.034910  0.102395  0.218037  1
  F  F42  1  0.965090  0.397605  0.718037  1
  F  F43  1  0.534910  0.897605  0.781963  1
  F  F44  1  0.250000  0.291880  0.643850  1
  F  F45  1  0.250000  0.791880  0.856150  1
  F  F46  1  0.750000  0.708120  0.356150  1
  F  F47  1  0.750000  0.208120  0.143850  1
  F  F48  1  0.456464  0.104993  0.624483  1
  F  F49  1  0.043536  0.604993  0.875517  1
  F  F50  1  0.956464  0.895007  0.375517  1
  F  F51  1  0.543536  0.395007  0.124483  1
  F  F52  1  0.543536  0.895007  0.375517  1
  F  F53  1  0.956464  0.395007  0.124483  1
  F  F54  1  0.043536  0.104993  0.624483  1
  F  F55  1  0.456464  0.604993  0.875517  1
  F  F56  1  0.440089  0.204195  0.812712  1
  F  F57  1  0.059911  0.704195  0.687288  1
  F  F58  1  0.940089  0.795805  0.187288  1
  F  F59  1  0.559911  0.295805  0.312712  1
  F  F60  1  0.559911  0.795805  0.187288  1
  F  F61  1  0.940089  0.295805  0.312712  1
  F  F62  1  0.059911  0.204195  0.812712  1
  F  F63  1  0.440089  0.704195  0.687288  1
  F  F64  1  0.250000  0.365188  0.917138  1
  F  F65  1  0.250000  0.865188  0.582862  1
  F  F66  1  0.750000  0.634812  0.082862  1
  F  F67  1  0.750000  0.134812  0.417138  1
  F  F68  1  0.250000  0.053754  0.912397  1
  F  F69  1  0.250000  0.553754  0.587603  1
  F  F70  1  0.750000  0.946246  0.087603  1
  F  F71  1  0.750000  0.446246  0.412397  1
