# generated using pymatgen
data_HoEr2(NiSn)3
_symmetry_space_group_name_H-M   'P 1'
_cell_length_a   7.25597240
_cell_length_b   7.26012366
_cell_length_c   3.90675700
_cell_angle_alpha   90.00000000
_cell_angle_beta   90.00000000
_cell_angle_gamma   120.01892003
_symmetry_Int_Tables_number   1
_chemical_formula_structural   HoEr2(NiSn)3
_chemical_formula_sum   'Ho1 Er2 Ni3 Sn3'
_cell_volume   178.19841638
_cell_formula_units_Z   1
loop_
 _symmetry_equiv_pos_site_id
 _symmetry_equiv_pos_as_xyz
  1  'x, y, z'
loop_
 _atom_site_type_symbol
 _atom_site_label
 _atom_site_symmetry_multiplicity
 _atom_site_fract_x
 _atom_site_fract_y
 _atom_site_fract_z
 _atom_site_occupancy
  Ho  Ho0  1  0.000000  0.591710  0.500000  1
  Er  Er1  1  0.407902  0.407787  0.500000  1
  Er  Er2  1  0.592098  0.999885  0.500000  1
  Ni  Ni3  1  0.000000  0.000680  0.500000  1
  Ni  Ni4  1  0.666319  0.333088  0.000000  1
  Ni  Ni5  1  0.333681  0.666770  0.000000  1
  Sn  Sn6  1  0.742792  0.743050  0.000000  1
  Sn  Sn7  1  0.257208  0.000258  0.000000  1
  Sn  Sn8  1  0.000000  0.256771  0.000000  1
