# generated using pymatgen
data_Cs2Li2TiTe4
_symmetry_space_group_name_H-M   'P 1'
_cell_length_a   6.66310000
_cell_length_b   6.66310000
_cell_length_c   14.88956300
_cell_angle_alpha   90.00000000
_cell_angle_beta   90.00000000
_cell_angle_gamma   90.00000000
_symmetry_Int_Tables_number   1
_chemical_formula_structural   Cs2Li2TiTe4
_chemical_formula_sum   'Cs4 Li4 Ti2 Te8'
_cell_volume   661.05046353
_cell_formula_units_Z   2
loop_
 _symmetry_equiv_pos_site_id
 _symmetry_equiv_pos_as_xyz
  1  'x, y, z'
loop_
 _atom_site_type_symbol
 _atom_site_label
 _atom_site_symmetry_multiplicity
 _atom_site_fract_x
 _atom_site_fract_y
 _atom_site_fract_z
 _atom_site_occupancy
  Cs  Cs0  1  0.757637  0.757637  0.000000  1
  Cs  Cs1  1  0.242363  0.757637  0.500000  1
  Cs  Cs2  1  0.757637  0.242363  0.500000  1
  Cs  Cs3  1  0.242363  0.242363  0.000000  1
  Li  Li4  1  0.000000  0.500000  0.750000  1
  Li  Li5  1  0.500000  0.000000  0.750000  1
  Li  Li6  1  0.000000  0.500000  0.250000  1
  Li  Li7  1  0.500000  0.000000  0.250000  1
  Ti  Ti8  1  0.500000  0.500000  0.750000  1
  Ti  Ti9  1  0.500000  0.500000  0.250000  1
  Te  Te10  1  0.729404  0.729404  0.650634  1
  Te  Te11  1  0.270596  0.270596  0.650634  1
  Te  Te12  1  0.729404  0.729404  0.349366  1
  Te  Te13  1  0.729404  0.270596  0.150634  1
  Te  Te14  1  0.270596  0.729404  0.849366  1
  Te  Te15  1  0.270596  0.270596  0.349366  1
  Te  Te16  1  0.270596  0.729404  0.150634  1
  Te  Te17  1  0.729404  0.270596  0.849366  1
