# generated using pymatgen
data_Nd4Be2(SiRh3)3
_symmetry_space_group_name_H-M   'P 1'
_cell_length_a   11.44694438
_cell_length_b   11.44694546
_cell_length_c   11.44694370
_cell_angle_alpha   28.39451315
_cell_angle_beta   28.39451312
_cell_angle_gamma   28.39452092
_symmetry_Int_Tables_number   1
_chemical_formula_structural   Nd4Be2(SiRh3)3
_chemical_formula_sum   'Nd4 Be2 Si3 Rh9'
_cell_volume   299.75199242
_cell_formula_units_Z   1
loop_
 _symmetry_equiv_pos_site_id
 _symmetry_equiv_pos_as_xyz
  1  'x, y, z'
loop_
 _atom_site_type_symbol
 _atom_site_label
 _atom_site_symmetry_multiplicity
 _atom_site_fract_x
 _atom_site_fract_y
 _atom_site_fract_z
 _atom_site_occupancy
  Nd  Nd0  1  0.948450  0.948450  0.948450  1
  Nd  Nd1  1  0.850465  0.850465  0.850465  1
  Nd  Nd2  1  0.148028  0.148028  0.148028  1
  Nd  Nd3  1  0.050671  0.050671  0.050671  1
  Be  Be4  1  0.279442  0.279442  0.279442  1
  Be  Be5  1  0.387341  0.387341  0.387341  1
  Si  Si6  1  0.501295  0.501295  0.501295  1
  Si  Si7  1  0.720382  0.720382  0.720382  1
  Si  Si8  1  0.613510  0.613510  0.613510  1
  Rh  Rh9  1  0.602523  0.602523  0.113339  1
  Rh  Rh10  1  0.897488  0.392189  0.392189  1
  Rh  Rh11  1  0.496943  0.006279  0.496943  1
  Rh  Rh12  1  0.392189  0.897488  0.392189  1
  Rh  Rh13  1  0.496943  0.496943  0.006279  1
  Rh  Rh14  1  0.113339  0.602523  0.602523  1
  Rh  Rh15  1  0.006279  0.496943  0.496943  1
  Rh  Rh16  1  0.392189  0.392189  0.897488  1
  Rh  Rh17  1  0.602523  0.113339  0.602523  1
