# generated using pymatgen
data_U2Tc2Mo
_symmetry_space_group_name_H-M   'P 1'
_cell_length_a   5.29790898
_cell_length_b   5.29790843
_cell_length_c   5.29790828
_cell_angle_alpha   52.29359294
_cell_angle_beta   52.29359897
_cell_angle_gamma   52.29360371
_symmetry_Int_Tables_number   1
_chemical_formula_structural   U2Tc2Mo
_chemical_formula_sum   'U2 Tc2 Mo1'
_cell_volume   86.11278141
_cell_formula_units_Z   1
loop_
 _symmetry_equiv_pos_site_id
 _symmetry_equiv_pos_as_xyz
  1  'x, y, z'
loop_
 _atom_site_type_symbol
 _atom_site_label
 _atom_site_symmetry_multiplicity
 _atom_site_fract_x
 _atom_site_fract_y
 _atom_site_fract_z
 _atom_site_occupancy
  U  U0  1  0.194573  0.194573  0.194573  1
  U  U1  1  0.805427  0.805427  0.805427  1
  Tc  Tc2  1  0.386542  0.386542  0.386542  1
  Tc  Tc3  1  0.613458  0.613458  0.613458  1
  Mo  Mo4  1  0.000000  0.000000  0.000000  1
