# generated using pymatgen
data_LiEr2TiCo6(P3Rh)2
_symmetry_space_group_name_H-M   'P 1'
_cell_length_a   3.70971600
_cell_length_b   10.41111600
_cell_length_c   12.14001600
_cell_angle_alpha   90.00000000
_cell_angle_beta   90.00000000
_cell_angle_gamma   90.00000000
_symmetry_Int_Tables_number   1
_chemical_formula_structural   LiEr2TiCo6(P3Rh)2
_chemical_formula_sum   'Li2 Er4 Ti2 Co12 P12 Rh4'
_cell_volume   468.87514090
_cell_formula_units_Z   2
loop_
 _symmetry_equiv_pos_site_id
 _symmetry_equiv_pos_as_xyz
  1  'x, y, z'
loop_
 _atom_site_type_symbol
 _atom_site_label
 _atom_site_symmetry_multiplicity
 _atom_site_fract_x
 _atom_site_fract_y
 _atom_site_fract_z
 _atom_site_occupancy
  Li  Li0  1  0.250000  0.704152  0.990761  1
  Li  Li1  1  0.250000  0.795848  0.490761  1
  Er  Er2  1  0.250000  0.582235  0.712214  1
  Er  Er3  1  0.250000  0.917765  0.212214  1
  Er  Er4  1  0.750000  0.418402  0.290101  1
  Er  Er5  1  0.750000  0.081598  0.790101  1
  Ti  Ti6  1  0.750000  0.296837  0.010532  1
  Ti  Ti7  1  0.750000  0.203163  0.510532  1
  Co  Co8  1  0.250000  0.220447  0.176197  1
  Co  Co9  1  0.250000  0.279553  0.676197  1
  Co  Co10  1  0.750000  0.780721  0.822114  1
  Co  Co11  1  0.750000  0.719279  0.322114  1
  Co  Co12  1  0.250000  0.881601  0.695496  1
  Co  Co13  1  0.250000  0.618399  0.195496  1
  Co  Co14  1  0.750000  0.117553  0.304071  1
  Co  Co15  1  0.750000  0.382447  0.804071  1
  Co  Co16  1  0.250000  0.468228  0.933065  1
  Co  Co17  1  0.250000  0.031772  0.433065  1
  Co  Co18  1  0.750000  0.535538  0.066625  1
  Co  Co19  1  0.750000  0.964462  0.566625  1
  P  P20  1  0.250000  0.423868  0.113270  1
  P  P21  1  0.250000  0.076132  0.613270  1
  P  P22  1  0.750000  0.580432  0.886560  1
  P  P23  1  0.750000  0.919568  0.386560  1
  P  P24  1  0.250000  0.275416  0.858486  1
  P  P25  1  0.250000  0.224584  0.358486  1
  P  P26  1  0.750000  0.726818  0.141212  1
  P  P27  1  0.750000  0.773182  0.641212  1
  P  P28  1  0.250000  0.607856  0.379641  1
  P  P29  1  0.250000  0.892144  0.879641  1
  P  P30  1  0.750000  0.401703  0.621471  1
  P  P31  1  0.750000  0.098297  0.121471  1
  Rh  Rh32  1  0.250000  0.401816  0.480249  1
  Rh  Rh33  1  0.250000  0.098184  0.980249  1
  Rh  Rh34  1  0.750000  0.598454  0.517933  1
  Rh  Rh35  1  0.750000  0.901546  0.017933  1
