# generated using pymatgen
data_HoErSi6AsRh12
_symmetry_space_group_name_H-M   'P 1'
_cell_length_a   9.78477100
_cell_length_b   9.78477139
_cell_length_c   3.84490000
_cell_angle_alpha   90.00000000
_cell_angle_beta   90.00000000
_cell_angle_gamma   119.99999529
_symmetry_Int_Tables_number   1
_chemical_formula_structural   HoErSi6AsRh12
_chemical_formula_sum   'Ho1 Er1 Si6 As1 Rh12'
_cell_volume   318.79907365
_cell_formula_units_Z   1
loop_
 _symmetry_equiv_pos_site_id
 _symmetry_equiv_pos_as_xyz
  1  'x, y, z'
loop_
 _atom_site_type_symbol
 _atom_site_label
 _atom_site_symmetry_multiplicity
 _atom_site_fract_x
 _atom_site_fract_y
 _atom_site_fract_z
 _atom_site_occupancy
  Ho  Ho0  1  0.666667  0.333333  0.750614  1
  Er  Er1  1  0.333333  0.666667  0.249408  1
  Si  Si2  1  0.402949  0.112288  0.248846  1
  Si  Si3  1  0.709339  0.597051  0.248846  1
  Si  Si4  1  0.887712  0.290661  0.248846  1
  Si  Si5  1  0.596932  0.887624  0.751149  1
  Si  Si6  1  0.290692  0.403068  0.751149  1
  Si  Si7  1  0.112376  0.709308  0.751149  1
  As  As8  1  0.000000  0.000000  0.499975  1
  Rh  Rh9  1  0.444744  0.381179  0.249273  1
  Rh  Rh10  1  0.936435  0.555256  0.249273  1
  Rh  Rh11  1  0.618821  0.063565  0.249273  1
  Rh  Rh12  1  0.555104  0.618866  0.750715  1
  Rh  Rh13  1  0.063762  0.444896  0.750715  1
  Rh  Rh14  1  0.381134  0.936238  0.750715  1
  Rh  Rh15  1  0.146262  0.880084  0.249835  1
  Rh  Rh16  1  0.733822  0.853738  0.249835  1
  Rh  Rh17  1  0.119916  0.266178  0.249835  1
  Rh  Rh18  1  0.853716  0.119874  0.750183  1
  Rh  Rh19  1  0.266158  0.146284  0.750183  1
  Rh  Rh20  1  0.880126  0.733842  0.750183  1
