# generated using pymatgen
data_K4Cr4Cl10O
_symmetry_space_group_name_H-M   'P 1'
_cell_length_a   9.19343518
_cell_length_b   10.92017620
_cell_length_c   10.91951904
_cell_angle_alpha   90.35630352
_cell_angle_beta   100.16712513
_cell_angle_gamma   100.16914003
_symmetry_Int_Tables_number   1
_chemical_formula_structural   K4Cr4Cl10O
_chemical_formula_sum   'K8 Cr8 Cl20 O2'
_cell_volume   1061.29726931
_cell_formula_units_Z   2
loop_
 _symmetry_equiv_pos_site_id
 _symmetry_equiv_pos_as_xyz
  1  'x, y, z'
loop_
 _atom_site_type_symbol
 _atom_site_label
 _atom_site_symmetry_multiplicity
 _atom_site_fract_x
 _atom_site_fract_y
 _atom_site_fract_z
 _atom_site_occupancy
  K  K0  1  0.872635  0.284911  0.037236  1
  K  K1  1  0.372653  0.037226  0.284918  1
  K  K2  1  0.362177  0.440167  0.291692  1
  K  K3  1  0.862165  0.291683  0.440190  1
  K  K4  1  0.137835  0.708317  0.559809  1
  K  K5  1  0.637823  0.559834  0.708309  1
  K  K6  1  0.627347  0.962773  0.715082  1
  K  K7  1  0.127365  0.715089  0.962765  1
  Cr  Cr8  1  0.615653  0.764178  0.047396  1
  Cr  Cr9  1  0.871438  0.644920  0.232500  1
  Cr  Cr10  1  0.884494  0.952580  0.235916  1
  Cr  Cr11  1  0.628596  0.767512  0.355076  1
  Cr  Cr12  1  0.371405  0.232488  0.644924  1
  Cr  Cr13  1  0.115507  0.047421  0.764084  1
  Cr  Cr14  1  0.128563  0.355081  0.767500  1
  Cr  Cr15  1  0.384348  0.235822  0.952603  1
  Cl  Cl16  1  0.781143  0.604051  0.005092  1
  Cl  Cl17  1  0.750031  0.983154  0.016892  1
  Cl  Cl18  1  0.545006  0.266176  0.153885  1
  Cl  Cl19  1  0.409455  0.719327  0.172808  1
  Cl  Cl20  1  0.021306  0.485270  0.262216  1
  Cl  Cl21  1  0.045063  0.153894  0.266212  1
  Cl  Cl22  1  0.090641  0.827175  0.280680  1
  Cl  Cl23  1  0.718882  0.994920  0.395949  1
  Cl  Cl24  1  0.750000  0.582485  0.417513  1
  Cl  Cl25  1  0.521290  0.262205  0.485269  1
  Cl  Cl26  1  0.478710  0.737795  0.514731  1
  Cl  Cl27  1  0.250000  0.417515  0.582487  1
  Cl  Cl28  1  0.281117  0.005080  0.604051  1
  Cl  Cl29  1  0.909360  0.172825  0.719320  1
  Cl  Cl30  1  0.954938  0.846106  0.733788  1
  Cl  Cl31  1  0.978694  0.514730  0.737784  1
  Cl  Cl32  1  0.590546  0.280673  0.827193  1
  Cl  Cl33  1  0.454994  0.733824  0.846114  1
  Cl  Cl34  1  0.249969  0.016846  0.983108  1
  Cl  Cl35  1  0.218856  0.395948  0.994908  1
  O  O36  1  0.750054  0.782761  0.217259  1
  O  O37  1  0.249946  0.217239  0.782741  1
