# generated using pymatgen
data_TbNdFe8Co4P7
_symmetry_space_group_name_H-M   'P 1'
_cell_length_a   3.63331300
_cell_length_b   9.03038875
_cell_length_c   9.02044305
_cell_angle_alpha   120.06041636
_cell_angle_beta   90.00000000
_cell_angle_gamma   90.00000000
_symmetry_Int_Tables_number   1
_chemical_formula_structural   TbNdFe8Co4P7
_chemical_formula_sum   'Tb1 Nd1 Fe8 Co4 P7'
_cell_volume   256.15512042
_cell_formula_units_Z   1
loop_
 _symmetry_equiv_pos_site_id
 _symmetry_equiv_pos_as_xyz
  1  'x, y, z'
loop_
 _atom_site_type_symbol
 _atom_site_label
 _atom_site_symmetry_multiplicity
 _atom_site_fract_x
 _atom_site_fract_y
 _atom_site_fract_z
 _atom_site_occupancy
  Tb  Tb0  1  0.500000  0.333840  0.667089  1
  Nd  Nd1  1  0.000000  0.666201  0.332490  1
  Fe  Fe2  1  0.000000  0.568915  0.629463  1
  Fe  Fe3  1  0.000000  0.881073  0.727665  1
  Fe  Fe4  1  0.000000  0.271539  0.153400  1
  Fe  Fe5  1  0.000000  0.848494  0.119367  1
  Fe  Fe6  1  0.500000  0.613609  0.046293  1
  Fe  Fe7  1  0.500000  0.125246  0.897553  1
  Fe  Fe8  1  0.500000  0.102625  0.228708  1
  Fe  Fe9  1  0.500000  0.778603  0.878412  1
  Co  Co10  1  0.000000  0.368835  0.938600  1
  Co  Co11  1  0.000000  0.060346  0.431712  1
  Co  Co12  1  0.500000  0.952455  0.566012  1
  Co  Co13  1  0.500000  0.432167  0.384776  1
  P  P14  1  0.000000  0.109965  0.703629  1
  P  P15  1  0.000000  0.297480  0.408035  1
  P  P16  1  0.000000  0.593534  0.889857  1
  P  P17  1  0.500000  0.709674  0.605001  1
  P  P18  1  0.500000  0.396895  0.107833  1
  P  P19  1  0.500000  0.888451  0.284571  1
  P  P20  1  0.000000  0.000051  0.999534  1
