# generated using pymatgen
data_YbSmErGa9Pd2
_symmetry_space_group_name_H-M   'P 1'
_cell_length_a   8.17589884
_cell_length_b   8.17589850
_cell_length_c   8.17589814
_cell_angle_alpha   149.11826556
_cell_angle_beta   109.47396968
_cell_angle_gamma   78.95340722
_symmetry_Int_Tables_number   1
_chemical_formula_structural   YbSmErGa9Pd2
_chemical_formula_sum   'Yb1 Sm1 Er1 Ga9 Pd2'
_cell_volume   259.37135704
_cell_formula_units_Z   1
loop_
 _symmetry_equiv_pos_site_id
 _symmetry_equiv_pos_as_xyz
  1  'x, y, z'
loop_
 _atom_site_type_symbol
 _atom_site_label
 _atom_site_symmetry_multiplicity
 _atom_site_fract_x
 _atom_site_fract_y
 _atom_site_fract_z
 _atom_site_occupancy
  Yb  Yb0  1  0.799641  0.799641  0.000000  1
  Sm  Sm1  1  0.500273  0.500273  0.000000  1
  Er  Er2  1  0.200830  0.200830  0.000000  1
  Ga  Ga3  1  0.076583  0.359681  0.716902  1
  Ga  Ga4  1  0.921158  0.638416  0.282742  1
  Ga  Ga5  1  0.642782  0.359681  0.283098  1
  Ga  Ga6  1  0.355673  0.638416  0.717258  1
  Ga  Ga7  1  0.794672  0.158492  0.636180  1
  Ga  Ga8  1  0.209218  0.843519  0.365699  1
  Ga  Ga9  1  0.522311  0.158492  0.363820  1
  Ga  Ga10  1  0.477820  0.843519  0.634301  1
  Ga  Ga11  1  0.999836  0.499836  0.500000  1
  Pd  Pd12  1  0.819487  0.999601  0.819887  1
  Pd  Pd13  1  0.179715  0.999601  0.180113  1
