# generated using pymatgen
data_Tb2Tm3IrRu
_symmetry_space_group_name_H-M   'P 1'
_cell_length_a   6.38296201
_cell_length_b   7.24346082
_cell_length_c   8.41511439
_cell_angle_alpha   96.96870972
_cell_angle_beta   112.28760158
_cell_angle_gamma   90.00000321
_symmetry_Int_Tables_number   1
_chemical_formula_structural   Tb2Tm3IrRu
_chemical_formula_sum   'Tb4 Tm6 Ir2 Ru2'
_cell_volume   356.89557782
_cell_formula_units_Z   2
loop_
 _symmetry_equiv_pos_site_id
 _symmetry_equiv_pos_as_xyz
  1  'x, y, z'
loop_
 _atom_site_type_symbol
 _atom_site_label
 _atom_site_symmetry_multiplicity
 _atom_site_fract_x
 _atom_site_fract_y
 _atom_site_fract_z
 _atom_site_occupancy
  Tb  Tb0  1  0.789756  0.081289  0.812627  1
  Tb  Tb1  1  0.977128  0.418711  0.187373  1
  Tb  Tb2  1  0.212765  0.916338  0.186114  1
  Tb  Tb3  1  0.026652  0.583662  0.813886  1
  Tm  Tm4  1  0.207720  0.182381  0.564034  1
  Tm  Tm5  1  0.643687  0.317619  0.435966  1
  Tm  Tm6  1  0.790842  0.814960  0.437034  1
  Tm  Tm7  1  0.353809  0.685040  0.562966  1
  Tm  Tm8  1  0.424364  0.250000  0.000000  1
  Tm  Tm9  1  0.576020  0.750000  0.000000  1
  Ir  Ir10  1  0.599703  0.424506  0.777817  1
  Ir  Ir11  1  0.821885  0.075494  0.222183  1
  Ru  Ru12  1  0.397931  0.574194  0.220195  1
  Ru  Ru13  1  0.177737  0.925806  0.779805  1
