# generated using pymatgen
data_Yb5Ni19Sb12
_symmetry_space_group_name_H-M   'P 1'
_cell_length_a   15.74862459
_cell_length_b   15.74862509
_cell_length_c   9.95989080
_cell_angle_alpha   76.75673966
_cell_angle_beta   103.24326049
_cell_angle_gamma   165.16129095
_symmetry_Int_Tables_number   1
_chemical_formula_structural   Yb5Ni19Sb12
_chemical_formula_sum   'Yb5 Ni19 Sb12'
_cell_volume   615.51353602
_cell_formula_units_Z   1
loop_
 _symmetry_equiv_pos_site_id
 _symmetry_equiv_pos_as_xyz
  1  'x, y, z'
loop_
 _atom_site_type_symbol
 _atom_site_label
 _atom_site_symmetry_multiplicity
 _atom_site_fract_x
 _atom_site_fract_y
 _atom_site_fract_z
 _atom_site_occupancy
  Yb  Yb0  1  0.000000  0.000000  0.000000  1
  Yb  Yb1  1  0.921039  0.078961  0.318415  1
  Yb  Yb2  1  0.078961  0.921040  0.681586  1
  Yb  Yb3  1  0.672878  0.327122  0.272587  1
  Yb  Yb4  1  0.327122  0.672878  0.727413  1
  Ni  Ni5  1  0.562651  0.437349  0.187114  1
  Ni  Ni6  1  0.205427  0.794574  0.798051  1
  Ni  Ni7  1  0.794574  0.205427  0.201949  1
  Ni  Ni8  1  0.437349  0.562652  0.812885  1
  Ni  Ni9  1  0.116374  0.883627  0.377199  1
  Ni  Ni10  1  0.883626  0.116374  0.622799  1
  Ni  Ni11  1  0.278498  0.721503  0.983620  1
  Ni  Ni12  1  0.721502  0.278498  0.016380  1
  Ni  Ni13  1  0.346724  0.653277  0.413481  1
  Ni  Ni14  1  0.653277  0.346724  0.586520  1
  Ni  Ni15  1  0.500000  0.500000  0.500000  1
  Ni  Ni16  1  0.029839  0.970161  0.326735  1
  Ni  Ni17  1  0.970161  0.029840  0.673265  1
  Ni  Ni18  1  0.411917  0.588084  0.047634  1
  Ni  Ni19  1  0.588084  0.411917  0.952366  1
  Ni  Ni20  1  0.258828  0.741173  0.421396  1
  Ni  Ni21  1  0.741172  0.258828  0.578603  1
  Ni  Ni22  1  0.160556  0.839444  0.990342  1
  Ni  Ni23  1  0.839445  0.160556  0.009658  1
  Sb  Sb24  1  0.347746  0.652255  0.164395  1
  Sb  Sb25  1  0.652255  0.347746  0.835605  1
  Sb  Sb26  1  0.100530  0.899471  0.116013  1
  Sb  Sb27  1  0.899471  0.100530  0.883986  1
  Sb  Sb28  1  0.235248  0.764753  0.166969  1
  Sb  Sb29  1  0.764753  0.235248  0.833032  1
  Sb  Sb30  1  0.576316  0.423685  0.445714  1
  Sb  Sb31  1  0.423685  0.576315  0.554285  1
  Sb  Sb32  1  0.806781  0.193219  0.471549  1
  Sb  Sb33  1  0.193219  0.806781  0.528452  1
  Sb  Sb34  1  0.483693  0.516308  0.229866  1
  Sb  Sb35  1  0.516308  0.483693  0.770135  1
