# generated using pymatgen
data_Dy2Ho18Ir11Ru
_symmetry_space_group_name_H-M   'P 1'
_cell_length_a   10.82980408
_cell_length_b   10.82860701
_cell_length_c   6.37603505
_cell_angle_alpha   90.00386328
_cell_angle_beta   90.01430050
_cell_angle_gamma   90.00008441
_symmetry_Int_Tables_number   1
_chemical_formula_structural   Dy2Ho18Ir11Ru
_chemical_formula_sum   'Dy2 Ho18 Ir11 Ru1'
_cell_volume   747.72839640
_cell_formula_units_Z   1
loop_
 _symmetry_equiv_pos_site_id
 _symmetry_equiv_pos_as_xyz
  1  'x, y, z'
loop_
 _atom_site_type_symbol
 _atom_site_label
 _atom_site_symmetry_multiplicity
 _atom_site_fract_x
 _atom_site_fract_y
 _atom_site_fract_z
 _atom_site_occupancy
  Dy  Dy0  1  0.292082  0.087212  0.376439  1
  Dy  Dy1  1  0.292440  0.912685  0.879489  1
  Ho  Ho2  1  0.707278  0.087184  0.879867  1
  Ho  Ho3  1  0.707638  0.912915  0.376824  1
  Ho  Ho4  1  0.587411  0.792652  0.879805  1
  Ho  Ho5  1  0.587299  0.207699  0.376771  1
  Ho  Ho6  1  0.413144  0.792123  0.376794  1
  Ho  Ho7  1  0.413042  0.207541  0.879804  1
  Ho  Ho8  1  0.209054  0.411762  0.622031  1
  Ho  Ho9  1  0.209019  0.588032  0.121662  1
  Ho  Ho10  1  0.790967  0.411916  0.121575  1
  Ho  Ho11  1  0.790944  0.588279  0.621954  1
  Ho  Ho12  1  0.911878  0.709041  0.121548  1
  Ho  Ho13  1  0.911682  0.290944  0.621948  1
  Ho  Ho14  1  0.088125  0.708964  0.621890  1
  Ho  Ho15  1  0.087942  0.291070  0.121469  1
  Ho  Ho16  1  0.999754  0.999930  0.499222  1
  Ho  Ho17  1  0.999748  0.000068  0.999201  1
  Ho  Ho18  1  0.500052  0.499988  0.999210  1
  Ho  Ho19  1  0.500058  0.499996  0.499218  1
  Ir  Ir20  1  0.847104  0.153721  0.249972  1
  Ir  Ir21  1  0.847156  0.846686  0.749680  1
  Ir  Ir22  1  0.152544  0.153664  0.750145  1
  Ir  Ir23  1  0.152601  0.845926  0.250427  1
  Ir  Ir24  1  0.653292  0.347148  0.749696  1
  Ir  Ir25  1  0.653701  0.652902  0.249963  1
  Ir  Ir26  1  0.346357  0.347434  0.249793  1
  Ir  Ir27  1  0.346778  0.652522  0.749549  1
  Ir  Ir28  1  0.500565  0.000007  0.623230  1
  Ir  Ir29  1  0.999988  0.499977  0.878326  1
  Ir  Ir30  1  0.999994  0.500023  0.378464  1
  Ru  Ru31  1  0.500363  0.999989  0.124041  1
