# generated using pymatgen
data_Hf2Ta2GeP
_symmetry_space_group_name_H-M   'P 1'
_cell_length_a   3.58234500
_cell_length_b   6.96643800
_cell_length_c   8.45774600
_cell_angle_alpha   90.00000000
_cell_angle_beta   90.00000000
_cell_angle_gamma   90.00000000
_symmetry_Int_Tables_number   1
_chemical_formula_structural   Hf2Ta2GeP
_chemical_formula_sum   'Hf4 Ta4 Ge2 P2'
_cell_volume   211.07306825
_cell_formula_units_Z   2
loop_
 _symmetry_equiv_pos_site_id
 _symmetry_equiv_pos_as_xyz
  1  'x, y, z'
loop_
 _atom_site_type_symbol
 _atom_site_label
 _atom_site_symmetry_multiplicity
 _atom_site_fract_x
 _atom_site_fract_y
 _atom_site_fract_z
 _atom_site_occupancy
  Hf  Hf0  1  0.250000  0.036398  0.670111  1
  Hf  Hf1  1  0.250000  0.536398  0.829889  1
  Hf  Hf2  1  0.750000  0.458942  0.160638  1
  Hf  Hf3  1  0.750000  0.958942  0.339362  1
  Ta  Ta4  1  0.750000  0.865207  0.933042  1
  Ta  Ta5  1  0.250000  0.638839  0.447206  1
  Ta  Ta6  1  0.750000  0.365207  0.566958  1
  Ta  Ta7  1  0.250000  0.138839  0.052794  1
  Ge  Ge8  1  0.250000  0.258479  0.356505  1
  Ge  Ge9  1  0.250000  0.758479  0.143495  1
  P  P10  1  0.750000  0.742135  0.642749  1
  P  P11  1  0.750000  0.242135  0.857251  1
