# generated using pymatgen
data_Nd2SmSi4(PPd10)2
_symmetry_space_group_name_H-M   'P 1'
_cell_length_a   8.76196954
_cell_length_b   8.76196953
_cell_length_c   8.76022300
_cell_angle_alpha   60.00658980
_cell_angle_beta   60.00658984
_cell_angle_gamma   59.98681599
_symmetry_Int_Tables_number   1
_chemical_formula_structural   Nd2SmSi4(PPd10)2
_chemical_formula_sum   'Nd2 Sm1 Si4 P2 Pd20'
_cell_volume   475.55811007
_cell_formula_units_Z   1
loop_
 _symmetry_equiv_pos_site_id
 _symmetry_equiv_pos_as_xyz
  1  'x, y, z'
loop_
 _atom_site_type_symbol
 _atom_site_label
 _atom_site_symmetry_multiplicity
 _atom_site_fract_x
 _atom_site_fract_y
 _atom_site_fract_z
 _atom_site_occupancy
  Nd  Nd0  1  0.250000  0.250000  0.250000  1
  Nd  Nd1  1  0.750000  0.750000  0.750000  1
  Sm  Sm2  1  0.000000  0.000000  0.000000  1
  Si  Si3  1  0.734444  0.265556  0.265556  1
  Si  Si4  1  0.265556  0.734444  0.734444  1
  Si  Si5  1  0.265556  0.734444  0.265556  1
  Si  Si6  1  0.734444  0.265556  0.734444  1
  P  P7  1  0.264397  0.264397  0.735603  1
  P  P8  1  0.735603  0.735603  0.264397  1
  Pd  Pd9  1  0.385146  0.385146  0.387126  1
  Pd  Pd10  1  0.614854  0.614854  0.612874  1
  Pd  Pd11  1  0.385146  0.385146  0.842582  1
  Pd  Pd12  1  0.387126  0.842582  0.385146  1
  Pd  Pd13  1  0.614854  0.614854  0.157418  1
  Pd  Pd14  1  0.612874  0.157418  0.614854  1
  Pd  Pd15  1  0.842582  0.387126  0.385146  1
  Pd  Pd16  1  0.157418  0.612874  0.614854  1
  Pd  Pd17  1  0.346042  0.001089  0.998911  1
  Pd  Pd18  1  0.653958  0.998911  0.001089  1
  Pd  Pd19  1  0.001089  0.346042  0.653958  1
  Pd  Pd20  1  0.998911  0.653958  0.346042  1
  Pd  Pd21  1  0.001089  0.346042  0.998911  1
  Pd  Pd22  1  0.653958  0.998911  0.346042  1
  Pd  Pd23  1  0.998911  0.653958  0.001089  1
  Pd  Pd24  1  0.346042  0.001089  0.653958  1
  Pd  Pd25  1  0.000000  0.000000  0.347088  1
  Pd  Pd26  1  0.000000  0.000000  0.652912  1
  Pd  Pd27  1  0.652912  0.347088  0.000000  1
  Pd  Pd28  1  0.347088  0.652912  0.000000  1
