# generated using pymatgen
data_Dy3HoAl18CuRh5
_symmetry_space_group_name_H-M   'P 1'
_cell_length_a   7.55204053
_cell_length_b   7.55165611
_cell_length_c   9.42475048
_cell_angle_alpha   90.06816324
_cell_angle_beta   90.06008239
_cell_angle_gamma   119.57671575
_symmetry_Int_Tables_number   1
_chemical_formula_structural   Dy3HoAl18CuRh5
_chemical_formula_sum   'Dy3 Ho1 Al18 Cu1 Rh5'
_cell_volume   467.45797118
_cell_formula_units_Z   1
loop_
 _symmetry_equiv_pos_site_id
 _symmetry_equiv_pos_as_xyz
  1  'x, y, z'
loop_
 _atom_site_type_symbol
 _atom_site_label
 _atom_site_symmetry_multiplicity
 _atom_site_fract_x
 _atom_site_fract_y
 _atom_site_fract_z
 _atom_site_occupancy
  Dy  Dy0  1  0.005265  0.327630  0.250452  1
  Dy  Dy1  1  0.672421  0.994716  0.749553  1
  Dy  Dy2  1  0.327585  0.005242  0.250455  1
  Ho  Ho3  1  0.994746  0.672415  0.749598  1
  Al  Al4  1  0.129114  0.128989  0.751362  1
  Al  Al5  1  0.870824  0.870784  0.248625  1
  Al  Al6  1  0.000703  0.338624  0.577616  1
  Al  Al7  1  0.999307  0.661591  0.422691  1
  Al  Al8  1  0.000341  0.665161  0.074341  1
  Al  Al9  1  0.334646  0.999478  0.925363  1
  Al  Al10  1  0.999662  0.334999  0.925375  1
  Al  Al11  1  0.665163  0.000333  0.074497  1
  Al  Al12  1  0.661551  0.999294  0.422526  1
  Al  Al13  1  0.338225  0.000521  0.577590  1
  Al  Al14  1  0.332917  0.332902  0.050534  1
  Al  Al15  1  0.667246  0.667098  0.949299  1
  Al  Al16  1  0.664237  0.664074  0.552666  1
  Al  Al17  1  0.335934  0.335927  0.447502  1
  Al  Al18  1  0.339133  0.549870  0.750507  1
  Al  Al19  1  0.660766  0.450189  0.249495  1
  Al  Al20  1  0.550052  0.339429  0.750513  1
  Al  Al21  1  0.450178  0.660744  0.249486  1
  Cu  Cu22  1  0.000005  0.999980  0.500029  1
  Rh  Rh23  1  0.672094  0.328041  0.500083  1
  Rh  Rh24  1  0.327911  0.672015  0.500077  1
  Rh  Rh25  1  0.327976  0.671980  0.999932  1
  Rh  Rh26  1  0.672039  0.328071  0.999916  1
  Rh  Rh27  1  0.999962  0.999903  0.999913  1
