# generated using pymatgen
data_LaTb9Nd6(CdPt)4
_symmetry_space_group_name_H-M   'P 1'
_cell_length_a   9.85320273
_cell_length_b   9.85320354
_cell_length_c   9.85320300
_cell_angle_alpha   60.21896825
_cell_angle_beta   60.21896523
_cell_angle_gamma   60.21896435
_symmetry_Int_Tables_number   1
_chemical_formula_structural   LaTb9Nd6(CdPt)4
_chemical_formula_sum   'La1 Tb9 Nd6 Cd4 Pt4'
_cell_volume   679.77477860
_cell_formula_units_Z   1
loop_
 _symmetry_equiv_pos_site_id
 _symmetry_equiv_pos_as_xyz
  1  'x, y, z'
loop_
 _atom_site_type_symbol
 _atom_site_label
 _atom_site_symmetry_multiplicity
 _atom_site_fract_x
 _atom_site_fract_y
 _atom_site_fract_z
 _atom_site_occupancy
  La  La0  1  0.349721  0.349721  0.349721  1
  Tb  Tb1  1  0.351038  0.351038  0.946072  1
  Tb  Tb2  1  0.351038  0.946072  0.351038  1
  Tb  Tb3  1  0.946072  0.351038  0.351038  1
  Tb  Tb4  1  0.813868  0.188158  0.188158  1
  Tb  Tb5  1  0.189319  0.810951  0.810951  1
  Tb  Tb6  1  0.188158  0.813868  0.188158  1
  Tb  Tb7  1  0.810951  0.189319  0.810951  1
  Tb  Tb8  1  0.188158  0.188158  0.813868  1
  Tb  Tb9  1  0.810951  0.810951  0.189319  1
  Nd  Nd10  1  0.938819  0.562658  0.562658  1
  Nd  Nd11  1  0.561773  0.937324  0.937324  1
  Nd  Nd12  1  0.562658  0.938819  0.562658  1
  Nd  Nd13  1  0.937324  0.561773  0.937324  1
  Nd  Nd14  1  0.562658  0.562658  0.938819  1
  Nd  Nd15  1  0.937324  0.937324  0.561773  1
  Cd  Cd16  1  0.580164  0.580164  0.580164  1
  Cd  Cd17  1  0.582373  0.582373  0.259150  1
  Cd  Cd18  1  0.582373  0.259150  0.582373  1
  Cd  Cd19  1  0.259150  0.582373  0.582373  1
  Pt  Pt20  1  0.143288  0.143288  0.143288  1
  Pt  Pt21  1  0.139500  0.139500  0.573822  1
  Pt  Pt22  1  0.139500  0.573822  0.139500  1
  Pt  Pt23  1  0.573822  0.139500  0.139500  1
