# generated using pymatgen
data_TbYb(Al5Ru)4
_symmetry_space_group_name_H-M   'P 1'
_cell_length_a   6.87615700
_cell_length_b   6.87615779
_cell_length_c   9.15102000
_cell_angle_alpha   90.00000000
_cell_angle_beta   90.00000000
_cell_angle_gamma   96.76221120
_symmetry_Int_Tables_number   1
_chemical_formula_structural   TbYb(Al5Ru)4
_chemical_formula_sum   'Tb1 Yb1 Al20 Ru4'
_cell_volume   429.66437378
_cell_formula_units_Z   1
loop_
 _symmetry_equiv_pos_site_id
 _symmetry_equiv_pos_as_xyz
  1  'x, y, z'
loop_
 _atom_site_type_symbol
 _atom_site_label
 _atom_site_symmetry_multiplicity
 _atom_site_fract_x
 _atom_site_fract_y
 _atom_site_fract_z
 _atom_site_occupancy
  Tb  Tb0  1  0.125332  0.874668  0.250000  1
  Yb  Yb1  1  0.874129  0.125871  0.750000  1
  Al  Al2  1  0.623500  0.376500  0.544924  1
  Al  Al3  1  0.377021  0.622979  0.449849  1
  Al  Al4  1  0.377021  0.622979  0.050151  1
  Al  Al5  1  0.623500  0.376500  0.955076  1
  Al  Al6  1  0.225131  0.226387  0.499774  1
  Al  Al7  1  0.773613  0.774869  0.499774  1
  Al  Al8  1  0.773613  0.774869  0.000226  1
  Al  Al9  1  0.225131  0.226387  0.000226  1
  Al  Al10  1  0.845139  0.154861  0.098568  1
  Al  Al11  1  0.158326  0.841674  0.900580  1
  Al  Al12  1  0.158326  0.841674  0.599420  1
  Al  Al13  1  0.845139  0.154861  0.401432  1
  Al  Al14  1  0.859773  0.587983  0.750000  1
  Al  Al15  1  0.139571  0.413544  0.250000  1
  Al  Al16  1  0.412017  0.140227  0.750000  1
  Al  Al17  1  0.586456  0.860429  0.250000  1
  Al  Al18  1  0.219909  0.476672  0.750000  1
  Al  Al19  1  0.779248  0.521143  0.250000  1
  Al  Al20  1  0.523328  0.780091  0.750000  1
  Al  Al21  1  0.478857  0.220752  0.250000  1
  Ru  Ru22  1  0.999622  0.501662  0.499357  1
  Ru  Ru23  1  0.999622  0.501662  0.000643  1
  Ru  Ru24  1  0.498338  0.000378  0.000643  1
  Ru  Ru25  1  0.498338  0.000378  0.499357  1
