# generated using pymatgen
data_TbY3(Pd2O7)2
_symmetry_space_group_name_H-M   'P 1'
_cell_length_a   7.27203365
_cell_length_b   7.26698688
_cell_length_c   7.26698600
_cell_angle_alpha   60.00000399
_cell_angle_beta   60.02295859
_cell_angle_gamma   60.02295346
_symmetry_Int_Tables_number   1
_chemical_formula_structural   TbY3(Pd2O7)2
_chemical_formula_sum   'Tb1 Y3 Pd4 O14'
_cell_volume   271.64405144
_cell_formula_units_Z   1
loop_
 _symmetry_equiv_pos_site_id
 _symmetry_equiv_pos_as_xyz
  1  'x, y, z'
loop_
 _atom_site_type_symbol
 _atom_site_label
 _atom_site_symmetry_multiplicity
 _atom_site_fract_x
 _atom_site_fract_y
 _atom_site_fract_z
 _atom_site_occupancy
  Tb  Tb0  1  0.625000  0.125000  0.125000  1
  Y  Y1  1  0.125000  0.125000  0.125000  1
  Y  Y2  1  0.125000  0.625000  0.125000  1
  Y  Y3  1  0.125000  0.125000  0.625000  1
  Pd  Pd4  1  0.625000  0.625000  0.625000  1
  Pd  Pd5  1  0.125000  0.625000  0.625000  1
  Pd  Pd6  1  0.625000  0.125000  0.625000  1
  Pd  Pd7  1  0.625000  0.625000  0.125000  1
  O  O8  1  0.249118  0.250294  0.250294  1
  O  O9  1  0.000882  0.999706  0.999706  1
  O  O10  1  0.535330  0.964587  0.535496  1
  O  O11  1  0.285359  0.714617  0.285406  1
  O  O12  1  0.535330  0.535496  0.964587  1
  O  O13  1  0.964641  0.535383  0.535383  1
  O  O14  1  0.535330  0.964587  0.964587  1
  O  O15  1  0.964641  0.964594  0.535383  1
  O  O16  1  0.964641  0.535383  0.964594  1
  O  O17  1  0.714670  0.285413  0.285413  1
  O  O18  1  0.285359  0.714617  0.714617  1
  O  O19  1  0.714670  0.714504  0.285413  1
  O  O20  1  0.285359  0.285406  0.714617  1
  O  O21  1  0.714670  0.285413  0.714504  1
