# generated using pymatgen
data_Er12Ni4BiRu
_symmetry_space_group_name_H-M   'P 1'
_cell_length_a   8.27065721
_cell_length_b   8.27065553
_cell_length_c   8.27065772
_cell_angle_alpha   111.52115062
_cell_angle_beta   110.25015805
_cell_angle_gamma   106.68056732
_symmetry_Int_Tables_number   1
_chemical_formula_structural   Er12Ni4BiRu
_chemical_formula_sum   'Er12 Ni4 Bi1 Ru1'
_cell_volume   434.68353481
_cell_formula_units_Z   1
loop_
 _symmetry_equiv_pos_site_id
 _symmetry_equiv_pos_as_xyz
  1  'x, y, z'
loop_
 _atom_site_type_symbol
 _atom_site_label
 _atom_site_symmetry_multiplicity
 _atom_site_fract_x
 _atom_site_fract_y
 _atom_site_fract_z
 _atom_site_occupancy
  Er  Er0  1  0.318380  0.127387  0.809006  1
  Er  Er1  1  0.681620  0.490627  0.809006  1
  Er  Er2  1  0.405923  0.714080  0.691843  1
  Er  Er3  1  0.594077  0.285920  0.308157  1
  Er  Er4  1  0.977763  0.285920  0.691843  1
  Er  Er5  1  0.022237  0.714080  0.308157  1
  Er  Er6  1  0.318380  0.509373  0.190994  1
  Er  Er7  1  0.681620  0.872613  0.190994  1
  Er  Er8  1  0.179003  0.786738  0.965741  1
  Er  Er9  1  0.820997  0.786738  0.607736  1
  Er  Er10  1  0.179003  0.213262  0.392264  1
  Er  Er11  1  0.820997  0.213262  0.034259  1
  Ni  Ni12  1  0.877968  0.877968  0.000000  1
  Ni  Ni13  1  0.122032  0.122032  0.000000  1
  Ni  Ni14  1  0.639396  0.500000  0.139396  1
  Ni  Ni15  1  0.360604  0.500000  0.860604  1
  Bi  Bi16  1  0.500000  0.000000  0.500000  1
  Ru  Ru17  1  0.000000  0.500000  0.500000  1
