# generated using pymatgen
data_Li3Pr4Si4AgGe2
_symmetry_space_group_name_H-M   'P 1'
_cell_length_a   9.60070169
_cell_length_b   9.60070197
_cell_length_c   6.89004030
_cell_angle_alpha   89.89198978
_cell_angle_beta   90.10801108
_cell_angle_gamma   153.06628265
_symmetry_Int_Tables_number   1
_chemical_formula_structural   Li3Pr4Si4AgGe2
_chemical_formula_sum   'Li3 Pr4 Si4 Ag1 Ge2'
_cell_volume   287.66446701
_cell_formula_units_Z   1
loop_
 _symmetry_equiv_pos_site_id
 _symmetry_equiv_pos_as_xyz
  1  'x, y, z'
loop_
 _atom_site_type_symbol
 _atom_site_label
 _atom_site_symmetry_multiplicity
 _atom_site_fract_x
 _atom_site_fract_y
 _atom_site_fract_z
 _atom_site_occupancy
  Li  Li0  1  0.188540  0.811460  0.439935  1
  Li  Li1  1  0.187914  0.812086  0.060582  1
  Li  Li2  1  0.812734  0.187266  0.940714  1
  Pr  Pr3  1  0.550699  0.449301  0.250798  1
  Pr  Pr4  1  0.447941  0.552059  0.749569  1
  Pr  Pr5  1  0.343863  0.656137  0.243585  1
  Pr  Pr6  1  0.654996  0.345004  0.749179  1
  Si  Si7  1  0.942448  0.057552  0.074461  1
  Si  Si8  1  0.057836  0.942164  0.925884  1
  Si  Si9  1  0.057488  0.942512  0.576475  1
  Si  Si10  1  0.942801  0.057199  0.422531  1
  Ag  Ag11  1  0.814184  0.185816  0.561173  1
  Ge  Ge12  1  0.719380  0.280620  0.246044  1
  Ge  Ge13  1  0.279175  0.720825  0.759072  1
