# generated using pymatgen
data_Yb(B3O5)2
_symmetry_space_group_name_H-M   'P 1'
_cell_length_a   8.81962600
_cell_length_b   9.17810228
_cell_length_c   9.93922400
_cell_angle_alpha   63.11820602
_cell_angle_beta   90.00000000
_cell_angle_gamma   90.00000000
_symmetry_Int_Tables_number   1
_chemical_formula_structural   Yb(B3O5)2
_chemical_formula_sum   'Yb4 B24 O40'
_cell_volume   717.61546418
_cell_formula_units_Z   4
loop_
 _symmetry_equiv_pos_site_id
 _symmetry_equiv_pos_as_xyz
  1  'x, y, z'
loop_
 _atom_site_type_symbol
 _atom_site_label
 _atom_site_symmetry_multiplicity
 _atom_site_fract_x
 _atom_site_fract_y
 _atom_site_fract_z
 _atom_site_occupancy
  Yb  Yb0  1  0.111424  0.965301  0.776128  1
  Yb  Yb1  1  0.388576  0.465301  0.776128  1
  Yb  Yb2  1  0.888576  0.034699  0.223872  1
  Yb  Yb3  1  0.611424  0.534699  0.223872  1
  B  B4  1  0.267559  0.124695  0.078104  1
  B  B5  1  0.767559  0.375305  0.921896  1
  B  B6  1  0.228612  0.558366  0.504403  1
  B  B7  1  0.025760  0.262162  0.918258  1
  B  B8  1  0.120188  0.779400  0.558375  1
  B  B9  1  0.443345  0.246380  0.326295  1
  B  B10  1  0.971718  0.559545  0.783385  1
  B  B11  1  0.728612  0.941634  0.495597  1
  B  B12  1  0.525760  0.237838  0.081742  1
  B  B13  1  0.271388  0.058366  0.504403  1
  B  B14  1  0.232441  0.624695  0.078104  1
  B  B15  1  0.974240  0.737838  0.081742  1
  B  B16  1  0.943345  0.253620  0.673705  1
  B  B17  1  0.732441  0.875305  0.921896  1
  B  B18  1  0.879812  0.220600  0.441625  1
  B  B19  1  0.556655  0.753620  0.673705  1
  B  B20  1  0.471718  0.940455  0.216615  1
  B  B21  1  0.620188  0.720600  0.441625  1
  B  B22  1  0.474240  0.762162  0.918258  1
  B  B23  1  0.379812  0.279400  0.558375  1
  B  B24  1  0.028282  0.440455  0.216615  1
  B  B25  1  0.771388  0.441634  0.495597  1
  B  B26  1  0.528282  0.059545  0.783385  1
  B  B27  1  0.056655  0.746380  0.326295  1
  O  O28  1  0.971322  0.803299  0.196488  1
  O  O29  1  0.311839  0.418669  0.572063  1
  O  O30  1  0.028678  0.196701  0.803512  1
  O  O31  1  0.630759  0.746993  0.981526  1
  O  O32  1  0.385018  0.648507  0.048664  1
  O  O33  1  0.860026  0.397282  0.623230  1
  O  O34  1  0.320489  0.968878  0.168215  1
  O  O35  1  0.130759  0.753007  0.018474  1
  O  O36  1  0.179511  0.468878  0.168215  1
  O  O37  1  0.507137  0.783545  0.318421  1
  O  O38  1  0.114982  0.148507  0.048664  1
  O  O39  1  0.820489  0.531122  0.831785  1
  O  O40  1  0.811839  0.081331  0.427937  1
  O  O41  1  0.049920  0.836096  0.405967  1
  O  O42  1  0.679511  0.031122  0.831785  1
  O  O43  1  0.731654  0.848517  0.419115  1
  O  O44  1  0.268346  0.151483  0.580885  1
  O  O45  1  0.188161  0.918669  0.572063  1
  O  O46  1  0.869241  0.246993  0.981526  1
  O  O47  1  0.528678  0.303299  0.196488  1
  O  O48  1  0.471322  0.696701  0.803512  1
  O  O49  1  0.578079  0.066278  0.155648  1
  O  O50  1  0.231654  0.651483  0.580885  1
  O  O51  1  0.549920  0.663904  0.594033  1
  O  O52  1  0.421921  0.933722  0.844352  1
  O  O53  1  0.369241  0.253007  0.018474  1
  O  O54  1  0.614982  0.351493  0.951336  1
  O  O55  1  0.139974  0.602718  0.376770  1
  O  O56  1  0.639974  0.897282  0.623230  1
  O  O57  1  0.885018  0.851493  0.951336  1
  O  O58  1  0.078079  0.433722  0.844352  1
  O  O59  1  0.768346  0.348517  0.419115  1
  O  O60  1  0.492863  0.216455  0.681579  1
  O  O61  1  0.360026  0.102718  0.376770  1
  O  O62  1  0.921921  0.566278  0.155648  1
  O  O63  1  0.688161  0.581331  0.427937  1
  O  O64  1  0.950080  0.163904  0.594033  1
  O  O65  1  0.007137  0.716455  0.681579  1
  O  O66  1  0.992863  0.283545  0.318421  1
  O  O67  1  0.450080  0.336096  0.405967  1
