# generated using pymatgen
data_YbEr3Tc3B16W
_symmetry_space_group_name_H-M   'P 1'
_cell_length_a   3.57594700
_cell_length_b   5.97641976
_cell_length_c   11.55875814
_cell_angle_alpha   89.92693600
_cell_angle_beta   90.00000000
_cell_angle_gamma   90.00000000
_symmetry_Int_Tables_number   1
_chemical_formula_structural   YbEr3Tc3B16W
_chemical_formula_sum   'Yb1 Er3 Tc3 B16 W1'
_cell_volume   247.02618411
_cell_formula_units_Z   1
loop_
 _symmetry_equiv_pos_site_id
 _symmetry_equiv_pos_as_xyz
  1  'x, y, z'
loop_
 _atom_site_type_symbol
 _atom_site_label
 _atom_site_symmetry_multiplicity
 _atom_site_fract_x
 _atom_site_fract_y
 _atom_site_fract_z
 _atom_site_occupancy
  Yb  Yb0  1  0.000000  0.626467  0.348143  1
  Er  Er1  1  0.000000  0.371679  0.651157  1
  Er  Er2  1  0.000000  0.127745  0.149677  1
  Er  Er3  1  0.000000  0.872979  0.851887  1
  Tc  Tc4  1  0.000000  0.634785  0.086408  1
  Tc  Tc5  1  0.000000  0.366715  0.913782  1
  Tc  Tc6  1  0.000000  0.130854  0.415594  1
  B  B7  1  0.500000  0.785973  0.185191  1
  B  B8  1  0.500000  0.214039  0.815773  1
  B  B9  1  0.500000  0.286409  0.314207  1
  B  B10  1  0.500000  0.708944  0.687437  1
  B  B11  1  0.500000  0.864496  0.031528  1
  B  B12  1  0.500000  0.135738  0.968995  1
  B  B13  1  0.500000  0.365573  0.466470  1
  B  B14  1  0.500000  0.631196  0.530838  1
  B  B15  1  0.500000  0.886397  0.450255  1
  B  B16  1  0.500000  0.117270  0.546158  1
  B  B17  1  0.500000  0.386672  0.047690  1
  B  B18  1  0.500000  0.613510  0.952938  1
  B  B19  1  0.500000  0.978634  0.306020  1
  B  B20  1  0.500000  0.025777  0.694711  1
  B  B21  1  0.500000  0.476174  0.192299  1
  B  B22  1  0.500000  0.522194  0.808395  1
  W  W23  1  0.000000  0.869780  0.584447  1
