# generated using pymatgen
data_Tb2HoBe2(PPd5)4
_symmetry_space_group_name_H-M   'P 1'
_cell_length_a   8.67075834
_cell_length_b   8.59497205
_cell_length_c   8.59497144
_cell_angle_alpha   60.58421284
_cell_angle_beta   59.70788569
_cell_angle_gamma   59.70789688
_symmetry_Int_Tables_number   1
_chemical_formula_structural   Tb2HoBe2(PPd5)4
_chemical_formula_sum   'Tb2 Ho1 Be2 P4 Pd20'
_cell_volume   452.85882944
_cell_formula_units_Z   1
loop_
 _symmetry_equiv_pos_site_id
 _symmetry_equiv_pos_as_xyz
  1  'x, y, z'
loop_
 _atom_site_type_symbol
 _atom_site_label
 _atom_site_symmetry_multiplicity
 _atom_site_fract_x
 _atom_site_fract_y
 _atom_site_fract_z
 _atom_site_occupancy
  Tb  Tb0  1  0.250000  0.250000  0.250000  1
  Tb  Tb1  1  0.750000  0.750000  0.750000  1
  Ho  Ho2  1  0.000000  0.000000  0.000000  1
  Be  Be3  1  0.733456  0.266544  0.266544  1
  Be  Be4  1  0.266544  0.733456  0.733456  1
  P  P5  1  0.266320  0.733680  0.266320  1
  P  P6  1  0.733680  0.266320  0.733680  1
  P  P7  1  0.266320  0.266320  0.733680  1
  P  P8  1  0.733680  0.733680  0.266320  1
  Pd  Pd9  1  0.387812  0.382461  0.382461  1
  Pd  Pd10  1  0.612188  0.617539  0.617539  1
  Pd  Pd11  1  0.382461  0.387812  0.847267  1
  Pd  Pd12  1  0.382461  0.847267  0.387812  1
  Pd  Pd13  1  0.617539  0.612188  0.152733  1
  Pd  Pd14  1  0.617539  0.152733  0.612188  1
  Pd  Pd15  1  0.847267  0.382461  0.382461  1
  Pd  Pd16  1  0.152733  0.617539  0.617539  1
  Pd  Pd17  1  0.344318  0.000000  0.000000  1
  Pd  Pd18  1  0.655682  0.000000  0.000000  1
  Pd  Pd19  1  0.000000  0.344318  0.655682  1
  Pd  Pd20  1  0.000000  0.655682  0.344318  1
  Pd  Pd21  1  0.997040  0.343480  0.002960  1
  Pd  Pd22  1  0.656520  0.002960  0.343480  1
  Pd  Pd23  1  0.002960  0.656520  0.997040  1
  Pd  Pd24  1  0.343480  0.997040  0.656520  1
  Pd  Pd25  1  0.997040  0.002960  0.343480  1
  Pd  Pd26  1  0.002960  0.997040  0.656520  1
  Pd  Pd27  1  0.656520  0.343480  0.002960  1
  Pd  Pd28  1  0.343480  0.656520  0.997040  1
