# generated using pymatgen
data_YbMgZn3Ru
_symmetry_space_group_name_H-M   'P 1'
_cell_length_a   5.24741171
_cell_length_b   5.24741228
_cell_length_c   5.24741317
_cell_angle_alpha   61.12172707
_cell_angle_beta   61.12172250
_cell_angle_gamma   61.12173423
_symmetry_Int_Tables_number   1
_chemical_formula_structural   YbMgZn3Ru
_chemical_formula_sum   'Yb1 Mg1 Zn3 Ru1'
_cell_volume   104.74869586
_cell_formula_units_Z   1
loop_
 _symmetry_equiv_pos_site_id
 _symmetry_equiv_pos_as_xyz
  1  'x, y, z'
loop_
 _atom_site_type_symbol
 _atom_site_label
 _atom_site_symmetry_multiplicity
 _atom_site_fract_x
 _atom_site_fract_y
 _atom_site_fract_z
 _atom_site_occupancy
  Yb  Yb0  1  0.250557  0.250557  0.250557  1
  Mg  Mg1  1  0.990488  0.990488  0.990488  1
  Zn  Zn2  1  0.627008  0.627008  0.126784  1
  Zn  Zn3  1  0.627008  0.126784  0.627008  1
  Zn  Zn4  1  0.126784  0.627008  0.627008  1
  Ru  Ru5  1  0.628154  0.628154  0.628154  1
