# generated using pymatgen
data_Tb9Dy(GaSb)3
_symmetry_space_group_name_H-M   'P 1'
_cell_length_a   8.83850101
_cell_length_b   8.83646685
_cell_length_c   6.50394000
_cell_angle_alpha   89.99673823
_cell_angle_beta   90.00111257
_cell_angle_gamma   120.01365642
_symmetry_Int_Tables_number   1
_chemical_formula_structural   Tb9Dy(GaSb)3
_chemical_formula_sum   'Tb9 Dy1 Ga3 Sb3'
_cell_volume   439.85004999
_cell_formula_units_Z   1
loop_
 _symmetry_equiv_pos_site_id
 _symmetry_equiv_pos_as_xyz
  1  'x, y, z'
loop_
 _atom_site_type_symbol
 _atom_site_label
 _atom_site_symmetry_multiplicity
 _atom_site_fract_x
 _atom_site_fract_y
 _atom_site_fract_z
 _atom_site_occupancy
  Tb  Tb0  1  0.010314  0.767777  0.749971  1
  Tb  Tb1  1  0.011859  0.248724  0.250020  1
  Tb  Tb2  1  0.763109  0.751303  0.250013  1
  Tb  Tb3  1  0.754664  0.999987  0.749983  1
  Tb  Tb4  1  0.242509  0.232242  0.749985  1
  Tb  Tb5  1  0.235701  0.999968  0.250019  1
  Tb  Tb6  1  0.660624  0.333267  0.002459  1
  Tb  Tb7  1  0.660641  0.333267  0.497545  1
  Tb  Tb8  1  0.327360  0.666733  0.002453  1
  Dy  Dy9  1  0.327363  0.666733  0.497560  1
  Ga  Ga10  1  0.397870  0.999938  0.749956  1
  Ga  Ga11  1  0.395673  0.396294  0.250041  1
  Ga  Ga12  1  0.999490  0.603764  0.250058  1
  Sb  Sb13  1  0.997697  0.392568  0.749933  1
  Sb  Sb14  1  0.605037  0.607516  0.749938  1
  Sb  Sb15  1  0.610092  0.999920  0.250066  1
