# generated using pymatgen
data_YbTm3CoOs7
_symmetry_space_group_name_H-M   'P 1'
_cell_length_a   5.26488978
_cell_length_b   5.26489043
_cell_length_c   8.77077420
_cell_angle_alpha   89.75398347
_cell_angle_beta   90.24601531
_cell_angle_gamma   120.84681887
_symmetry_Int_Tables_number   1
_chemical_formula_structural   YbTm3CoOs7
_chemical_formula_sum   'Yb1 Tm3 Co1 Os7'
_cell_volume   208.72400464
_cell_formula_units_Z   1
loop_
 _symmetry_equiv_pos_site_id
 _symmetry_equiv_pos_as_xyz
  1  'x, y, z'
loop_
 _atom_site_type_symbol
 _atom_site_label
 _atom_site_symmetry_multiplicity
 _atom_site_fract_x
 _atom_site_fract_y
 _atom_site_fract_z
 _atom_site_occupancy
  Yb  Yb0  1  0.334463  0.665537  0.065155  1
  Tm  Tm1  1  0.333461  0.666539  0.428707  1
  Tm  Tm2  1  0.668751  0.331249  0.563261  1
  Tm  Tm3  1  0.670302  0.329698  0.940633  1
  Co  Co4  1  0.824385  0.175615  0.252937  1
  Os  Os5  1  0.005327  0.994673  0.496724  1
  Os  Os6  1  0.007817  0.992183  0.003865  1
  Os  Os7  1  0.822745  0.660178  0.250437  1
  Os  Os8  1  0.339822  0.177255  0.250437  1
  Os  Os9  1  0.166598  0.833402  0.750128  1
  Os  Os10  1  0.173091  0.346762  0.748858  1
  Os  Os11  1  0.653238  0.826909  0.748858  1
