# generated using pymatgen
data_Nb8In4Co3Ni5
_symmetry_space_group_name_H-M   'P 1'
_cell_length_a   6.93009680
_cell_length_b   6.93009633
_cell_length_c   6.46433790
_cell_angle_alpha   90.02222184
_cell_angle_beta   89.97777687
_cell_angle_gamma   90.19366114
_symmetry_Int_Tables_number   1
_chemical_formula_structural   Nb8In4Co3Ni5
_chemical_formula_sum   'Nb8 In4 Co3 Ni5'
_cell_volume   310.45601288
_cell_formula_units_Z   1
loop_
 _symmetry_equiv_pos_site_id
 _symmetry_equiv_pos_as_xyz
  1  'x, y, z'
loop_
 _atom_site_type_symbol
 _atom_site_label
 _atom_site_symmetry_multiplicity
 _atom_site_fract_x
 _atom_site_fract_y
 _atom_site_fract_z
 _atom_site_occupancy
  Nb  Nb0  1  0.641520  0.358480  0.005767  1
  Nb  Nb1  1  0.353871  0.646129  0.010667  1
  Nb  Nb2  1  0.857700  0.853301  0.493307  1
  Nb  Nb3  1  0.146699  0.142300  0.493307  1
  Nb  Nb4  1  0.195479  0.191838  0.003948  1
  Nb  Nb5  1  0.808162  0.804521  0.003948  1
  Nb  Nb6  1  0.308986  0.691014  0.494661  1
  Nb  Nb7  1  0.688343  0.311657  0.496154  1
  In  In8  1  0.501243  0.000452  0.250265  1
  In  In9  1  0.999548  0.498757  0.250265  1
  In  In10  1  0.000512  0.498774  0.750380  1
  In  In11  1  0.501226  0.999488  0.750380  1
  Co  Co12  1  0.370823  0.371798  0.299776  1
  Co  Co13  1  0.628202  0.629177  0.299776  1
  Co  Co14  1  0.126234  0.873766  0.201319  1
  Ni  Ni15  1  0.872120  0.127880  0.195546  1
  Ni  Ni16  1  0.626907  0.627355  0.702803  1
  Ni  Ni17  1  0.372645  0.373093  0.702803  1
  Ni  Ni18  1  0.126858  0.873142  0.798024  1
  Ni  Ni19  1  0.872921  0.127079  0.796903  1
