# generated using pymatgen
data_Ce3Pr5(Si3Ir)4
_symmetry_space_group_name_H-M   'P 1'
_cell_length_a   8.25283000
_cell_length_b   8.25282999
_cell_length_c   8.43625800
_cell_angle_alpha   90.00000000
_cell_angle_beta   90.00000000
_cell_angle_gamma   119.99999202
_symmetry_Int_Tables_number   1
_chemical_formula_structural   Ce3Pr5(Si3Ir)4
_chemical_formula_sum   'Ce3 Pr5 Si12 Ir4'
_cell_volume   497.60681253
_cell_formula_units_Z   1
loop_
 _symmetry_equiv_pos_site_id
 _symmetry_equiv_pos_as_xyz
  1  'x, y, z'
loop_
 _atom_site_type_symbol
 _atom_site_label
 _atom_site_symmetry_multiplicity
 _atom_site_fract_x
 _atom_site_fract_y
 _atom_site_fract_z
 _atom_site_occupancy
  Ce  Ce0  1  0.499430  0.500570  0.750000  1
  Ce  Ce1  1  0.499430  0.998861  0.750000  1
  Ce  Ce2  1  0.001139  0.500570  0.750000  1
  Pr  Pr3  1  0.000000  0.000000  0.250000  1
  Pr  Pr4  1  0.000000  0.000000  0.750000  1
  Pr  Pr5  1  0.500441  0.499559  0.250000  1
  Pr  Pr6  1  0.500441  0.000882  0.250000  1
  Pr  Pr7  1  0.999118  0.499559  0.250000  1
  Si  Si8  1  0.166703  0.833297  0.502880  1
  Si  Si9  1  0.166703  0.333407  0.502880  1
  Si  Si10  1  0.666593  0.833297  0.502880  1
  Si  Si11  1  0.833218  0.166782  0.502892  1
  Si  Si12  1  0.833218  0.666435  0.502892  1
  Si  Si13  1  0.333565  0.166782  0.502892  1
  Si  Si14  1  0.833218  0.166782  0.997108  1
  Si  Si15  1  0.833218  0.666435  0.997108  1
  Si  Si16  1  0.333565  0.166782  0.997108  1
  Si  Si17  1  0.166703  0.833297  0.997120  1
  Si  Si18  1  0.166703  0.333407  0.997120  1
  Si  Si19  1  0.666593  0.833297  0.997120  1
  Ir  Ir20  1  0.333333  0.666667  0.513024  1
  Ir  Ir21  1  0.666667  0.333333  0.516531  1
  Ir  Ir22  1  0.666667  0.333333  0.983469  1
  Ir  Ir23  1  0.333333  0.666667  0.986976  1
