# generated using pymatgen
data_Ho3TaCo7P6Ru
_symmetry_space_group_name_H-M   'P 1'
_cell_length_a   3.73539200
_cell_length_b   10.65859100
_cell_length_c   12.38715100
_cell_angle_alpha   90.00000000
_cell_angle_beta   90.00000000
_cell_angle_gamma   90.00000000
_symmetry_Int_Tables_number   1
_chemical_formula_structural   Ho3TaCo7P6Ru
_chemical_formula_sum   'Ho6 Ta2 Co14 P12 Ru2'
_cell_volume   493.18222257
_cell_formula_units_Z   2
loop_
 _symmetry_equiv_pos_site_id
 _symmetry_equiv_pos_as_xyz
  1  'x, y, z'
loop_
 _atom_site_type_symbol
 _atom_site_label
 _atom_site_symmetry_multiplicity
 _atom_site_fract_x
 _atom_site_fract_y
 _atom_site_fract_z
 _atom_site_occupancy
  Ho  Ho0  1  0.000000  0.500000  0.529567  1
  Ho  Ho1  1  0.500000  0.000000  0.476675  1
  Ho  Ho2  1  0.500000  0.821802  0.201221  1
  Ho  Ho3  1  0.500000  0.178198  0.201221  1
  Ho  Ho4  1  0.000000  0.679643  0.797554  1
  Ho  Ho5  1  0.000000  0.320357  0.797554  1
  Ta  Ta6  1  0.500000  0.500000  0.151612  1
  Ta  Ta7  1  0.000000  0.000000  0.845217  1
  Co  Co8  1  0.000000  0.500000  0.985748  1
  Co  Co9  1  0.500000  0.000000  0.013031  1
  Co  Co10  1  0.000000  0.201803  0.573103  1
  Co  Co11  1  0.000000  0.798197  0.573103  1
  Co  Co12  1  0.500000  0.878427  0.709252  1
  Co  Co13  1  0.500000  0.121573  0.709252  1
  Co  Co14  1  0.000000  0.622480  0.288739  1
  Co  Co15  1  0.000000  0.377520  0.288739  1
  Co  Co16  1  0.500000  0.332404  0.991365  1
  Co  Co17  1  0.500000  0.667596  0.991365  1
  Co  Co18  1  0.000000  0.167182  0.007242  1
  Co  Co19  1  0.000000  0.832818  0.007242  1
  Co  Co20  1  0.500000  0.500000  0.702452  1
  Co  Co21  1  0.000000  0.000000  0.297051  1
  P  P22  1  0.500000  0.308564  0.620309  1
  P  P23  1  0.500000  0.691436  0.620309  1
  P  P24  1  0.000000  0.184458  0.382716  1
  P  P25  1  0.000000  0.815542  0.382716  1
  P  P26  1  0.500000  0.500000  0.881560  1
  P  P27  1  0.000000  0.000000  0.117232  1
  P  P28  1  0.500000  0.841242  0.893112  1
  P  P29  1  0.500000  0.158758  0.893112  1
  P  P30  1  0.000000  0.659321  0.105758  1
  P  P31  1  0.000000  0.340679  0.105758  1
  P  P32  1  0.500000  0.500000  0.351350  1
  P  P33  1  0.000000  0.000000  0.644909  1
  Ru  Ru34  1  0.500000  0.294637  0.431428  1
  Ru  Ru35  1  0.500000  0.705363  0.431428  1
