# generated using pymatgen
data_Tm8Hf12Si15Rh
_symmetry_space_group_name_H-M   'P 1'
_cell_length_a   7.07026349
_cell_length_b   7.21563011
_cell_length_c   13.72738421
_cell_angle_alpha   89.83046921
_cell_angle_beta   89.97532558
_cell_angle_gamma   90.13661161
_symmetry_Int_Tables_number   1
_chemical_formula_structural   Tm8Hf12Si15Rh
_chemical_formula_sum   'Tm8 Hf12 Si15 Rh1'
_cell_volume   700.31668436
_cell_formula_units_Z   1
loop_
 _symmetry_equiv_pos_site_id
 _symmetry_equiv_pos_as_xyz
  1  'x, y, z'
loop_
 _atom_site_type_symbol
 _atom_site_label
 _atom_site_symmetry_multiplicity
 _atom_site_fract_x
 _atom_site_fract_y
 _atom_site_fract_z
 _atom_site_occupancy
  Tm  Tm0  1  0.012315  0.174401  0.096031  1
  Tm  Tm1  1  0.989829  0.826535  0.904502  1
  Tm  Tm2  1  0.490177  0.675824  0.903884  1
  Tm  Tm3  1  0.987505  0.826496  0.596072  1
  Tm  Tm4  1  0.510843  0.324589  0.095600  1
  Tm  Tm5  1  0.009847  0.177132  0.402803  1
  Tm  Tm6  1  0.511559  0.324469  0.401387  1
  Tm  Tm7  1  0.487184  0.672415  0.596308  1
  Hf  Hf8  1  0.161584  0.502310  0.747308  1
  Hf  Hf9  1  0.841948  0.500112  0.249290  1
  Hf  Hf10  1  0.342546  0.999268  0.249702  1
  Hf  Hf11  1  0.657113  0.001672  0.748914  1
  Hf  Hf12  1  0.332909  0.180844  0.622816  1
  Hf  Hf13  1  0.668606  0.825300  0.374569  1
  Hf  Hf14  1  0.171168  0.667165  0.378682  1
  Hf  Hf15  1  0.672014  0.822847  0.124877  1
  Hf  Hf16  1  0.832581  0.325043  0.624415  1
  Hf  Hf17  1  0.330209  0.174359  0.875162  1
  Hf  Hf18  1  0.831283  0.322759  0.875979  1
  Hf  Hf19  1  0.168563  0.676386  0.124782  1
  Si  Si20  1  0.034377  0.118417  0.751322  1
  Si  Si21  1  0.968018  0.881202  0.250845  1
  Si  Si22  1  0.466032  0.617240  0.249585  1
  Si  Si23  1  0.536795  0.382286  0.752300  1
  Si  Si24  1  0.286558  0.872234  0.751349  1
  Si  Si25  1  0.713132  0.130389  0.248697  1
  Si  Si26  1  0.213181  0.367606  0.247724  1
  Si  Si27  1  0.787019  0.631175  0.753489  1
  Si  Si28  1  0.836289  0.534854  0.457069  1
  Si  Si29  1  0.341188  0.968478  0.456871  1
  Si  Si30  1  0.839051  0.531534  0.040890  1
  Si  Si31  1  0.657353  0.033253  0.539928  1
  Si  Si32  1  0.160145  0.466620  0.959676  1
  Si  Si33  1  0.659079  0.031310  0.959395  1
  Si  Si34  1  0.343317  0.967037  0.041802  1
  Rh  Rh35  1  0.148683  0.466442  0.545976  1
