# generated using pymatgen
data_Dy5Ho2Co6AgSn22
_symmetry_space_group_name_H-M   'P 1'
_cell_length_a   9.64575802
_cell_length_b   9.64575730
_cell_length_c   9.96407202
_cell_angle_alpha   89.99436033
_cell_angle_beta   90.00563918
_cell_angle_gamma   120.00447107
_symmetry_Int_Tables_number   1
_chemical_formula_structural   Dy5Ho2Co6AgSn22
_chemical_formula_sum   'Dy5 Ho2 Co6 Ag1 Sn22'
_cell_volume   802.82448894
_cell_formula_units_Z   1
loop_
 _symmetry_equiv_pos_site_id
 _symmetry_equiv_pos_as_xyz
  1  'x, y, z'
loop_
 _atom_site_type_symbol
 _atom_site_label
 _atom_site_symmetry_multiplicity
 _atom_site_fract_x
 _atom_site_fract_y
 _atom_site_fract_z
 _atom_site_occupancy
  Dy  Dy0  1  0.000000  0.000000  0.000000  1
  Dy  Dy1  1  0.478848  0.957683  0.306189  1
  Dy  Dy2  1  0.521152  0.042317  0.693811  1
  Dy  Dy3  1  0.042317  0.521152  0.306189  1
  Dy  Dy4  1  0.957683  0.478848  0.693811  1
  Ho  Ho5  1  0.478946  0.521054  0.306272  1
  Ho  Ho6  1  0.521054  0.478946  0.693728  1
  Co  Co7  1  0.832186  0.167814  0.196829  1
  Co  Co8  1  0.167814  0.832186  0.803171  1
  Co  Co9  1  0.831979  0.664238  0.196891  1
  Co  Co10  1  0.168021  0.335762  0.803109  1
  Co  Co11  1  0.335762  0.168021  0.196891  1
  Co  Co12  1  0.664238  0.831979  0.803109  1
  Ag  Ag13  1  0.000000  0.000000  0.500000  1
  Sn  Sn14  1  0.345630  0.000034  0.999994  1
  Sn  Sn15  1  0.654370  0.999966  0.000006  1
  Sn  Sn16  1  0.000034  0.345630  0.000006  1
  Sn  Sn17  1  0.999966  0.654370  0.999994  1
  Sn  Sn18  1  0.654338  0.654338  0.000000  1
  Sn  Sn19  1  0.345662  0.345662  0.000000  1
  Sn  Sn20  1  0.333366  0.666634  0.818810  1
  Sn  Sn21  1  0.666634  0.333366  0.181190  1
  Sn  Sn22  1  0.782643  0.217357  0.452983  1
  Sn  Sn23  1  0.217357  0.782643  0.547017  1
  Sn  Sn24  1  0.782269  0.565248  0.453031  1
  Sn  Sn25  1  0.217731  0.434752  0.546969  1
  Sn  Sn26  1  0.434752  0.217731  0.453031  1
  Sn  Sn27  1  0.565248  0.782269  0.546969  1
  Sn  Sn28  1  0.333533  0.666467  0.117147  1
  Sn  Sn29  1  0.666467  0.333533  0.882853  1
  Sn  Sn30  1  0.114272  0.885728  0.275744  1
  Sn  Sn31  1  0.885728  0.114272  0.724256  1
  Sn  Sn32  1  0.114486  0.228756  0.275772  1
  Sn  Sn33  1  0.885514  0.771244  0.724228  1
  Sn  Sn34  1  0.771244  0.885514  0.275772  1
  Sn  Sn35  1  0.228756  0.114486  0.724228  1
