# generated using pymatgen
data_Tm(GaRh2)2
_symmetry_space_group_name_H-M   'P 1'
_cell_length_a   4.24852100
_cell_length_b   9.29423800
_cell_length_c   11.26751200
_cell_angle_alpha   90.00000000
_cell_angle_beta   90.00000000
_cell_angle_gamma   90.00000000
_symmetry_Int_Tables_number   1
_chemical_formula_structural   Tm(GaRh2)2
_chemical_formula_sum   'Tm4 Ga8 Rh16'
_cell_volume   444.91760211
_cell_formula_units_Z   4
loop_
 _symmetry_equiv_pos_site_id
 _symmetry_equiv_pos_as_xyz
  1  'x, y, z'
loop_
 _atom_site_type_symbol
 _atom_site_label
 _atom_site_symmetry_multiplicity
 _atom_site_fract_x
 _atom_site_fract_y
 _atom_site_fract_z
 _atom_site_occupancy
  Tm  Tm0  1  0.250000  0.144878  0.826788  1
  Tm  Tm1  1  0.250000  0.355122  0.326788  1
  Tm  Tm2  1  0.750000  0.855122  0.173212  1
  Tm  Tm3  1  0.750000  0.644878  0.673212  1
  Ga  Ga4  1  0.250000  0.412772  0.634700  1
  Ga  Ga5  1  0.250000  0.087228  0.134700  1
  Ga  Ga6  1  0.750000  0.587228  0.365300  1
  Ga  Ga7  1  0.750000  0.912772  0.865300  1
  Ga  Ga8  1  0.250000  0.612138  0.060607  1
  Ga  Ga9  1  0.250000  0.887862  0.560607  1
  Ga  Ga10  1  0.750000  0.387862  0.939393  1
  Ga  Ga11  1  0.750000  0.112138  0.439393  1
  Rh  Rh12  1  0.250000  0.622369  0.500467  1
  Rh  Rh13  1  0.250000  0.877631  0.000467  1
  Rh  Rh14  1  0.750000  0.377631  0.499533  1
  Rh  Rh15  1  0.750000  0.122369  0.999533  1
  Rh  Rh16  1  0.250000  0.703261  0.271922  1
  Rh  Rh17  1  0.250000  0.796739  0.771922  1
  Rh  Rh18  1  0.750000  0.296739  0.728078  1
  Rh  Rh19  1  0.750000  0.203261  0.228078  1
  Rh  Rh20  1  0.250000  0.167090  0.563439  1
  Rh  Rh21  1  0.250000  0.332910  0.063439  1
  Rh  Rh22  1  0.750000  0.832910  0.436561  1
  Rh  Rh23  1  0.750000  0.667090  0.936561  1
  Rh  Rh24  1  0.250000  0.000254  0.341843  1
  Rh  Rh25  1  0.250000  0.499746  0.841843  1
  Rh  Rh26  1  0.750000  0.999746  0.658157  1
  Rh  Rh27  1  0.750000  0.500254  0.158157  1
