# generated using pymatgen
data_ErFeB6Mo
_symmetry_space_group_name_H-M   'P 1'
_cell_length_a   3.29961800
_cell_length_b   8.85180500
_cell_length_c   11.17271900
_cell_angle_alpha   90.00000000
_cell_angle_beta   90.00000000
_cell_angle_gamma   90.00000000
_symmetry_Int_Tables_number   1
_chemical_formula_structural   ErFeB6Mo
_chemical_formula_sum   'Er4 Fe4 B24 Mo4'
_cell_volume   326.32802938
_cell_formula_units_Z   4
loop_
 _symmetry_equiv_pos_site_id
 _symmetry_equiv_pos_as_xyz
  1  'x, y, z'
loop_
 _atom_site_type_symbol
 _atom_site_label
 _atom_site_symmetry_multiplicity
 _atom_site_fract_x
 _atom_site_fract_y
 _atom_site_fract_z
 _atom_site_occupancy
  Er  Er0  1  0.000000  0.821191  0.086727  1
  Er  Er1  1  0.000000  0.178809  0.913273  1
  Er  Er2  1  0.000000  0.321191  0.413273  1
  Er  Er3  1  0.000000  0.678809  0.586727  1
  Fe  Fe4  1  0.000000  0.142389  0.183022  1
  Fe  Fe5  1  0.000000  0.857611  0.816978  1
  Fe  Fe6  1  0.000000  0.642389  0.316978  1
  Fe  Fe7  1  0.000000  0.357611  0.683022  1
  B  B8  1  0.500000  0.054823  0.067032  1
  B  B9  1  0.500000  0.945177  0.932968  1
  B  B10  1  0.500000  0.554823  0.432968  1
  B  B11  1  0.500000  0.445177  0.567032  1
  B  B12  1  0.500000  0.252474  0.082235  1
  B  B13  1  0.500000  0.747526  0.917765  1
  B  B14  1  0.500000  0.752474  0.417765  1
  B  B15  1  0.500000  0.247526  0.582235  1
  B  B16  1  0.500000  0.296880  0.235649  1
  B  B17  1  0.500000  0.703120  0.764351  1
  B  B18  1  0.500000  0.796880  0.264351  1
  B  B19  1  0.500000  0.203120  0.735649  1
  B  B20  1  0.500000  0.129119  0.317707  1
  B  B21  1  0.500000  0.870881  0.682293  1
  B  B22  1  0.500000  0.629119  0.182293  1
  B  B23  1  0.500000  0.370881  0.817707  1
  B  B24  1  0.500000  0.481817  0.286707  1
  B  B25  1  0.500000  0.518183  0.713293  1
  B  B26  1  0.500000  0.981817  0.213293  1
  B  B27  1  0.500000  0.018183  0.786707  1
  B  B28  1  0.500000  0.100348  0.473631  1
  B  B29  1  0.500000  0.899652  0.526369  1
  B  B30  1  0.500000  0.600348  0.026369  1
  B  B31  1  0.500000  0.399652  0.973631  1
  Mo  Mo32  1  0.000000  0.444922  0.127400  1
  Mo  Mo33  1  0.000000  0.555078  0.872600  1
  Mo  Mo34  1  0.000000  0.944922  0.372600  1
  Mo  Mo35  1  0.000000  0.055078  0.627400  1
