# generated using pymatgen
data_Tb5Y11(ErPb4)4
_symmetry_space_group_name_H-M   'P 1'
_cell_length_a   8.21660880
_cell_length_b   8.29933373
_cell_length_c   15.68509846
_cell_angle_alpha   90.00634098
_cell_angle_beta   89.96673620
_cell_angle_gamma   89.97268341
_symmetry_Int_Tables_number   1
_chemical_formula_structural   Tb5Y11(ErPb4)4
_chemical_formula_sum   'Tb5 Y11 Er4 Pb16'
_cell_volume   1069.60386324
_cell_formula_units_Z   1
loop_
 _symmetry_equiv_pos_site_id
 _symmetry_equiv_pos_as_xyz
  1  'x, y, z'
loop_
 _atom_site_type_symbol
 _atom_site_label
 _atom_site_symmetry_multiplicity
 _atom_site_fract_x
 _atom_site_fract_y
 _atom_site_fract_z
 _atom_site_occupancy
  Tb  Tb0  1  0.965566  0.823171  0.100050  1
  Tb  Tb1  1  0.465796  0.676617  0.099713  1
  Tb  Tb2  1  0.965597  0.823207  0.400195  1
  Tb  Tb3  1  0.534307  0.323293  0.599746  1
  Tb  Tb4  1  0.034162  0.176870  0.900192  1
  Y  Y5  1  0.376320  0.841294  0.879017  1
  Y  Y6  1  0.876630  0.658838  0.620927  1
  Y  Y7  1  0.623324  0.158918  0.379149  1
  Y  Y8  1  0.123499  0.341162  0.120880  1
  Y  Y9  1  0.623475  0.158757  0.120945  1
  Y  Y10  1  0.123344  0.341152  0.379215  1
  Y  Y11  1  0.376686  0.841329  0.620972  1
  Y  Y12  1  0.876382  0.658625  0.878941  1
  Y  Y13  1  0.534886  0.323429  0.899789  1
  Y  Y14  1  0.035125  0.176382  0.600244  1
  Y  Y15  1  0.464930  0.676316  0.399925  1
  Er  Er16  1  0.208443  0.504071  0.749991  1
  Er  Er17  1  0.708404  0.995961  0.749869  1
  Er  Er18  1  0.791476  0.496032  0.250143  1
  Er  Er19  1  0.291588  0.004171  0.250125  1
  Pb  Pb20  1  0.281994  0.033542  0.043108  1
  Pb  Pb21  1  0.781377  0.467045  0.456825  1
  Pb  Pb22  1  0.718625  0.967047  0.543212  1
  Pb  Pb23  1  0.218335  0.533291  0.956837  1
  Pb  Pb24  1  0.717548  0.966223  0.957005  1
  Pb  Pb25  1  0.217863  0.534127  0.542777  1
  Pb  Pb26  1  0.282060  0.033930  0.457297  1
  Pb  Pb27  1  0.782012  0.465618  0.042623  1
  Pb  Pb28  1  0.571359  0.626293  0.749851  1
  Pb  Pb29  1  0.071369  0.873632  0.750084  1
  Pb  Pb30  1  0.428609  0.373585  0.249904  1
  Pb  Pb31  1  0.928603  0.126470  0.250104  1
  Pb  Pb32  1  0.346173  0.153440  0.750180  1
  Pb  Pb33  1  0.846141  0.346563  0.749753  1
  Pb  Pb34  1  0.653702  0.846672  0.250307  1
  Pb  Pb35  1  0.154294  0.652926  0.250110  1
