# generated using pymatgen
data_Dy2Al9RuRhAu
_symmetry_space_group_name_H-M   'P 1'
_cell_length_a   7.63139770
_cell_length_b   7.63139902
_cell_length_c   9.47997318
_cell_angle_alpha   90.01113048
_cell_angle_beta   90.01113627
_cell_angle_gamma   119.37650885
_symmetry_Int_Tables_number   1
_chemical_formula_structural   Dy2Al9RuRhAu
_chemical_formula_sum   'Dy4 Al18 Ru2 Rh2 Au2'
_cell_volume   481.10554213
_cell_formula_units_Z   2
loop_
 _symmetry_equiv_pos_site_id
 _symmetry_equiv_pos_as_xyz
  1  'x, y, z'
loop_
 _atom_site_type_symbol
 _atom_site_label
 _atom_site_symmetry_multiplicity
 _atom_site_fract_x
 _atom_site_fract_y
 _atom_site_fract_z
 _atom_site_occupancy
  Dy  Dy0  1  0.996129  0.677538  0.749214  1
  Dy  Dy1  1  0.003871  0.322462  0.250786  1
  Dy  Dy2  1  0.677538  0.996129  0.749214  1
  Dy  Dy3  1  0.322462  0.003871  0.250786  1
  Al  Al4  1  0.144259  0.144259  0.749980  1
  Al  Al5  1  0.855741  0.855741  0.250020  1
  Al  Al6  1  0.002196  0.348756  0.577049  1
  Al  Al7  1  0.997804  0.651244  0.422951  1
  Al  Al8  1  0.998962  0.654742  0.078950  1
  Al  Al9  1  0.345258  0.001038  0.921050  1
  Al  Al10  1  0.001038  0.345258  0.921050  1
  Al  Al11  1  0.654742  0.998962  0.078950  1
  Al  Al12  1  0.651244  0.997804  0.422951  1
  Al  Al13  1  0.348756  0.002196  0.577049  1
  Al  Al14  1  0.343060  0.343060  0.058418  1
  Al  Al15  1  0.656940  0.656940  0.941582  1
  Al  Al16  1  0.655840  0.655840  0.555353  1
  Al  Al17  1  0.344160  0.344160  0.444647  1
  Al  Al18  1  0.337872  0.555383  0.748466  1
  Al  Al19  1  0.662128  0.444617  0.251534  1
  Al  Al20  1  0.555383  0.337872  0.748466  1
  Al  Al21  1  0.444617  0.662128  0.251534  1
  Ru  Ru22  1  0.671983  0.328017  0.500000  1
  Ru  Ru23  1  0.328017  0.671983  0.500000  1
  Rh  Rh24  1  0.328290  0.671710  0.000000  1
  Rh  Rh25  1  0.671710  0.328290  0.000000  1
  Au  Au26  1  0.000000  0.000000  0.500000  1
  Au  Au27  1  0.000000  0.000000  0.000000  1
