# generated using pymatgen
data_Nd4ScFe2RhO12
_symmetry_space_group_name_H-M   'P 1'
_cell_length_a   5.51973160
_cell_length_b   5.75373208
_cell_length_c   7.91368298
_cell_angle_alpha   90.69415443
_cell_angle_beta   90.17722604
_cell_angle_gamma   90.02600227
_symmetry_Int_Tables_number   1
_chemical_formula_structural   Nd4ScFe2RhO12
_chemical_formula_sum   'Nd4 Sc1 Fe2 Rh1 O12'
_cell_volume   251.31142961
_cell_formula_units_Z   1
loop_
 _symmetry_equiv_pos_site_id
 _symmetry_equiv_pos_as_xyz
  1  'x, y, z'
loop_
 _atom_site_type_symbol
 _atom_site_label
 _atom_site_symmetry_multiplicity
 _atom_site_fract_x
 _atom_site_fract_y
 _atom_site_fract_z
 _atom_site_occupancy
  Nd  Nd0  1  0.011311  0.936793  0.746508  1
  Nd  Nd1  1  0.520646  0.558283  0.252970  1
  Nd  Nd2  1  0.479354  0.441717  0.747030  1
  Nd  Nd3  1  0.988689  0.063207  0.253492  1
  Sc  Sc4  1  0.500000  0.000000  0.000000  1
  Fe  Fe5  1  0.500000  0.000000  0.500000  1
  Fe  Fe6  1  0.000000  0.500000  0.000000  1
  Rh  Rh7  1  0.000000  0.500000  0.500000  1
  O  O8  1  0.696170  0.294418  0.446698  1
  O  O9  1  0.199426  0.198904  0.551507  1
  O  O10  1  0.804622  0.795415  0.052475  1
  O  O11  1  0.294931  0.697299  0.947963  1
  O  O12  1  0.303830  0.705582  0.553302  1
  O  O13  1  0.800574  0.801096  0.448493  1
  O  O14  1  0.195378  0.204585  0.947525  1
  O  O15  1  0.705069  0.302701  0.052037  1
  O  O16  1  0.104948  0.468232  0.248181  1
  O  O17  1  0.595378  0.030763  0.744431  1
  O  O18  1  0.404622  0.969237  0.255569  1
  O  O19  1  0.895052  0.531768  0.751819  1
