# generated using pymatgen
data_YHoCo12SiP6
_symmetry_space_group_name_H-M   'P 1'
_cell_length_a   9.03813900
_cell_length_b   9.03813877
_cell_length_c   3.59030300
_cell_angle_alpha   90.00000000
_cell_angle_beta   90.00000000
_cell_angle_gamma   119.99999718
_symmetry_Int_Tables_number   1
_chemical_formula_structural   YHoCo12SiP6
_chemical_formula_sum   'Y1 Ho1 Co12 Si1 P6'
_cell_volume   253.99184178
_cell_formula_units_Z   1
loop_
 _symmetry_equiv_pos_site_id
 _symmetry_equiv_pos_as_xyz
  1  'x, y, z'
loop_
 _atom_site_type_symbol
 _atom_site_label
 _atom_site_symmetry_multiplicity
 _atom_site_fract_x
 _atom_site_fract_y
 _atom_site_fract_z
 _atom_site_occupancy
  Y  Y0  1  0.333333  0.666667  0.000000  1
  Ho  Ho1  1  0.666667  0.333333  0.500000  1
  Co  Co2  1  0.122236  0.841311  0.000000  1
  Co  Co3  1  0.385596  0.435306  0.500000  1
  Co  Co4  1  0.719075  0.877764  0.000000  1
  Co  Co5  1  0.564694  0.950289  0.500000  1
  Co  Co6  1  0.231395  0.101065  0.500000  1
  Co  Co7  1  0.869671  0.768605  0.500000  1
  Co  Co8  1  0.898935  0.130329  0.500000  1
  Co  Co9  1  0.939549  0.373581  0.000000  1
  Co  Co10  1  0.626419  0.565970  0.000000  1
  Co  Co11  1  0.434030  0.060451  0.000000  1
  Co  Co12  1  0.049711  0.614404  0.500000  1
  Co  Co13  1  0.158689  0.280925  0.000000  1
  Si  Si14  1  0.000000  0.000000  0.000000  1
  P  P15  1  0.598769  0.709965  0.500000  1
  P  P16  1  0.706571  0.112887  0.000000  1
  P  P17  1  0.887113  0.593685  0.000000  1
  P  P18  1  0.406315  0.293429  0.000000  1
  P  P19  1  0.290035  0.888805  0.500000  1
  P  P20  1  0.111195  0.401231  0.500000  1
