# generated using pymatgen
data_Ho4Al24Cu2NiPd6
_symmetry_space_group_name_H-M   'P 1'
_cell_length_a   7.53124376
_cell_length_b   7.52105301
_cell_length_c   13.08419979
_cell_angle_alpha   84.45697148
_cell_angle_beta   78.89978376
_cell_angle_gamma   60.05345541
_symmetry_Int_Tables_number   1
_chemical_formula_structural   Ho4Al24Cu2NiPd6
_chemical_formula_sum   'Ho4 Al24 Cu2 Ni1 Pd6'
_cell_volume   630.16603834
_cell_formula_units_Z   1
loop_
 _symmetry_equiv_pos_site_id
 _symmetry_equiv_pos_as_xyz
  1  'x, y, z'
loop_
 _atom_site_type_symbol
 _atom_site_label
 _atom_site_symmetry_multiplicity
 _atom_site_fract_x
 _atom_site_fract_y
 _atom_site_fract_z
 _atom_site_occupancy
  Ho  Ho0  1  0.395668  0.166019  0.808165  1
  Ho  Ho1  1  0.604332  0.833981  0.191835  1
  Ho  Ho2  1  0.732041  0.497850  0.808161  1
  Ho  Ho3  1  0.267959  0.502150  0.191839  1
  Al  Al4  1  0.689552  0.826489  0.946663  1
  Al  Al5  1  0.310448  0.173511  0.053337  1
  Al  Al6  1  0.145149  0.834063  0.564246  1
  Al  Al7  1  0.854851  0.165937  0.435754  1
  Al  Al8  1  0.479907  0.167715  0.561734  1
  Al  Al9  1  0.520093  0.832285  0.438266  1
  Al  Al10  1  0.213222  0.169011  0.328474  1
  Al  Al11  1  0.786778  0.830989  0.671526  1
  Al  Al12  1  0.432790  0.506220  0.671903  1
  Al  Al13  1  0.567210  0.493780  0.328097  1
  Al  Al14  1  0.110918  0.162330  0.670411  1
  Al  Al15  1  0.889082  0.837670  0.329589  1
  Al  Al16  1  0.345772  0.498261  0.946340  1
  Al  Al17  1  0.654228  0.501739  0.053660  1
  Al  Al18  1  0.014732  0.174823  0.956111  1
  Al  Al19  1  0.985268  0.825177  0.043889  1
  Al  Al20  1  0.184727  0.499956  0.441507  1
  Al  Al21  1  0.815273  0.500044  0.558493  1
  Al  Al22  1  0.734543  0.165931  0.183814  1
  Al  Al23  1  0.265457  0.834069  0.816186  1
  Al  Al24  1  0.060504  0.621484  0.817725  1
  Al  Al25  1  0.939496  0.378516  0.182275  1
  Al  Al26  1  0.857342  0.038558  0.816087  1
  Al  Al27  1  0.142658  0.961442  0.183913  1
  Cu  Cu28  1  0.119455  0.492317  0.639353  1
  Cu  Cu29  1  0.880545  0.507683  0.360647  1
  Ni  Ni30  1  0.000000  0.500000  0.000000  1
  Pd  Pd31  1  0.657004  0.171970  0.999895  1
  Pd  Pd32  1  0.342996  0.828030  0.000105  1
  Pd  Pd33  1  0.535374  0.168381  0.363072  1
  Pd  Pd34  1  0.464626  0.831619  0.636928  1
  Pd  Pd35  1  0.780517  0.176361  0.636759  1
  Pd  Pd36  1  0.219483  0.823639  0.363241  1
