# generated using pymatgen
data_Cu2Ir3PdS8
_symmetry_space_group_name_H-M   'P 1'
_cell_length_a   7.07787514
_cell_length_b   6.99821027
_cell_length_c   7.07787500
_cell_angle_alpha   59.62271885
_cell_angle_beta   60.00000531
_cell_angle_gamma   59.62272253
_symmetry_Int_Tables_number   1
_chemical_formula_structural   Cu2Ir3PdS8
_chemical_formula_sum   'Cu2 Ir3 Pd1 S8'
_cell_volume   246.47763164
_cell_formula_units_Z   1
loop_
 _symmetry_equiv_pos_site_id
 _symmetry_equiv_pos_as_xyz
  1  'x, y, z'
loop_
 _atom_site_type_symbol
 _atom_site_label
 _atom_site_symmetry_multiplicity
 _atom_site_fract_x
 _atom_site_fract_y
 _atom_site_fract_z
 _atom_site_occupancy
  Cu  Cu0  1  0.000683  0.997952  0.000683  1
  Cu  Cu1  1  0.249317  0.252048  0.249317  1
  Ir  Ir2  1  0.625000  0.625000  0.625000  1
  Ir  Ir3  1  0.625000  0.625000  0.125000  1
  Ir  Ir4  1  0.125000  0.625000  0.625000  1
  Pd  Pd5  1  0.625000  0.125000  0.625000  1
  S  S6  1  0.381109  0.392182  0.845600  1
  S  S7  1  0.381109  0.392182  0.381109  1
  S  S8  1  0.868891  0.857818  0.868891  1
  S  S9  1  0.868891  0.857818  0.404400  1
  S  S10  1  0.385928  0.842216  0.385928  1
  S  S11  1  0.845600  0.392182  0.381109  1
  S  S12  1  0.404400  0.857818  0.868891  1
  S  S13  1  0.864072  0.407784  0.864072  1
