# generated using pymatgen
data_Er3Tm3Lu14(CoSb2)4
_symmetry_space_group_name_H-M   'P 1'
_cell_length_a   7.68855105
_cell_length_b   8.68506400
_cell_length_c   11.96386060
_cell_angle_alpha   90.00000000
_cell_angle_beta   89.97693797
_cell_angle_gamma   90.00000000
_symmetry_Int_Tables_number   1
_chemical_formula_structural   Er3Tm3Lu14(CoSb2)4
_chemical_formula_sum   'Er3 Tm3 Lu14 Co4 Sb8'
_cell_volume   798.89340200
_cell_formula_units_Z   1
loop_
 _symmetry_equiv_pos_site_id
 _symmetry_equiv_pos_as_xyz
  1  'x, y, z'
loop_
 _atom_site_type_symbol
 _atom_site_label
 _atom_site_symmetry_multiplicity
 _atom_site_fract_x
 _atom_site_fract_y
 _atom_site_fract_z
 _atom_site_occupancy
  Er  Er0  1  0.122692  0.250000  0.191142  1
  Er  Er1  1  0.377682  0.250000  0.691034  1
  Er  Er2  1  0.877319  0.750000  0.808869  1
  Tm  Tm3  1  0.157405  0.750000  0.204471  1
  Tm  Tm4  1  0.657108  0.250000  0.295701  1
  Tm  Tm5  1  0.342973  0.750000  0.704329  1
  Lu  Lu6  1  0.843100  0.250000  0.796031  1
  Lu  Lu7  1  0.447988  0.750000  0.997854  1
  Lu  Lu8  1  0.947310  0.250000  0.502317  1
  Lu  Lu9  1  0.552608  0.250000  0.002136  1
  Lu  Lu10  1  0.052073  0.750000  0.497892  1
  Lu  Lu11  1  0.621289  0.750000  0.310128  1
  Lu  Lu12  1  0.824454  0.962221  0.065465  1
  Lu  Lu13  1  0.325007  0.036851  0.434265  1
  Lu  Lu14  1  0.175247  0.461880  0.934515  1
  Lu  Lu15  1  0.675649  0.538169  0.564915  1
  Lu  Lu16  1  0.175247  0.038120  0.934515  1
  Lu  Lu17  1  0.675649  0.961831  0.564915  1
  Lu  Lu18  1  0.824454  0.537779  0.065465  1
  Lu  Lu19  1  0.325007  0.463149  0.434265  1
  Co  Co20  1  0.431690  0.750000  0.490869  1
  Co  Co21  1  0.931020  0.250000  0.008504  1
  Co  Co22  1  0.568502  0.250000  0.508516  1
  Co  Co23  1  0.068789  0.750000  0.991273  1
  Sb  Sb24  1  0.931558  0.991117  0.328625  1
  Sb  Sb25  1  0.433071  0.007866  0.171629  1
  Sb  Sb26  1  0.067286  0.491189  0.671554  1
  Sb  Sb27  1  0.567955  0.508040  0.828498  1
  Sb  Sb28  1  0.067286  0.008811  0.671554  1
  Sb  Sb29  1  0.567955  0.991960  0.828498  1
  Sb  Sb30  1  0.931558  0.508883  0.328625  1
  Sb  Sb31  1  0.433071  0.492134  0.171629  1
