# generated using pymatgen
data_Y2FeNi11P7
_symmetry_space_group_name_H-M   'P 1'
_cell_length_a   3.67078300
_cell_length_b   9.05065685
_cell_length_c   9.06306625
_cell_angle_alpha   120.00611862
_cell_angle_beta   90.00000000
_cell_angle_gamma   90.00000000
_symmetry_Int_Tables_number   1
_chemical_formula_structural   Y2FeNi11P7
_chemical_formula_sum   'Y2 Fe1 Ni11 P7'
_cell_volume   260.74609777
_cell_formula_units_Z   1
loop_
 _symmetry_equiv_pos_site_id
 _symmetry_equiv_pos_as_xyz
  1  'x, y, z'
loop_
 _atom_site_type_symbol
 _atom_site_label
 _atom_site_symmetry_multiplicity
 _atom_site_fract_x
 _atom_site_fract_y
 _atom_site_fract_z
 _atom_site_occupancy
  Y  Y0  1  0.000000  0.666128  0.334806  1
  Y  Y1  1  0.500000  0.333983  0.667215  1
  Fe  Fe2  1  0.000000  0.848032  0.121967  1
  Ni  Ni3  1  0.000000  0.378476  0.941553  1
  Ni  Ni4  1  0.000000  0.061817  0.437364  1
  Ni  Ni5  1  0.000000  0.566512  0.626718  1
  Ni  Ni6  1  0.000000  0.879878  0.726236  1
  Ni  Ni7  1  0.000000  0.273265  0.149986  1
  Ni  Ni8  1  0.500000  0.952177  0.567815  1
  Ni  Ni9  1  0.500000  0.428941  0.381704  1
  Ni  Ni10  1  0.500000  0.617881  0.049425  1
  Ni  Ni11  1  0.500000  0.119010  0.907380  1
  Ni  Ni12  1  0.500000  0.095367  0.216042  1
  Ni  Ni13  1  0.500000  0.778348  0.874358  1
  P  P14  1  0.000000  0.115161  0.708185  1
  P  P15  1  0.000000  0.292905  0.406057  1
  P  P16  1  0.000000  0.598090  0.888942  1
  P  P17  1  0.500000  0.705794  0.595610  1
  P  P18  1  0.500000  0.402042  0.108673  1
  P  P19  1  0.500000  0.889215  0.288232  1
  P  P20  1  0.000000  0.996978  0.001726  1
