# generated using pymatgen
data_Cd3Bi8PbO24
_symmetry_space_group_name_H-M   'P 1'
_cell_length_a   7.21621379
_cell_length_b   7.18148177
_cell_length_c   11.52576870
_cell_angle_alpha   108.17550150
_cell_angle_beta   71.74396816
_cell_angle_gamma   90.02310206
_symmetry_Int_Tables_number   1
_chemical_formula_structural   Cd3Bi8PbO24
_chemical_formula_sum   'Cd3 Bi8 Pb1 O24'
_cell_volume   535.79109524
_cell_formula_units_Z   1
loop_
 _symmetry_equiv_pos_site_id
 _symmetry_equiv_pos_as_xyz
  1  'x, y, z'
loop_
 _atom_site_type_symbol
 _atom_site_label
 _atom_site_symmetry_multiplicity
 _atom_site_fract_x
 _atom_site_fract_y
 _atom_site_fract_z
 _atom_site_occupancy
  Cd  Cd0  1  0.082520  0.417420  0.834719  1
  Cd  Cd1  1  0.833398  0.166594  0.333304  1
  Cd  Cd2  1  0.583952  0.916027  0.831979  1
  Bi  Bi3  1  0.998537  0.001321  0.002710  1
  Bi  Bi4  1  0.502159  0.497670  0.995346  1
  Bi  Bi5  1  0.668117  0.331946  0.663930  1
  Bi  Bi6  1  0.164290  0.835712  0.671306  1
  Bi  Bi7  1  0.419112  0.080759  0.161534  1
  Bi  Bi8  1  0.916171  0.583834  0.167733  1
  Bi  Bi9  1  0.247559  0.252591  0.505167  1
  Bi  Bi10  1  0.750628  0.749391  0.498921  1
  Pb  Pb11  1  0.333596  0.666509  0.333276  1
  O  O12  1  0.397874  0.415537  0.831210  1
  O  O13  1  0.895765  0.917651  0.835474  1
  O  O14  1  0.333098  0.354700  0.333389  1
  O  O15  1  0.833298  0.853017  0.333351  1
  O  O16  1  0.333459  0.978662  0.333309  1
  O  O17  1  0.833273  0.480197  0.333299  1
  O  O18  1  0.770745  0.415633  0.831260  1
  O  O19  1  0.268696  0.917740  0.835428  1
  O  O20  1  0.720024  0.080136  0.159693  1
  O  O21  1  0.224339  0.582951  0.165292  1
  O  O22  1  0.546604  0.253819  0.506979  1
  O  O23  1  0.056298  0.750972  0.501501  1
  O  O24  1  0.496639  0.204078  0.006160  1
  O  O25  1  0.994381  0.701828  0.010828  1
  O  O26  1  0.169728  0.531292  0.660513  1
  O  O27  1  0.671900  0.024382  0.655903  1
  O  O28  1  0.497025  0.802069  0.006137  1
  O  O29  1  0.994926  0.308897  0.010783  1
  O  O30  1  0.170010  0.129350  0.660538  1
  O  O31  1  0.672210  0.631529  0.655936  1
  O  O32  1  0.120123  0.079485  0.159604  1
  O  O33  1  0.610528  0.582448  0.165026  1
  O  O34  1  0.946681  0.253164  0.506916  1
  O  O35  1  0.442339  0.750688  0.501541  1
