# generated using pymatgen
data_Er4CoAg
_symmetry_space_group_name_H-M   'P 1'
_cell_length_a   9.31004475
_cell_length_b   9.30973239
_cell_length_c   9.30989602
_cell_angle_alpha   60.00676075
_cell_angle_beta   59.99995381
_cell_angle_gamma   60.00401682
_symmetry_Int_Tables_number   1
_chemical_formula_structural   Er4CoAg
_chemical_formula_sum   'Er16 Co4 Ag4'
_cell_volume   570.62923172
_cell_formula_units_Z   4
loop_
 _symmetry_equiv_pos_site_id
 _symmetry_equiv_pos_as_xyz
  1  'x, y, z'
loop_
 _atom_site_type_symbol
 _atom_site_label
 _atom_site_symmetry_multiplicity
 _atom_site_fract_x
 _atom_site_fract_y
 _atom_site_fract_z
 _atom_site_occupancy
  Er  Er0  1  0.348004  0.348022  0.348231  1
  Er  Er1  1  0.348135  0.348127  0.955635  1
  Er  Er2  1  0.348083  0.955615  0.348276  1
  Er  Er3  1  0.955683  0.348041  0.348295  1
  Er  Er4  1  0.811223  0.188658  0.188684  1
  Er  Er5  1  0.188612  0.811572  0.811196  1
  Er  Er6  1  0.188681  0.811261  0.188658  1
  Er  Er7  1  0.811634  0.188587  0.811170  1
  Er  Er8  1  0.188619  0.188558  0.811079  1
  Er  Er9  1  0.811384  0.811312  0.188635  1
  Er  Er10  1  0.937925  0.562140  0.562048  1
  Er  Er11  1  0.562405  0.937762  0.937627  1
  Er  Er12  1  0.562021  0.937904  0.562294  1
  Er  Er13  1  0.937819  0.562502  0.937731  1
  Er  Er14  1  0.562047  0.562342  0.937794  1
  Er  Er15  1  0.937763  0.937770  0.562463  1
  Co  Co16  1  0.141315  0.141298  0.141331  1
  Co  Co17  1  0.141306  0.141283  0.576093  1
  Co  Co18  1  0.141312  0.576034  0.141338  1
  Co  Co19  1  0.576061  0.141284  0.141345  1
  Ag  Ag20  1  0.581245  0.581213  0.581248  1
  Ag  Ag21  1  0.581224  0.581228  0.256277  1
  Ag  Ag22  1  0.581214  0.256277  0.581264  1
  Ag  Ag23  1  0.256284  0.581210  0.581288  1
