# generated using pymatgen
data_CsRb2H5Pt
_symmetry_space_group_name_H-M   'P 1'
_cell_length_a   7.90084300
_cell_length_b   7.90084300
_cell_length_c   6.10785100
_cell_angle_alpha   90.00000000
_cell_angle_beta   90.00000000
_cell_angle_gamma   90.00000000
_symmetry_Int_Tables_number   1
_chemical_formula_structural   CsRb2H5Pt
_chemical_formula_sum   'Cs2 Rb4 H10 Pt2'
_cell_volume   381.27233816
_cell_formula_units_Z   2
loop_
 _symmetry_equiv_pos_site_id
 _symmetry_equiv_pos_as_xyz
  1  'x, y, z'
loop_
 _atom_site_type_symbol
 _atom_site_label
 _atom_site_symmetry_multiplicity
 _atom_site_fract_x
 _atom_site_fract_y
 _atom_site_fract_z
 _atom_site_occupancy
  Cs  Cs0  1  0.500000  0.500000  0.000000  1
  Cs  Cs1  1  0.000000  0.000000  0.000000  1
  Rb  Rb2  1  0.183400  0.683400  0.500000  1
  Rb  Rb3  1  0.816600  0.316600  0.500000  1
  Rb  Rb4  1  0.683400  0.816600  0.500000  1
  Rb  Rb5  1  0.316600  0.183400  0.500000  1
  H  H6  1  0.500000  0.500000  0.500000  1
  H  H7  1  0.000000  0.000000  0.500000  1
  H  H8  1  0.606645  0.106645  0.809352  1
  H  H9  1  0.393355  0.893355  0.809352  1
  H  H10  1  0.106645  0.393355  0.809352  1
  H  H11  1  0.893355  0.606645  0.809352  1
  H  H12  1  0.393355  0.893355  0.190648  1
  H  H13  1  0.606645  0.106645  0.190648  1
  H  H14  1  0.893355  0.606645  0.190648  1
  H  H15  1  0.106645  0.393355  0.190648  1
  Pt  Pt16  1  0.500000  0.000000  0.000000  1
  Pt  Pt17  1  0.000000  0.500000  0.000000  1
