# generated using pymatgen
data_Ti4Si2PdRh9
_symmetry_space_group_name_H-M   'P 1'
_cell_length_a   3.97152400
_cell_length_b   5.41074096
_cell_length_c   10.55167320
_cell_angle_alpha   90.51173235
_cell_angle_beta   90.00000000
_cell_angle_gamma   90.00000000
_symmetry_Int_Tables_number   1
_chemical_formula_structural   Ti4Si2PdRh9
_chemical_formula_sum   'Ti4 Si2 Pd1 Rh9'
_cell_volume   226.73467550
_cell_formula_units_Z   1
loop_
 _symmetry_equiv_pos_site_id
 _symmetry_equiv_pos_as_xyz
  1  'x, y, z'
loop_
 _atom_site_type_symbol
 _atom_site_label
 _atom_site_symmetry_multiplicity
 _atom_site_fract_x
 _atom_site_fract_y
 _atom_site_fract_z
 _atom_site_occupancy
  Ti  Ti0  1  0.500000  0.341932  0.138734  1
  Ti  Ti1  1  0.500000  0.674372  0.857890  1
  Ti  Ti2  1  0.500000  0.819628  0.363124  1
  Ti  Ti3  1  0.500000  0.171219  0.641746  1
  Si  Si4  1  0.000000  0.000188  0.996750  1
  Si  Si5  1  0.000000  0.494735  0.500223  1
  Pd  Pd6  1  0.000000  0.079111  0.239751  1
  Rh  Rh7  1  0.000000  0.994832  0.500513  1
  Rh  Rh8  1  0.000000  0.501647  0.000249  1
  Rh  Rh9  1  0.000000  0.919401  0.761344  1
  Rh  Rh10  1  0.000000  0.579919  0.261486  1
  Rh  Rh11  1  0.000000  0.418624  0.738114  1
  Rh  Rh12  1  0.500000  0.312277  0.394700  1
  Rh  Rh13  1  0.500000  0.682707  0.605103  1
  Rh  Rh14  1  0.500000  0.821722  0.104480  1
  Rh  Rh15  1  0.500000  0.187685  0.895793  1
