# generated using pymatgen
data_Li4Pr4PdPt3
_symmetry_space_group_name_H-M   'P 1'
_cell_length_a   4.09348600
_cell_length_b   7.29091601
_cell_length_c   8.73809300
_cell_angle_alpha   89.61686306
_cell_angle_beta   90.00000000
_cell_angle_gamma   90.00000000
_symmetry_Int_Tables_number   1
_chemical_formula_structural   Li4Pr4PdPt3
_chemical_formula_sum   'Li4 Pr4 Pd1 Pt3'
_cell_volume   260.78484958
_cell_formula_units_Z   1
loop_
 _symmetry_equiv_pos_site_id
 _symmetry_equiv_pos_as_xyz
  1  'x, y, z'
loop_
 _atom_site_type_symbol
 _atom_site_label
 _atom_site_symmetry_multiplicity
 _atom_site_fract_x
 _atom_site_fract_y
 _atom_site_fract_z
 _atom_site_occupancy
  Li  Li0  1  0.250000  0.377145  0.553924  1
  Li  Li1  1  0.250000  0.875147  0.944137  1
  Li  Li2  1  0.750000  0.622527  0.446016  1
  Li  Li3  1  0.750000  0.122641  0.056112  1
  Pr  Pr4  1  0.250000  0.950310  0.314903  1
  Pr  Pr5  1  0.250000  0.453719  0.187085  1
  Pr  Pr6  1  0.750000  0.045911  0.679654  1
  Pr  Pr7  1  0.750000  0.552889  0.817067  1
  Pd  Pd8  1  0.250000  0.252935  0.879557  1
  Pt  Pt9  1  0.250000  0.752243  0.623358  1
  Pt  Pt10  1  0.750000  0.748146  0.120249  1
  Pt  Pt11  1  0.750000  0.246384  0.377939  1
