# generated using pymatgen
data_DyTm2Pa(Ga3Ir)6
_symmetry_space_group_name_H-M   'P 1'
_cell_length_a   7.61319801
_cell_length_b   7.60418497
_cell_length_c   9.43138700
_cell_angle_alpha   90.00000000
_cell_angle_beta   90.00000000
_cell_angle_gamma   119.93565327
_symmetry_Int_Tables_number   1
_chemical_formula_structural   DyTm2Pa(Ga3Ir)6
_chemical_formula_sum   'Dy1 Tm2 Pa1 Ga18 Ir6'
_cell_volume   473.15913286
_cell_formula_units_Z   1
loop_
 _symmetry_equiv_pos_site_id
 _symmetry_equiv_pos_as_xyz
  1  'x, y, z'
loop_
 _atom_site_type_symbol
 _atom_site_label
 _atom_site_symmetry_multiplicity
 _atom_site_fract_x
 _atom_site_fract_y
 _atom_site_fract_z
 _atom_site_occupancy
  Dy  Dy0  1  0.003807  0.331421  0.250000  1
  Tm  Tm1  1  0.669294  0.996583  0.750000  1
  Tm  Tm2  1  0.331217  0.002995  0.250000  1
  Pa  Pa3  1  0.997253  0.668704  0.750000  1
  Ga  Ga4  1  0.129557  0.129862  0.750000  1
  Ga  Ga5  1  0.873440  0.874248  0.250000  1
  Ga  Ga6  1  0.997909  0.330199  0.580309  1
  Ga  Ga7  1  0.002052  0.666179  0.415931  1
  Ga  Ga8  1  0.002052  0.666179  0.084069  1
  Ga  Ga9  1  0.338413  0.002080  0.919910  1
  Ga  Ga10  1  0.997909  0.330199  0.919691  1
  Ga  Ga11  1  0.665432  0.001914  0.081716  1
  Ga  Ga12  1  0.665432  0.001914  0.418284  1
  Ga  Ga13  1  0.338413  0.002080  0.580090  1
  Ga  Ga14  1  0.331427  0.331007  0.068713  1
  Ga  Ga15  1  0.664425  0.668456  0.933721  1
  Ga  Ga16  1  0.664425  0.668456  0.566279  1
  Ga  Ga17  1  0.331427  0.331007  0.431287  1
  Ga  Ga18  1  0.339621  0.545232  0.750000  1
  Ga  Ga19  1  0.660105  0.452021  0.250000  1
  Ga  Ga20  1  0.543893  0.338969  0.750000  1
  Ga  Ga21  1  0.452704  0.661391  0.250000  1
  Ir  Ir22  1  0.673738  0.331111  0.501917  1
  Ir  Ir23  1  0.326406  0.671466  0.502005  1
  Ir  Ir24  1  0.326406  0.671466  0.997995  1
  Ir  Ir25  1  0.673738  0.331111  0.998083  1
  Ir  Ir26  1  0.999753  0.996876  0.502223  1
  Ir  Ir27  1  0.999753  0.996876  0.997777  1
