# generated using pymatgen
data_Ce(Dy2Ru)2
_symmetry_space_group_name_H-M   'P 1'
_cell_length_a   8.67929780
_cell_length_b   8.67929792
_cell_length_c   7.14502023
_cell_angle_alpha   83.72385170
_cell_angle_beta   83.72385139
_cell_angle_gamma   43.15702068
_symmetry_Int_Tables_number   1
_chemical_formula_structural   Ce(Dy2Ru)2
_chemical_formula_sum   'Ce2 Dy8 Ru4'
_cell_volume   365.60054780
_cell_formula_units_Z   2
loop_
 _symmetry_equiv_pos_site_id
 _symmetry_equiv_pos_as_xyz
  1  'x, y, z'
loop_
 _atom_site_type_symbol
 _atom_site_label
 _atom_site_symmetry_multiplicity
 _atom_site_fract_x
 _atom_site_fract_y
 _atom_site_fract_z
 _atom_site_occupancy
  Ce  Ce0  1  0.201277  0.990850  0.598026  1
  Ce  Ce1  1  0.009150  0.798723  0.901974  1
  Dy  Dy2  1  0.212878  0.353955  0.312538  1
  Dy  Dy3  1  0.646045  0.787122  0.187462  1
  Dy  Dy4  1  0.794535  0.639764  0.683893  1
  Dy  Dy5  1  0.360236  0.205465  0.816107  1
  Dy  Dy6  1  0.973412  0.209909  0.084811  1
  Dy  Dy7  1  0.790091  0.026588  0.415189  1
  Dy  Dy8  1  0.574378  0.425622  0.750000  1
  Dy  Dy9  1  0.415302  0.584698  0.250000  1
  Ru  Ru10  1  0.162440  0.617607  0.596677  1
  Ru  Ru11  1  0.382393  0.837560  0.903323  1
  Ru  Ru12  1  0.849476  0.371613  0.432754  1
  Ru  Ru13  1  0.628387  0.150524  0.067246  1
