# generated using pymatgen
data_CeCoSbAsPd
_symmetry_space_group_name_H-M   'P 1'
_cell_length_a   4.36920800
_cell_length_b   4.36920800
_cell_length_c   9.92731900
_cell_angle_alpha   90.00000000
_cell_angle_beta   90.00000000
_cell_angle_gamma   90.00000000
_symmetry_Int_Tables_number   1
_chemical_formula_structural   CeCoSbAsPd
_chemical_formula_sum   'Ce2 Co2 Sb2 As2 Pd2'
_cell_volume   189.51230674
_cell_formula_units_Z   2
loop_
 _symmetry_equiv_pos_site_id
 _symmetry_equiv_pos_as_xyz
  1  'x, y, z'
loop_
 _atom_site_type_symbol
 _atom_site_label
 _atom_site_symmetry_multiplicity
 _atom_site_fract_x
 _atom_site_fract_y
 _atom_site_fract_z
 _atom_site_occupancy
  Ce  Ce0  1  0.000000  0.500000  0.273808  1
  Ce  Ce1  1  0.500000  0.000000  0.726192  1
  Co  Co2  1  0.000000  0.500000  0.593903  1
  Co  Co3  1  0.500000  0.000000  0.406097  1
  Sb  Sb4  1  0.000000  0.500000  0.843482  1
  Sb  Sb5  1  0.500000  0.000000  0.156518  1
  As  As6  1  0.000000  0.000000  0.500000  1
  As  As7  1  0.500000  0.500000  0.500000  1
  Pd  Pd8  1  0.000000  0.000000  0.000000  1
  Pd  Pd9  1  0.500000  0.500000  0.000000  1
