# generated using pymatgen
data_Dy3YAl10(Ga4Ir3)2
_symmetry_space_group_name_H-M   'P 1'
_cell_length_a   7.53823377
_cell_length_b   7.53598703
_cell_length_c   9.56291832
_cell_angle_alpha   90.09892823
_cell_angle_beta   89.84908537
_cell_angle_gamma   119.67365717
_symmetry_Int_Tables_number   1
_chemical_formula_structural   Dy3YAl10(Ga4Ir3)2
_chemical_formula_sum   'Dy3 Y1 Al10 Ga8 Ir6'
_cell_volume   472.00657220
_cell_formula_units_Z   1
loop_
 _symmetry_equiv_pos_site_id
 _symmetry_equiv_pos_as_xyz
  1  'x, y, z'
loop_
 _atom_site_type_symbol
 _atom_site_label
 _atom_site_symmetry_multiplicity
 _atom_site_fract_x
 _atom_site_fract_y
 _atom_site_fract_z
 _atom_site_occupancy
  Dy  Dy0  1  0.003682  0.333090  0.254315  1
  Dy  Dy1  1  0.672468  0.998614  0.749100  1
  Dy  Dy2  1  0.327534  0.001400  0.250900  1
  Y  Y3  1  0.996311  0.666934  0.745797  1
  Al  Al4  1  0.997734  0.665282  0.070864  1
  Al  Al5  1  0.334553  0.000794  0.927751  1
  Al  Al6  1  0.002281  0.334643  0.929319  1
  Al  Al7  1  0.665527  0.999289  0.072338  1
  Al  Al8  1  0.664110  0.997005  0.426722  1
  Al  Al9  1  0.335959  0.003069  0.573193  1
  Al  Al10  1  0.333440  0.333429  0.055418  1
  Al  Al11  1  0.666475  0.666571  0.944686  1
  Al  Al12  1  0.666791  0.666205  0.553987  1
  Al  Al13  1  0.333134  0.333798  0.445911  1
  Ga  Ga14  1  0.129981  0.126563  0.750616  1
  Ga  Ga15  1  0.870004  0.873605  0.249381  1
  Ga  Ga16  1  0.999804  0.333460  0.579748  1
  Ga  Ga17  1  0.000218  0.666405  0.419990  1
  Ga  Ga18  1  0.341413  0.548923  0.750861  1
  Ga  Ga19  1  0.658723  0.451089  0.249139  1
  Ga  Ga20  1  0.546133  0.339562  0.750049  1
  Ga  Ga21  1  0.453656  0.660212  0.249950  1
  Ir  Ir22  1  0.667110  0.325789  0.499250  1
  Ir  Ir23  1  0.332925  0.674172  0.500662  1
  Ir  Ir24  1  0.328186  0.671810  0.000823  1
  Ir  Ir25  1  0.671833  0.328157  0.999260  1
  Ir  Ir26  1  0.000010  0.000076  0.499934  1
  Ir  Ir27  1  0.000007  0.000055  0.000037  1
