# generated using pymatgen
data_Li22Si11Ge
_symmetry_space_group_name_H-M   'P 1'
_cell_length_a   4.27409601
_cell_length_b   10.44190500
_cell_length_c   12.29345042
_cell_angle_alpha   90.00000000
_cell_angle_beta   79.98904592
_cell_angle_gamma   90.00000000
_symmetry_Int_Tables_number   1
_chemical_formula_structural   Li22Si11Ge
_chemical_formula_sum   'Li22 Si11 Ge1'
_cell_volume   540.29956180
_cell_formula_units_Z   1
loop_
 _symmetry_equiv_pos_site_id
 _symmetry_equiv_pos_as_xyz
  1  'x, y, z'
loop_
 _atom_site_type_symbol
 _atom_site_label
 _atom_site_symmetry_multiplicity
 _atom_site_fract_x
 _atom_site_fract_y
 _atom_site_fract_z
 _atom_site_occupancy
  Li  Li0  1  0.974812  0.750000  0.050378  1
  Li  Li1  1  0.464387  0.114693  0.071227  1
  Li  Li2  1  0.464387  0.385308  0.071227  1
  Li  Li3  1  0.912337  0.000526  0.175326  1
  Li  Li4  1  0.912337  0.499474  0.175326  1
  Li  Li5  1  0.359073  0.250000  0.281856  1
  Li  Li6  1  0.857376  0.750000  0.285250  1
  Li  Li7  1  0.820261  0.118464  0.359480  1
  Li  Li8  1  0.820261  0.381536  0.359480  1
  Li  Li9  1  0.758289  0.605031  0.483423  1
  Li  Li10  1  0.758289  0.894969  0.483423  1
  Li  Li11  1  0.241874  0.105403  0.516255  1
  Li  Li12  1  0.241874  0.394597  0.516255  1
  Li  Li13  1  0.180257  0.617628  0.639487  1
  Li  Li14  1  0.180257  0.882373  0.639487  1
  Li  Li15  1  0.142599  0.250000  0.714803  1
  Li  Li16  1  0.641857  0.750000  0.716288  1
  Li  Li17  1  0.087842  0.499369  0.824317  1
  Li  Li18  1  0.087842  0.000631  0.824317  1
  Li  Li19  1  0.534943  0.612949  0.930116  1
  Li  Li20  1  0.534943  0.887052  0.930116  1
  Li  Li21  1  0.024611  0.250000  0.950778  1
  Si  Si22  1  0.422103  0.638064  0.155794  1
  Si  Si23  1  0.422103  0.861936  0.155794  1
  Si  Si24  1  0.917809  0.250000  0.164383  1
  Si  Si25  1  0.329393  0.560012  0.341216  1
  Si  Si26  1  0.329393  0.939988  0.341216  1
  Si  Si27  1  0.274420  0.750000  0.451162  1
  Si  Si28  1  0.725686  0.250000  0.548630  1
  Si  Si29  1  0.670525  0.060085  0.658952  1
  Si  Si30  1  0.670525  0.439915  0.658952  1
  Si  Si31  1  0.577772  0.138137  0.844458  1
  Si  Si32  1  0.577772  0.361862  0.844458  1
  Ge  Ge33  1  0.081812  0.750000  0.836377  1
