# generated using pymatgen
data_NaZr2CrF11
_symmetry_space_group_name_H-M   'P 1'
_cell_length_a   5.79926949
_cell_length_b   5.79927033
_cell_length_c   7.98167103
_cell_angle_alpha   69.06940540
_cell_angle_beta   69.06939943
_cell_angle_gamma   73.75459992
_symmetry_Int_Tables_number   1
_chemical_formula_structural   NaZr2CrF11
_chemical_formula_sum   'Na1 Zr2 Cr1 F11'
_cell_volume   230.59018053
_cell_formula_units_Z   1
loop_
 _symmetry_equiv_pos_site_id
 _symmetry_equiv_pos_as_xyz
  1  'x, y, z'
loop_
 _atom_site_type_symbol
 _atom_site_label
 _atom_site_symmetry_multiplicity
 _atom_site_fract_x
 _atom_site_fract_y
 _atom_site_fract_z
 _atom_site_occupancy
  Na  Na0  1  0.000000  0.000000  0.000000  1
  Zr  Zr1  1  0.495447  0.495447  0.234224  1
  Zr  Zr2  1  0.504553  0.504553  0.765776  1
  Cr  Cr3  1  0.000000  0.000000  0.500000  1
  F  F4  1  0.198413  0.773581  0.304723  1
  F  F5  1  0.226419  0.801587  0.695277  1
  F  F6  1  0.801587  0.226419  0.695277  1
  F  F7  1  0.773581  0.198413  0.304723  1
  F  F8  1  0.500000  0.500000  0.500000  1
  F  F9  1  0.667636  0.332364  0.000000  1
  F  F10  1  0.332364  0.667636  0.000000  1
  F  F11  1  0.755205  0.755205  0.643475  1
  F  F12  1  0.244795  0.244795  0.356525  1
  F  F13  1  0.733774  0.733774  0.109772  1
  F  F14  1  0.266226  0.266226  0.890228  1
