# generated using pymatgen
data_Er2PaMn2Co7P6
_symmetry_space_group_name_H-M   'P 1'
_cell_length_a   3.71492400
_cell_length_b   10.58876700
_cell_length_c   12.10380000
_cell_angle_alpha   90.00000000
_cell_angle_beta   90.00000000
_cell_angle_gamma   90.00000000
_symmetry_Int_Tables_number   1
_chemical_formula_structural   Er2PaMn2Co7P6
_chemical_formula_sum   'Er4 Pa2 Mn4 Co14 P12'
_cell_volume   476.12070094
_cell_formula_units_Z   2
loop_
 _symmetry_equiv_pos_site_id
 _symmetry_equiv_pos_as_xyz
  1  'x, y, z'
loop_
 _atom_site_type_symbol
 _atom_site_label
 _atom_site_symmetry_multiplicity
 _atom_site_fract_x
 _atom_site_fract_y
 _atom_site_fract_z
 _atom_site_occupancy
  Er  Er0  1  0.250000  0.931853  0.796773  1
  Er  Er1  1  0.250000  0.568147  0.796773  1
  Er  Er2  1  0.750000  0.068147  0.203227  1
  Er  Er3  1  0.750000  0.431853  0.203227  1
  Pa  Pa4  1  0.750000  0.250000  0.470501  1
  Pa  Pa5  1  0.250000  0.750000  0.529499  1
  Mn  Mn6  1  0.250000  0.250000  0.848062  1
  Mn  Mn7  1  0.750000  0.750000  0.151938  1
  Mn  Mn8  1  0.750000  0.250000  0.011351  1
  Mn  Mn9  1  0.250000  0.750000  0.988649  1
  Co  Co10  1  0.250000  0.250000  0.305521  1
  Co  Co11  1  0.750000  0.750000  0.694479  1
  Co  Co12  1  0.250000  0.417233  0.005357  1
  Co  Co13  1  0.250000  0.082767  0.005357  1
  Co  Co14  1  0.750000  0.582767  0.994643  1
  Co  Co15  1  0.750000  0.917233  0.994643  1
  Co  Co16  1  0.250000  0.450943  0.567584  1
  Co  Co17  1  0.250000  0.049057  0.567584  1
  Co  Co18  1  0.750000  0.549057  0.432416  1
  Co  Co19  1  0.750000  0.950943  0.432416  1
  Co  Co20  1  0.250000  0.871285  0.292137  1
  Co  Co21  1  0.250000  0.628715  0.292137  1
  Co  Co22  1  0.750000  0.128715  0.707863  1
  Co  Co23  1  0.750000  0.371285  0.707863  1
  P  P24  1  0.250000  0.250000  0.119749  1
  P  P25  1  0.750000  0.750000  0.880251  1
  P  P26  1  0.250000  0.250000  0.654581  1
  P  P27  1  0.750000  0.750000  0.345419  1
  P  P28  1  0.250000  0.443648  0.382223  1
  P  P29  1  0.250000  0.056352  0.382223  1
  P  P30  1  0.750000  0.556352  0.617777  1
  P  P31  1  0.750000  0.943648  0.617777  1
  P  P32  1  0.250000  0.905596  0.106250  1
  P  P33  1  0.250000  0.594404  0.106250  1
  P  P34  1  0.750000  0.094404  0.893750  1
  P  P35  1  0.750000  0.405596  0.893750  1
