# generated using pymatgen
data_Er5InSb2
_symmetry_space_group_name_H-M   'P 1'
_cell_length_a   8.89218858
_cell_length_b   8.87206950
_cell_length_c   6.41442200
_cell_angle_alpha   90.00000000
_cell_angle_beta   90.00000000
_cell_angle_gamma   119.92517383
_symmetry_Int_Tables_number   1
_chemical_formula_structural   Er5InSb2
_chemical_formula_sum   'Er10 In2 Sb4'
_cell_volume   438.57989910
_cell_formula_units_Z   2
loop_
 _symmetry_equiv_pos_site_id
 _symmetry_equiv_pos_as_xyz
  1  'x, y, z'
loop_
 _atom_site_type_symbol
 _atom_site_label
 _atom_site_symmetry_multiplicity
 _atom_site_fract_x
 _atom_site_fract_y
 _atom_site_fract_z
 _atom_site_occupancy
  Er  Er0  1  0.002346  0.760350  0.750000  1
  Er  Er1  1  0.002346  0.241997  0.250000  1
  Er  Er2  1  0.757949  0.759228  0.250000  1
  Er  Er3  1  0.757949  0.998721  0.750000  1
  Er  Er4  1  0.241373  0.237958  0.750000  1
  Er  Er5  1  0.241373  0.003416  0.250000  1
  Er  Er6  1  0.334317  0.667159  0.500000  1
  Er  Er7  1  0.663427  0.331713  0.000000  1
  Er  Er8  1  0.663427  0.331713  0.500000  1
  Er  Er9  1  0.334317  0.667159  0.000000  1
  In  In10  1  0.393564  0.998902  0.750000  1
  In  In11  1  0.393564  0.394662  0.250000  1
  Sb  Sb12  1  0.999079  0.607809  0.250000  1
  Sb  Sb13  1  0.999079  0.391270  0.750000  1
  Sb  Sb14  1  0.607944  0.607349  0.750000  1
  Sb  Sb15  1  0.607944  0.000595  0.250000  1
