# generated using pymatgen
data_Na2Zr(CrSe3)2
_symmetry_space_group_name_H-M   'P 1'
_cell_length_a   6.48382548
_cell_length_b   6.48382498
_cell_length_c   7.49031301
_cell_angle_alpha   81.79519843
_cell_angle_beta   81.79519657
_cell_angle_gamma   120.21975680
_symmetry_Int_Tables_number   1
_chemical_formula_structural   Na2Zr(CrSe3)2
_chemical_formula_sum   'Na2 Zr1 Cr2 Se6'
_cell_volume   260.70296672
_cell_formula_units_Z   1
loop_
 _symmetry_equiv_pos_site_id
 _symmetry_equiv_pos_as_xyz
  1  'x, y, z'
loop_
 _atom_site_type_symbol
 _atom_site_label
 _atom_site_symmetry_multiplicity
 _atom_site_fract_x
 _atom_site_fract_y
 _atom_site_fract_z
 _atom_site_occupancy
  Na  Na0  1  0.164804  0.835196  0.500000  1
  Na  Na1  1  0.835196  0.164804  0.500000  1
  Zr  Zr2  1  0.000000  0.000000  0.000000  1
  Cr  Cr3  1  0.332351  0.667649  0.000000  1
  Cr  Cr4  1  0.667649  0.332351  0.000000  1
  Se  Se5  1  0.932312  0.582333  0.204845  1
  Se  Se6  1  0.282297  0.282297  0.206181  1
  Se  Se7  1  0.582333  0.932312  0.204845  1
  Se  Se8  1  0.717703  0.717703  0.793819  1
  Se  Se9  1  0.067688  0.417667  0.795155  1
  Se  Se10  1  0.417667  0.067688  0.795155  1
