# generated using pymatgen
data_CeSm2Y5(Si3Rh)4
_symmetry_space_group_name_H-M   'P 1'
_cell_length_a   8.19113968
_cell_length_b   8.19128512
_cell_length_c   8.03514200
_cell_angle_alpha   90.00000000
_cell_angle_beta   90.00000000
_cell_angle_gamma   119.95281862
_symmetry_Int_Tables_number   1
_chemical_formula_structural   CeSm2Y5(Si3Rh)4
_chemical_formula_sum   'Ce1 Sm2 Y5 Si12 Rh4'
_cell_volume   467.11825881
_cell_formula_units_Z   1
loop_
 _symmetry_equiv_pos_site_id
 _symmetry_equiv_pos_as_xyz
  1  'x, y, z'
loop_
 _atom_site_type_symbol
 _atom_site_label
 _atom_site_symmetry_multiplicity
 _atom_site_fract_x
 _atom_site_fract_y
 _atom_site_fract_z
 _atom_site_occupancy
  Ce  Ce0  1  0.999979  0.000076  0.250000  1
  Sm  Sm1  1  0.000009  0.000006  0.750000  1
  Sm  Sm2  1  0.508191  0.491795  0.250000  1
  Y  Y3  1  0.508029  0.015436  0.250000  1
  Y  Y4  1  0.984560  0.491959  0.250000  1
  Y  Y5  1  0.491392  0.508618  0.750000  1
  Y  Y6  1  0.491425  0.983042  0.750000  1
  Y  Y7  1  0.016957  0.508580  0.750000  1
  Si  Si8  1  0.167136  0.832863  0.499940  1
  Si  Si9  1  0.166615  0.334131  0.500391  1
  Si  Si10  1  0.665905  0.833402  0.500355  1
  Si  Si11  1  0.832228  0.167762  0.498466  1
  Si  Si12  1  0.833168  0.665016  0.499904  1
  Si  Si13  1  0.334962  0.166820  0.499875  1
  Si  Si14  1  0.832228  0.167762  0.001534  1
  Si  Si15  1  0.833168  0.665016  0.000096  1
  Si  Si16  1  0.334962  0.166820  0.000125  1
  Si  Si17  1  0.167136  0.832863  0.000060  1
  Si  Si18  1  0.166615  0.334131  0.999609  1
  Si  Si19  1  0.665905  0.833402  0.999645  1
  Rh  Rh20  1  0.332899  0.667081  0.471992  1
  Rh  Rh21  1  0.666816  0.333167  0.534594  1
  Rh  Rh22  1  0.666816  0.333167  0.965406  1
  Rh  Rh23  1  0.332899  0.667081  0.028008  1
