# generated using pymatgen
data_Er6Zr2GaPd24
_symmetry_space_group_name_H-M   'P 1'
_cell_length_a   8.27862900
_cell_length_b   8.28611642
_cell_length_c   8.28611642
_cell_angle_alpha   90.51109278
_cell_angle_beta   90.00000000
_cell_angle_gamma   90.00000000
_symmetry_Int_Tables_number   1
_chemical_formula_structural   Er6Zr2GaPd24
_chemical_formula_sum   'Er6 Zr2 Ga1 Pd24'
_cell_volume   568.38577851
_cell_formula_units_Z   1
loop_
 _symmetry_equiv_pos_site_id
 _symmetry_equiv_pos_as_xyz
  1  'x, y, z'
loop_
 _atom_site_type_symbol
 _atom_site_label
 _atom_site_symmetry_multiplicity
 _atom_site_fract_x
 _atom_site_fract_y
 _atom_site_fract_z
 _atom_site_occupancy
  Er  Er0  1  0.748417  0.251518  0.251518  1
  Er  Er1  1  0.748417  0.748482  0.748482  1
  Er  Er2  1  0.748048  0.746592  0.253408  1
  Er  Er3  1  0.748048  0.253408  0.746592  1
  Er  Er4  1  0.252800  0.748641  0.748641  1
  Er  Er5  1  0.252800  0.251359  0.251359  1
  Zr  Zr6  1  0.254851  0.255152  0.744848  1
  Zr  Zr7  1  0.254851  0.744848  0.255152  1
  Ga  Ga8  1  0.993238  0.000000  0.000000  1
  Pd  Pd9  1  0.496556  0.498156  0.747630  1
  Pd  Pd10  1  0.496556  0.252370  0.501844  1
  Pd  Pd11  1  0.253593  0.500000  0.500000  1
  Pd  Pd12  1  0.496556  0.501844  0.252370  1
  Pd  Pd13  1  0.496556  0.747630  0.498156  1
  Pd  Pd14  1  0.748762  0.500000  0.500000  1
  Pd  Pd15  1  0.004075  0.004727  0.710550  1
  Pd  Pd16  1  0.004075  0.289450  0.995273  1
  Pd  Pd17  1  0.284564  0.000000  0.000000  1
  Pd  Pd18  1  0.004075  0.995273  0.289450  1
  Pd  Pd19  1  0.004075  0.710550  0.004727  1
  Pd  Pd20  1  0.703939  0.000000  0.000000  1
  Pd  Pd21  1  0.005550  0.498987  0.740141  1
  Pd  Pd22  1  0.495360  0.259802  0.994896  1
  Pd  Pd23  1  0.260178  0.000000  0.500000  1
  Pd  Pd24  1  0.005550  0.259859  0.501013  1
  Pd  Pd25  1  0.495360  0.005104  0.740198  1
  Pd  Pd26  1  0.260178  0.500000  0.000000  1
  Pd  Pd27  1  0.005550  0.501013  0.259859  1
  Pd  Pd28  1  0.495360  0.740198  0.005104  1
  Pd  Pd29  1  0.005550  0.740141  0.498987  1
  Pd  Pd30  1  0.495360  0.994896  0.259802  1
  Pd  Pd31  1  0.740577  0.000000  0.500000  1
  Pd  Pd32  1  0.740577  0.500000  0.000000  1
