# generated using pymatgen
data_Ru2PbF12
_symmetry_space_group_name_H-M   'P 1'
_cell_length_a   7.46692240
_cell_length_b   7.46692130
_cell_length_c   10.44646200
_cell_angle_alpha   68.18783776
_cell_angle_beta   68.18784113
_cell_angle_gamma   75.36148086
_symmetry_Int_Tables_number   1
_chemical_formula_structural   Ru2PbF12
_chemical_formula_sum   'Ru4 Pb2 F24'
_cell_volume   497.56781485
_cell_formula_units_Z   2
loop_
 _symmetry_equiv_pos_site_id
 _symmetry_equiv_pos_as_xyz
  1  'x, y, z'
loop_
 _atom_site_type_symbol
 _atom_site_label
 _atom_site_symmetry_multiplicity
 _atom_site_fract_x
 _atom_site_fract_y
 _atom_site_fract_z
 _atom_site_occupancy
  Ru  Ru0  1  0.246580  0.263221  0.367788  1
  Ru  Ru1  1  0.263221  0.246580  0.867788  1
  Ru  Ru2  1  0.753420  0.736779  0.632212  1
  Ru  Ru3  1  0.736779  0.753420  0.132212  1
  Pb  Pb4  1  0.174825  0.825175  0.750000  1
  Pb  Pb5  1  0.825175  0.174825  0.250000  1
  F  F6  1  0.850662  0.856808  0.225038  1
  F  F7  1  0.149338  0.143192  0.774962  1
  F  F8  1  0.302608  0.999901  0.490243  1
  F  F9  1  0.000447  0.281958  0.503993  1
  F  F10  1  0.281958  0.000447  0.003993  1
  F  F11  1  0.362094  0.355515  0.457522  1
  F  F12  1  0.355515  0.362094  0.957522  1
  F  F13  1  0.856808  0.850662  0.725038  1
  F  F14  1  0.775114  0.501266  0.271554  1
  F  F15  1  0.000099  0.697392  0.009757  1
  F  F16  1  0.697392  0.000099  0.509757  1
  F  F17  1  0.999901  0.302608  0.990243  1
  F  F18  1  0.510340  0.196840  0.744657  1
  F  F19  1  0.637906  0.644485  0.542478  1
  F  F20  1  0.224886  0.498734  0.728446  1
  F  F21  1  0.644485  0.637906  0.042478  1
  F  F22  1  0.501266  0.775114  0.771554  1
  F  F23  1  0.803160  0.489660  0.755343  1
  F  F24  1  0.498734  0.224886  0.228446  1
  F  F25  1  0.489660  0.803160  0.255343  1
  F  F26  1  0.196840  0.510340  0.244657  1
  F  F27  1  0.718042  0.999553  0.996007  1
  F  F28  1  0.143192  0.149338  0.274962  1
  F  F29  1  0.999553  0.718042  0.496007  1
