# generated using pymatgen
data_Nd6DyScAu10
_symmetry_space_group_name_H-M   'P 1'
_cell_length_a   8.17391307
_cell_length_b   8.17391292
_cell_length_c   8.17391345
_cell_angle_alpha   65.80102528
_cell_angle_beta   65.80102555
_cell_angle_gamma   65.80100145
_symmetry_Int_Tables_number   1
_chemical_formula_structural   Nd6DyScAu10
_chemical_formula_sum   'Nd6 Dy1 Sc1 Au10'
_cell_volume   434.73449451
_cell_formula_units_Z   1
loop_
 _symmetry_equiv_pos_site_id
 _symmetry_equiv_pos_as_xyz
  1  'x, y, z'
loop_
 _atom_site_type_symbol
 _atom_site_label
 _atom_site_symmetry_multiplicity
 _atom_site_fract_x
 _atom_site_fract_y
 _atom_site_fract_z
 _atom_site_occupancy
  Nd  Nd0  1  0.894200  0.183730  0.620802  1
  Nd  Nd1  1  0.620802  0.894200  0.183730  1
  Nd  Nd2  1  0.183730  0.620802  0.894200  1
  Nd  Nd3  1  0.110062  0.812384  0.378152  1
  Nd  Nd4  1  0.378152  0.110062  0.812384  1
  Nd  Nd5  1  0.812384  0.378152  0.110062  1
  Dy  Dy6  1  0.656811  0.656811  0.656811  1
  Sc  Sc7  1  0.342949  0.342949  0.342949  1
  Au  Au8  1  0.000386  0.000386  0.000386  1
  Au  Au9  1  0.497194  0.497194  0.497194  1
  Au  Au10  1  0.804928  0.804928  0.804928  1
  Au  Au11  1  0.198260  0.198260  0.198260  1
  Au  Au12  1  0.944534  0.546025  0.319257  1
  Au  Au13  1  0.319257  0.944534  0.546025  1
  Au  Au14  1  0.546025  0.319257  0.944534  1
  Au  Au15  1  0.064910  0.450370  0.675045  1
  Au  Au16  1  0.675045  0.064910  0.450370  1
  Au  Au17  1  0.450370  0.675045  0.064910  1
