# generated using pymatgen
data_Rb4Ge2SbAu6
_symmetry_space_group_name_H-M   'P 1'
_cell_length_a   10.37884294
_cell_length_b   10.37884329
_cell_length_c   10.37884305
_cell_angle_alpha   38.17688148
_cell_angle_beta   38.17687798
_cell_angle_gamma   38.17688053
_symmetry_Int_Tables_number   1
_chemical_formula_structural   Rb4Ge2SbAu6
_chemical_formula_sum   'Rb4 Ge2 Sb1 Au6'
_cell_volume   383.52893430
_cell_formula_units_Z   1
loop_
 _symmetry_equiv_pos_site_id
 _symmetry_equiv_pos_as_xyz
  1  'x, y, z'
loop_
 _atom_site_type_symbol
 _atom_site_label
 _atom_site_symmetry_multiplicity
 _atom_site_fract_x
 _atom_site_fract_y
 _atom_site_fract_z
 _atom_site_occupancy
  Rb  Rb0  1  0.682954  0.682954  0.682954  1
  Rb  Rb1  1  0.317046  0.317046  0.317046  1
  Rb  Rb2  1  0.810498  0.810498  0.810498  1
  Rb  Rb3  1  0.189502  0.189502  0.189502  1
  Ge  Ge4  1  0.545218  0.545218  0.545218  1
  Ge  Ge5  1  0.454782  0.454782  0.454782  1
  Sb  Sb6  1  0.000000  0.000000  0.000000  1
  Au  Au7  1  0.226139  0.226139  0.792030  1
  Au  Au8  1  0.792030  0.226139  0.226139  1
  Au  Au9  1  0.226139  0.792030  0.226139  1
  Au  Au10  1  0.773861  0.207970  0.773861  1
  Au  Au11  1  0.773861  0.773861  0.207970  1
  Au  Au12  1  0.207970  0.773861  0.773861  1
