# generated using pymatgen
data_Dy2Co5Si14Ir
_symmetry_space_group_name_H-M   'P 1'
_cell_length_a   7.71501435
_cell_length_b   7.71044833
_cell_length_c   7.71044823
_cell_angle_alpha   57.46977694
_cell_angle_beta   57.30876551
_cell_angle_gamma   57.30877035
_symmetry_Int_Tables_number   1
_chemical_formula_structural   Dy2Co5Si14Ir
_chemical_formula_sum   'Dy2 Co5 Si14 Ir1'
_cell_volume   304.63537191
_cell_formula_units_Z   1
loop_
 _symmetry_equiv_pos_site_id
 _symmetry_equiv_pos_as_xyz
  1  'x, y, z'
loop_
 _atom_site_type_symbol
 _atom_site_label
 _atom_site_symmetry_multiplicity
 _atom_site_fract_x
 _atom_site_fract_y
 _atom_site_fract_z
 _atom_site_occupancy
  Dy  Dy0  1  0.000528  0.998738  0.001593  1
  Dy  Dy1  1  0.499472  0.498407  0.501262  1
  Co  Co2  1  0.069696  0.429235  0.751544  1
  Co  Co3  1  0.250000  0.930314  0.569686  1
  Co  Co4  1  0.569370  0.250947  0.928524  1
  Co  Co5  1  0.930630  0.571476  0.249053  1
  Co  Co6  1  0.430304  0.748456  0.070765  1
  Si  Si7  1  0.750000  0.738762  0.761238  1
  Si  Si8  1  0.250000  0.250576  0.249424  1
  Si  Si9  1  0.856649  0.074663  0.671009  1
  Si  Si10  1  0.667507  0.850246  0.070182  1
  Si  Si11  1  0.074025  0.667490  0.849204  1
  Si  Si12  1  0.643351  0.828991  0.425337  1
  Si  Si13  1  0.425975  0.650796  0.832510  1
  Si  Si14  1  0.832493  0.429818  0.649754  1
  Si  Si15  1  0.165437  0.571581  0.351469  1
  Si  Si16  1  0.565757  0.358901  0.157574  1
  Si  Si17  1  0.339811  0.167193  0.577297  1
  Si  Si18  1  0.934243  0.342426  0.141099  1
  Si  Si19  1  0.334563  0.148531  0.928419  1
  Si  Si20  1  0.160189  0.922703  0.332807  1
  Ir  Ir21  1  0.750000  0.069751  0.430249  1
