# generated using pymatgen
data_Er5P12Pd3Ru16
_symmetry_space_group_name_H-M   'P 1'
_cell_length_a   12.59554700
_cell_length_b   12.59554753
_cell_length_c   3.96240900
_cell_angle_alpha   90.00000000
_cell_angle_beta   90.00000000
_cell_angle_gamma   120.00000123
_symmetry_Int_Tables_number   1
_chemical_formula_structural   Er5P12Pd3Ru16
_chemical_formula_sum   'Er5 P12 Pd3 Ru16'
_cell_volume   544.40738967
_cell_formula_units_Z   1
loop_
 _symmetry_equiv_pos_site_id
 _symmetry_equiv_pos_as_xyz
  1  'x, y, z'
loop_
 _atom_site_type_symbol
 _atom_site_label
 _atom_site_symmetry_multiplicity
 _atom_site_fract_x
 _atom_site_fract_y
 _atom_site_fract_z
 _atom_site_occupancy
  Er  Er0  1  0.181190  0.181190  0.500000  1
  Er  Er1  1  0.818810  0.000000  0.500000  1
  Er  Er2  1  0.000000  0.818810  0.500000  1
  Er  Er3  1  0.333333  0.666667  0.000000  1
  Er  Er4  1  0.666667  0.333333  0.000000  1
  P  P5  1  0.815338  0.815338  0.000000  1
  P  P6  1  0.184662  0.000000  0.000000  1
  P  P7  1  0.000000  0.184662  0.000000  1
  P  P8  1  0.178627  0.480277  0.500000  1
  P  P9  1  0.519723  0.698349  0.500000  1
  P  P10  1  0.301651  0.821373  0.500000  1
  P  P11  1  0.698349  0.519723  0.500000  1
  P  P12  1  0.821373  0.301651  0.500000  1
  P  P13  1  0.480277  0.178627  0.500000  1
  P  P14  1  0.366292  0.366292  0.000000  1
  P  P15  1  0.633708  0.000000  0.000000  1
  P  P16  1  0.000000  0.633708  0.000000  1
  Pd  Pd17  1  0.553792  0.553792  0.000000  1
  Pd  Pd18  1  0.446208  0.000000  0.000000  1
  Pd  Pd19  1  0.000000  0.446208  0.000000  1
  Ru  Ru20  1  0.713981  0.713981  0.500000  1
  Ru  Ru21  1  0.286019  0.000000  0.500000  1
  Ru  Ru22  1  0.000000  0.286019  0.500000  1
  Ru  Ru23  1  0.185684  0.378046  0.000000  1
  Ru  Ru24  1  0.621954  0.807638  0.000000  1
  Ru  Ru25  1  0.192362  0.814316  0.000000  1
  Ru  Ru26  1  0.807638  0.621954  0.000000  1
  Ru  Ru27  1  0.814316  0.192362  0.000000  1
  Ru  Ru28  1  0.378046  0.185684  0.000000  1
  Ru  Ru29  1  0.368311  0.492885  0.500000  1
  Ru  Ru30  1  0.507115  0.875427  0.500000  1
  Ru  Ru31  1  0.124573  0.631689  0.500000  1
  Ru  Ru32  1  0.875427  0.507115  0.500000  1
  Ru  Ru33  1  0.631689  0.124573  0.500000  1
  Ru  Ru34  1  0.492885  0.368311  0.500000  1
  Ru  Ru35  1  0.000000  0.000000  0.000000  1
