# generated using pymatgen
data_HoEr3Co4(SnH)4
_symmetry_space_group_name_H-M   'P 1'
_cell_length_a   4.24169500
_cell_length_b   7.05880518
_cell_length_c   8.13234110
_cell_angle_alpha   90.15154443
_cell_angle_beta   90.00000000
_cell_angle_gamma   90.00000000
_symmetry_Int_Tables_number   1
_chemical_formula_structural   HoEr3Co4(SnH)4
_chemical_formula_sum   'Ho1 Er3 Co4 Sn4 H4'
_cell_volume   243.49200189
_cell_formula_units_Z   1
loop_
 _symmetry_equiv_pos_site_id
 _symmetry_equiv_pos_as_xyz
  1  'x, y, z'
loop_
 _atom_site_type_symbol
 _atom_site_label
 _atom_site_symmetry_multiplicity
 _atom_site_fract_x
 _atom_site_fract_y
 _atom_site_fract_z
 _atom_site_occupancy
  Ho  Ho0  1  0.750000  0.013684  0.685917  1
  Er  Er1  1  0.250000  0.986612  0.314750  1
  Er  Er2  1  0.250000  0.486057  0.185068  1
  Er  Er3  1  0.750000  0.513651  0.814767  1
  Co  Co4  1  0.750000  0.772389  0.103591  1
  Co  Co5  1  0.250000  0.227900  0.896828  1
  Co  Co6  1  0.250000  0.727132  0.603440  1
  Co  Co7  1  0.750000  0.272520  0.396138  1
  Sn  Sn8  1  0.750000  0.654750  0.425660  1
  Sn  Sn9  1  0.250000  0.345457  0.574001  1
  Sn  Sn10  1  0.250000  0.844866  0.926358  1
  Sn  Sn11  1  0.750000  0.154991  0.074427  1
  H  H12  1  0.250000  0.450035  0.919225  1
  H  H13  1  0.750000  0.550224  0.080713  1
  H  H14  1  0.750000  0.050458  0.418587  1
  H  H15  1  0.250000  0.949272  0.580530  1
