# generated using pymatgen
data_Mn3Cu2NiS8
_symmetry_space_group_name_H-M   'P 1'
_cell_length_a   6.90988584
_cell_length_b   6.90988572
_cell_length_c   6.90988533
_cell_angle_alpha   58.83680112
_cell_angle_beta   58.83679731
_cell_angle_gamma   58.83679277
_symmetry_Int_Tables_number   1
_chemical_formula_structural   Mn3Cu2NiS8
_chemical_formula_sum   'Mn3 Cu2 Ni1 S8'
_cell_volume   227.09496702
_cell_formula_units_Z   1
loop_
 _symmetry_equiv_pos_site_id
 _symmetry_equiv_pos_as_xyz
  1  'x, y, z'
loop_
 _atom_site_type_symbol
 _atom_site_label
 _atom_site_symmetry_multiplicity
 _atom_site_fract_x
 _atom_site_fract_y
 _atom_site_fract_z
 _atom_site_occupancy
  Mn  Mn0  1  0.000000  0.500000  0.500000  1
  Mn  Mn1  1  0.500000  0.500000  0.000000  1
  Mn  Mn2  1  0.500000  0.000000  0.500000  1
  Cu  Cu3  1  0.124879  0.124879  0.124879  1
  Cu  Cu4  1  0.875121  0.875121  0.875121  1
  Ni  Ni5  1  0.500000  0.500000  0.500000  1
  S  S6  1  0.258264  0.258264  0.258264  1
  S  S7  1  0.718352  0.260921  0.260921  1
  S  S8  1  0.260921  0.260921  0.718352  1
  S  S9  1  0.260921  0.718352  0.260921  1
  S  S10  1  0.741736  0.741736  0.741736  1
  S  S11  1  0.281648  0.739079  0.739079  1
  S  S12  1  0.739079  0.739079  0.281648  1
  S  S13  1  0.739079  0.281648  0.739079  1
