# generated using pymatgen
data_CeCu3RhAu
_symmetry_space_group_name_H-M   'P 1'
_cell_length_a   5.02759293
_cell_length_b   5.02759332
_cell_length_c   5.25752533
_cell_angle_alpha   61.43646950
_cell_angle_beta   61.43646383
_cell_angle_gamma   60.00000452
_symmetry_Int_Tables_number   1
_chemical_formula_structural   CeCu3RhAu
_chemical_formula_sum   'Ce1 Cu3 Rh1 Au1'
_cell_volume   95.95829370
_cell_formula_units_Z   1
loop_
 _symmetry_equiv_pos_site_id
 _symmetry_equiv_pos_as_xyz
  1  'x, y, z'
loop_
 _atom_site_type_symbol
 _atom_site_label
 _atom_site_symmetry_multiplicity
 _atom_site_fract_x
 _atom_site_fract_y
 _atom_site_fract_z
 _atom_site_occupancy
  Ce  Ce0  1  0.997758  0.997758  0.006728  1
  Cu  Cu1  1  0.627327  0.130953  0.614393  1
  Cu  Cu2  1  0.130953  0.627327  0.614393  1
  Cu  Cu3  1  0.627327  0.627327  0.614393  1
  Rh  Rh4  1  0.629091  0.629091  0.112725  1
  Au  Au5  1  0.237545  0.237545  0.287367  1
