# generated using pymatgen
data_Hf18Ti3Fe2Pt5
_symmetry_space_group_name_H-M   'P 1'
_cell_length_a   8.61836100
_cell_length_b   8.52910253
_cell_length_c   8.56403244
_cell_angle_alpha   119.86392602
_cell_angle_beta   90.00000000
_cell_angle_gamma   90.00000000
_symmetry_Int_Tables_number   1
_chemical_formula_structural   Hf18Ti3Fe2Pt5
_chemical_formula_sum   'Hf18 Ti3 Fe2 Pt5'
_cell_volume   545.92227259
_cell_formula_units_Z   1
loop_
 _symmetry_equiv_pos_site_id
 _symmetry_equiv_pos_as_xyz
  1  'x, y, z'
loop_
 _atom_site_type_symbol
 _atom_site_label
 _atom_site_symmetry_multiplicity
 _atom_site_fract_x
 _atom_site_fract_y
 _atom_site_fract_z
 _atom_site_occupancy
  Hf  Hf0  1  0.563174  0.796418  0.592850  1
  Hf  Hf1  1  0.559797  0.799695  0.208113  1
  Hf  Hf2  1  0.559793  0.408389  0.208111  1
  Hf  Hf3  1  0.446610  0.199774  0.399551  1
  Hf  Hf4  1  0.439520  0.204556  0.795410  1
  Hf  Hf5  1  0.439517  0.590895  0.795414  1
  Hf  Hf6  1  0.053390  0.199774  0.399551  1
  Hf  Hf7  1  0.060480  0.204556  0.795410  1
  Hf  Hf8  1  0.060483  0.590895  0.795414  1
  Hf  Hf9  1  0.936826  0.796418  0.592850  1
  Hf  Hf10  1  0.940203  0.799695  0.208113  1
  Hf  Hf11  1  0.940207  0.408389  0.208111  1
  Hf  Hf12  1  0.750000  0.461815  0.923658  1
  Hf  Hf13  1  0.750000  0.454282  0.539294  1
  Hf  Hf14  1  0.750000  0.084966  0.539284  1
  Hf  Hf15  1  0.250000  0.540470  0.080915  1
  Hf  Hf16  1  0.250000  0.540327  0.461823  1
  Hf  Hf17  1  0.250000  0.921513  0.461824  1
  Ti  Ti18  1  0.750000  0.113822  0.227685  1
  Ti  Ti19  1  0.496809  0.997398  0.994784  1
  Ti  Ti20  1  0.003191  0.997398  0.994784  1
  Fe  Fe21  1  0.750000  0.666162  0.332370  1
  Fe  Fe22  1  0.250000  0.335352  0.670643  1
  Pt  Pt23  1  0.750000  0.116166  0.889552  1
  Pt  Pt24  1  0.750000  0.773372  0.889559  1
  Pt  Pt25  1  0.250000  0.883276  0.766499  1
  Pt  Pt26  1  0.250000  0.882147  0.114217  1
  Pt  Pt27  1  0.250000  0.232081  0.114206  1
