# generated using pymatgen
data_Ca18YbTl4In4N7
_symmetry_space_group_name_H-M   'P 1'
_cell_length_a   10.43782082
_cell_length_b   10.44509232
_cell_length_c   10.43784426
_cell_angle_alpha   60.08372086
_cell_angle_beta   60.06184752
_cell_angle_gamma   60.08361135
_symmetry_Int_Tables_number   1
_chemical_formula_structural   Ca18YbTl4In4N7
_chemical_formula_sum   'Ca18 Yb1 Tl4 In4 N7'
_cell_volume   806.06319005
_cell_formula_units_Z   1
loop_
 _symmetry_equiv_pos_site_id
 _symmetry_equiv_pos_as_xyz
  1  'x, y, z'
loop_
 _atom_site_type_symbol
 _atom_site_label
 _atom_site_symmetry_multiplicity
 _atom_site_fract_x
 _atom_site_fract_y
 _atom_site_fract_z
 _atom_site_occupancy
  Ca  Ca0  1  0.173299  0.499968  0.826722  1
  Ca  Ca1  1  0.499815  0.826919  0.173071  1
  Ca  Ca2  1  0.826914  0.173209  0.499733  1
  Ca  Ca3  1  0.166724  0.833961  0.166725  1
  Ca  Ca4  1  0.826722  0.499974  0.173297  1
  Ca  Ca5  1  0.173068  0.826924  0.499810  1
  Ca  Ca6  1  0.167395  0.166145  0.833896  1
  Ca  Ca7  1  0.173617  0.500068  0.499696  1
  Ca  Ca8  1  0.833201  0.833264  0.166698  1
  Ca  Ca9  1  0.833187  0.166118  0.833188  1
  Ca  Ca10  1  0.500056  0.826578  0.500050  1
  Ca  Ca11  1  0.499692  0.500071  0.173614  1
  Ca  Ca12  1  0.166694  0.833268  0.833204  1
  Ca  Ca13  1  0.499730  0.173214  0.826911  1
  Ca  Ca14  1  0.499828  0.173527  0.499837  1
  Ca  Ca15  1  0.826374  0.500229  0.499842  1
  Ca  Ca16  1  0.833899  0.166140  0.167393  1
  Ca  Ca17  1  0.499844  0.500226  0.826378  1
  Yb  Yb18  1  0.499971  0.500029  0.499973  1
  Tl  Tl19  1  0.171913  0.171967  0.482602  1
  Tl  Tl20  1  0.826877  0.519313  0.826877  1
  Tl  Tl21  1  0.482607  0.171966  0.171911  1
  Tl  Tl22  1  0.171970  0.482518  0.171970  1
  In  In23  1  0.522995  0.826569  0.825191  1
  In  In24  1  0.173792  0.173876  0.173793  1
  In  In25  1  0.825292  0.826691  0.825293  1
  In  In26  1  0.825190  0.826571  0.522993  1
  N  N27  1  0.673297  0.327042  0.673296  1
  N  N28  1  0.672978  0.327008  0.326524  1
  N  N29  1  0.326856  0.673163  0.673306  1
  N  N30  1  0.326820  0.672854  0.326820  1
  N  N31  1  0.326523  0.327008  0.672979  1
  N  N32  1  0.673307  0.673162  0.326855  1
  N  N33  1  0.999551  0.000461  0.999551  1
