# generated using pymatgen
data_Pr2Y3(Sn5Rh2)2
_symmetry_space_group_name_H-M   'P 1'
_cell_length_a   14.16350500
_cell_length_b   14.16350500
_cell_length_c   4.57677300
_cell_angle_alpha   90.00000000
_cell_angle_beta   90.00000000
_cell_angle_gamma   90.00000000
_symmetry_Int_Tables_number   1
_chemical_formula_structural   Pr2Y3(Sn5Rh2)2
_chemical_formula_sum   'Pr4 Y6 Sn20 Rh8'
_cell_volume   918.12297047
_cell_formula_units_Z   2
loop_
 _symmetry_equiv_pos_site_id
 _symmetry_equiv_pos_as_xyz
  1  'x, y, z'
loop_
 _atom_site_type_symbol
 _atom_site_label
 _atom_site_symmetry_multiplicity
 _atom_site_fract_x
 _atom_site_fract_y
 _atom_site_fract_z
 _atom_site_occupancy
  Pr  Pr0  1  0.888020  0.388020  0.500000  1
  Pr  Pr1  1  0.111980  0.611980  0.500000  1
  Pr  Pr2  1  0.388020  0.111980  0.500000  1
  Pr  Pr3  1  0.611980  0.888020  0.500000  1
  Y  Y4  1  0.500000  0.500000  0.000000  1
  Y  Y5  1  0.000000  0.000000  0.000000  1
  Y  Y6  1  0.677406  0.177406  0.500000  1
  Y  Y7  1  0.322594  0.822594  0.500000  1
  Y  Y8  1  0.177406  0.322594  0.500000  1
  Y  Y9  1  0.822594  0.677406  0.500000  1
  Sn  Sn10  1  0.570347  0.070347  0.000000  1
  Sn  Sn11  1  0.429653  0.929653  0.000000  1
  Sn  Sn12  1  0.070347  0.429653  0.000000  1
  Sn  Sn13  1  0.929653  0.570347  0.000000  1
  Sn  Sn14  1  0.654483  0.697892  0.000000  1
  Sn  Sn15  1  0.345517  0.302108  0.000000  1
  Sn  Sn16  1  0.154483  0.802108  0.000000  1
  Sn  Sn17  1  0.845517  0.197892  0.000000  1
  Sn  Sn18  1  0.302108  0.654483  0.000000  1
  Sn  Sn19  1  0.697892  0.345517  0.000000  1
  Sn  Sn20  1  0.197892  0.154483  0.000000  1
  Sn  Sn21  1  0.802108  0.845517  0.000000  1
  Sn  Sn22  1  0.662011  0.505374  0.500000  1
  Sn  Sn23  1  0.337989  0.494626  0.500000  1
  Sn  Sn24  1  0.162011  0.994626  0.500000  1
  Sn  Sn25  1  0.837989  0.005374  0.500000  1
  Sn  Sn26  1  0.494626  0.662011  0.500000  1
  Sn  Sn27  1  0.505374  0.337989  0.500000  1
  Sn  Sn28  1  0.005374  0.162011  0.500000  1
  Sn  Sn29  1  0.994626  0.837989  0.500000  1
  Rh  Rh30  1  0.746185  0.529002  0.000000  1
  Rh  Rh31  1  0.253815  0.470998  0.000000  1
  Rh  Rh32  1  0.246185  0.970998  0.000000  1
  Rh  Rh33  1  0.753815  0.029002  0.000000  1
  Rh  Rh34  1  0.470998  0.746185  0.000000  1
  Rh  Rh35  1  0.529002  0.253815  0.000000  1
  Rh  Rh36  1  0.029002  0.246185  0.000000  1
  Rh  Rh37  1  0.970998  0.753815  0.000000  1
