# generated using pymatgen
data_Y8Nb11Si16Ag
_symmetry_space_group_name_H-M   'P 1'
_cell_length_a   6.86987511
_cell_length_b   7.09587230
_cell_length_c   13.47179400
_cell_angle_alpha   90.00000000
_cell_angle_beta   90.00000000
_cell_angle_gamma   90.43439727
_symmetry_Int_Tables_number   1
_chemical_formula_structural   Y8Nb11Si16Ag
_chemical_formula_sum   'Y8 Nb11 Si16 Ag1'
_cell_volume   656.70085893
_cell_formula_units_Z   1
loop_
 _symmetry_equiv_pos_site_id
 _symmetry_equiv_pos_as_xyz
  1  'x, y, z'
loop_
 _atom_site_type_symbol
 _atom_site_label
 _atom_site_symmetry_multiplicity
 _atom_site_fract_x
 _atom_site_fract_y
 _atom_site_fract_z
 _atom_site_occupancy
  Y  Y0  1  0.502980  0.671353  0.594072  1
  Y  Y1  1  0.004036  0.828203  0.905154  1
  Y  Y2  1  0.494937  0.328923  0.096315  1
  Y  Y3  1  0.998617  0.169703  0.401537  1
  Y  Y4  1  0.494937  0.328923  0.403685  1
  Y  Y5  1  0.998617  0.169703  0.098463  1
  Y  Y6  1  0.502980  0.671353  0.905928  1
  Y  Y7  1  0.004036  0.828203  0.594846  1
  Nb  Nb8  1  0.666774  0.175338  0.626037  1
  Nb  Nb9  1  0.156825  0.323672  0.873890  1
  Nb  Nb10  1  0.338163  0.826251  0.126081  1
  Nb  Nb11  1  0.837080  0.674502  0.374657  1
  Nb  Nb12  1  0.338163  0.826251  0.373919  1
  Nb  Nb13  1  0.837080  0.674502  0.125343  1
  Nb  Nb14  1  0.666774  0.175338  0.873963  1
  Nb  Nb15  1  0.156825  0.323672  0.626110  1
  Nb  Nb16  1  0.337244  0.003765  0.750000  1
  Nb  Nb17  1  0.162149  0.509567  0.250000  1
  Nb  Nb18  1  0.662664  0.991869  0.250000  1
  Si  Si19  1  0.663484  0.962828  0.459192  1
  Si  Si20  1  0.162534  0.538179  0.040763  1
  Si  Si21  1  0.339314  0.037985  0.958403  1
  Si  Si22  1  0.837521  0.456128  0.532126  1
  Si  Si23  1  0.339314  0.037985  0.541597  1
  Si  Si24  1  0.837521  0.456128  0.967874  1
  Si  Si25  1  0.663484  0.962828  0.040808  1
  Si  Si26  1  0.162534  0.538179  0.459237  1
  Si  Si27  1  0.454872  0.368935  0.750000  1
  Si  Si28  1  0.961387  0.118523  0.750000  1
  Si  Si29  1  0.540345  0.623031  0.250000  1
  Si  Si30  1  0.041559  0.876333  0.250000  1
  Si  Si31  1  0.700812  0.884543  0.750000  1
  Si  Si32  1  0.214391  0.621855  0.750000  1
  Si  Si33  1  0.297569  0.126110  0.250000  1
  Si  Si34  1  0.794120  0.373883  0.250000  1
  Ag  Ag35  1  0.828352  0.515462  0.750000  1
