# generated using pymatgen
data_La2CePr13(CdIr)4
_symmetry_space_group_name_H-M   'P 1'
_cell_length_a   10.04950363
_cell_length_b   10.05996681
_cell_length_c   10.05996652
_cell_angle_alpha   59.40287742
_cell_angle_beta   59.40243212
_cell_angle_gamma   59.40243589
_symmetry_Int_Tables_number   1
_chemical_formula_structural   La2CePr13(CdIr)4
_chemical_formula_sum   'La2 Ce1 Pr13 Cd4 Ir4'
_cell_volume   709.37847763
_cell_formula_units_Z   1
loop_
 _symmetry_equiv_pos_site_id
 _symmetry_equiv_pos_as_xyz
  1  'x, y, z'
loop_
 _atom_site_type_symbol
 _atom_site_label
 _atom_site_symmetry_multiplicity
 _atom_site_fract_x
 _atom_site_fract_y
 _atom_site_fract_z
 _atom_site_occupancy
  La  La0  1  0.347446  0.348232  0.956401  1
  La  La1  1  0.347446  0.956401  0.348232  1
  Ce  Ce2  1  0.342618  0.343420  0.343420  1
  Pr  Pr3  1  0.951366  0.349730  0.349730  1
  Pr  Pr4  1  0.810018  0.190076  0.190076  1
  Pr  Pr5  1  0.189304  0.809143  0.809143  1
  Pr  Pr6  1  0.190230  0.809527  0.190017  1
  Pr  Pr7  1  0.809625  0.189377  0.808674  1
  Pr  Pr8  1  0.190230  0.190017  0.809527  1
  Pr  Pr9  1  0.809625  0.808674  0.189377  1
  Pr  Pr10  1  0.943310  0.560710  0.560710  1
  Pr  Pr11  1  0.559547  0.938310  0.938310  1
  Pr  Pr12  1  0.561219  0.942659  0.561062  1
  Pr  Pr13  1  0.938423  0.559636  0.938359  1
  Pr  Pr14  1  0.561219  0.561062  0.942659  1
  Pr  Pr15  1  0.938423  0.938359  0.559636  1
  Cd  Cd16  1  0.580796  0.579659  0.579659  1
  Cd  Cd17  1  0.578894  0.577897  0.260397  1
  Cd  Cd18  1  0.578894  0.260397  0.577897  1
  Cd  Cd19  1  0.260333  0.578238  0.578238  1
  Ir  Ir20  1  0.143249  0.142015  0.142015  1
  Ir  Ir21  1  0.148829  0.147877  0.570293  1
  Ir  Ir22  1  0.148829  0.570293  0.147877  1
  Ir  Ir23  1  0.570130  0.148289  0.148289  1
