# generated using pymatgen
data_Tm8Zr12Si15Sb
_symmetry_space_group_name_H-M   'P 1'
_cell_length_a   7.14988949
_cell_length_b   7.27274116
_cell_length_c   13.96231216
_cell_angle_alpha   90.20116580
_cell_angle_beta   89.34822283
_cell_angle_gamma   90.05510454
_symmetry_Int_Tables_number   1
_chemical_formula_structural   Tm8Zr12Si15Sb
_chemical_formula_sum   'Tm8 Zr12 Si15 Sb1'
_cell_volume   725.97863846
_cell_formula_units_Z   1
loop_
 _symmetry_equiv_pos_site_id
 _symmetry_equiv_pos_as_xyz
  1  'x, y, z'
loop_
 _atom_site_type_symbol
 _atom_site_label
 _atom_site_symmetry_multiplicity
 _atom_site_fract_x
 _atom_site_fract_y
 _atom_site_fract_z
 _atom_site_occupancy
  Tm  Tm0  1  0.013615  0.178516  0.096277  1
  Tm  Tm1  1  0.985293  0.822844  0.903938  1
  Tm  Tm2  1  0.485764  0.676986  0.903922  1
  Tm  Tm3  1  0.988114  0.828579  0.599446  1
  Tm  Tm4  1  0.513355  0.322577  0.097175  1
  Tm  Tm5  1  0.004778  0.172216  0.399837  1
  Tm  Tm6  1  0.511565  0.320569  0.400120  1
  Tm  Tm7  1  0.505026  0.684136  0.601709  1
  Zr  Zr8  1  0.159552  0.496155  0.754452  1
  Zr  Zr9  1  0.840168  0.501778  0.249886  1
  Zr  Zr10  1  0.339626  0.000434  0.249126  1
  Zr  Zr11  1  0.661022  0.999296  0.752071  1
  Zr  Zr12  1  0.342011  0.164451  0.629643  1
  Zr  Zr13  1  0.665807  0.823418  0.373035  1
  Zr  Zr14  1  0.160339  0.686654  0.369423  1
  Zr  Zr15  1  0.667829  0.821961  0.123328  1
  Zr  Zr16  1  0.827188  0.321070  0.625443  1
  Zr  Zr17  1  0.329411  0.177669  0.876896  1
  Zr  Zr18  1  0.829804  0.321478  0.876796  1
  Zr  Zr19  1  0.170525  0.677650  0.124113  1
  Si  Si20  1  0.035845  0.115785  0.750832  1
  Si  Si21  1  0.961369  0.887872  0.246234  1
  Si  Si22  1  0.463256  0.615214  0.248686  1
  Si  Si23  1  0.536240  0.383964  0.752027  1
  Si  Si24  1  0.286487  0.867289  0.752236  1
  Si  Si25  1  0.712463  0.129727  0.248060  1
  Si  Si26  1  0.212811  0.371709  0.249238  1
  Si  Si27  1  0.789441  0.628001  0.751296  1
  Si  Si28  1  0.823515  0.533802  0.458654  1
  Si  Si29  1  0.339802  0.968221  0.460146  1
  Si  Si30  1  0.844408  0.530113  0.040933  1
  Si  Si31  1  0.662909  0.033152  0.537127  1
  Si  Si32  1  0.154616  0.470286  0.960127  1
  Si  Si33  1  0.653932  0.029870  0.959571  1
  Si  Si34  1  0.344025  0.970097  0.040572  1
  Sb  Sb35  1  0.178087  0.466455  0.537630  1
