# generated using pymatgen
data_Er2Pa(GaRh)3
_symmetry_space_group_name_H-M   'P 1'
_cell_length_a   7.22639151
_cell_length_b   7.22639271
_cell_length_c   3.75909400
_cell_angle_alpha   90.00000000
_cell_angle_beta   90.00000000
_cell_angle_gamma   118.97912408
_symmetry_Int_Tables_number   1
_chemical_formula_structural   Er2Pa(GaRh)3
_chemical_formula_sum   'Er2 Pa1 Ga3 Rh3'
_cell_volume   171.72485748
_cell_formula_units_Z   1
loop_
 _symmetry_equiv_pos_site_id
 _symmetry_equiv_pos_as_xyz
  1  'x, y, z'
loop_
 _atom_site_type_symbol
 _atom_site_label
 _atom_site_symmetry_multiplicity
 _atom_site_fract_x
 _atom_site_fract_y
 _atom_site_fract_z
 _atom_site_occupancy
  Er  Er0  1  0.995348  0.592658  0.000000  1
  Er  Er1  1  0.592658  0.995348  0.000000  1
  Pa  Pa2  1  0.414155  0.414155  0.000000  1
  Ga  Ga3  1  0.761975  0.761975  0.500000  1
  Ga  Ga4  1  0.985895  0.255630  0.500000  1
  Ga  Ga5  1  0.255630  0.985895  0.500000  1
  Rh  Rh6  1  0.017573  0.017573  0.000000  1
  Rh  Rh7  1  0.640735  0.336031  0.500000  1
  Rh  Rh8  1  0.336031  0.640735  0.500000  1
