# generated using pymatgen
data_Ce4Se3S3N
_symmetry_space_group_name_H-M   'P 1'
_cell_length_a   9.02088326
_cell_length_b   9.05008500
_cell_length_c   7.14167200
_cell_angle_alpha   90.00000000
_cell_angle_beta   90.00000000
_cell_angle_gamma   119.92162753
_symmetry_Int_Tables_number   1
_chemical_formula_structural   Ce4Se3S3N
_chemical_formula_sum   'Ce8 Se6 S6 N2'
_cell_volume   505.32954164
_cell_formula_units_Z   2
loop_
 _symmetry_equiv_pos_site_id
 _symmetry_equiv_pos_as_xyz
  1  'x, y, z'
loop_
 _atom_site_type_symbol
 _atom_site_label
 _atom_site_symmetry_multiplicity
 _atom_site_fract_x
 _atom_site_fract_y
 _atom_site_fract_z
 _atom_site_occupancy
  Ce  Ce0  1  0.192268  0.810261  0.237054  1
  Ce  Ce1  1  0.618324  0.809919  0.238081  1
  Ce  Ce2  1  0.191859  0.382283  0.236174  1
  Ce  Ce3  1  0.668348  0.335479  0.316072  1
  Ce  Ce4  1  0.381676  0.190080  0.738081  1
  Ce  Ce5  1  0.807732  0.189738  0.737054  1
  Ce  Ce6  1  0.808142  0.617718  0.736173  1
  Ce  Ce7  1  0.331652  0.664520  0.816072  1
  Se  Se8  1  0.531566  0.468971  0.027842  1
  Se  Se9  1  0.937181  0.468876  0.026924  1
  Se  Se10  1  0.533137  0.066218  0.030089  1
  Se  Se11  1  0.062820  0.531125  0.526923  1
  Se  Se12  1  0.468433  0.531030  0.527841  1
  Se  Se13  1  0.466864  0.933782  0.530090  1
  S  S14  1  0.862726  0.725222  0.363457  1
  S  S15  1  0.277802  0.138997  0.364376  1
  S  S16  1  0.861627  0.139107  0.364206  1
  S  S17  1  0.137274  0.274778  0.863457  1
  S  S18  1  0.138372  0.860893  0.864207  1
  S  S19  1  0.722198  0.861003  0.864377  1
  N  N20  1  0.334000  0.668407  0.142958  1
  N  N21  1  0.666001  0.331594  0.642959  1
