# generated using pymatgen
data_Tb3U(CoB4)4
_symmetry_space_group_name_H-M   'P 1'
_cell_length_a   3.39199500
_cell_length_b   5.91244615
_cell_length_c   11.46547628
_cell_angle_alpha   89.97457311
_cell_angle_beta   90.00000000
_cell_angle_gamma   90.00000000
_symmetry_Int_Tables_number   1
_chemical_formula_structural   Tb3U(CoB4)4
_chemical_formula_sum   'Tb3 U1 Co4 B16'
_cell_volume   229.93996390
_cell_formula_units_Z   1
loop_
 _symmetry_equiv_pos_site_id
 _symmetry_equiv_pos_as_xyz
  1  'x, y, z'
loop_
 _atom_site_type_symbol
 _atom_site_label
 _atom_site_symmetry_multiplicity
 _atom_site_fract_x
 _atom_site_fract_y
 _atom_site_fract_z
 _atom_site_occupancy
  Tb  Tb0  1  0.000000  0.627625  0.350179  1
  Tb  Tb1  1  0.000000  0.372384  0.649317  1
  Tb  Tb2  1  0.000000  0.126887  0.150406  1
  U  U3  1  0.000000  0.873316  0.849549  1
  Co  Co4  1  0.000000  0.634411  0.087218  1
  Co  Co5  1  0.000000  0.364977  0.910001  1
  Co  Co6  1  0.000000  0.133747  0.411558  1
  Co  Co7  1  0.000000  0.865522  0.591530  1
  B  B8  1  0.500000  0.782760  0.184156  1
  B  B9  1  0.500000  0.216803  0.815400  1
  B  B10  1  0.500000  0.281665  0.315568  1
  B  B11  1  0.500000  0.719121  0.686176  1
  B  B12  1  0.500000  0.861480  0.033541  1
  B  B13  1  0.500000  0.136772  0.965733  1
  B  B14  1  0.500000  0.360646  0.467334  1
  B  B15  1  0.500000  0.639969  0.533243  1
  B  B16  1  0.500000  0.888931  0.454470  1
  B  B17  1  0.500000  0.111427  0.545737  1
  B  B18  1  0.500000  0.388894  0.045109  1
  B  B19  1  0.500000  0.613487  0.953338  1
  B  B20  1  0.500000  0.976384  0.310249  1
  B  B21  1  0.500000  0.022955  0.691164  1
  B  B22  1  0.500000  0.476275  0.189472  1
  B  B23  1  0.500000  0.523561  0.809551  1
