# generated using pymatgen
data_RbNd6IrBr12
_symmetry_space_group_name_H-M   'P 1'
_cell_length_a   9.67400621
_cell_length_b   9.54631160
_cell_length_c   9.52769842
_cell_angle_alpha   104.51490487
_cell_angle_beta   104.72704567
_cell_angle_gamma   104.53278354
_symmetry_Int_Tables_number   1
_chemical_formula_structural   RbNd6IrBr12
_chemical_formula_sum   'Rb1 Nd6 Ir1 Br12'
_cell_volume   775.91152101
_cell_formula_units_Z   1
loop_
 _symmetry_equiv_pos_site_id
 _symmetry_equiv_pos_as_xyz
  1  'x, y, z'
loop_
 _atom_site_type_symbol
 _atom_site_label
 _atom_site_symmetry_multiplicity
 _atom_site_fract_x
 _atom_site_fract_y
 _atom_site_fract_z
 _atom_site_occupancy
  Rb  Rb0  1  0.500000  0.500000  0.500000  1
  Nd  Nd1  1  0.099566  0.303860  0.010692  1
  Nd  Nd2  1  0.313525  0.008831  0.105278  1
  Nd  Nd3  1  0.010698  0.100183  0.304403  1
  Nd  Nd4  1  0.989303  0.899817  0.695598  1
  Nd  Nd5  1  0.686475  0.991170  0.894722  1
  Nd  Nd6  1  0.900434  0.696140  0.989308  1
  Ir  Ir7  1  0.000000  0.000000  0.000000  1
  Br  Br8  1  0.214298  0.671564  0.075261  1
  Br  Br9  1  0.422780  0.331577  0.113474  1
  Br  Br10  1  0.675275  0.077856  0.214698  1
  Br  Br11  1  0.925889  0.785240  0.326817  1
  Br  Br12  1  0.115755  0.426295  0.336558  1
  Br  Br13  1  0.333777  0.113016  0.428359  1
  Br  Br14  1  0.666223  0.886984  0.571642  1
  Br  Br15  1  0.884246  0.573705  0.663442  1
  Br  Br16  1  0.074112  0.214760  0.673184  1
  Br  Br17  1  0.324726  0.922145  0.785302  1
  Br  Br18  1  0.577220  0.668423  0.886527  1
  Br  Br19  1  0.785702  0.328436  0.924739  1
