# generated using pymatgen
data_DySc(Co3Si2)2
_symmetry_space_group_name_H-M   'P 1'
_cell_length_a   6.20609752
_cell_length_b   6.20609793
_cell_length_c   6.20621065
_cell_angle_alpha   130.56747971
_cell_angle_beta   112.54161130
_cell_angle_gamma   88.06783441
_symmetry_Int_Tables_number   1
_chemical_formula_structural   DySc(Co3Si2)2
_chemical_formula_sum   'Dy1 Sc1 Co6 Si4'
_cell_volume   159.59462851
_cell_formula_units_Z   1
loop_
 _symmetry_equiv_pos_site_id
 _symmetry_equiv_pos_as_xyz
  1  'x, y, z'
loop_
 _atom_site_type_symbol
 _atom_site_label
 _atom_site_symmetry_multiplicity
 _atom_site_fract_x
 _atom_site_fract_y
 _atom_site_fract_z
 _atom_site_occupancy
  Dy  Dy0  1  0.749911  0.470251  0.720161  1
  Sc  Sc1  1  0.249917  0.543206  0.293123  1
  Co  Co2  1  0.995172  0.997219  0.492391  1
  Co  Co3  1  0.504756  0.997302  0.002058  1
  Co  Co4  1  0.719666  0.994949  0.719681  1
  Co  Co5  1  0.224733  0.500016  0.719681  1
  Co  Co6  1  0.275351  0.995010  0.275425  1
  Co  Co7  1  0.780415  0.500073  0.275425  1
  Si  Si8  1  0.087083  0.884168  0.797135  1
  Si  Si9  1  0.924670  0.128534  0.203892  1
  Si  Si10  1  0.575358  0.779224  0.203892  1
  Si  Si11  1  0.412967  0.210051  0.797135  1
