# generated using pymatgen
data_Ce2Tm10Tc3Ru
_symmetry_space_group_name_H-M   'P 1'
_cell_length_a   7.29941055
_cell_length_b   9.16182000
_cell_length_c   6.27344600
_cell_angle_alpha   90.00000000
_cell_angle_beta   87.89140286
_cell_angle_gamma   90.00000000
_symmetry_Int_Tables_number   1
_chemical_formula_structural   Ce2Tm10Tc3Ru
_chemical_formula_sum   'Ce2 Tm10 Tc3 Ru1'
_cell_volume   419.25817789
_cell_formula_units_Z   1
loop_
 _symmetry_equiv_pos_site_id
 _symmetry_equiv_pos_as_xyz
  1  'x, y, z'
loop_
 _atom_site_type_symbol
 _atom_site_label
 _atom_site_symmetry_multiplicity
 _atom_site_fract_x
 _atom_site_fract_y
 _atom_site_fract_z
 _atom_site_occupancy
  Ce  Ce0  1  0.061057  0.250000  0.640449  1
  Ce  Ce1  1  0.940959  0.750000  0.355337  1
  Tm  Tm2  1  0.462429  0.750000  0.125665  1
  Tm  Tm3  1  0.540507  0.250000  0.872862  1
  Tm  Tm4  1  0.173964  0.062577  0.165175  1
  Tm  Tm5  1  0.825531  0.936806  0.832095  1
  Tm  Tm6  1  0.325506  0.933536  0.664491  1
  Tm  Tm7  1  0.825531  0.563194  0.832095  1
  Tm  Tm8  1  0.675647  0.066125  0.333855  1
  Tm  Tm9  1  0.173964  0.437423  0.165175  1
  Tm  Tm10  1  0.675647  0.433875  0.333855  1
  Tm  Tm11  1  0.325506  0.566464  0.664491  1
  Tc  Tc12  1  0.359358  0.250000  0.478718  1
  Tc  Tc13  1  0.637461  0.750000  0.520909  1
  Tc  Tc14  1  0.111275  0.750000  0.998305  1
  Ru  Ru15  1  0.885659  0.250000  0.016521  1
