# generated using pymatgen
data_NdDy2Ga8Ag3
_symmetry_space_group_name_H-M   'P 1'
_cell_length_a   4.36400070
_cell_length_b   8.42359959
_cell_length_c   8.42359906
_cell_angle_alpha   69.12355121
_cell_angle_beta   74.98723034
_cell_angle_gamma   74.98723496
_symmetry_Int_Tables_number   1
_chemical_formula_structural   NdDy2Ga8Ag3
_chemical_formula_sum   'Nd1 Dy2 Ga8 Ag3'
_cell_volume   274.64213362
_cell_formula_units_Z   1
loop_
 _symmetry_equiv_pos_site_id
 _symmetry_equiv_pos_as_xyz
  1  'x, y, z'
loop_
 _atom_site_type_symbol
 _atom_site_label
 _atom_site_symmetry_multiplicity
 _atom_site_fract_x
 _atom_site_fract_y
 _atom_site_fract_z
 _atom_site_occupancy
  Nd  Nd0  1  0.500000  0.500000  0.500000  1
  Dy  Dy1  1  0.800704  0.199296  0.199296  1
  Dy  Dy2  1  0.199296  0.800704  0.800704  1
  Ga  Ga3  1  0.644778  0.072042  0.638403  1
  Ga  Ga4  1  0.355222  0.927958  0.361597  1
  Ga  Ga5  1  0.644778  0.638403  0.072042  1
  Ga  Ga6  1  0.355222  0.361597  0.927958  1
  Ga  Ga7  1  0.839778  0.792441  0.528004  1
  Ga  Ga8  1  0.160222  0.207559  0.471996  1
  Ga  Ga9  1  0.839778  0.528004  0.792441  1
  Ga  Ga10  1  0.160222  0.471996  0.207559  1
  Ag  Ag11  1  0.500000  0.000000  0.000000  1
  Ag  Ag12  1  0.000000  0.804871  0.195129  1
  Ag  Ag13  1  0.000000  0.195129  0.804871  1
