# generated using pymatgen
data_Sr7La(Tm3Sn4)4
_symmetry_space_group_name_H-M   'P 1'
_cell_length_a   8.21914285
_cell_length_b   8.38000365
_cell_length_c   15.93310000
_cell_angle_alpha   89.80846910
_cell_angle_beta   89.90272639
_cell_angle_gamma   90.11450555
_symmetry_Int_Tables_number   1
_chemical_formula_structural   Sr7La(Tm3Sn4)4
_chemical_formula_sum   'Sr7 La1 Tm12 Sn16'
_cell_volume   1097.40540145
_cell_formula_units_Z   1
loop_
 _symmetry_equiv_pos_site_id
 _symmetry_equiv_pos_as_xyz
  1  'x, y, z'
loop_
 _atom_site_type_symbol
 _atom_site_label
 _atom_site_symmetry_multiplicity
 _atom_site_fract_x
 _atom_site_fract_y
 _atom_site_fract_z
 _atom_site_occupancy
  Sr  Sr0  1  0.001789  0.173350  0.595476  1
  Sr  Sr1  1  0.498927  0.673831  0.406780  1
  Sr  Sr2  1  0.998947  0.824523  0.092610  1
  Sr  Sr3  1  0.499963  0.674336  0.092942  1
  Sr  Sr4  1  0.998993  0.825898  0.406508  1
  Sr  Sr5  1  0.501853  0.326669  0.595086  1
  Sr  Sr6  1  0.002443  0.172500  0.905826  1
  La  La7  1  0.497914  0.323559  0.903317  1
  Tm  Tm8  1  0.331311  0.837559  0.873750  1
  Tm  Tm9  1  0.832208  0.662899  0.626700  1
  Tm  Tm10  1  0.667277  0.163144  0.375244  1
  Tm  Tm11  1  0.167710  0.337821  0.124470  1
  Tm  Tm12  1  0.666914  0.163761  0.124714  1
  Tm  Tm13  1  0.167286  0.336404  0.375514  1
  Tm  Tm14  1  0.331222  0.838855  0.627283  1
  Tm  Tm15  1  0.832725  0.662264  0.874004  1
  Tm  Tm16  1  0.167419  0.498882  0.749658  1
  Tm  Tm17  1  0.669730  0.001770  0.750047  1
  Tm  Tm18  1  0.831377  0.502202  0.250052  1
  Tm  Tm19  1  0.331084  0.997584  0.249962  1
  Sn  Sn20  1  0.337192  0.046373  0.040165  1
  Sn  Sn21  1  0.836623  0.457742  0.457524  1
  Sn  Sn22  1  0.662902  0.957990  0.543595  1
  Sn  Sn23  1  0.168515  0.538282  0.955373  1
  Sn  Sn24  1  0.662549  0.962420  0.955609  1
  Sn  Sn25  1  0.163755  0.541789  0.543665  1
  Sn  Sn26  1  0.336625  0.041666  0.457484  1
  Sn  Sn27  1  0.832729  0.455202  0.040783  1
  Sn  Sn28  1  0.529947  0.630067  0.751798  1
  Sn  Sn29  1  0.029496  0.866666  0.750570  1
  Sn  Sn30  1  0.468325  0.368897  0.250110  1
  Sn  Sn31  1  0.968405  0.131653  0.249791  1
  Sn  Sn32  1  0.309961  0.139977  0.751775  1
  Sn  Sn33  1  0.801044  0.362755  0.752753  1
  Sn  Sn34  1  0.697514  0.866590  0.249797  1
  Sn  Sn35  1  0.197326  0.634118  0.249259  1
