# generated using pymatgen
data_Gd4B16Mo3W
_symmetry_space_group_name_H-M   'P 1'
_cell_length_a   6.04894625
_cell_length_b   11.70071248
_cell_length_c   3.64206600
_cell_angle_alpha   90.00000000
_cell_angle_beta   90.00000000
_cell_angle_gamma   90.03287213
_symmetry_Int_Tables_number   1
_chemical_formula_structural   Gd4B16Mo3W
_chemical_formula_sum   'Gd4 B16 Mo3 W1'
_cell_volume   257.77439320
_cell_formula_units_Z   1
loop_
 _symmetry_equiv_pos_site_id
 _symmetry_equiv_pos_as_xyz
  1  'x, y, z'
loop_
 _atom_site_type_symbol
 _atom_site_label
 _atom_site_symmetry_multiplicity
 _atom_site_fract_x
 _atom_site_fract_y
 _atom_site_fract_z
 _atom_site_occupancy
  Gd  Gd0  1  0.626351  0.350157  0.000000  1
  Gd  Gd1  1  0.373620  0.650133  0.000000  1
  Gd  Gd2  1  0.126457  0.150030  0.000000  1
  Gd  Gd3  1  0.873843  0.849816  0.000000  1
  B  B4  1  0.785920  0.186239  0.500000  1
  B  B5  1  0.214689  0.814181  0.500000  1
  B  B6  1  0.285241  0.314218  0.500000  1
  B  B7  1  0.714714  0.685944  0.500000  1
  B  B8  1  0.866034  0.031868  0.500000  1
  B  B9  1  0.134432  0.967693  0.500000  1
  B  B10  1  0.365903  0.467863  0.500000  1
  B  B11  1  0.634145  0.532127  0.500000  1
  B  B12  1  0.886140  0.452820  0.500000  1
  B  B13  1  0.113809  0.547208  0.500000  1
  B  B14  1  0.386041  0.046889  0.500000  1
  B  B15  1  0.613498  0.952675  0.500000  1
  B  B16  1  0.975845  0.307278  0.500000  1
  B  B17  1  0.024310  0.692870  0.500000  1
  B  B18  1  0.475249  0.192901  0.500000  1
  B  B19  1  0.524083  0.807222  0.500000  1
  Mo  Mo20  1  0.370277  0.915929  0.000000  1
  Mo  Mo21  1  0.129209  0.416381  0.000000  1
  Mo  Mo22  1  0.870666  0.583533  0.000000  1
  W  W23  1  0.629525  0.084025  0.000000  1
