# generated using pymatgen
data_CeScMnB6
_symmetry_space_group_name_H-M   'P 1'
_cell_length_a   3.51975700
_cell_length_b   8.96316700
_cell_length_c   11.35361400
_cell_angle_alpha   90.00000000
_cell_angle_beta   90.00000000
_cell_angle_gamma   90.00000000
_symmetry_Int_Tables_number   1
_chemical_formula_structural   CeScMnB6
_chemical_formula_sum   'Ce4 Sc4 Mn4 B24'
_cell_volume   358.18574221
_cell_formula_units_Z   4
loop_
 _symmetry_equiv_pos_site_id
 _symmetry_equiv_pos_as_xyz
  1  'x, y, z'
loop_
 _atom_site_type_symbol
 _atom_site_label
 _atom_site_symmetry_multiplicity
 _atom_site_fract_x
 _atom_site_fract_y
 _atom_site_fract_z
 _atom_site_occupancy
  Ce  Ce0  1  0.000000  0.322136  0.414463  1
  Ce  Ce1  1  0.000000  0.677864  0.585537  1
  Ce  Ce2  1  0.000000  0.822136  0.085537  1
  Ce  Ce3  1  0.000000  0.177864  0.914463  1
  Sc  Sc4  1  0.000000  0.944390  0.371344  1
  Sc  Sc5  1  0.000000  0.055610  0.628656  1
  Sc  Sc6  1  0.000000  0.444390  0.128656  1
  Sc  Sc7  1  0.000000  0.555610  0.871344  1
  Mn  Mn8  1  0.000000  0.641250  0.317961  1
  Mn  Mn9  1  0.000000  0.358750  0.682039  1
  Mn  Mn10  1  0.000000  0.141250  0.182039  1
  Mn  Mn11  1  0.000000  0.858750  0.817961  1
  B  B12  1  0.500000  0.556815  0.429502  1
  B  B13  1  0.500000  0.443185  0.570498  1
  B  B14  1  0.500000  0.056815  0.070498  1
  B  B15  1  0.500000  0.943185  0.929502  1
  B  B16  1  0.500000  0.752219  0.416426  1
  B  B17  1  0.500000  0.247781  0.583574  1
  B  B18  1  0.500000  0.252219  0.083574  1
  B  B19  1  0.500000  0.747781  0.916426  1
  B  B20  1  0.500000  0.792337  0.266258  1
  B  B21  1  0.500000  0.207663  0.733742  1
  B  B22  1  0.500000  0.292337  0.233742  1
  B  B23  1  0.500000  0.707663  0.766258  1
  B  B24  1  0.500000  0.629432  0.184595  1
  B  B25  1  0.500000  0.370568  0.815405  1
  B  B26  1  0.500000  0.129432  0.315405  1
  B  B27  1  0.500000  0.870568  0.684595  1
  B  B28  1  0.500000  0.984884  0.214207  1
  B  B29  1  0.500000  0.015116  0.785793  1
  B  B30  1  0.500000  0.484884  0.285793  1
  B  B31  1  0.500000  0.515116  0.714207  1
  B  B32  1  0.500000  0.598683  0.026696  1
  B  B33  1  0.500000  0.401317  0.973304  1
  B  B34  1  0.500000  0.098683  0.473304  1
  B  B35  1  0.500000  0.901317  0.526696  1
