# generated using pymatgen
data_Er4Sn3As3Ir7
_symmetry_space_group_name_H-M   'P 1'
_cell_length_a   7.39077090
_cell_length_b   7.39077115
_cell_length_c   7.45602900
_cell_angle_alpha   109.65017458
_cell_angle_beta   109.65017527
_cell_angle_gamma   109.29167787
_symmetry_Int_Tables_number   1
_chemical_formula_structural   Er4Sn3As3Ir7
_chemical_formula_sum   'Er4 Sn3 As3 Ir7'
_cell_volume   312.82485524
_cell_formula_units_Z   1
loop_
 _symmetry_equiv_pos_site_id
 _symmetry_equiv_pos_as_xyz
  1  'x, y, z'
loop_
 _atom_site_type_symbol
 _atom_site_label
 _atom_site_symmetry_multiplicity
 _atom_site_fract_x
 _atom_site_fract_y
 _atom_site_fract_z
 _atom_site_occupancy
  Er  Er0  1  0.000000  0.000000  0.453995  1
  Er  Er1  1  0.000000  0.521120  0.007115  1
  Er  Er2  1  0.521120  0.000000  0.007115  1
  Er  Er3  1  0.478880  0.478880  0.485996  1
  Sn  Sn4  1  0.292900  0.292900  0.986125  1
  Sn  Sn5  1  0.707100  0.000000  0.693226  1
  Sn  Sn6  1  0.000000  0.707100  0.693226  1
  As  As7  1  0.663072  0.663072  0.992810  1
  As  As8  1  0.336928  0.000000  0.329738  1
  As  As9  1  0.000000  0.336928  0.329738  1
  Ir  Ir10  1  0.751818  0.252464  0.497411  1
  Ir  Ir11  1  0.747536  0.499354  0.244947  1
  Ir  Ir12  1  0.500646  0.248182  0.745593  1
  Ir  Ir13  1  0.248182  0.500646  0.745593  1
  Ir  Ir14  1  0.252464  0.751818  0.497411  1
  Ir  Ir15  1  0.499354  0.747536  0.244947  1
  Ir  Ir16  1  0.000000  0.000000  0.045013  1
