# generated using pymatgen
data_Tb3Ho15(ErBi6)2
_symmetry_space_group_name_H-M   'P 1'
_cell_length_a   8.23977527
_cell_length_b   9.50096008
_cell_length_c   12.02167444
_cell_angle_alpha   89.99867497
_cell_angle_beta   89.98572425
_cell_angle_gamma   90.01140374
_symmetry_Int_Tables_number   1
_chemical_formula_structural   Tb3Ho15(ErBi6)2
_chemical_formula_sum   'Tb3 Ho15 Er2 Bi12'
_cell_volume   941.12606383
_cell_formula_units_Z   1
loop_
 _symmetry_equiv_pos_site_id
 _symmetry_equiv_pos_as_xyz
  1  'x, y, z'
loop_
 _atom_site_type_symbol
 _atom_site_label
 _atom_site_symmetry_multiplicity
 _atom_site_fract_x
 _atom_site_fract_y
 _atom_site_fract_z
 _atom_site_occupancy
  Tb  Tb0  1  0.812715  0.249997  0.281071  1
  Tb  Tb1  1  0.687154  0.750036  0.781112  1
  Tb  Tb2  1  0.187093  0.749990  0.718876  1
  Ho  Ho3  1  0.352781  0.749980  0.216128  1
  Ho  Ho4  1  0.852764  0.750031  0.283962  1
  Ho  Ho5  1  0.647268  0.249989  0.783974  1
  Ho  Ho6  1  0.147349  0.250082  0.716101  1
  Ho  Ho7  1  0.693077  0.564210  0.058874  1
  Ho  Ho8  1  0.193055  0.935381  0.440970  1
  Ho  Ho9  1  0.306964  0.064189  0.941311  1
  Ho  Ho10  1  0.807238  0.435846  0.558832  1
  Ho  Ho11  1  0.307013  0.435836  0.941325  1
  Ho  Ho12  1  0.806901  0.064182  0.558940  1
  Ho  Ho13  1  0.693144  0.935843  0.058810  1
  Ho  Ho14  1  0.474669  0.250126  0.487969  1
  Ho  Ho15  1  0.975209  0.250023  0.012058  1
  Ho  Ho16  1  0.524696  0.749870  0.511750  1
  Ho  Ho17  1  0.025202  0.750005  0.988249  1
  Er  Er18  1  0.192824  0.564059  0.441042  1
  Er  Er19  1  0.312470  0.250025  0.218290  1
  Bi  Bi20  1  0.407073  0.749981  0.958128  1
  Bi  Bi21  1  0.907272  0.749827  0.541802  1
  Bi  Bi22  1  0.591970  0.250000  0.042650  1
  Bi  Bi23  1  0.093469  0.250259  0.457821  1
  Bi  Bi24  1  0.565015  0.995274  0.325575  1
  Bi  Bi25  1  0.066340  0.504611  0.174390  1
  Bi  Bi26  1  0.434536  0.494698  0.674220  1
  Bi  Bi27  1  0.934422  0.005381  0.825848  1
  Bi  Bi28  1  0.434490  0.005317  0.674226  1
  Bi  Bi29  1  0.934403  0.494698  0.825813  1
  Bi  Bi30  1  0.565059  0.504812  0.325570  1
  Bi  Bi31  1  0.066364  0.995442  0.174315  1
