# generated using pymatgen
data_TbTmNbIr3
_symmetry_space_group_name_H-M   'P 1'
_cell_length_a   5.64664397
_cell_length_b   5.64664533
_cell_length_c   5.25321900
_cell_angle_alpha   57.49004166
_cell_angle_beta   57.49004487
_cell_angle_gamma   59.99999586
_symmetry_Int_Tables_number   1
_chemical_formula_structural   TbTmNbIr3
_chemical_formula_sum   'Tb1 Tm1 Nb1 Ir3'
_cell_volume   113.74394315
_cell_formula_units_Z   1
loop_
 _symmetry_equiv_pos_site_id
 _symmetry_equiv_pos_as_xyz
  1  'x, y, z'
loop_
 _atom_site_type_symbol
 _atom_site_label
 _atom_site_symmetry_multiplicity
 _atom_site_fract_x
 _atom_site_fract_y
 _atom_site_fract_z
 _atom_site_occupancy
  Tb  Tb0  1  0.499081  0.499081  0.502760  1
  Tm  Tm1  1  0.752737  0.752737  0.741788  1
  Nb  Nb2  1  0.124855  0.124855  0.625435  1
  Ir  Ir3  1  0.624990  0.124169  0.126672  1
  Ir  Ir4  1  0.124169  0.124169  0.126672  1
  Ir  Ir5  1  0.124169  0.624990  0.126672  1
