# generated using pymatgen
data_Al6CrCd4O16
_symmetry_space_group_name_H-M   'P 1'
_cell_length_a   8.03005729
_cell_length_b   8.03005685
_cell_length_c   8.03005643
_cell_angle_alpha   109.88355248
_cell_angle_beta   109.88354632
_cell_angle_gamma   108.64966937
_symmetry_Int_Tables_number   1
_chemical_formula_structural   Al6CrCd4O16
_chemical_formula_sum   'Al6 Cr1 Cd4 O16'
_cell_volume   398.53561249
_cell_formula_units_Z   1
loop_
 _symmetry_equiv_pos_site_id
 _symmetry_equiv_pos_as_xyz
  1  'x, y, z'
loop_
 _atom_site_type_symbol
 _atom_site_label
 _atom_site_symmetry_multiplicity
 _atom_site_fract_x
 _atom_site_fract_y
 _atom_site_fract_z
 _atom_site_occupancy
  Al  Al0  1  0.491024  0.749024  0.244324  1
  Al  Al1  1  0.250000  0.750000  0.500000  1
  Al  Al2  1  0.753300  0.508976  0.257999  1
  Al  Al3  1  0.750000  0.250000  0.500000  1
  Al  Al4  1  0.504699  0.246700  0.755676  1
  Al  Al5  1  0.250976  0.495301  0.742001  1
  Cr  Cr6  1  0.000000  0.000000  0.000000  1
  Cd  Cd7  1  0.575941  0.005381  0.014070  1
  Cd  Cd8  1  0.994619  0.008690  0.570561  1
  Cd  Cd9  1  0.991310  0.561871  0.985930  1
  Cd  Cd10  1  0.438129  0.424059  0.429439  1
  O  O11  1  0.426841  0.996879  0.719118  1
  O  O12  1  0.706844  0.299216  0.295994  1
  O  O13  1  0.413368  0.708960  0.992696  1
  O  O14  1  0.700784  0.996778  0.407629  1
  O  O15  1  0.003121  0.722238  0.429961  1
  O  O16  1  0.291040  0.283737  0.704410  1
  O  O17  1  0.277762  0.707723  0.280882  1
  O  O18  1  0.003222  0.410850  0.704006  1
  O  O19  1  0.716263  0.420673  0.007304  1
  O  O20  1  0.589150  0.293156  0.592371  1
  O  O21  1  0.292277  0.573159  0.570039  1
  O  O22  1  0.579327  0.586632  0.295590  1
  O  O23  1  0.893960  0.045602  0.143921  1
  O  O24  1  0.954398  0.098319  0.848358  1
  O  O25  1  0.901681  0.750039  0.856079  1
  O  O26  1  0.249961  0.106040  0.151642  1
