# generated using pymatgen
data_Tb5(FeB3)2
_symmetry_space_group_name_H-M   'P 1'
_cell_length_a   5.41981805
_cell_length_b   5.41981822
_cell_length_c   8.33370769
_cell_angle_alpha   71.02384813
_cell_angle_beta   71.02384861
_cell_angle_gamma   60.00000115
_symmetry_Int_Tables_number   1
_chemical_formula_structural   Tb5(FeB3)2
_chemical_formula_sum   'Tb5 Fe2 B6'
_cell_volume   196.48924558
_cell_formula_units_Z   1
loop_
 _symmetry_equiv_pos_site_id
 _symmetry_equiv_pos_as_xyz
  1  'x, y, z'
loop_
 _atom_site_type_symbol
 _atom_site_label
 _atom_site_symmetry_multiplicity
 _atom_site_fract_x
 _atom_site_fract_y
 _atom_site_fract_z
 _atom_site_occupancy
  Tb  Tb0  1  0.000000  0.000000  0.000000  1
  Tb  Tb1  1  0.748723  0.748723  0.753832  1
  Tb  Tb2  1  0.251277  0.251277  0.246168  1
  Tb  Tb3  1  0.583450  0.583450  0.249649  1
  Tb  Tb4  1  0.416550  0.416550  0.750351  1
  Fe  Fe5  1  0.881467  0.881467  0.355600  1
  Fe  Fe6  1  0.118533  0.118533  0.644400  1
  B  B7  1  0.500000  0.167703  0.500000  1
  B  B8  1  0.832297  0.500000  0.500000  1
  B  B9  1  0.167703  0.832297  0.500000  1
  B  B10  1  0.167703  0.500000  0.500000  1
  B  B11  1  0.832297  0.167703  0.500000  1
  B  B12  1  0.500000  0.832297  0.500000  1
