# generated using pymatgen
data_Y3Er4Co6Sn22Pd
_symmetry_space_group_name_H-M   'P 1'
_cell_length_a   9.65192244
_cell_length_b   9.65481880
_cell_length_c   9.90253040
_cell_angle_alpha   90.00000058
_cell_angle_beta   89.97184924
_cell_angle_gamma   120.00992846
_symmetry_Int_Tables_number   1
_chemical_formula_structural   Y3Er4Co6Sn22Pd
_chemical_formula_sum   'Y3 Er4 Co6 Sn22 Pd1'
_cell_volume   799.08179879
_cell_formula_units_Z   1
loop_
 _symmetry_equiv_pos_site_id
 _symmetry_equiv_pos_as_xyz
  1  'x, y, z'
loop_
 _atom_site_type_symbol
 _atom_site_label
 _atom_site_symmetry_multiplicity
 _atom_site_fract_x
 _atom_site_fract_y
 _atom_site_fract_z
 _atom_site_occupancy
  Y  Y0  1  0.999975  0.999988  0.000034  1
  Y  Y1  1  0.521641  0.043180  0.692526  1
  Y  Y2  1  0.521641  0.478461  0.692526  1
  Er  Er3  1  0.042554  0.521276  0.307503  1
  Er  Er4  1  0.478689  0.957432  0.307273  1
  Er  Er5  1  0.478689  0.521256  0.307273  1
  Er  Er6  1  0.957468  0.478735  0.692486  1
  Co  Co7  1  0.167884  0.831556  0.803682  1
  Co  Co8  1  0.663866  0.831933  0.803793  1
  Co  Co9  1  0.167884  0.336329  0.803682  1
  Co  Co10  1  0.831713  0.168153  0.196477  1
  Co  Co11  1  0.336448  0.168224  0.196450  1
  Co  Co12  1  0.831713  0.663560  0.196477  1
  Sn  Sn13  1  0.111430  0.888460  0.283111  1
  Sn  Sn14  1  0.777058  0.888529  0.283106  1
  Sn  Sn15  1  0.111430  0.222971  0.283111  1
  Sn  Sn16  1  0.888866  0.111548  0.716917  1
  Sn  Sn17  1  0.222331  0.111165  0.716966  1
  Sn  Sn18  1  0.888866  0.777317  0.716917  1
  Sn  Sn19  1  0.346186  0.999941  0.000155  1
  Sn  Sn20  1  0.653794  0.653776  0.000153  1
  Sn  Sn21  1  0.999967  0.346241  0.000030  1
  Sn  Sn22  1  0.346186  0.346245  0.000155  1
  Sn  Sn23  1  0.999967  0.653725  0.000030  1
  Sn  Sn24  1  0.653794  0.000018  0.000153  1
  Sn  Sn25  1  0.785193  0.569698  0.452338  1
  Sn  Sn26  1  0.785193  0.215495  0.452338  1
  Sn  Sn27  1  0.430264  0.215132  0.451987  1
  Sn  Sn28  1  0.214587  0.430252  0.547178  1
  Sn  Sn29  1  0.214587  0.784335  0.547178  1
  Sn  Sn30  1  0.569718  0.784859  0.547082  1
  Sn  Sn31  1  0.666597  0.333298  0.184600  1
  Sn  Sn32  1  0.333184  0.666593  0.815477  1
  Sn  Sn33  1  0.667347  0.333673  0.881564  1
  Sn  Sn34  1  0.333292  0.666646  0.119283  1
  Pd  Pd35  1  0.999995  0.999998  0.499993  1
