# generated using pymatgen
data_YbSm2Cd3PdPt2
_symmetry_space_group_name_H-M   'P 1'
_cell_length_a   7.69070553
_cell_length_b   7.69070549
_cell_length_c   4.00557800
_cell_angle_alpha   90.00000000
_cell_angle_beta   90.00000000
_cell_angle_gamma   120.88726218
_symmetry_Int_Tables_number   1
_chemical_formula_structural   YbSm2Cd3PdPt2
_chemical_formula_sum   'Yb1 Sm2 Cd3 Pd1 Pt2'
_cell_volume   203.31783041
_cell_formula_units_Z   1
loop_
 _symmetry_equiv_pos_site_id
 _symmetry_equiv_pos_as_xyz
  1  'x, y, z'
loop_
 _atom_site_type_symbol
 _atom_site_label
 _atom_site_symmetry_multiplicity
 _atom_site_fract_x
 _atom_site_fract_y
 _atom_site_fract_z
 _atom_site_occupancy
  Yb  Yb0  1  0.406005  0.406005  0.500000  1
  Sm  Sm1  1  0.589283  0.000248  0.500000  1
  Sm  Sm2  1  0.000248  0.589283  0.500000  1
  Cd  Cd3  1  0.742115  0.742115  0.000000  1
  Cd  Cd4  1  0.252363  0.002406  0.000000  1
  Cd  Cd5  1  0.002406  0.252363  0.000000  1
  Pd  Pd6  1  0.002137  0.002137  0.500000  1
  Pt  Pt7  1  0.671456  0.333988  0.000000  1
  Pt  Pt8  1  0.333988  0.671456  0.000000  1
