# generated using pymatgen
data_Nd20N19
_symmetry_space_group_name_H-M   'P 1'
_cell_length_a   9.67199439
_cell_length_b   9.67199300
_cell_length_c   9.67199470
_cell_angle_alpha   106.49538324
_cell_angle_beta   106.49537156
_cell_angle_gamma   115.60243022
_symmetry_Int_Tables_number   1
_chemical_formula_structural   Nd20N19
_chemical_formula_sum   'Nd20 N19'
_cell_volume   690.46306220
_cell_formula_units_Z   1
loop_
 _symmetry_equiv_pos_site_id
 _symmetry_equiv_pos_as_xyz
  1  'x, y, z'
loop_
 _atom_site_type_symbol
 _atom_site_label
 _atom_site_symmetry_multiplicity
 _atom_site_fract_x
 _atom_site_fract_y
 _atom_site_fract_z
 _atom_site_occupancy
  Nd  Nd0  1  0.046832  0.650512  0.201364  1
  Nd  Nd1  1  0.393849  0.710404  0.104253  1
  Nd  Nd2  1  0.100675  0.796690  0.897365  1
  Nd  Nd3  1  0.763636  0.763636  0.000000  1
  Nd  Nd4  1  0.796690  0.899325  0.696015  1
  Nd  Nd5  1  0.449148  0.845467  0.798636  1
  Nd  Nd6  1  0.500000  0.000000  0.500000  1
  Nd  Nd7  1  0.154533  0.953168  0.603680  1
  Nd  Nd8  1  0.203310  0.100675  0.303985  1
  Nd  Nd9  1  0.845467  0.046832  0.396320  1
  Nd  Nd10  1  0.899325  0.203310  0.102635  1
  Nd  Nd11  1  0.550852  0.154533  0.201364  1
  Nd  Nd12  1  0.606151  0.289596  0.895747  1
  Nd  Nd13  1  0.236364  0.236364  0.000000  1
  Nd  Nd14  1  0.289596  0.393849  0.683446  1
  Nd  Nd15  1  0.953168  0.349488  0.798636  1
  Nd  Nd16  1  0.000000  0.500000  0.500000  1
  Nd  Nd17  1  0.650512  0.449148  0.603680  1
  Nd  Nd18  1  0.710404  0.606151  0.316554  1
  Nd  Nd19  1  0.349488  0.550852  0.396320  1
  N  N20  1  0.895119  0.698444  0.593563  1
  N  N21  1  0.551358  0.651856  0.704182  1
  N  N22  1  0.601388  0.799296  0.400684  1
  N  N23  1  0.250000  0.750000  0.500000  1
  N  N24  1  0.301556  0.895119  0.196675  1
  N  N25  1  0.947674  0.847176  0.295818  1
  N  N26  1  0.000000  0.000000  0.000000  1
  N  N27  1  0.651856  0.947674  0.100498  1
  N  N28  1  0.698444  0.104881  0.803325  1
  N  N29  1  0.348144  0.052326  0.899502  1
  N  N30  1  0.052326  0.152824  0.704182  1
  N  N31  1  0.750000  0.250000  0.500000  1
  N  N32  1  0.398612  0.200704  0.599316  1
  N  N33  1  0.448642  0.348144  0.295818  1
  N  N34  1  0.104881  0.301556  0.406437  1
  N  N35  1  0.152824  0.448642  0.100498  1
  N  N36  1  0.200704  0.601388  0.802093  1
  N  N37  1  0.799296  0.398612  0.197907  1
  N  N38  1  0.847176  0.551358  0.899502  1
