# generated using pymatgen
data_Tm4Al3FeB16
_symmetry_space_group_name_H-M   'P 1'
_cell_length_a   3.46088500
_cell_length_b   5.91259120
_cell_length_c   11.43839056
_cell_angle_alpha   90.26869553
_cell_angle_beta   90.00000000
_cell_angle_gamma   90.00000000
_symmetry_Int_Tables_number   1
_chemical_formula_structural   Tm4Al3FeB16
_chemical_formula_sum   'Tm4 Al3 Fe1 B16'
_cell_volume   234.05890370
_cell_formula_units_Z   1
loop_
 _symmetry_equiv_pos_site_id
 _symmetry_equiv_pos_as_xyz
  1  'x, y, z'
loop_
 _atom_site_type_symbol
 _atom_site_label
 _atom_site_symmetry_multiplicity
 _atom_site_fract_x
 _atom_site_fract_y
 _atom_site_fract_z
 _atom_site_occupancy
  Tm  Tm0  1  0.000000  0.628823  0.344457  1
  Tm  Tm1  1  0.000000  0.372370  0.652846  1
  Tm  Tm2  1  0.000000  0.124902  0.149720  1
  Tm  Tm3  1  0.000000  0.871910  0.853753  1
  Al  Al4  1  0.000000  0.367299  0.916339  1
  Al  Al5  1  0.000000  0.138877  0.406476  1
  Al  Al6  1  0.000000  0.862113  0.589644  1
  Fe  Fe7  1  0.000000  0.627984  0.082565  1
  B  B8  1  0.500000  0.783818  0.183362  1
  B  B9  1  0.500000  0.209915  0.813022  1
  B  B10  1  0.500000  0.292949  0.311939  1
  B  B11  1  0.500000  0.710038  0.687876  1
  B  B12  1  0.500000  0.863482  0.033685  1
  B  B13  1  0.500000  0.133834  0.969649  1
  B  B14  1  0.500000  0.367928  0.469455  1
  B  B15  1  0.500000  0.633272  0.531060  1
  B  B16  1  0.500000  0.885057  0.452621  1
  B  B17  1  0.500000  0.114492  0.547281  1
  B  B18  1  0.500000  0.389885  0.049778  1
  B  B19  1  0.500000  0.617449  0.955903  1
  B  B20  1  0.500000  0.970998  0.306088  1
  B  B21  1  0.500000  0.026565  0.693917  1
  B  B22  1  0.500000  0.480653  0.190919  1
  B  B23  1  0.500000  0.525387  0.807644  1
