# generated using pymatgen
data_Ba2Cd21Pd
_symmetry_space_group_name_H-M   'P 1'
_cell_length_a   9.47133037
_cell_length_b   9.46424660
_cell_length_c   9.47132483
_cell_angle_alpha   100.05436798
_cell_angle_beta   99.62149664
_cell_angle_gamma   131.21594786
_symmetry_Int_Tables_number   1
_chemical_formula_structural   Ba2Cd21Pd
_chemical_formula_sum   'Ba2 Cd21 Pd1'
_cell_volume   581.41647202
_cell_formula_units_Z   1
loop_
 _symmetry_equiv_pos_site_id
 _symmetry_equiv_pos_as_xyz
  1  'x, y, z'
loop_
 _atom_site_type_symbol
 _atom_site_label
 _atom_site_symmetry_multiplicity
 _atom_site_fract_x
 _atom_site_fract_y
 _atom_site_fract_z
 _atom_site_occupancy
  Ba  Ba0  1  0.748971  0.250691  0.501720  1
  Ba  Ba1  1  0.501029  0.499309  0.998280  1
  Cd  Cd2  1  0.927186  0.016947  0.326398  1
  Cd  Cd3  1  0.680906  0.597431  0.675138  1
  Cd  Cd4  1  0.242598  0.732896  0.490298  1
  Cd  Cd5  1  0.007402  0.017104  0.009702  1
  Cd  Cd6  1  0.125000  0.875000  0.250000  1
  Cd  Cd7  1  0.125000  0.875000  0.750000  1
  Cd  Cd8  1  0.625000  0.875000  0.750000  1
  Cd  Cd9  1  0.922293  0.597431  0.916525  1
  Cd  Cd10  1  0.860462  0.431655  0.179928  1
  Cd  Cd11  1  0.257955  0.671009  0.828271  1
  Cd  Cd12  1  0.690548  0.016947  0.089761  1
  Cd  Cd13  1  0.407262  0.078991  0.086947  1
  Cd  Cd14  1  0.998272  0.318345  0.928806  1
  Cd  Cd15  1  0.569094  0.152569  0.824862  1
  Cd  Cd16  1  0.322814  0.733053  0.173602  1
  Cd  Cd17  1  0.327707  0.152569  0.583475  1
  Cd  Cd18  1  0.389538  0.318345  0.320072  1
  Cd  Cd19  1  0.992045  0.078991  0.671729  1
  Cd  Cd20  1  0.559452  0.733053  0.410239  1
  Cd  Cd21  1  0.842738  0.671009  0.413053  1
  Cd  Cd22  1  0.251728  0.431655  0.571194  1
  Pd  Pd23  1  0.125000  0.375000  0.250000  1
