# generated using pymatgen
data_ZnGaSiMo9
_symmetry_space_group_name_H-M   'P 1'
_cell_length_a   4.96329600
_cell_length_b   4.96087100
_cell_length_c   14.80389300
_cell_angle_alpha   90.00000000
_cell_angle_beta   90.00000000
_cell_angle_gamma   90.00000000
_symmetry_Int_Tables_number   1
_chemical_formula_structural   ZnGaSiMo9
_chemical_formula_sum   'Zn2 Ga2 Si2 Mo18'
_cell_volume   364.50546813
_cell_formula_units_Z   2
loop_
 _symmetry_equiv_pos_site_id
 _symmetry_equiv_pos_as_xyz
  1  'x, y, z'
loop_
 _atom_site_type_symbol
 _atom_site_label
 _atom_site_symmetry_multiplicity
 _atom_site_fract_x
 _atom_site_fract_y
 _atom_site_fract_z
 _atom_site_occupancy
  Zn  Zn0  1  0.000000  0.000000  0.667194  1
  Zn  Zn1  1  0.000000  0.000000  0.332844  1
  Ga  Ga2  1  0.500000  0.500000  0.833896  1
  Ga  Ga3  1  0.500000  0.500000  0.499339  1
  Si  Si4  1  0.500000  0.500000  0.166486  1
  Si  Si5  1  0.000000  0.000000  0.000297  1
  Mo  Mo6  1  0.500000  0.000000  0.750630  1
  Mo  Mo7  1  0.500000  0.000000  0.415709  1
  Mo  Mo8  1  0.500000  0.000000  0.083575  1
  Mo  Mo9  1  0.250047  0.500000  0.001957  1
  Mo  Mo10  1  0.250532  0.500000  0.667231  1
  Mo  Mo11  1  0.250817  0.500000  0.330437  1
  Mo  Mo12  1  0.000000  0.750785  0.836066  1
  Mo  Mo13  1  0.000000  0.750646  0.499327  1
  Mo  Mo14  1  0.000000  0.749632  0.165007  1
  Mo  Mo15  1  0.500000  0.000000  0.918064  1
  Mo  Mo16  1  0.500000  0.000000  0.583421  1
  Mo  Mo17  1  0.500000  0.000000  0.248490  1
  Mo  Mo18  1  0.749953  0.500000  0.001957  1
  Mo  Mo19  1  0.749468  0.500000  0.667231  1
  Mo  Mo20  1  0.749183  0.500000  0.330437  1
  Mo  Mo21  1  0.000000  0.249215  0.836066  1
  Mo  Mo22  1  0.000000  0.249354  0.499327  1
  Mo  Mo23  1  0.000000  0.250368  0.165007  1
