# generated using pymatgen
data_Er7Tm3(IrRu)2
_symmetry_space_group_name_H-M   'P 1'
_cell_length_a   6.34739861
_cell_length_b   7.22530849
_cell_length_c   8.37008113
_cell_angle_alpha   96.79106947
_cell_angle_beta   112.23468497
_cell_angle_gamma   89.97489721
_symmetry_Int_Tables_number   1
_chemical_formula_structural   Er7Tm3(IrRu)2
_chemical_formula_sum   'Er7 Tm3 Ir2 Ru2'
_cell_volume   352.42100871
_cell_formula_units_Z   1
loop_
 _symmetry_equiv_pos_site_id
 _symmetry_equiv_pos_as_xyz
  1  'x, y, z'
loop_
 _atom_site_type_symbol
 _atom_site_label
 _atom_site_symmetry_multiplicity
 _atom_site_fract_x
 _atom_site_fract_y
 _atom_site_fract_z
 _atom_site_occupancy
  Er  Er0  1  0.792336  0.081954  0.815121  1
  Er  Er1  1  0.977509  0.417915  0.185098  1
  Er  Er2  1  0.209229  0.915178  0.183371  1
  Er  Er3  1  0.025978  0.584875  0.816580  1
  Er  Er4  1  0.208277  0.182352  0.563593  1
  Er  Er5  1  0.644682  0.318071  0.436543  1
  Er  Er6  1  0.790225  0.815003  0.437902  1
  Tm  Tm7  1  0.352544  0.684675  0.562416  1
  Tm  Tm8  1  0.423786  0.249871  0.999836  1
  Tm  Tm9  1  0.576099  0.749988  0.999732  1
  Ir  Ir10  1  0.604255  0.423910  0.779459  1
  Ir  Ir11  1  0.824905  0.076306  0.220575  1
  Ru  Ru12  1  0.394413  0.574941  0.219055  1
  Ru  Ru13  1  0.175762  0.924960  0.780717  1
