# generated using pymatgen
data_Li4Y3Th(Si2Sn)2
_symmetry_space_group_name_H-M   'P 1'
_cell_length_a   9.60323459
_cell_length_b   9.60323558
_cell_length_c   6.83141800
_cell_angle_alpha   90.00000000
_cell_angle_beta   90.00000000
_cell_angle_gamma   153.40715081
_symmetry_Int_Tables_number   1
_chemical_formula_structural   Li4Y3Th(Si2Sn)2
_chemical_formula_sum   'Li4 Y3 Th1 Si4 Sn2'
_cell_volume   282.02144523
_cell_formula_units_Z   1
loop_
 _symmetry_equiv_pos_site_id
 _symmetry_equiv_pos_as_xyz
  1  'x, y, z'
loop_
 _atom_site_type_symbol
 _atom_site_label
 _atom_site_symmetry_multiplicity
 _atom_site_fract_x
 _atom_site_fract_y
 _atom_site_fract_z
 _atom_site_occupancy
  Li  Li0  1  0.184197  0.815803  0.055814  1
  Li  Li1  1  0.184197  0.815803  0.444186  1
  Li  Li2  1  0.815498  0.184502  0.944569  1
  Li  Li3  1  0.815498  0.184502  0.555431  1
  Y  Y4  1  0.353002  0.646998  0.250000  1
  Y  Y5  1  0.647955  0.352045  0.750000  1
  Y  Y6  1  0.548664  0.451336  0.250000  1
  Th  Th7  1  0.451900  0.548100  0.750000  1
  Si  Si8  1  0.058287  0.941713  0.928784  1
  Si  Si9  1  0.942197  0.057803  0.070730  1
  Si  Si10  1  0.942197  0.057803  0.429270  1
  Si  Si11  1  0.058287  0.941713  0.571216  1
  Sn  Sn12  1  0.719834  0.280166  0.250000  1
  Sn  Sn13  1  0.278282  0.721718  0.750000  1
