# generated using pymatgen
data_ScCd3Pt2
_symmetry_space_group_name_H-M   'P 1'
_cell_length_a   8.75174444
_cell_length_b   8.76022948
_cell_length_c   8.75238467
_cell_angle_alpha   120.05921967
_cell_angle_beta   89.94050019
_cell_angle_gamma   120.05247406
_symmetry_Int_Tables_number   1
_chemical_formula_structural   ScCd3Pt2
_chemical_formula_sum   'Sc4 Cd12 Pt8'
_cell_volume   473.92879528
_cell_formula_units_Z   4
loop_
 _symmetry_equiv_pos_site_id
 _symmetry_equiv_pos_as_xyz
  1  'x, y, z'
loop_
 _atom_site_type_symbol
 _atom_site_label
 _atom_site_symmetry_multiplicity
 _atom_site_fract_x
 _atom_site_fract_y
 _atom_site_fract_z
 _atom_site_occupancy
  Sc  Sc0  1  0.375047  0.750028  0.124998  1
  Sc  Sc1  1  0.375012  0.250036  0.625046  1
  Sc  Sc2  1  0.374986  0.749959  0.624959  1
  Sc  Sc3  1  0.875001  0.249991  0.624965  1
  Cd  Cd4  1  0.939277  0.500003  0.060724  1
  Cd  Cd5  1  0.560616  0.121316  0.060587  1
  Cd  Cd6  1  0.560553  0.499881  0.060520  1
  Cd  Cd7  1  0.810747  0.000004  0.189240  1
  Cd  Cd8  1  0.189386  0.000109  0.189409  1
  Cd  Cd9  1  0.189338  0.378598  0.189389  1
  Cd  Cd10  1  0.560788  0.500010  0.439196  1
  Cd  Cd11  1  0.939482  0.500111  0.439438  1
  Cd  Cd12  1  0.939430  0.878700  0.439398  1
  Cd  Cd13  1  0.189160  0.000007  0.810842  1
  Cd  Cd14  1  0.810618  0.621383  0.810661  1
  Cd  Cd15  1  0.810575  0.999880  0.810621  1
  Pt  Pt16  1  0.588907  0.177657  0.411092  1
  Pt  Pt17  1  0.233498  0.822322  0.411217  1
  Pt  Pt18  1  0.588842  0.822335  0.411120  1
  Pt  Pt19  1  0.161201  0.322360  0.483474  1
  Pt  Pt20  1  0.588791  0.177643  0.766510  1
  Pt  Pt21  1  0.161102  0.322306  0.838898  1
  Pt  Pt22  1  0.161140  0.677681  0.838891  1
  Pt  Pt23  1  0.516511  0.677685  0.838811  1
