# generated using pymatgen
data_TbTm9(SiSb2)2
_symmetry_space_group_name_H-M   'P 1'
_cell_length_a   7.86853852
_cell_length_b   8.94898400
_cell_length_c   11.77595400
_cell_angle_alpha   90.00000000
_cell_angle_beta   90.06139143
_cell_angle_gamma   90.00000000
_symmetry_Int_Tables_number   1
_chemical_formula_structural   TbTm9(SiSb2)2
_chemical_formula_sum   'Tb2 Tm18 Si4 Sb8'
_cell_volume   829.20833312
_cell_formula_units_Z   2
loop_
 _symmetry_equiv_pos_site_id
 _symmetry_equiv_pos_as_xyz
  1  'x, y, z'
loop_
 _atom_site_type_symbol
 _atom_site_label
 _atom_site_symmetry_multiplicity
 _atom_site_fract_x
 _atom_site_fract_y
 _atom_site_fract_z
 _atom_site_occupancy
  Tb  Tb0  1  0.361514  0.250000  0.706392  1
  Tb  Tb1  1  0.638486  0.750000  0.293608  1
  Tm  Tm2  1  0.335691  0.750000  0.715037  1
  Tm  Tm3  1  0.664309  0.250000  0.284963  1
  Tm  Tm4  1  0.836344  0.250000  0.785841  1
  Tm  Tm5  1  0.163656  0.750000  0.214159  1
  Tm  Tm6  1  0.039099  0.750000  0.501652  1
  Tm  Tm7  1  0.960901  0.250000  0.498348  1
  Tm  Tm8  1  0.539861  0.250000  0.998586  1
  Tm  Tm9  1  0.460139  0.750000  0.001414  1
  Tm  Tm10  1  0.861548  0.750000  0.793935  1
  Tm  Tm11  1  0.138452  0.250000  0.206065  1
  Tm  Tm12  1  0.683747  0.551162  0.566110  1
  Tm  Tm13  1  0.316253  0.448838  0.433890  1
  Tm  Tm14  1  0.183640  0.448964  0.934713  1
  Tm  Tm15  1  0.316253  0.051162  0.433890  1
  Tm  Tm16  1  0.816360  0.551036  0.065287  1
  Tm  Tm17  1  0.683747  0.948838  0.566110  1
  Tm  Tm18  1  0.816360  0.948964  0.065287  1
  Tm  Tm19  1  0.183640  0.051036  0.934713  1
  Si  Si20  1  0.083319  0.750000  0.980051  1
  Si  Si21  1  0.916681  0.250000  0.019949  1
  Si  Si22  1  0.584820  0.250000  0.518142  1
  Si  Si23  1  0.415180  0.750000  0.481858  1
  Sb  Sb24  1  0.570432  0.511292  0.827711  1
  Sb  Sb25  1  0.429568  0.488708  0.172289  1
  Sb  Sb26  1  0.067409  0.490347  0.673166  1
  Sb  Sb27  1  0.429568  0.011292  0.172289  1
  Sb  Sb28  1  0.932591  0.509653  0.326834  1
  Sb  Sb29  1  0.570432  0.988708  0.827711  1
  Sb  Sb30  1  0.932591  0.990347  0.326834  1
  Sb  Sb31  1  0.067409  0.009653  0.673166  1
