# generated using pymatgen
data_CdInIO6
_symmetry_space_group_name_H-M   'P 1'
_cell_length_a   4.93534900
_cell_length_b   4.93257800
_cell_length_c   9.87119200
_cell_angle_alpha   90.00000000
_cell_angle_beta   90.00000000
_cell_angle_gamma   90.00000000
_symmetry_Int_Tables_number   1
_chemical_formula_structural   CdInIO6
_chemical_formula_sum   'Cd2 In2 I2 O12'
_cell_volume   240.30423783
_cell_formula_units_Z   2
loop_
 _symmetry_equiv_pos_site_id
 _symmetry_equiv_pos_as_xyz
  1  'x, y, z'
loop_
 _atom_site_type_symbol
 _atom_site_label
 _atom_site_symmetry_multiplicity
 _atom_site_fract_x
 _atom_site_fract_y
 _atom_site_fract_z
 _atom_site_occupancy
  Cd  Cd0  1  0.000000  0.000000  0.668622  1
  Cd  Cd1  1  0.500000  0.500000  0.831378  1
  In  In2  1  0.000000  0.000000  0.337998  1
  In  In3  1  0.500000  0.500000  0.162002  1
  I  I4  1  0.500000  0.500000  0.494896  1
  I  I5  1  0.000000  0.000000  0.005104  1
  O  O6  1  0.683034  0.683293  0.634303  1
  O  O7  1  0.316966  0.316707  0.634303  1
  O  O8  1  0.816966  0.183293  0.865697  1
  O  O9  1  0.183034  0.816707  0.865697  1
  O  O10  1  0.316327  0.316286  0.343949  1
  O  O11  1  0.683673  0.683714  0.343949  1
  O  O12  1  0.183673  0.816286  0.156051  1
  O  O13  1  0.816327  0.183714  0.156051  1
  O  O14  1  0.725155  0.724989  0.010146  1
  O  O15  1  0.274845  0.275011  0.010146  1
  O  O16  1  0.774845  0.224989  0.489854  1
  O  O17  1  0.225155  0.775011  0.489854  1
