# generated using pymatgen
data_Y3HoMgP12Ru19
_symmetry_space_group_name_H-M   'P 1'
_cell_length_a   12.47432507
_cell_length_b   12.49879439
_cell_length_c   3.99093300
_cell_angle_alpha   90.00000000
_cell_angle_beta   90.00000000
_cell_angle_gamma   120.04761492
_symmetry_Int_Tables_number   1
_chemical_formula_structural   Y3HoMgP12Ru19
_chemical_formula_sum   'Y3 Ho1 Mg1 P12 Ru19'
_cell_volume   538.61900742
_cell_formula_units_Z   1
loop_
 _symmetry_equiv_pos_site_id
 _symmetry_equiv_pos_as_xyz
  1  'x, y, z'
loop_
 _atom_site_type_symbol
 _atom_site_label
 _atom_site_symmetry_multiplicity
 _atom_site_fract_x
 _atom_site_fract_y
 _atom_site_fract_z
 _atom_site_occupancy
  Y  Y0  1  0.183604  0.999509  0.500000  1
  Y  Y1  1  0.672787  0.332813  0.000000  1
  Y  Y2  1  0.326866  0.659628  0.000000  1
  Ho  Ho3  1  0.816528  0.815951  0.500000  1
  Mg  Mg4  1  0.000067  0.189536  0.500000  1
  P  P5  1  0.999394  0.826849  0.000000  1
  P  P6  1  0.193829  0.181033  0.000000  1
  P  P7  1  0.805611  0.986399  0.000000  1
  P  P8  1  0.698657  0.169498  0.500000  1
  P  P9  1  0.830861  0.525107  0.500000  1
  P  P10  1  0.481216  0.306812  0.500000  1
  P  P11  1  0.169147  0.694290  0.500000  1
  P  P12  1  0.519186  0.825736  0.500000  1
  P  P13  1  0.301526  0.470908  0.500000  1
  P  P14  1  0.000042  0.380965  0.000000  1
  P  P15  1  0.625445  0.626326  0.000000  1
  P  P16  1  0.374731  0.000704  0.000000  1
  Ru  Ru17  1  0.000080  0.560610  0.000000  1
  Ru  Ru18  1  0.439710  0.445811  0.000000  1
  Ru  Ru19  1  0.560114  0.005910  0.000000  1
  Ru  Ru20  1  0.999855  0.721866  0.500000  1
  Ru  Ru21  1  0.283692  0.279957  0.500000  1
  Ru  Ru22  1  0.717254  0.996337  0.500000  1
  Ru  Ru23  1  0.825027  0.182599  0.000000  1
  Ru  Ru24  1  0.815354  0.627886  0.000000  1
  Ru  Ru25  1  0.384204  0.194674  0.000000  1
  Ru  Ru26  1  0.184392  0.811987  0.000000  1
  Ru  Ru27  1  0.615665  0.810452  0.000000  1
  Ru  Ru28  1  0.174744  0.357429  0.000000  1
  Ru  Ru29  1  0.874251  0.364512  0.500000  1
  Ru  Ru30  1  0.633770  0.508948  0.500000  1
  Ru  Ru31  1  0.496931  0.126976  0.500000  1
  Ru  Ru32  1  0.366582  0.875296  0.500000  1
  Ru  Ru33  1  0.503671  0.630508  0.500000  1
  Ru  Ru34  1  0.125768  0.490753  0.500000  1
  Ru  Ru35  1  0.999440  0.015417  0.000000  1
