# generated using pymatgen
data_BaCl37
_symmetry_space_group_name_H-M   'P 1'
_cell_length_a   12.78763379
_cell_length_b   13.76759013
_cell_length_c   12.98174600
_cell_angle_alpha   103.00376751
_cell_angle_beta   48.80056927
_cell_angle_gamma   81.50743368
_symmetry_Int_Tables_number   1
_chemical_formula_structural   BaCl37
_chemical_formula_sum   'Ba1 Cl37'
_cell_volume   1533.02354663
_cell_formula_units_Z   1
loop_
 _symmetry_equiv_pos_site_id
 _symmetry_equiv_pos_as_xyz
  1  'x, y, z'
loop_
 _atom_site_type_symbol
 _atom_site_label
 _atom_site_symmetry_multiplicity
 _atom_site_fract_x
 _atom_site_fract_y
 _atom_site_fract_z
 _atom_site_occupancy
  Ba  Ba0  1  0.500000  0.000000  0.000000  1
  Cl  Cl1  1  0.771374  0.313022  0.173983  1
  Cl  Cl2  1  0.228626  0.686978  0.826017  1
  Cl  Cl3  1  0.719597  0.077383  0.366863  1
  Cl  Cl4  1  0.280403  0.922617  0.633137  1
  Cl  Cl5  1  0.106470  0.301298  0.145214  1
  Cl  Cl6  1  0.893530  0.698702  0.854786  1
  Cl  Cl7  1  0.861574  0.542758  0.250240  1
  Cl  Cl8  1  0.138426  0.457242  0.749760  1
  Cl  Cl9  1  0.681587  0.290989  0.539869  1
  Cl  Cl10  1  0.318413  0.709011  0.460131  1
  Cl  Cl11  1  0.031912  0.150234  0.501433  1
  Cl  Cl12  1  0.968088  0.849766  0.498567  1
  Cl  Cl13  1  0.999703  0.004562  0.268015  1
  Cl  Cl14  1  0.000297  0.995438  0.731985  1
  Cl  Cl15  1  0.925773  0.411049  0.675241  1
  Cl  Cl16  1  0.074227  0.588951  0.324759  1
  Cl  Cl17  1  0.580286  0.416580  0.248928  1
  Cl  Cl18  1  0.419714  0.583420  0.751072  1
  Cl  Cl19  1  0.215576  0.430243  0.242328  1
  Cl  Cl20  1  0.784424  0.569757  0.757672  1
  Cl  Cl21  1  0.000000  0.500000  0.000000  1
  Cl  Cl22  1  0.532331  0.926981  0.186296  1
  Cl  Cl23  1  0.467669  0.073019  0.813704  1
  Cl  Cl24  1  0.266342  0.044472  0.355573  1
  Cl  Cl25  1  0.733658  0.955528  0.644427  1
  Cl  Cl26  1  0.528018  0.110943  0.413189  1
  Cl  Cl27  1  0.471982  0.889057  0.586811  1
  Cl  Cl28  1  0.068605  0.191099  0.055122  1
  Cl  Cl29  1  0.931395  0.808901  0.944878  1
  Cl  Cl30  1  0.680148  0.696574  0.392691  1
  Cl  Cl31  1  0.319852  0.303426  0.607309  1
  Cl  Cl32  1  0.899756  0.130329  0.919890  1
  Cl  Cl33  1  0.100244  0.869671  0.080110  1
  Cl  Cl34  1  0.397073  0.244143  0.144981  1
  Cl  Cl35  1  0.602927  0.755857  0.855019  1
  Cl  Cl36  1  0.677369  0.426476  0.643225  1
  Cl  Cl37  1  0.322631  0.573524  0.356775  1
