# generated using pymatgen
data_Ce2Ga12Ir
_symmetry_space_group_name_H-M   'P 1'
_cell_length_a   6.14347900
_cell_length_b   6.14347900
_cell_length_c   15.70130800
_cell_angle_alpha   90.00000000
_cell_angle_beta   90.00000000
_cell_angle_gamma   90.00000000
_symmetry_Int_Tables_number   1
_chemical_formula_structural   Ce2Ga12Ir
_chemical_formula_sum   'Ce4 Ga24 Ir2'
_cell_volume   592.60401428
_cell_formula_units_Z   2
loop_
 _symmetry_equiv_pos_site_id
 _symmetry_equiv_pos_as_xyz
  1  'x, y, z'
loop_
 _atom_site_type_symbol
 _atom_site_label
 _atom_site_symmetry_multiplicity
 _atom_site_fract_x
 _atom_site_fract_y
 _atom_site_fract_z
 _atom_site_occupancy
  Ce  Ce0  1  0.000000  0.500000  0.759752  1
  Ce  Ce1  1  0.500000  0.000000  0.759752  1
  Ce  Ce2  1  0.000000  0.500000  0.240248  1
  Ce  Ce3  1  0.500000  0.000000  0.240248  1
  Ga  Ga4  1  0.670686  0.170686  0.429833  1
  Ga  Ga5  1  0.670686  0.829314  0.570167  1
  Ga  Ga6  1  0.170686  0.670686  0.570167  1
  Ga  Ga7  1  0.829314  0.329314  0.570167  1
  Ga  Ga8  1  0.500000  0.500000  0.187817  1
  Ga  Ga9  1  0.500000  0.500000  0.812183  1
  Ga  Ga10  1  0.000000  0.000000  0.812183  1
  Ga  Ga11  1  0.000000  0.000000  0.187817  1
  Ga  Ga12  1  0.500000  0.500000  0.343782  1
  Ga  Ga13  1  0.500000  0.500000  0.656218  1
  Ga  Ga14  1  0.000000  0.000000  0.656218  1
  Ga  Ga15  1  0.000000  0.000000  0.343782  1
  Ga  Ga16  1  0.250142  0.750142  0.912760  1
  Ga  Ga17  1  0.249858  0.250142  0.912760  1
  Ga  Ga18  1  0.750142  0.749858  0.912760  1
  Ga  Ga19  1  0.250142  0.249858  0.087240  1
  Ga  Ga20  1  0.749858  0.750142  0.087240  1
  Ga  Ga21  1  0.749858  0.249858  0.912760  1
  Ga  Ga22  1  0.750142  0.250142  0.087240  1
  Ga  Ga23  1  0.249858  0.749858  0.087240  1
  Ga  Ga24  1  0.329314  0.829314  0.429833  1
  Ga  Ga25  1  0.170686  0.329314  0.429833  1
  Ga  Ga26  1  0.829314  0.670686  0.429833  1
  Ga  Ga27  1  0.329314  0.170686  0.570167  1
  Ir  Ir28  1  0.500000  0.000000  0.000000  1
  Ir  Ir29  1  0.000000  0.500000  0.000000  1
