# generated using pymatgen
data_TbYMgNi7B2
_symmetry_space_group_name_H-M   'P 1'
_cell_length_a   5.01198600
_cell_length_b   5.01198683
_cell_length_c   14.25609700
_cell_angle_alpha   90.00000000
_cell_angle_beta   90.00000000
_cell_angle_gamma   120.00002094
_symmetry_Int_Tables_number   1
_chemical_formula_structural   TbYMgNi7B2
_chemical_formula_sum   'Tb2 Y2 Mg2 Ni14 B4'
_cell_volume   310.13512207
_cell_formula_units_Z   2
loop_
 _symmetry_equiv_pos_site_id
 _symmetry_equiv_pos_as_xyz
  1  'x, y, z'
loop_
 _atom_site_type_symbol
 _atom_site_label
 _atom_site_symmetry_multiplicity
 _atom_site_fract_x
 _atom_site_fract_y
 _atom_site_fract_z
 _atom_site_occupancy
  Tb  Tb0  1  0.333333  0.666667  0.744387  1
  Tb  Tb1  1  0.666667  0.333333  0.244387  1
  Y  Y2  1  0.666667  0.333333  0.470367  1
  Y  Y3  1  0.333333  0.666667  0.970367  1
  Mg  Mg4  1  0.333333  0.666667  0.532372  1
  Mg  Mg5  1  0.666667  0.333333  0.032372  1
  Ni  Ni6  1  0.000000  0.000000  0.001451  1
  Ni  Ni7  1  0.000000  0.000000  0.501451  1
  Ni  Ni8  1  0.165279  0.330558  0.147474  1
  Ni  Ni9  1  0.834721  0.669442  0.647474  1
  Ni  Ni10  1  0.669442  0.834721  0.147474  1
  Ni  Ni11  1  0.165279  0.834721  0.147474  1
  Ni  Ni12  1  0.834721  0.165279  0.647474  1
  Ni  Ni13  1  0.330558  0.165279  0.647474  1
  Ni  Ni14  1  0.833848  0.667696  0.852137  1
  Ni  Ni15  1  0.833848  0.166152  0.852137  1
  Ni  Ni16  1  0.332304  0.166152  0.852137  1
  Ni  Ni17  1  0.667696  0.833848  0.352137  1
  Ni  Ni18  1  0.166152  0.833848  0.352137  1
  Ni  Ni19  1  0.166152  0.332304  0.352137  1
  B  B20  1  0.333333  0.666667  0.250145  1
  B  B21  1  0.666667  0.333333  0.750145  1
  B  B22  1  0.000000  0.000000  0.252445  1
  B  B23  1  0.000000  0.000000  0.752445  1
