# generated using pymatgen
data_TlInAg2(NO3)8
_symmetry_space_group_name_H-M   'P 1'
_cell_length_a   8.16047925
_cell_length_b   7.96518191
_cell_length_c   8.08517135
_cell_angle_alpha   89.07031729
_cell_angle_beta   89.09204603
_cell_angle_gamma   88.85762142
_symmetry_Int_Tables_number   1
_chemical_formula_structural   TlInAg2(NO3)8
_chemical_formula_sum   'Tl1 In1 Ag2 N8 O24'
_cell_volume   525.29676483
_cell_formula_units_Z   1
loop_
 _symmetry_equiv_pos_site_id
 _symmetry_equiv_pos_as_xyz
  1  'x, y, z'
loop_
 _atom_site_type_symbol
 _atom_site_label
 _atom_site_symmetry_multiplicity
 _atom_site_fract_x
 _atom_site_fract_y
 _atom_site_fract_z
 _atom_site_occupancy
  Tl  Tl0  1  0.500000  0.500000  0.500000  1
  In  In1  1  0.000000  0.000000  0.500000  1
  Ag  Ag2  1  0.500000  0.000000  0.000000  1
  Ag  Ag3  1  0.000000  0.500000  0.000000  1
  N  N4  1  0.691070  0.162741  0.336734  1
  N  N5  1  0.648451  0.328768  0.817694  1
  N  N6  1  0.852618  0.828258  0.816513  1
  N  N7  1  0.819674  0.680417  0.354206  1
  N  N8  1  0.147382  0.171742  0.183487  1
  N  N9  1  0.180326  0.319583  0.645794  1
  N  N10  1  0.351549  0.671232  0.182306  1
  N  N11  1  0.308930  0.837259  0.663266  1
  O  O12  1  0.533794  0.231204  0.793589  1
  O  O13  1  0.572481  0.267847  0.319140  1
  O  O14  1  0.671936  0.456478  0.712841  1
  O  O15  1  0.712814  0.046736  0.238204  1
  O  O16  1  0.715502  0.706569  0.471673  1
  O  O17  1  0.749012  0.813085  0.929626  1
  O  O18  1  0.744716  0.316294  0.934251  1
  O  O19  1  0.787163  0.181396  0.460134  1
  O  O20  1  0.835702  0.956260  0.713180  1
  O  O21  1  0.802995  0.566695  0.253790  1
  O  O22  1  0.971619  0.727936  0.796553  1
  O  O23  1  0.944402  0.776435  0.342855  1
  O  O24  1  0.055598  0.223565  0.657145  1
  O  O25  1  0.028381  0.272064  0.203447  1
  O  O26  1  0.197005  0.433305  0.746210  1
  O  O27  1  0.164298  0.043740  0.286820  1
  O  O28  1  0.255284  0.683706  0.065749  1
  O  O29  1  0.212837  0.818604  0.539866  1
  O  O30  1  0.250988  0.186915  0.070374  1
  O  O31  1  0.284498  0.293431  0.528327  1
  O  O32  1  0.328064  0.543522  0.287159  1
  O  O33  1  0.287186  0.953264  0.761796  1
  O  O34  1  0.427519  0.732153  0.680860  1
  O  O35  1  0.466206  0.768796  0.206411  1
