# generated using pymatgen
data_Nd2Ho6Cd2PdRu
_symmetry_space_group_name_H-M   'P 1'
_cell_length_a   9.70595124
_cell_length_b   9.69863392
_cell_length_c   9.73273677
_cell_angle_alpha   59.93342701
_cell_angle_beta   59.85888207
_cell_angle_gamma   59.75005028
_symmetry_Int_Tables_number   1
_chemical_formula_structural   Nd2Ho6Cd2PdRu
_chemical_formula_sum   'Nd4 Ho12 Cd4 Pd2 Ru2'
_cell_volume   645.59519502
_cell_formula_units_Z   2
loop_
 _symmetry_equiv_pos_site_id
 _symmetry_equiv_pos_as_xyz
  1  'x, y, z'
loop_
 _atom_site_type_symbol
 _atom_site_label
 _atom_site_symmetry_multiplicity
 _atom_site_fract_x
 _atom_site_fract_y
 _atom_site_fract_z
 _atom_site_occupancy
  Nd  Nd0  1  0.560493  0.935256  0.566490  1
  Nd  Nd1  1  0.935256  0.560493  0.937760  1
  Nd  Nd2  1  0.565385  0.565385  0.934615  1
  Nd  Nd3  1  0.936387  0.936387  0.563613  1
  Ho  Ho4  1  0.351576  0.347943  0.352182  1
  Ho  Ho5  1  0.347943  0.351576  0.948300  1
  Ho  Ho6  1  0.343066  0.955494  0.352709  1
  Ho  Ho7  1  0.955494  0.343066  0.348731  1
  Ho  Ho8  1  0.821504  0.184065  0.186108  1
  Ho  Ho9  1  0.184065  0.821504  0.808323  1
  Ho  Ho10  1  0.186601  0.817543  0.188550  1
  Ho  Ho11  1  0.817543  0.186601  0.807306  1
  Ho  Ho12  1  0.187058  0.187058  0.812942  1
  Ho  Ho13  1  0.810512  0.810512  0.189488  1
  Ho  Ho14  1  0.943223  0.549948  0.562373  1
  Ho  Ho15  1  0.549948  0.943223  0.944455  1
  Cd  Cd16  1  0.582504  0.576496  0.579333  1
  Cd  Cd17  1  0.576496  0.582504  0.261668  1
  Cd  Cd18  1  0.579056  0.258523  0.582463  1
  Cd  Cd19  1  0.258523  0.579056  0.579958  1
  Pd  Pd20  1  0.142244  0.572174  0.145616  1
  Pd  Pd21  1  0.572174  0.142244  0.139965  1
  Ru  Ru22  1  0.152196  0.140753  0.135505  1
  Ru  Ru23  1  0.140753  0.152196  0.571546  1
