# generated using pymatgen
data_Y6Ho2Cu3Si12Pd
_symmetry_space_group_name_H-M   'P 1'
_cell_length_a   8.04271000
_cell_length_b   8.03364465
_cell_length_c   8.12258002
_cell_angle_alpha   90.00637557
_cell_angle_beta   90.00000000
_cell_angle_gamma   120.03732674
_symmetry_Int_Tables_number   1
_chemical_formula_structural   Y6Ho2Cu3Si12Pd
_chemical_formula_sum   'Y6 Ho2 Cu3 Si12 Pd1'
_cell_volume   454.33498481
_cell_formula_units_Z   1
loop_
 _symmetry_equiv_pos_site_id
 _symmetry_equiv_pos_as_xyz
  1  'x, y, z'
loop_
 _atom_site_type_symbol
 _atom_site_label
 _atom_site_symmetry_multiplicity
 _atom_site_fract_x
 _atom_site_fract_y
 _atom_site_fract_z
 _atom_site_occupancy
  Y  Y0  1  0.998567  0.499299  0.249205  1
  Y  Y1  1  0.998596  0.499303  0.750793  1
  Y  Y2  1  0.500732  0.499299  0.249205  1
  Y  Y3  1  0.500708  0.499303  0.750793  1
  Y  Y4  1  0.000013  0.000027  0.249058  1
  Y  Y5  1  0.000013  0.000025  0.750875  1
  Ho  Ho6  1  0.500588  0.001176  0.249382  1
  Ho  Ho7  1  0.500553  0.001106  0.750586  1
  Cu  Cu8  1  0.333889  0.667778  0.000445  1
  Cu  Cu9  1  0.666020  0.332039  0.999941  1
  Cu  Cu10  1  0.666139  0.332278  0.499983  1
  Si  Si11  1  0.169639  0.339277  0.999950  1
  Si  Si12  1  0.830862  0.661724  0.999990  1
  Si  Si13  1  0.660904  0.830641  0.999963  1
  Si  Si14  1  0.830990  0.661979  0.500008  1
  Si  Si15  1  0.338055  0.168811  0.999975  1
  Si  Si16  1  0.166351  0.332701  0.500002  1
  Si  Si17  1  0.169738  0.830641  0.999963  1
  Si  Si18  1  0.337587  0.168738  0.499980  1
  Si  Si19  1  0.830756  0.168811  0.999975  1
  Si  Si20  1  0.668059  0.834105  0.499974  1
  Si  Si21  1  0.831152  0.168738  0.499980  1
  Si  Si22  1  0.166047  0.834105  0.499974  1
  Pd  Pd23  1  0.334045  0.668092  0.500003  1
