# generated using pymatgen
data_LiHo6Co(P3Rh4)4
_symmetry_space_group_name_H-M   'P 1'
_cell_length_a   3.89098600
_cell_length_b   11.16299300
_cell_length_c   12.75046700
_cell_angle_alpha   90.00000000
_cell_angle_beta   90.00000000
_cell_angle_gamma   90.00000000
_symmetry_Int_Tables_number   1
_chemical_formula_structural   LiHo6Co(P3Rh4)4
_chemical_formula_sum   'Li1 Ho6 Co1 P12 Rh16'
_cell_volume   553.81716505
_cell_formula_units_Z   1
loop_
 _symmetry_equiv_pos_site_id
 _symmetry_equiv_pos_as_xyz
  1  'x, y, z'
loop_
 _atom_site_type_symbol
 _atom_site_label
 _atom_site_symmetry_multiplicity
 _atom_site_fract_x
 _atom_site_fract_y
 _atom_site_fract_z
 _atom_site_occupancy
  Li  Li0  1  0.500000  0.500000  0.155315  1
  Ho  Ho1  1  0.000000  0.500000  0.515954  1
  Ho  Ho2  1  0.500000  0.000000  0.478978  1
  Ho  Ho3  1  0.500000  0.818554  0.203633  1
  Ho  Ho4  1  0.500000  0.181446  0.203633  1
  Ho  Ho5  1  0.000000  0.686047  0.797032  1
  Ho  Ho6  1  0.000000  0.313953  0.797032  1
  Co  Co7  1  0.500000  0.000000  0.020688  1
  P  P8  1  0.500000  0.315534  0.619460  1
  P  P9  1  0.500000  0.684466  0.619460  1
  P  P10  1  0.000000  0.186319  0.381393  1
  P  P11  1  0.000000  0.813681  0.381393  1
  P  P12  1  0.500000  0.500000  0.881182  1
  P  P13  1  0.000000  0.000000  0.119639  1
  P  P14  1  0.500000  0.854880  0.894941  1
  P  P15  1  0.500000  0.145120  0.894941  1
  P  P16  1  0.000000  0.660026  0.107316  1
  P  P17  1  0.000000  0.339974  0.107316  1
  P  P18  1  0.500000  0.500000  0.346061  1
  P  P19  1  0.000000  0.000000  0.647805  1
  Rh  Rh20  1  0.000000  0.500000  0.983646  1
  Rh  Rh21  1  0.500000  0.290425  0.432931  1
  Rh  Rh22  1  0.500000  0.709575  0.432931  1
  Rh  Rh23  1  0.000000  0.204324  0.571552  1
  Rh  Rh24  1  0.000000  0.795676  0.571552  1
  Rh  Rh25  1  0.500000  0.874329  0.711552  1
  Rh  Rh26  1  0.500000  0.125671  0.711552  1
  Rh  Rh27  1  0.000000  0.626664  0.289182  1
  Rh  Rh28  1  0.000000  0.373336  0.289182  1
  Rh  Rh29  1  0.500000  0.328982  0.994413  1
  Rh  Rh30  1  0.500000  0.671018  0.994413  1
  Rh  Rh31  1  0.000000  0.159908  0.005959  1
  Rh  Rh32  1  0.000000  0.840092  0.005959  1
  Rh  Rh33  1  0.000000  0.000000  0.830260  1
  Rh  Rh34  1  0.500000  0.500000  0.702928  1
  Rh  Rh35  1  0.000000  0.000000  0.298811  1
