# generated using pymatgen
data_YLu4Ni19
_symmetry_space_group_name_H-M   'P 1'
_cell_length_a   4.86600253
_cell_length_b   4.86600340
_cell_length_c   16.26832788
_cell_angle_alpha   81.39888724
_cell_angle_beta   81.39888673
_cell_angle_gamma   59.99999472
_symmetry_Int_Tables_number   1
_chemical_formula_structural   YLu4Ni19
_chemical_formula_sum   'Y1 Lu4 Ni19'
_cell_volume   328.58214195
_cell_formula_units_Z   1
loop_
 _symmetry_equiv_pos_site_id
 _symmetry_equiv_pos_as_xyz
  1  'x, y, z'
loop_
 _atom_site_type_symbol
 _atom_site_label
 _atom_site_symmetry_multiplicity
 _atom_site_fract_x
 _atom_site_fract_y
 _atom_site_fract_z
 _atom_site_occupancy
  Y  Y0  1  0.000000  0.000000  0.000000  1
  Lu  Lu1  1  0.921418  0.921418  0.235747  1
  Lu  Lu2  1  0.078582  0.078582  0.764253  1
  Lu  Lu3  1  0.847963  0.847963  0.456110  1
  Lu  Lu4  1  0.152037  0.152037  0.543890  1
  Ni  Ni5  1  0.500000  0.500000  0.500000  1
  Ni  Ni6  1  0.749617  0.749618  0.751150  1
  Ni  Ni7  1  0.250382  0.250382  0.248851  1
  Ni  Ni8  1  0.666691  0.666691  0.999930  1
  Ni  Ni9  1  0.333309  0.333309  0.000070  1
  Ni  Ni10  1  0.583733  0.583733  0.248801  1
  Ni  Ni11  1  0.416267  0.416267  0.751199  1
  Ni  Ni12  1  0.375178  0.375178  0.372571  1
  Ni  Ni13  1  0.877071  0.375178  0.372571  1
  Ni  Ni14  1  0.375178  0.877071  0.372571  1
  Ni  Ni15  1  0.624822  0.624822  0.627429  1
  Ni  Ni16  1  0.122929  0.624822  0.627429  1
  Ni  Ni17  1  0.624822  0.122929  0.627429  1
  Ni  Ni18  1  0.458769  0.458769  0.123940  1
  Ni  Ni19  1  0.958522  0.458769  0.123940  1
  Ni  Ni20  1  0.458769  0.958522  0.123940  1
  Ni  Ni21  1  0.541231  0.541231  0.876060  1
  Ni  Ni22  1  0.041478  0.541231  0.876060  1
  Ni  Ni23  1  0.541231  0.041478  0.876060  1
