# generated using pymatgen
data_PrEu2(BPt2)3
_symmetry_space_group_name_H-M   'P 1'
_cell_length_a   5.57445802
_cell_length_b   5.57445834
_cell_length_c   7.78804300
_cell_angle_alpha   90.00000000
_cell_angle_beta   90.00000000
_cell_angle_gamma   120.41899941
_symmetry_Int_Tables_number   1
_chemical_formula_structural   PrEu2(BPt2)3
_chemical_formula_sum   'Pr1 Eu2 B3 Pt6'
_cell_volume   208.69648129
_cell_formula_units_Z   1
loop_
 _symmetry_equiv_pos_site_id
 _symmetry_equiv_pos_as_xyz
  1  'x, y, z'
loop_
 _atom_site_type_symbol
 _atom_site_label
 _atom_site_symmetry_multiplicity
 _atom_site_fract_x
 _atom_site_fract_y
 _atom_site_fract_z
 _atom_site_occupancy
  Pr  Pr0  1  0.500000  0.500000  0.833333  1
  Eu  Eu1  1  0.500000  0.000000  0.496620  1
  Eu  Eu2  1  0.000000  0.500000  0.170047  1
  B  B3  1  0.500000  0.000000  0.003508  1
  B  B4  1  0.000000  0.500000  0.663159  1
  B  B5  1  0.500000  0.500000  0.333333  1
  Pt  Pt6  1  0.149788  0.296376  0.500475  1
  Pt  Pt7  1  0.703624  0.850212  0.166192  1
  Pt  Pt8  1  0.850212  0.703624  0.500475  1
  Pt  Pt9  1  0.296376  0.149788  0.166192  1
  Pt  Pt10  1  0.152079  0.847921  0.833333  1
  Pt  Pt11  1  0.847921  0.152079  0.833333  1
