# generated using pymatgen
data_Lu8Re2B24IrW
_symmetry_space_group_name_H-M   'P 1'
_cell_length_a   3.59870000
_cell_length_b   9.09107710
_cell_length_c   11.45190323
_cell_angle_alpha   90.09270144
_cell_angle_beta   90.00000000
_cell_angle_gamma   90.00000000
_symmetry_Int_Tables_number   1
_chemical_formula_structural   Lu8Re2B24IrW
_chemical_formula_sum   'Lu8 Re2 B24 Ir1 W1'
_cell_volume   374.66065330
_cell_formula_units_Z   1
loop_
 _symmetry_equiv_pos_site_id
 _symmetry_equiv_pos_as_xyz
  1  'x, y, z'
loop_
 _atom_site_type_symbol
 _atom_site_label
 _atom_site_symmetry_multiplicity
 _atom_site_fract_x
 _atom_site_fract_y
 _atom_site_fract_z
 _atom_site_occupancy
  Lu  Lu0  1  0.000000  0.318379  0.408544  1
  Lu  Lu1  1  0.000000  0.683907  0.586138  1
  Lu  Lu2  1  0.000000  0.822819  0.086159  1
  Lu  Lu3  1  0.000000  0.173527  0.918946  1
  Lu  Lu4  1  0.000000  0.946942  0.371878  1
  Lu  Lu5  1  0.000000  0.056255  0.629326  1
  Lu  Lu6  1  0.000000  0.441838  0.126458  1
  Lu  Lu7  1  0.000000  0.558692  0.871851  1
  Re  Re8  1  0.000000  0.138530  0.178477  1
  Re  Re9  1  0.000000  0.861737  0.819712  1
  B  B10  1  0.500000  0.550180  0.437332  1
  B  B11  1  0.500000  0.445672  0.566834  1
  B  B12  1  0.500000  0.052381  0.066470  1
  B  B13  1  0.500000  0.946945  0.933909  1
  B  B14  1  0.500000  0.753599  0.422941  1
  B  B15  1  0.500000  0.249960  0.579619  1
  B  B16  1  0.500000  0.248789  0.079940  1
  B  B17  1  0.500000  0.749906  0.919298  1
  B  B18  1  0.500000  0.795889  0.263736  1
  B  B19  1  0.500000  0.207642  0.735666  1
  B  B20  1  0.500000  0.291764  0.233710  1
  B  B21  1  0.500000  0.707148  0.764359  1
  B  B22  1  0.500000  0.630926  0.181873  1
  B  B23  1  0.500000  0.368122  0.816869  1
  B  B24  1  0.500000  0.131015  0.314901  1
  B  B25  1  0.500000  0.869821  0.684344  1
  B  B26  1  0.500000  0.982003  0.212802  1
  B  B27  1  0.500000  0.018983  0.788019  1
  B  B28  1  0.500000  0.475793  0.286807  1
  B  B29  1  0.500000  0.518035  0.712606  1
  B  B30  1  0.500000  0.601942  0.026955  1
  B  B31  1  0.500000  0.396863  0.970220  1
  B  B32  1  0.500000  0.104537  0.472113  1
  B  B33  1  0.500000  0.900674  0.529144  1
  Ir  Ir34  1  0.000000  0.361469  0.679681  1
  W  W35  1  0.000000  0.637316  0.322360  1
