# generated using pymatgen
data_Sc21PaOs8
_symmetry_space_group_name_H-M   'P 1'
_cell_length_a   9.49120831
_cell_length_b   9.49120831
_cell_length_c   9.49120855
_cell_angle_alpha   60.09163240
_cell_angle_beta   60.09163206
_cell_angle_gamma   60.09163468
_symmetry_Int_Tables_number   1
_chemical_formula_structural   Sc21PaOs8
_chemical_formula_sum   'Sc21 Pa1 Os8'
_cell_volume   605.82939330
_cell_formula_units_Z   1
loop_
 _symmetry_equiv_pos_site_id
 _symmetry_equiv_pos_as_xyz
  1  'x, y, z'
loop_
 _atom_site_type_symbol
 _atom_site_label
 _atom_site_symmetry_multiplicity
 _atom_site_fract_x
 _atom_site_fract_y
 _atom_site_fract_z
 _atom_site_occupancy
  Sc  Sc0  1  0.532285  0.156560  0.156560  1
  Sc  Sc1  1  0.156560  0.156560  0.532285  1
  Sc  Sc2  1  0.156560  0.532285  0.156560  1
  Sc  Sc3  1  0.844757  0.844757  0.463885  1
  Sc  Sc4  1  0.844757  0.463885  0.844757  1
  Sc  Sc5  1  0.463885  0.844757  0.844757  1
  Sc  Sc6  1  0.157613  0.157613  0.157613  1
  Sc  Sc7  1  0.198484  0.801020  0.198484  1
  Sc  Sc8  1  0.202744  0.800642  0.800642  1
  Sc  Sc9  1  0.801020  0.198484  0.198484  1
  Sc  Sc10  1  0.800642  0.800642  0.202744  1
  Sc  Sc11  1  0.198484  0.198484  0.801020  1
  Sc  Sc12  1  0.800642  0.202744  0.800642  1
  Sc  Sc13  1  0.381801  0.381801  0.381801  1
  Sc  Sc14  1  0.153277  0.611489  0.611489  1
  Sc  Sc15  1  0.611489  0.153277  0.611489  1
  Sc  Sc16  1  0.611489  0.611489  0.153277  1
  Sc  Sc17  1  0.385866  0.849923  0.385866  1
  Sc  Sc18  1  0.385866  0.385866  0.849923  1
  Sc  Sc19  1  0.849923  0.385866  0.385866  1
  Sc  Sc20  1  0.618281  0.618281  0.618281  1
  Pa  Pa21  1  0.842826  0.842826  0.842826  1
  Os  Os22  1  0.499732  0.499732  0.000886  1
  Os  Os23  1  0.995084  0.995084  0.509645  1
  Os  Os24  1  0.499732  0.000886  0.499732  1
  Os  Os25  1  0.000886  0.499732  0.499732  1
  Os  Os26  1  0.509645  0.995084  0.995084  1
  Os  Os27  1  0.995084  0.509645  0.995084  1
  Os  Os28  1  0.500223  0.500223  0.500223  1
  Os  Os29  1  0.000362  0.000362  0.000362  1
