# generated using pymatgen
data_YHo5Al24(Os3Rh)2
_symmetry_space_group_name_H-M   'P 1'
_cell_length_a   8.78400779
_cell_length_b   8.86334901
_cell_length_c   9.57724400
_cell_angle_alpha   90.00000000
_cell_angle_beta   90.00000000
_cell_angle_gamma   120.30278373
_symmetry_Int_Tables_number   1
_chemical_formula_structural   YHo5Al24(Os3Rh)2
_chemical_formula_sum   'Y1 Ho5 Al24 Os6 Rh2'
_cell_volume   643.76682254
_cell_formula_units_Z   1
loop_
 _symmetry_equiv_pos_site_id
 _symmetry_equiv_pos_as_xyz
  1  'x, y, z'
loop_
 _atom_site_type_symbol
 _atom_site_label
 _atom_site_symmetry_multiplicity
 _atom_site_fract_x
 _atom_site_fract_y
 _atom_site_fract_z
 _atom_site_occupancy
  Y  Y0  1  0.800527  0.185845  0.750000  1
  Ho  Ho1  1  0.200774  0.386709  0.250000  1
  Ho  Ho2  1  0.799000  0.613197  0.750000  1
  Ho  Ho3  1  0.610684  0.805187  0.250000  1
  Ho  Ho4  1  0.389144  0.195005  0.750000  1
  Ho  Ho5  1  0.201075  0.814163  0.250000  1
  Al  Al6  1  0.333589  0.666795  0.022444  1
  Al  Al7  1  0.666128  0.333117  0.978059  1
  Al  Al8  1  0.666128  0.333117  0.521941  1
  Al  Al9  1  0.333589  0.666795  0.477556  1
  Al  Al10  1  0.163118  0.326304  0.576520  1
  Al  Al11  1  0.837228  0.673969  0.423125  1
  Al  Al12  1  0.671214  0.835384  0.575015  1
  Al  Al13  1  0.837228  0.673969  0.076875  1
  Al  Al14  1  0.328414  0.164333  0.424562  1
  Al  Al15  1  0.163118  0.326304  0.923480  1
  Al  Al16  1  0.162801  0.837282  0.576665  1
  Al  Al17  1  0.328414  0.164333  0.075438  1
  Al  Al18  1  0.837065  0.162758  0.422781  1
  Al  Al19  1  0.671214  0.835384  0.924985  1
  Al  Al20  1  0.837065  0.162758  0.077219  1
  Al  Al21  1  0.162801  0.837282  0.923335  1
  Al  Al22  1  0.565734  0.126557  0.250000  1
  Al  Al23  1  0.434027  0.873547  0.750000  1
  Al  Al24  1  0.881254  0.440823  0.250000  1
  Al  Al25  1  0.119175  0.559805  0.750000  1
  Al  Al26  1  0.565504  0.439383  0.250000  1
  Al  Al27  1  0.434445  0.560739  0.750000  1
  Al  Al28  1  0.002951  0.001607  0.250000  1
  Al  Al29  1  0.997837  0.997603  0.750000  1
  Os  Os30  1  0.499576  0.999761  0.000394  1
  Os  Os31  1  0.499576  0.999761  0.499606  1
  Os  Os32  1  0.499972  0.500005  0.999997  1
  Os  Os33  1  0.499972  0.500005  0.500003  1
  Os  Os34  1  0.999856  0.000093  0.000063  1
  Os  Os35  1  0.999856  0.000093  0.499937  1
  Rh  Rh36  1  0.999973  0.500114  0.999990  1
  Rh  Rh37  1  0.999973  0.500114  0.500010  1
