# generated using pymatgen
data_DyBi3IrRh3O14
_symmetry_space_group_name_H-M   'P 1'
_cell_length_a   7.35092680
_cell_length_b   7.31033423
_cell_length_c   7.34755418
_cell_angle_alpha   59.67343731
_cell_angle_beta   59.98480416
_cell_angle_gamma   59.81614100
_symmetry_Int_Tables_number   1
_chemical_formula_structural   DyBi3IrRh3O14
_chemical_formula_sum   'Dy1 Bi3 Ir1 Rh3 O14'
_cell_volume   278.08025957
_cell_formula_units_Z   1
loop_
 _symmetry_equiv_pos_site_id
 _symmetry_equiv_pos_as_xyz
  1  'x, y, z'
loop_
 _atom_site_type_symbol
 _atom_site_label
 _atom_site_symmetry_multiplicity
 _atom_site_fract_x
 _atom_site_fract_y
 _atom_site_fract_z
 _atom_site_occupancy
  Dy  Dy0  1  0.125000  0.625000  0.125000  1
  Bi  Bi1  1  0.125000  0.125000  0.125000  1
  Bi  Bi2  1  0.625000  0.125000  0.125000  1
  Bi  Bi3  1  0.125000  0.125000  0.625000  1
  Ir  Ir4  1  0.625000  0.625000  0.125000  1
  Rh  Rh5  1  0.625000  0.625000  0.625000  1
  Rh  Rh6  1  0.125000  0.625000  0.625000  1
  Rh  Rh7  1  0.625000  0.125000  0.625000  1
  O  O8  1  0.248417  0.256005  0.247162  1
  O  O9  1  0.292620  0.704817  0.287430  1
  O  O10  1  0.957638  0.958132  0.541103  1
  O  O11  1  0.543128  0.958132  0.541103  1
  O  O12  1  0.715133  0.704817  0.287430  1
  O  O13  1  0.961497  0.544675  0.532332  1
  O  O14  1  0.706872  0.291868  0.708897  1
  O  O15  1  0.292362  0.291868  0.708897  1
  O  O16  1  0.705921  0.296798  0.291358  1
  O  O17  1  0.288503  0.705325  0.717668  1
  O  O18  1  0.957380  0.545183  0.962570  1
  O  O19  1  0.534867  0.545183  0.962570  1
  O  O20  1  0.001583  0.993995  0.002838  1
  O  O21  1  0.544079  0.953202  0.958642  1
