# generated using pymatgen
data_AcSO
_symmetry_space_group_name_H-M   'P 1'
_cell_length_a   7.57181777
_cell_length_b   7.57181761
_cell_length_c   6.13201300
_cell_angle_alpha   90.00000000
_cell_angle_beta   90.00000000
_cell_angle_gamma   132.18237130
_symmetry_Int_Tables_number   1
_chemical_formula_structural   AcSO
_chemical_formula_sum   'Ac4 S4 O4'
_cell_volume   260.51225443
_cell_formula_units_Z   4
loop_
 _symmetry_equiv_pos_site_id
 _symmetry_equiv_pos_as_xyz
  1  'x, y, z'
loop_
 _atom_site_type_symbol
 _atom_site_label
 _atom_site_symmetry_multiplicity
 _atom_site_fract_x
 _atom_site_fract_y
 _atom_site_fract_z
 _atom_site_occupancy
  Ac  Ac0  1  0.159726  0.840274  0.500000  1
  Ac  Ac1  1  0.340274  0.659726  0.000000  1
  Ac  Ac2  1  0.840274  0.159726  0.500000  1
  Ac  Ac3  1  0.659726  0.340274  0.000000  1
  S  S4  1  0.621881  0.621881  0.622151  1
  S  S5  1  0.878119  0.878119  0.122151  1
  S  S6  1  0.121881  0.121881  0.877849  1
  S  S7  1  0.378119  0.378119  0.377849  1
  O  O8  1  0.004846  0.504846  0.750000  1
  O  O9  1  0.495154  0.995154  0.250000  1
  O  O10  1  0.995154  0.495154  0.250000  1
  O  O11  1  0.504846  0.004846  0.750000  1
