# generated using pymatgen
data_Dy4HoAg5
_symmetry_space_group_name_H-M   'P 1'
_cell_length_a   3.63944200
_cell_length_b   3.63944200
_cell_length_c   18.15543900
_cell_angle_alpha   90.00000000
_cell_angle_beta   90.00000000
_cell_angle_gamma   90.00000000
_symmetry_Int_Tables_number   1
_chemical_formula_structural   Dy4HoAg5
_chemical_formula_sum   'Dy4 Ho1 Ag5'
_cell_volume   240.47855848
_cell_formula_units_Z   1
loop_
 _symmetry_equiv_pos_site_id
 _symmetry_equiv_pos_as_xyz
  1  'x, y, z'
loop_
 _atom_site_type_symbol
 _atom_site_label
 _atom_site_symmetry_multiplicity
 _atom_site_fract_x
 _atom_site_fract_y
 _atom_site_fract_z
 _atom_site_occupancy
  Dy  Dy0  1  0.000000  0.000000  0.199540  1
  Dy  Dy1  1  0.000000  0.000000  0.399899  1
  Dy  Dy2  1  0.000000  0.000000  0.600101  1
  Dy  Dy3  1  0.000000  0.000000  0.800460  1
  Ho  Ho4  1  0.000000  0.000000  0.000000  1
  Ag  Ag5  1  0.500000  0.500000  0.098743  1
  Ag  Ag6  1  0.500000  0.500000  0.299800  1
  Ag  Ag7  1  0.500000  0.500000  0.500000  1
  Ag  Ag8  1  0.500000  0.500000  0.700200  1
  Ag  Ag9  1  0.500000  0.500000  0.901257  1
