# generated using pymatgen
data_V2Ni20B6Mo
_symmetry_space_group_name_H-M   'P 1'
_cell_length_a   7.41110954
_cell_length_b   7.41110915
_cell_length_c   7.41110900
_cell_angle_alpha   59.99999622
_cell_angle_beta   59.99999795
_cell_angle_gamma   59.99999690
_symmetry_Int_Tables_number   1
_chemical_formula_structural   V2Ni20B6Mo
_chemical_formula_sum   'V2 Ni20 B6 Mo1'
_cell_volume   287.82904435
_cell_formula_units_Z   1
loop_
 _symmetry_equiv_pos_site_id
 _symmetry_equiv_pos_as_xyz
  1  'x, y, z'
loop_
 _atom_site_type_symbol
 _atom_site_label
 _atom_site_symmetry_multiplicity
 _atom_site_fract_x
 _atom_site_fract_y
 _atom_site_fract_z
 _atom_site_occupancy
  V  V0  1  0.000000  0.000000  0.000000  1
  V  V1  1  0.250000  0.250000  0.250000  1
  Ni  Ni2  1  0.615242  0.615242  0.154271  1
  Ni  Ni3  1  0.615242  0.154271  0.615242  1
  Ni  Ni4  1  0.154271  0.615242  0.615242  1
  Ni  Ni5  1  0.615242  0.615242  0.615242  1
  Ni  Ni6  1  0.380466  0.380466  0.858605  1
  Ni  Ni7  1  0.380466  0.858605  0.380466  1
  Ni  Ni8  1  0.858605  0.380466  0.380466  1
  Ni  Ni9  1  0.380466  0.380466  0.380466  1
  Ni  Ni10  1  0.999299  0.999299  0.340942  1
  Ni  Ni11  1  0.660460  0.999299  0.340942  1
  Ni  Ni12  1  0.999299  0.660460  0.340942  1
  Ni  Ni13  1  0.660460  0.340942  0.999299  1
  Ni  Ni14  1  0.999299  0.340942  0.999299  1
  Ni  Ni15  1  0.999299  0.340942  0.660460  1
  Ni  Ni16  1  0.340942  0.660460  0.999299  1
  Ni  Ni17  1  0.340942  0.999299  0.660460  1
  Ni  Ni18  1  0.340942  0.999299  0.999299  1
  Ni  Ni19  1  0.999299  0.999299  0.660460  1
  Ni  Ni20  1  0.999299  0.660460  0.999299  1
  Ni  Ni21  1  0.660460  0.999299  0.999299  1
  B  B22  1  0.732362  0.732362  0.267638  1
  B  B23  1  0.267638  0.732362  0.267638  1
  B  B24  1  0.732362  0.267638  0.267638  1
  B  B25  1  0.267638  0.267638  0.732362  1
  B  B26  1  0.732362  0.267638  0.732362  1
  B  B27  1  0.267638  0.732362  0.732362  1
  Mo  Mo28  1  0.750000  0.750000  0.750000  1
