# generated using pymatgen
data_Tm4Al6ReIr
_symmetry_space_group_name_H-M   'P 1'
_cell_length_a   5.45908900
_cell_length_b   5.45908810
_cell_length_c   8.77181500
_cell_angle_alpha   90.00000000
_cell_angle_beta   90.00000000
_cell_angle_gamma   119.99999942
_symmetry_Int_Tables_number   1
_chemical_formula_structural   Tm4Al6ReIr
_chemical_formula_sum   'Tm4 Al6 Re1 Ir1'
_cell_volume   226.39163471
_cell_formula_units_Z   1
loop_
 _symmetry_equiv_pos_site_id
 _symmetry_equiv_pos_as_xyz
  1  'x, y, z'
loop_
 _atom_site_type_symbol
 _atom_site_label
 _atom_site_symmetry_multiplicity
 _atom_site_fract_x
 _atom_site_fract_y
 _atom_site_fract_z
 _atom_site_occupancy
  Tm  Tm0  1  0.666668  0.333334  0.055662  1
  Tm  Tm1  1  0.666668  0.333334  0.447533  1
  Tm  Tm2  1  0.333333  0.666666  0.552468  1
  Tm  Tm3  1  0.333333  0.666666  0.944337  1
  Al  Al4  1  0.163320  0.326639  0.252678  1
  Al  Al5  1  0.163319  0.836680  0.252678  1
  Al  Al6  1  0.673360  0.836680  0.252678  1
  Al  Al7  1  0.326639  0.163319  0.747321  1
  Al  Al8  1  0.836680  0.163319  0.747321  1
  Al  Al9  1  0.836681  0.673361  0.747321  1
  Re  Re10  1  0.000000  0.000000  0.000000  1
  Ir  Ir11  1  0.000000  0.000000  0.500000  1
