# generated using pymatgen
data_La20(Ru3Pt)3
_symmetry_space_group_name_H-M   'P 1'
_cell_length_a   11.41402008
_cell_length_b   11.41401314
_cell_length_c   6.68890926
_cell_angle_alpha   89.54858922
_cell_angle_beta   89.54861208
_cell_angle_gamma   89.58634152
_symmetry_Int_Tables_number   1
_chemical_formula_structural   La20(Ru3Pt)3
_chemical_formula_sum   'La20 Ru9 Pt3'
_cell_volume   871.35318285
_cell_formula_units_Z   1
loop_
 _symmetry_equiv_pos_site_id
 _symmetry_equiv_pos_as_xyz
  1  'x, y, z'
loop_
 _atom_site_type_symbol
 _atom_site_label
 _atom_site_symmetry_multiplicity
 _atom_site_fract_x
 _atom_site_fract_y
 _atom_site_fract_z
 _atom_site_occupancy
  La  La0  1  0.084766  0.290418  0.112048  1
  La  La1  1  0.793287  0.406125  0.112408  1
  La  La2  1  0.206904  0.587619  0.111671  1
  La  La3  1  0.910989  0.705433  0.111269  1
  La  La4  1  0.412381  0.793097  0.388331  1
  La  La5  1  0.593875  0.206712  0.387593  1
  La  La6  1  0.294568  0.089011  0.388731  1
  La  La7  1  0.709581  0.915235  0.387952  1
  La  La8  1  0.411415  0.201514  0.878422  1
  La  La9  1  0.705683  0.091946  0.889968  1
  La  La10  1  0.296088  0.911083  0.881170  1
  La  La11  1  0.591025  0.799440  0.879487  1
  La  La12  1  0.088917  0.703914  0.618830  1
  La  La13  1  0.908054  0.294315  0.610032  1
  La  La14  1  0.200561  0.408975  0.620513  1
  La  La15  1  0.798485  0.588585  0.621578  1
  La  La16  1  0.994704  0.002198  0.995710  1
  La  La17  1  0.500240  0.499167  0.995264  1
  La  La18  1  0.500832  0.499759  0.504736  1
  La  La19  1  0.997802  0.005296  0.504290  1
  Ru  Ru20  1  0.848792  0.151209  0.250000  1
  Ru  Ru21  1  0.352812  0.647188  0.749999  1
  Ru  Ru22  1  0.151535  0.151229  0.748801  1
  Ru  Ru23  1  0.848771  0.848464  0.751199  1
  Ru  Ru24  1  0.645648  0.354352  0.750000  1
  Ru  Ru25  1  0.000563  0.500938  0.376005  1
  Ru  Ru26  1  0.499062  0.999437  0.123994  1
  Ru  Ru27  1  0.499065  0.999921  0.617932  1
  Ru  Ru28  1  0.000079  0.500936  0.882067  1
  Pt  Pt29  1  0.154216  0.845784  0.250000  1
  Pt  Pt30  1  0.344241  0.344940  0.249650  1
  Pt  Pt31  1  0.655060  0.655759  0.250350  1
