# generated using pymatgen
data_SmDyFe3Tc14C3
_symmetry_space_group_name_H-M   'P 1'
_cell_length_a   6.89801853
_cell_length_b   6.89801813
_cell_length_c   6.89801763
_cell_angle_alpha   82.50978801
_cell_angle_beta   82.50978235
_cell_angle_gamma   82.50977713
_symmetry_Int_Tables_number   1
_chemical_formula_structural   SmDyFe3Tc14C3
_chemical_formula_sum   'Sm1 Dy1 Fe3 Tc14 C3'
_cell_volume   320.49576533
_cell_formula_units_Z   1
loop_
 _symmetry_equiv_pos_site_id
 _symmetry_equiv_pos_as_xyz
  1  'x, y, z'
loop_
 _atom_site_type_symbol
 _atom_site_label
 _atom_site_symmetry_multiplicity
 _atom_site_fract_x
 _atom_site_fract_y
 _atom_site_fract_z
 _atom_site_occupancy
  Sm  Sm0  1  0.650557  0.650557  0.650557  1
  Dy  Dy1  1  0.348253  0.348253  0.348253  1
  Fe  Fe2  1  0.999632  0.999632  0.500227  1
  Fe  Fe3  1  0.500227  0.999632  0.999632  1
  Fe  Fe4  1  0.999632  0.500227  0.999632  1
  Tc  Tc5  1  0.724079  0.275604  0.000320  1
  Tc  Tc6  1  0.000320  0.724079  0.275604  1
  Tc  Tc7  1  0.275604  0.000320  0.724079  1
  Tc  Tc8  1  0.000320  0.275604  0.724079  1
  Tc  Tc9  1  0.724079  0.000320  0.275604  1
  Tc  Tc10  1  0.275604  0.724079  0.000320  1
  Tc  Tc11  1  0.347485  0.347485  0.862631  1
  Tc  Tc12  1  0.862631  0.347485  0.347485  1
  Tc  Tc13  1  0.347485  0.862631  0.347485  1
  Tc  Tc14  1  0.651784  0.651784  0.139853  1
  Tc  Tc15  1  0.139853  0.651784  0.651784  1
  Tc  Tc16  1  0.651784  0.139853  0.651784  1
  Tc  Tc17  1  0.899411  0.899411  0.899411  1
  Tc  Tc18  1  0.100873  0.100873  0.100873  1
  C  C19  1  0.498065  0.498065  0.004255  1
  C  C20  1  0.004255  0.498065  0.498065  1
  C  C21  1  0.498065  0.004255  0.498065  1
