# generated using pymatgen
data_Ba2NdB18
_symmetry_space_group_name_H-M   'P 1'
_cell_length_a   4.22303600
_cell_length_b   4.22303600
_cell_length_c   12.71068900
_cell_angle_alpha   90.00000000
_cell_angle_beta   90.00000000
_cell_angle_gamma   90.00000000
_symmetry_Int_Tables_number   1
_chemical_formula_structural   Ba2NdB18
_chemical_formula_sum   'Ba2 Nd1 B18'
_cell_volume   226.68284781
_cell_formula_units_Z   1
loop_
 _symmetry_equiv_pos_site_id
 _symmetry_equiv_pos_as_xyz
  1  'x, y, z'
loop_
 _atom_site_type_symbol
 _atom_site_label
 _atom_site_symmetry_multiplicity
 _atom_site_fract_x
 _atom_site_fract_y
 _atom_site_fract_z
 _atom_site_occupancy
  Ba  Ba0  1  0.000000  0.000000  0.333695  1
  Ba  Ba1  1  0.000000  0.000000  0.666305  1
  Nd  Nd2  1  0.000000  0.000000  0.000000  1
  B  B3  1  0.202271  0.500000  0.162316  1
  B  B4  1  0.203800  0.500000  0.500000  1
  B  B5  1  0.202271  0.500000  0.837684  1
  B  B6  1  0.500000  0.500000  0.262057  1
  B  B7  1  0.500000  0.500000  0.598999  1
  B  B8  1  0.500000  0.500000  0.934392  1
  B  B9  1  0.500000  0.202271  0.162316  1
  B  B10  1  0.500000  0.203800  0.500000  1
  B  B11  1  0.500000  0.202271  0.837684  1
  B  B12  1  0.500000  0.500000  0.065608  1
  B  B13  1  0.500000  0.500000  0.401001  1
  B  B14  1  0.500000  0.500000  0.737943  1
  B  B15  1  0.500000  0.797729  0.162316  1
  B  B16  1  0.500000  0.796200  0.500000  1
  B  B17  1  0.500000  0.797729  0.837684  1
  B  B18  1  0.797729  0.500000  0.162316  1
  B  B19  1  0.796200  0.500000  0.500000  1
  B  B20  1  0.797729  0.500000  0.837684  1
