# generated using pymatgen
data_ErTm2In3Ag2Au
_symmetry_space_group_name_H-M   'P 1'
_cell_length_a   7.83235859
_cell_length_b   7.83326993
_cell_length_c   3.89646600
_cell_angle_alpha   90.00000000
_cell_angle_beta   90.00000000
_cell_angle_gamma   120.04049383
_symmetry_Int_Tables_number   1
_chemical_formula_structural   ErTm2In3Ag2Au
_chemical_formula_sum   'Er1 Tm2 In3 Ag2 Au1'
_cell_volume   206.94732742
_cell_formula_units_Z   1
loop_
 _symmetry_equiv_pos_site_id
 _symmetry_equiv_pos_as_xyz
  1  'x, y, z'
loop_
 _atom_site_type_symbol
 _atom_site_label
 _atom_site_symmetry_multiplicity
 _atom_site_fract_x
 _atom_site_fract_y
 _atom_site_fract_z
 _atom_site_occupancy
  Er  Er0  1  0.401243  0.408345  0.500000  1
  Tm  Tm1  1  0.591570  0.992888  0.500000  1
  Tm  Tm2  1  0.007181  0.598713  0.500000  1
  In  In3  1  0.740286  0.735037  0.000000  1
  In  In4  1  0.265020  0.005111  0.000000  1
  In  In5  1  0.994664  0.259778  0.000000  1
  Ag  Ag6  1  0.666934  0.333258  0.000000  1
  Ag  Ag7  1  0.999866  0.999871  0.500000  1
  Au  Au8  1  0.333235  0.666997  0.000000  1
