# generated using pymatgen
data_Ca2Dy4Si24Os3Ru5
_symmetry_space_group_name_H-M   'P 1'
_cell_length_a   10.14327857
_cell_length_b   10.14327845
_cell_length_c   8.14718908
_cell_angle_alpha   90.00643319
_cell_angle_beta   90.00644094
_cell_angle_gamma   132.59867447
_symmetry_Int_Tables_number   1
_chemical_formula_structural   Ca2Dy4Si24Os3Ru5
_chemical_formula_sum   'Ca2 Dy4 Si24 Os3 Ru5'
_cell_volume   617.03360494
_cell_formula_units_Z   1
loop_
 _symmetry_equiv_pos_site_id
 _symmetry_equiv_pos_as_xyz
  1  'x, y, z'
loop_
 _atom_site_type_symbol
 _atom_site_label
 _atom_site_symmetry_multiplicity
 _atom_site_fract_x
 _atom_site_fract_y
 _atom_site_fract_z
 _atom_site_occupancy
  Ca  Ca0  1  0.500079  0.499921  0.500000  1
  Ca  Ca1  1  0.999892  0.000108  0.000000  1
  Dy  Dy2  1  0.502213  0.002223  0.749927  1
  Dy  Dy3  1  0.997777  0.497787  0.250073  1
  Dy  Dy4  1  0.499281  0.999361  0.250002  1
  Dy  Dy5  1  0.000639  0.500719  0.749998  1
  Si  Si6  1  0.797099  0.202901  0.500000  1
  Si  Si7  1  0.297287  0.702713  0.000000  1
  Si  Si8  1  0.202704  0.797296  0.500000  1
  Si  Si9  1  0.703530  0.296470  0.000000  1
  Si  Si10  1  0.333758  0.331893  0.832667  1
  Si  Si11  1  0.668107  0.666242  0.167333  1
  Si  Si12  1  0.166480  0.168168  0.332702  1
  Si  Si13  1  0.831832  0.833520  0.667298  1
  Si  Si14  1  0.123164  0.891602  0.730357  1
  Si  Si15  1  0.108398  0.876836  0.269643  1
  Si  Si16  1  0.609820  0.377385  0.229346  1
  Si  Si17  1  0.622615  0.390180  0.770654  1
  Si  Si18  1  0.876486  0.109122  0.269323  1
  Si  Si19  1  0.890878  0.123514  0.730677  1
  Si  Si20  1  0.392056  0.623608  0.769744  1
  Si  Si21  1  0.376392  0.607944  0.230256  1
  Si  Si22  1  0.346399  0.114824  0.507178  1
  Si  Si23  1  0.885176  0.653601  0.492822  1
  Si  Si24  1  0.385916  0.154102  0.005584  1
  Si  Si25  1  0.845898  0.614084  0.994416  1
  Si  Si26  1  0.653793  0.885324  0.493606  1
  Si  Si27  1  0.114676  0.346207  0.506394  1
  Si  Si28  1  0.615242  0.847400  0.992415  1
  Si  Si29  1  0.152600  0.384758  0.007585  1
  Os  Os30  1  0.671624  0.328376  0.500000  1
  Os  Os31  1  0.172129  0.827871  0.000000  1
  Os  Os32  1  0.327875  0.672125  0.500000  1
  Ru  Ru33  1  0.828415  0.171585  0.000000  1
  Ru  Ru34  1  0.125774  0.126044  0.626211  1
  Ru  Ru35  1  0.873956  0.874226  0.373789  1
  Ru  Ru36  1  0.373971  0.373925  0.126001  1
  Ru  Ru37  1  0.626075  0.626029  0.873999  1
