# generated using pymatgen
data_La3Ga24RePd8
_symmetry_space_group_name_H-M   'P 1'
_cell_length_a   8.54275495
_cell_length_b   8.55890348
_cell_length_c   8.54940632
_cell_angle_alpha   89.93145564
_cell_angle_beta   89.78027493
_cell_angle_gamma   89.87121628
_symmetry_Int_Tables_number   1
_chemical_formula_structural   La3Ga24RePd8
_chemical_formula_sum   'La3 Ga24 Re1 Pd8'
_cell_volume   625.09703422
_cell_formula_units_Z   1
loop_
 _symmetry_equiv_pos_site_id
 _symmetry_equiv_pos_as_xyz
  1  'x, y, z'
loop_
 _atom_site_type_symbol
 _atom_site_label
 _atom_site_symmetry_multiplicity
 _atom_site_fract_x
 _atom_site_fract_y
 _atom_site_fract_z
 _atom_site_occupancy
  La  La0  1  0.000000  0.500000  0.000000  1
  La  La1  1  0.500000  0.000000  0.000000  1
  La  La2  1  0.000000  0.000000  0.500000  1
  Ga  Ga3  1  0.991043  0.642218  0.642445  1
  Ga  Ga4  1  0.642256  0.641938  0.991032  1
  Ga  Ga5  1  0.641702  0.990950  0.641564  1
  Ga  Ga6  1  0.008957  0.357782  0.357555  1
  Ga  Ga7  1  0.357744  0.358062  0.008968  1
  Ga  Ga8  1  0.358298  0.009050  0.358436  1
  Ga  Ga9  1  0.732529  0.500539  0.266907  1
  Ga  Ga10  1  0.267471  0.499461  0.733093  1
  Ga  Ga11  1  0.500924  0.265779  0.733556  1
  Ga  Ga12  1  0.499076  0.734221  0.266444  1
  Ga  Ga13  1  0.267034  0.734035  0.498579  1
  Ga  Ga14  1  0.732966  0.265965  0.501421  1
  Ga  Ga15  1  0.838849  0.143157  0.839051  1
  Ga  Ga16  1  0.141341  0.840499  0.840242  1
  Ga  Ga17  1  0.839569  0.840104  0.141977  1
  Ga  Ga18  1  0.161151  0.856843  0.160949  1
  Ga  Ga19  1  0.858659  0.159501  0.159758  1
  Ga  Ga20  1  0.160431  0.159896  0.858023  1
  Ga  Ga21  1  0.728277  0.490946  0.728992  1
  Ga  Ga22  1  0.493252  0.728919  0.727914  1
  Ga  Ga23  1  0.727582  0.729352  0.492257  1
  Ga  Ga24  1  0.271723  0.509054  0.271008  1
  Ga  Ga25  1  0.506748  0.271081  0.272086  1
  Ga  Ga26  1  0.272418  0.270648  0.507743  1
  Re  Re27  1  0.500000  0.500000  0.500000  1
  Pd  Pd28  1  0.833110  0.834265  0.833522  1
  Pd  Pd29  1  0.166890  0.165735  0.166478  1
  Pd  Pd30  1  0.663741  0.335890  0.001256  1
  Pd  Pd31  1  0.001029  0.336257  0.663597  1
  Pd  Pd32  1  0.335677  0.999545  0.664508  1
  Pd  Pd33  1  0.336259  0.664110  0.998744  1
  Pd  Pd34  1  0.998971  0.663743  0.336403  1
  Pd  Pd35  1  0.664323  0.000455  0.335492  1
