# generated using pymatgen
data_Tb7HoIn2PdRh
_symmetry_space_group_name_H-M   'P 1'
_cell_length_a   9.71292036
_cell_length_b   9.72081482
_cell_length_c   9.71234456
_cell_angle_alpha   60.17686532
_cell_angle_beta   60.20019389
_cell_angle_gamma   60.14584280
_symmetry_Int_Tables_number   1
_chemical_formula_structural   Tb7HoIn2PdRh
_chemical_formula_sum   'Tb14 Ho2 In4 Pd2 Rh2'
_cell_volume   650.98708721
_cell_formula_units_Z   2
loop_
 _symmetry_equiv_pos_site_id
 _symmetry_equiv_pos_as_xyz
  1  'x, y, z'
loop_
 _atom_site_type_symbol
 _atom_site_label
 _atom_site_symmetry_multiplicity
 _atom_site_fract_x
 _atom_site_fract_y
 _atom_site_fract_z
 _atom_site_occupancy
  Tb  Tb0  1  0.194164  0.185761  0.809545  1
  Tb  Tb1  1  0.647735  0.050480  0.647414  1
  Tb  Tb2  1  0.061457  0.063480  0.435609  1
  Tb  Tb3  1  0.435601  0.438666  0.062274  1
  Tb  Tb4  1  0.649165  0.654651  0.648458  1
  Tb  Tb5  1  0.809564  0.185228  0.193989  1
  Tb  Tb6  1  0.193622  0.810590  0.810039  1
  Tb  Tb7  1  0.055957  0.649970  0.643942  1
  Tb  Tb8  1  0.436162  0.063034  0.061566  1
  Tb  Tb9  1  0.436867  0.063715  0.436173  1
  Tb  Tb10  1  0.061359  0.438175  0.061901  1
  Tb  Tb11  1  0.643843  0.649680  0.056463  1
  Tb  Tb12  1  0.188995  0.810459  0.189461  1
  Tb  Tb13  1  0.062148  0.438951  0.435165  1
  Ho  Ho14  1  0.809769  0.810662  0.193958  1
  Ho  Ho15  1  0.809437  0.190264  0.809884  1
  In  In16  1  0.417453  0.416469  0.417307  1
  In  In17  1  0.418455  0.416952  0.747733  1
  In  In18  1  0.417661  0.748314  0.417480  1
  In  In19  1  0.747784  0.416983  0.418352  1
  Pd  Pd20  1  0.857811  0.429169  0.857763  1
  Pd  Pd21  1  0.857111  0.855600  0.858133  1
  Rh  Rh22  1  0.859020  0.856283  0.428241  1
  Rh  Rh23  1  0.428855  0.856464  0.859148  1
