# generated using pymatgen
data_DyY2Cd3Hg2Au
_symmetry_space_group_name_H-M   'P 1'
_cell_length_a   8.08595175
_cell_length_b   8.09183245
_cell_length_c   3.81867900
_cell_angle_alpha   90.00000000
_cell_angle_beta   90.00000000
_cell_angle_gamma   119.79806963
_symmetry_Int_Tables_number   1
_chemical_formula_structural   DyY2Cd3Hg2Au
_chemical_formula_sum   'Dy1 Y2 Cd3 Hg2 Au1'
_cell_volume   216.82128609
_cell_formula_units_Z   1
loop_
 _symmetry_equiv_pos_site_id
 _symmetry_equiv_pos_as_xyz
  1  'x, y, z'
loop_
 _atom_site_type_symbol
 _atom_site_label
 _atom_site_symmetry_multiplicity
 _atom_site_fract_x
 _atom_site_fract_y
 _atom_site_fract_z
 _atom_site_occupancy
  Dy  Dy0  1  0.410211  0.396148  0.000000  1
  Y  Y1  1  0.604021  0.012819  0.000000  1
  Y  Y2  1  0.987094  0.591131  0.000000  1
  Cd  Cd3  1  0.273906  0.000361  0.500000  1
  Cd  Cd4  1  0.000001  0.273787  0.500000  1
  Cd  Cd5  1  0.726137  0.726129  0.500000  1
  Hg  Hg6  1  0.333179  0.665872  0.500000  1
  Hg  Hg7  1  0.000300  0.000286  0.000000  1
  Au  Au8  1  0.665151  0.333467  0.500000  1
