# generated using pymatgen
data_CaCo4As3Ru
_symmetry_space_group_name_H-M   'P 1'
_cell_length_a   3.81169900
_cell_length_b   10.79671600
_cell_length_c   12.30514800
_cell_angle_alpha   90.00000000
_cell_angle_beta   90.00000000
_cell_angle_gamma   90.00000000
_symmetry_Int_Tables_number   1
_chemical_formula_structural   CaCo4As3Ru
_chemical_formula_sum   'Ca4 Co16 As12 Ru4'
_cell_volume   506.40398836
_cell_formula_units_Z   4
loop_
 _symmetry_equiv_pos_site_id
 _symmetry_equiv_pos_as_xyz
  1  'x, y, z'
loop_
 _atom_site_type_symbol
 _atom_site_label
 _atom_site_symmetry_multiplicity
 _atom_site_fract_x
 _atom_site_fract_y
 _atom_site_fract_z
 _atom_site_occupancy
  Ca  Ca0  1  0.250000  0.584582  0.704257  1
  Ca  Ca1  1  0.250000  0.915418  0.204257  1
  Ca  Ca2  1  0.750000  0.415418  0.295743  1
  Ca  Ca3  1  0.750000  0.084582  0.795743  1
  Co  Co4  1  0.250000  0.405557  0.489514  1
  Co  Co5  1  0.250000  0.094443  0.989514  1
  Co  Co6  1  0.750000  0.594443  0.510486  1
  Co  Co7  1  0.750000  0.905557  0.010486  1
  Co  Co8  1  0.250000  0.214266  0.174916  1
  Co  Co9  1  0.250000  0.285734  0.674916  1
  Co  Co10  1  0.750000  0.785734  0.825084  1
  Co  Co11  1  0.750000  0.714266  0.325084  1
  Co  Co12  1  0.250000  0.885045  0.698905  1
  Co  Co13  1  0.250000  0.614955  0.198905  1
  Co  Co14  1  0.750000  0.114955  0.301095  1
  Co  Co15  1  0.750000  0.385045  0.801095  1
  Co  Co16  1  0.250000  0.464803  0.933421  1
  Co  Co17  1  0.250000  0.035197  0.433421  1
  Co  Co18  1  0.750000  0.535197  0.066579  1
  Co  Co19  1  0.750000  0.964803  0.566579  1
  As  As20  1  0.250000  0.416936  0.115008  1
  As  As21  1  0.250000  0.083064  0.615008  1
  As  As22  1  0.750000  0.583064  0.884992  1
  As  As23  1  0.750000  0.916936  0.384992  1
  As  As24  1  0.250000  0.268854  0.866146  1
  As  As25  1  0.250000  0.231146  0.366146  1
  As  As26  1  0.750000  0.731146  0.133854  1
  As  As27  1  0.750000  0.768854  0.633854  1
  As  As28  1  0.250000  0.594537  0.389583  1
  As  As29  1  0.250000  0.905463  0.889583  1
  As  As30  1  0.750000  0.405463  0.610417  1
  As  As31  1  0.750000  0.094537  0.110417  1
  Ru  Ru32  1  0.250000  0.709873  0.988215  1
  Ru  Ru33  1  0.250000  0.790127  0.488215  1
  Ru  Ru34  1  0.750000  0.290127  0.011785  1
  Ru  Ru35  1  0.750000  0.209873  0.511785  1
