# generated using pymatgen
data_DyPuF7
_symmetry_space_group_name_H-M   'P 1'
_cell_length_a   5.92571500
_cell_length_b   6.24166961
_cell_length_c   8.51440541
_cell_angle_alpha   103.13177692
_cell_angle_beta   90.00000000
_cell_angle_gamma   90.00000000
_symmetry_Int_Tables_number   1
_chemical_formula_structural   DyPuF7
_chemical_formula_sum   'Dy2 Pu2 F14'
_cell_volume   306.68178409
_cell_formula_units_Z   2
loop_
 _symmetry_equiv_pos_site_id
 _symmetry_equiv_pos_as_xyz
  1  'x, y, z'
loop_
 _atom_site_type_symbol
 _atom_site_label
 _atom_site_symmetry_multiplicity
 _atom_site_fract_x
 _atom_site_fract_y
 _atom_site_fract_z
 _atom_site_occupancy
  Dy  Dy0  1  0.699138  0.650851  0.683042  1
  Dy  Dy1  1  0.199138  0.349149  0.316958  1
  Pu  Pu2  1  0.706642  0.812969  0.226664  1
  Pu  Pu3  1  0.206642  0.187031  0.773336  1
  F  F4  1  0.910110  0.473662  0.482873  1
  F  F5  1  0.410110  0.526338  0.517127  1
  F  F6  1  0.434430  0.914892  0.764040  1
  F  F7  1  0.934430  0.085108  0.235960  1
  F  F8  1  0.942749  0.940580  0.757166  1
  F  F9  1  0.442749  0.059420  0.242834  1
  F  F10  1  0.980838  0.462749  0.788232  1
  F  F11  1  0.480838  0.537251  0.211768  1
  F  F12  1  0.696592  0.758645  0.969297  1
  F  F13  1  0.196592  0.241355  0.030703  1
  F  F14  1  0.698906  0.866608  0.484986  1
  F  F15  1  0.198906  0.133392  0.515014  1
  F  F16  1  0.506956  0.390700  0.781546  1
  F  F17  1  0.006956  0.609300  0.218454  1
