# generated using pymatgen
data_Tb3DyGa12Ru
_symmetry_space_group_name_H-M   'P 1'
_cell_length_a   7.49047105
_cell_length_b   7.49047102
_cell_length_c   7.50217000
_cell_angle_alpha   109.50285957
_cell_angle_beta   109.50285949
_cell_angle_gamma   109.43956332
_symmetry_Int_Tables_number   1
_chemical_formula_structural   Tb3DyGa12Ru
_chemical_formula_sum   'Tb3 Dy1 Ga12 Ru1'
_cell_volume   323.90193394
_cell_formula_units_Z   1
loop_
 _symmetry_equiv_pos_site_id
 _symmetry_equiv_pos_as_xyz
  1  'x, y, z'
loop_
 _atom_site_type_symbol
 _atom_site_label
 _atom_site_symmetry_multiplicity
 _atom_site_fract_x
 _atom_site_fract_y
 _atom_site_fract_z
 _atom_site_occupancy
  Tb  Tb0  1  0.000000  0.500000  0.000000  1
  Tb  Tb1  1  0.500000  0.000000  0.000000  1
  Tb  Tb2  1  0.500000  0.500000  0.500000  1
  Dy  Dy3  1  0.000000  0.000000  0.500000  1
  Ga  Ga4  1  0.750204  0.249796  0.500000  1
  Ga  Ga5  1  0.750204  0.500409  0.250204  1
  Ga  Ga6  1  0.499591  0.249796  0.749796  1
  Ga  Ga7  1  0.249796  0.499591  0.749796  1
  Ga  Ga8  1  0.249796  0.750204  0.500000  1
  Ga  Ga9  1  0.500409  0.750204  0.250204  1
  Ga  Ga10  1  0.710636  0.710636  0.000317  1
  Ga  Ga11  1  0.289364  0.000000  0.289681  1
  Ga  Ga12  1  0.000000  0.289364  0.289681  1
  Ga  Ga13  1  0.289364  0.289364  0.999683  1
  Ga  Ga14  1  0.710636  0.000000  0.710319  1
  Ga  Ga15  1  0.000000  0.710636  0.710319  1
  Ru  Ru16  1  0.000000  0.000000  0.000000  1
