# generated using pymatgen
data_Dy5Ho2P12Ir5Rh12
_symmetry_space_group_name_H-M   'P 1'
_cell_length_a   12.79676806
_cell_length_b   12.97257204
_cell_length_c   3.95497800
_cell_angle_alpha   90.00000000
_cell_angle_beta   90.00000000
_cell_angle_gamma   119.50600679
_symmetry_Int_Tables_number   1
_chemical_formula_structural   Dy5Ho2P12Ir5Rh12
_chemical_formula_sum   'Dy5 Ho2 P12 Ir5 Rh12'
_cell_volume   571.40162885
_cell_formula_units_Z   1
loop_
 _symmetry_equiv_pos_site_id
 _symmetry_equiv_pos_as_xyz
  1  'x, y, z'
loop_
 _atom_site_type_symbol
 _atom_site_label
 _atom_site_symmetry_multiplicity
 _atom_site_fract_x
 _atom_site_fract_y
 _atom_site_fract_z
 _atom_site_occupancy
  Dy  Dy0  1  0.330828  0.662849  0.500000  1
  Dy  Dy1  1  0.667935  0.336878  0.500000  1
  Dy  Dy2  1  0.000891  0.814907  0.000000  1
  Dy  Dy3  1  0.186131  0.185015  0.000000  1
  Dy  Dy4  1  0.808644  0.999590  0.000000  1
  Ho  Ho5  1  0.998682  0.444864  0.500000  1
  Ho  Ho6  1  0.554375  0.556081  0.500000  1
  P  P7  1  0.008222  0.657031  0.500000  1
  P  P8  1  0.351706  0.344013  0.500000  1
  P  P9  1  0.638966  0.999823  0.500000  1
  P  P10  1  0.514785  0.689483  0.000000  1
  P  P11  1  0.312678  0.829414  0.000000  1
  P  P12  1  0.169635  0.480283  0.000000  1
  P  P13  1  0.482664  0.170653  0.000000  1
  P  P14  1  0.689345  0.519662  0.000000  1
  P  P15  1  0.825280  0.309923  0.000000  1
  P  P16  1  0.998243  0.173725  0.500000  1
  P  P17  1  0.824781  0.825692  0.500000  1
  P  P18  1  0.182724  0.999633  0.500000  1
  Ir  Ir19  1  0.995838  0.270325  0.000000  1
  Ir  Ir20  1  0.725047  0.729777  0.000000  1
  Ir  Ir21  1  0.285237  0.000249  0.000000  1
  Ir  Ir22  1  0.812706  0.189863  0.500000  1
  Ir  Ir23  1  0.004436  0.000034  0.500000  1
  Rh  Rh24  1  0.507705  0.868638  0.000000  1
  Rh  Rh25  1  0.126197  0.648517  0.000000  1
  Rh  Rh26  1  0.355301  0.490753  0.000000  1
  Rh  Rh27  1  0.478255  0.351730  0.000000  1
  Rh  Rh28  1  0.863946  0.507753  0.000000  1
  Rh  Rh29  1  0.638435  0.131494  0.000000  1
  Rh  Rh30  1  0.460768  0.001428  0.500000  1
  Rh  Rh31  1  0.623324  0.810147  0.500000  1
  Rh  Rh32  1  0.207199  0.827221  0.500000  1
  Rh  Rh33  1  0.178402  0.367184  0.500000  1
  Rh  Rh34  1  0.379557  0.172944  0.500000  1
  Rh  Rh35  1  0.811136  0.632427  0.500000  1
