# generated using pymatgen
data_TmHf3(ZnRh2)4
_symmetry_space_group_name_H-M   'P 1'
_cell_length_a   5.97506600
_cell_length_b   5.97501300
_cell_length_c   6.99133000
_cell_angle_alpha   90.00000000
_cell_angle_beta   90.00000000
_cell_angle_gamma   90.00000000
_symmetry_Int_Tables_number   1
_chemical_formula_structural   TmHf3(ZnRh2)4
_chemical_formula_sum   'Tm1 Hf3 Zn4 Rh8'
_cell_volume   249.59815067
_cell_formula_units_Z   1
loop_
 _symmetry_equiv_pos_site_id
 _symmetry_equiv_pos_as_xyz
  1  'x, y, z'
loop_
 _atom_site_type_symbol
 _atom_site_label
 _atom_site_symmetry_multiplicity
 _atom_site_fract_x
 _atom_site_fract_y
 _atom_site_fract_z
 _atom_site_occupancy
  Tm  Tm0  1  0.749837  0.250000  0.000000  1
  Hf  Hf1  1  0.250167  0.750001  0.000000  1
  Hf  Hf2  1  0.750169  0.250000  0.500000  1
  Hf  Hf3  1  0.249859  0.750001  0.500000  1
  Zn  Zn4  1  0.249932  0.250000  0.000000  1
  Zn  Zn5  1  0.750072  0.750001  0.000000  1
  Zn  Zn6  1  0.749975  0.750001  0.499996  1
  Zn  Zn7  1  0.250049  0.250000  0.500003  1
  Rh  Rh8  1  0.002570  0.997436  0.254338  1
  Rh  Rh9  1  0.002570  0.502565  0.254338  1
  Rh  Rh10  1  0.497414  0.997391  0.254451  1
  Rh  Rh11  1  0.497414  0.502608  0.254451  1
  Rh  Rh12  1  0.497417  0.997391  0.745548  1
  Rh  Rh13  1  0.497417  0.502610  0.745548  1
  Rh  Rh14  1  0.002570  0.997436  0.745662  1
  Rh  Rh15  1  0.002570  0.502563  0.745662  1
