# generated using pymatgen
data_Al10GaRe3Os
_symmetry_space_group_name_H-M   'P 1'
_cell_length_a   5.19669149
_cell_length_b   5.17310782
_cell_length_c   9.02251480
_cell_angle_alpha   105.06454946
_cell_angle_beta   90.46621319
_cell_angle_gamma   100.30976934
_symmetry_Int_Tables_number   1
_chemical_formula_structural   Al10GaRe3Os
_chemical_formula_sum   'Al10 Ga1 Re3 Os1'
_cell_volume   230.05387409
_cell_formula_units_Z   1
loop_
 _symmetry_equiv_pos_site_id
 _symmetry_equiv_pos_as_xyz
  1  'x, y, z'
loop_
 _atom_site_type_symbol
 _atom_site_label
 _atom_site_symmetry_multiplicity
 _atom_site_fract_x
 _atom_site_fract_y
 _atom_site_fract_z
 _atom_site_occupancy
  Al  Al0  1  0.800361  0.256722  0.636798  1
  Al  Al1  1  0.199781  0.744806  0.362494  1
  Al  Al2  1  0.148453  0.465415  0.871572  1
  Al  Al3  1  0.852106  0.534531  0.129274  1
  Al  Al4  1  0.498287  0.097048  0.872975  1
  Al  Al5  1  0.501919  0.902347  0.128144  1
  Al  Al6  1  0.567839  0.318738  0.377489  1
  Al  Al7  1  0.434407  0.679818  0.621500  1
  Al  Al8  1  0.941252  0.798647  0.664046  1
  Al  Al9  1  0.056194  0.203607  0.334135  1
  Ga  Ga10  1  0.998952  0.999462  0.000725  1
  Re  Re11  1  0.721943  0.847049  0.399502  1
  Re  Re12  1  0.662786  0.609028  0.864359  1
  Re  Re13  1  0.337903  0.387264  0.133499  1
  Os  Os14  1  0.277818  0.155518  0.603488  1
