# generated using pymatgen
data_LuNb5(B2Ru5)2
_symmetry_space_group_name_H-M   'P 1'
_cell_length_a   9.50280503
_cell_length_b   9.50280503
_cell_length_c   3.05130200
_cell_angle_alpha   90.00000000
_cell_angle_beta   90.00000000
_cell_angle_gamma   90.25226839
_symmetry_Int_Tables_number   1
_chemical_formula_structural   LuNb5(B2Ru5)2
_chemical_formula_sum   'Lu1 Nb5 B4 Ru10'
_cell_volume   275.53997945
_cell_formula_units_Z   1
loop_
 _symmetry_equiv_pos_site_id
 _symmetry_equiv_pos_as_xyz
  1  'x, y, z'
loop_
 _atom_site_type_symbol
 _atom_site_label
 _atom_site_symmetry_multiplicity
 _atom_site_fract_x
 _atom_site_fract_y
 _atom_site_fract_z
 _atom_site_occupancy
  Lu  Lu0  1  0.824356  0.675644  0.000000  1
  Nb  Nb1  1  0.177516  0.322484  0.000000  1
  Nb  Nb2  1  0.324285  0.822807  0.000000  1
  Nb  Nb3  1  0.677193  0.175715  0.000000  1
  Nb  Nb4  1  0.501643  0.500866  0.000000  1
  Nb  Nb5  1  0.999134  0.998357  0.000000  1
  B  B6  1  0.619836  0.880164  0.000000  1
  B  B7  1  0.377421  0.122579  0.000000  1
  B  B8  1  0.122264  0.620031  0.000000  1
  B  B9  1  0.879969  0.377736  0.000000  1
  Ru  Ru10  1  0.560874  0.723398  0.500000  1
  Ru  Ru11  1  0.427088  0.282909  0.500000  1
  Ru  Ru12  1  0.079608  0.782448  0.500000  1
  Ru  Ru13  1  0.929859  0.216554  0.500000  1
  Ru  Ru14  1  0.283446  0.570141  0.500000  1
  Ru  Ru15  1  0.717552  0.420392  0.500000  1
  Ru  Ru16  1  0.217091  0.072912  0.500000  1
  Ru  Ru17  1  0.776602  0.939126  0.500000  1
  Ru  Ru18  1  0.496918  0.003082  0.500000  1
  Ru  Ru19  1  0.007346  0.492654  0.500000  1
