# generated using pymatgen
data_CrNi(MoH2)2
_symmetry_space_group_name_H-M   'P 1'
_cell_length_a   2.84658100
_cell_length_b   4.52012605
_cell_length_c   4.85686102
_cell_angle_alpha   90.00592377
_cell_angle_beta   89.99813995
_cell_angle_gamma   90.00031459
_symmetry_Int_Tables_number   1
_chemical_formula_structural   CrNi(MoH2)2
_chemical_formula_sum   'Cr1 Ni1 Mo2 H4'
_cell_volume   62.49276872
_cell_formula_units_Z   1
loop_
 _symmetry_equiv_pos_site_id
 _symmetry_equiv_pos_as_xyz
  1  'x, y, z'
loop_
 _atom_site_type_symbol
 _atom_site_label
 _atom_site_symmetry_multiplicity
 _atom_site_fract_x
 _atom_site_fract_y
 _atom_site_fract_z
 _atom_site_occupancy
  Cr  Cr0  1  0.124994  0.978628  0.983411  1
  Ni  Ni1  1  0.124873  0.478588  0.663914  1
  Mo  Mo2  1  0.624951  0.978634  0.505542  1
  Mo  Mo3  1  0.624938  0.478662  0.164452  1
  H  H4  1  0.124936  0.210973  0.293621  1
  H  H5  1  0.625100  0.749390  0.850264  1
  H  H6  1  0.124953  0.746422  0.293507  1
  H  H7  1  0.625120  0.207607  0.850437  1
