# generated using pymatgen
data_PrEu3(Tc2O7)2
_symmetry_space_group_name_H-M   'P 1'
_cell_length_a   7.37527855
_cell_length_b   7.37527848
_cell_length_c   7.37527800
_cell_angle_alpha   59.87922238
_cell_angle_beta   59.87922270
_cell_angle_gamma   59.87921600
_symmetry_Int_Tables_number   1
_chemical_formula_structural   PrEu3(Tc2O7)2
_chemical_formula_sum   'Pr1 Eu3 Tc4 O14'
_cell_volume   282.89707170
_cell_formula_units_Z   1
loop_
 _symmetry_equiv_pos_site_id
 _symmetry_equiv_pos_as_xyz
  1  'x, y, z'
loop_
 _atom_site_type_symbol
 _atom_site_label
 _atom_site_symmetry_multiplicity
 _atom_site_fract_x
 _atom_site_fract_y
 _atom_site_fract_z
 _atom_site_occupancy
  Pr  Pr0  1  0.625000  0.625000  0.625000  1
  Eu  Eu1  1  0.625000  0.125000  0.625000  1
  Eu  Eu2  1  0.125000  0.625000  0.625000  1
  Eu  Eu3  1  0.625000  0.625000  0.125000  1
  Tc  Tc4  1  0.125000  0.625000  0.125000  1
  Tc  Tc5  1  0.625000  0.125000  0.125000  1
  Tc  Tc6  1  0.125000  0.125000  0.625000  1
  Tc  Tc7  1  0.125000  0.125000  0.125000  1
  O  O8  1  0.200883  0.200883  0.798892  1
  O  O9  1  0.200883  0.798892  0.200883  1
  O  O10  1  0.797014  0.797014  0.205365  1
  O  O11  1  0.049117  0.451108  0.049117  1
  O  O12  1  0.451108  0.049117  0.049117  1
  O  O13  1  0.205365  0.797014  0.797014  1
  O  O14  1  0.751333  0.751333  0.751333  1
  O  O15  1  0.798892  0.200883  0.200883  1
  O  O16  1  0.044635  0.452986  0.452986  1
  O  O17  1  0.498667  0.498667  0.498667  1
  O  O18  1  0.452986  0.044635  0.452986  1
  O  O19  1  0.049117  0.049117  0.451108  1
  O  O20  1  0.452986  0.452986  0.044635  1
  O  O21  1  0.797014  0.205365  0.797014  1
