# generated using pymatgen
data_CaGe4PdRh5
_symmetry_space_group_name_H-M   'P 1'
_cell_length_a   7.29950149
_cell_length_b   7.29949924
_cell_length_c   3.85372000
_cell_angle_alpha   90.00000000
_cell_angle_beta   90.00000000
_cell_angle_gamma   120.69301150
_symmetry_Int_Tables_number   1
_chemical_formula_structural   CaGe4PdRh5
_chemical_formula_sum   'Ca1 Ge4 Pd1 Rh5'
_cell_volume   176.57195146
_cell_formula_units_Z   1
loop_
 _symmetry_equiv_pos_site_id
 _symmetry_equiv_pos_as_xyz
  1  'x, y, z'
loop_
 _atom_site_type_symbol
 _atom_site_label
 _atom_site_symmetry_multiplicity
 _atom_site_fract_x
 _atom_site_fract_y
 _atom_site_fract_z
 _atom_site_occupancy
  Ca  Ca0  1  0.998831  0.001169  0.000000  1
  Ge  Ge1  1  0.802886  0.197114  0.500000  1
  Ge  Ge2  1  0.796021  0.601169  0.500000  1
  Ge  Ge3  1  0.398831  0.203979  0.500000  1
  Ge  Ge4  1  0.337311  0.662689  0.000000  1
  Pd  Pd5  1  0.198270  0.801730  0.500000  1
  Rh  Rh6  1  0.533461  0.466539  0.000000  1
  Rh  Rh7  1  0.531857  0.065886  0.000000  1
  Rh  Rh8  1  0.934114  0.468143  0.000000  1
  Rh  Rh9  1  0.199490  0.397741  0.500000  1
  Rh  Rh10  1  0.602259  0.800510  0.500000  1
