# generated using pymatgen
data_HoSc4Si7Pt9
_symmetry_space_group_name_H-M   'P 1'
_cell_length_a   10.04979700
_cell_length_b   10.04979768
_cell_length_c   3.94633800
_cell_angle_alpha   90.00000000
_cell_angle_beta   90.00000000
_cell_angle_gamma   120.00000106
_symmetry_Int_Tables_number   1
_chemical_formula_structural   HoSc4Si7Pt9
_chemical_formula_sum   'Ho1 Sc4 Si7 Pt9'
_cell_volume   345.17514385
_cell_formula_units_Z   1
loop_
 _symmetry_equiv_pos_site_id
 _symmetry_equiv_pos_as_xyz
  1  'x, y, z'
loop_
 _atom_site_type_symbol
 _atom_site_label
 _atom_site_symmetry_multiplicity
 _atom_site_fract_x
 _atom_site_fract_y
 _atom_site_fract_z
 _atom_site_occupancy
  Ho  Ho0  1  0.333333  0.666667  0.500000  1
  Sc  Sc1  1  0.000000  0.000000  0.000000  1
  Sc  Sc2  1  0.895698  0.458392  0.500000  1
  Sc  Sc3  1  0.562695  0.104302  0.500000  1
  Sc  Sc4  1  0.541608  0.437305  0.500000  1
  Si  Si5  1  0.239872  0.189589  0.500000  1
  Si  Si6  1  0.810411  0.050284  0.500000  1
  Si  Si7  1  0.949716  0.760128  0.500000  1
  Si  Si8  1  0.556650  0.647796  0.000000  1
  Si  Si9  1  0.352204  0.908853  0.000000  1
  Si  Si10  1  0.091147  0.443350  0.000000  1
  Si  Si11  1  0.666667  0.333333  0.000000  1
  Pt  Pt12  1  0.217211  0.936036  0.500000  1
  Pt  Pt13  1  0.063964  0.281175  0.500000  1
  Pt  Pt14  1  0.718825  0.782789  0.500000  1
  Pt  Pt15  1  0.315076  0.414275  0.000000  1
  Pt  Pt16  1  0.585725  0.900801  0.000000  1
  Pt  Pt17  1  0.099199  0.684924  0.000000  1
  Pt  Pt18  1  0.382731  0.171715  0.000000  1
  Pt  Pt19  1  0.828285  0.211016  0.000000  1
  Pt  Pt20  1  0.788984  0.617269  0.000000  1
