# generated using pymatgen
data_Ta(OsCl6)5
_symmetry_space_group_name_H-M   'P 1'
_cell_length_a   13.33530110
_cell_length_b   13.33530103
_cell_length_c   6.28153706
_cell_angle_alpha   88.86633820
_cell_angle_beta   88.86633670
_cell_angle_gamma   86.86063323
_symmetry_Int_Tables_number   1
_chemical_formula_structural   Ta(OsCl6)5
_chemical_formula_sum   'Ta1 Os5 Cl30'
_cell_volume   1114.95694777
_cell_formula_units_Z   1
loop_
 _symmetry_equiv_pos_site_id
 _symmetry_equiv_pos_as_xyz
  1  'x, y, z'
loop_
 _atom_site_type_symbol
 _atom_site_label
 _atom_site_symmetry_multiplicity
 _atom_site_fract_x
 _atom_site_fract_y
 _atom_site_fract_z
 _atom_site_occupancy
  Ta  Ta0  1  0.891955  0.108045  0.000000  1
  Os  Os1  1  0.768509  0.565474  0.524283  1
  Os  Os2  1  0.434526  0.231491  0.475717  1
  Os  Os3  1  0.231349  0.434824  0.475824  1
  Os  Os4  1  0.565176  0.768651  0.524176  1
  Os  Os5  1  0.102769  0.897231  0.000000  1
  Cl  Cl6  1  0.667469  0.474233  0.744626  1
  Cl  Cl7  1  0.525767  0.332531  0.255374  1
  Cl  Cl8  1  0.332458  0.525716  0.255351  1
  Cl  Cl9  1  0.474284  0.667542  0.744649  1
  Cl  Cl10  1  0.798522  0.433615  0.309108  1
  Cl  Cl11  1  0.566385  0.201478  0.690892  1
  Cl  Cl12  1  0.952660  0.948946  0.211105  1
  Cl  Cl13  1  0.051054  0.047340  0.788895  1
  Cl  Cl14  1  0.760560  0.130625  0.233097  1
  Cl  Cl15  1  0.869375  0.239440  0.766903  1
  Cl  Cl16  1  0.235521  0.867844  0.778345  1
  Cl  Cl17  1  0.132156  0.764479  0.221655  1
  Cl  Cl18  1  0.808463  0.999012  0.790531  1
  Cl  Cl19  1  0.000988  0.191537  0.209469  1
  Cl  Cl20  1  0.193118  0.997640  0.207272  1
  Cl  Cl21  1  0.002360  0.806882  0.792728  1
  Cl  Cl22  1  0.715378  0.715207  0.728044  1
  Cl  Cl23  1  0.284793  0.284622  0.271956  1
  Cl  Cl24  1  0.535765  0.900476  0.739255  1
  Cl  Cl25  1  0.099524  0.464235  0.260745  1
  Cl  Cl26  1  0.464302  0.099611  0.260938  1
  Cl  Cl27  1  0.900389  0.535698  0.739062  1
  Cl  Cl28  1  0.666504  0.859447  0.303821  1
  Cl  Cl29  1  0.140553  0.333496  0.696179  1
  Cl  Cl30  1  0.333422  0.140795  0.695987  1
  Cl  Cl31  1  0.859205  0.666578  0.304013  1
  Cl  Cl32  1  0.618416  0.618501  0.320835  1
  Cl  Cl33  1  0.381499  0.381584  0.679165  1
  Cl  Cl34  1  0.433393  0.798565  0.309384  1
  Cl  Cl35  1  0.201435  0.566607  0.690616  1
