# generated using pymatgen
data_HoMn2SbO6
_symmetry_space_group_name_H-M   'P 1'
_cell_length_a   6.39516294
_cell_length_b   6.45296353
_cell_length_c   6.44335209
_cell_angle_alpha   90.96525854
_cell_angle_beta   91.16972990
_cell_angle_gamma   91.32373925
_symmetry_Int_Tables_number   1
_chemical_formula_structural   HoMn2SbO6
_chemical_formula_sum   'Ho2 Mn4 Sb2 O12'
_cell_volume   265.73640867
_cell_formula_units_Z   2
loop_
 _symmetry_equiv_pos_site_id
 _symmetry_equiv_pos_as_xyz
  1  'x, y, z'
loop_
 _atom_site_type_symbol
 _atom_site_label
 _atom_site_symmetry_multiplicity
 _atom_site_fract_x
 _atom_site_fract_y
 _atom_site_fract_z
 _atom_site_occupancy
  Ho  Ho0  1  0.063481  0.752466  0.563449  1
  Ho  Ho1  1  0.746558  0.563663  0.058865  1
  Mn  Mn2  1  0.560919  0.053036  0.746646  1
  Mn  Mn3  1  0.942220  0.245968  0.439773  1
  Mn  Mn4  1  0.252421  0.430582  0.946731  1
  Mn  Mn5  1  0.440341  0.955130  0.248586  1
  Sb  Sb6  1  0.495238  0.493368  0.499409  1
  Sb  Sb7  1  0.003009  0.007725  0.000632  1
  O  O8  1  0.042271  0.703445  0.912673  1
  O  O9  1  0.703645  0.912926  0.043636  1
  O  O10  1  0.910534  0.041315  0.701784  1
  O  O11  1  0.960518  0.301146  0.090738  1
  O  O12  1  0.301384  0.088574  0.954231  1
  O  O13  1  0.088362  0.959619  0.296434  1
  O  O14  1  0.796606  0.569460  0.422629  1
  O  O15  1  0.568413  0.427351  0.796589  1
  O  O16  1  0.424863  0.792984  0.566103  1
  O  O17  1  0.196945  0.427584  0.575754  1
  O  O18  1  0.425359  0.571324  0.203178  1
  O  O19  1  0.576911  0.202331  0.432158  1
