# generated using pymatgen
data_Mg4Ni2As6Ir5
_symmetry_space_group_name_H-M   'P 1'
_cell_length_a   7.04085697
_cell_length_b   7.00698716
_cell_length_c   7.00698613
_cell_angle_alpha   108.92320170
_cell_angle_beta   109.64701563
_cell_angle_gamma   109.64701451
_symmetry_Int_Tables_number   1
_chemical_formula_structural   Mg4Ni2As6Ir5
_chemical_formula_sum   'Mg4 Ni2 As6 Ir5'
_cell_volume   266.74560691
_cell_formula_units_Z   1
loop_
 _symmetry_equiv_pos_site_id
 _symmetry_equiv_pos_as_xyz
  1  'x, y, z'
loop_
 _atom_site_type_symbol
 _atom_site_label
 _atom_site_symmetry_multiplicity
 _atom_site_fract_x
 _atom_site_fract_y
 _atom_site_fract_z
 _atom_site_occupancy
  Mg  Mg0  1  0.000000  0.993720  0.499861  1
  Mg  Mg1  1  0.500000  0.002564  0.997436  1
  Mg  Mg2  1  0.000000  0.500139  0.006280  1
  Mg  Mg3  1  0.500000  0.502564  0.497436  1
  Ni  Ni4  1  0.243669  0.494482  0.749187  1
  Ni  Ni5  1  0.756331  0.250813  0.505518  1
  As  As6  1  0.684267  0.687412  0.996855  1
  As  As7  1  0.310818  0.316029  0.994789  1
  As  As8  1  0.000000  0.675549  0.689142  1
  As  As9  1  0.000000  0.310858  0.324451  1
  As  As10  1  0.689182  0.005211  0.683971  1
  As  As11  1  0.315733  0.003145  0.312588  1
  Ir  Ir12  1  0.000000  0.002030  0.997970  1
  Ir  Ir13  1  0.500000  0.256723  0.743277  1
  Ir  Ir14  1  0.500000  0.756723  0.243277  1
  Ir  Ir15  1  0.744763  0.493401  0.251362  1
  Ir  Ir16  1  0.255237  0.748638  0.506599  1
