# generated using pymatgen
data_HfTa3(PRu)4
_symmetry_space_group_name_H-M   'P 1'
_cell_length_a   3.76277400
_cell_length_b   6.35843096
_cell_length_c   7.23918677
_cell_angle_alpha   90.15680171
_cell_angle_beta   90.00000000
_cell_angle_gamma   90.00000000
_symmetry_Int_Tables_number   1
_chemical_formula_structural   HfTa3(PRu)4
_chemical_formula_sum   'Hf1 Ta3 P4 Ru4'
_cell_volume   173.19934674
_cell_formula_units_Z   1
loop_
 _symmetry_equiv_pos_site_id
 _symmetry_equiv_pos_as_xyz
  1  'x, y, z'
loop_
 _atom_site_type_symbol
 _atom_site_label
 _atom_site_symmetry_multiplicity
 _atom_site_fract_x
 _atom_site_fract_y
 _atom_site_fract_z
 _atom_site_occupancy
  Hf  Hf0  1  0.250000  0.024102  0.823635  1
  Ta  Ta1  1  0.250000  0.524284  0.672561  1
  Ta  Ta2  1  0.750000  0.975559  0.175094  1
  Ta  Ta3  1  0.750000  0.475433  0.327571  1
  P  P4  1  0.250000  0.769200  0.375207  1
  P  P5  1  0.250000  0.269994  0.126877  1
  P  P6  1  0.750000  0.234760  0.622219  1
  P  P7  1  0.750000  0.728705  0.877239  1
  Ru  Ru8  1  0.250000  0.148212  0.435692  1
  Ru  Ru9  1  0.250000  0.647179  0.063488  1
  Ru  Ru10  1  0.750000  0.850339  0.559430  1
  Ru  Ru11  1  0.750000  0.352233  0.940988  1
