# generated using pymatgen
data_PaAg7Se6
_symmetry_space_group_name_H-M   'P 1'
_cell_length_a   7.54087067
_cell_length_b   7.53977776
_cell_length_c   8.10484501
_cell_angle_alpha   62.27659346
_cell_angle_beta   117.73189129
_cell_angle_gamma   120.00036126
_symmetry_Int_Tables_number   1
_chemical_formula_structural   PaAg7Se6
_chemical_formula_sum   'Pa1 Ag7 Se6'
_cell_volume   336.58959005
_cell_formula_units_Z   1
loop_
 _symmetry_equiv_pos_site_id
 _symmetry_equiv_pos_as_xyz
  1  'x, y, z'
loop_
 _atom_site_type_symbol
 _atom_site_label
 _atom_site_symmetry_multiplicity
 _atom_site_fract_x
 _atom_site_fract_y
 _atom_site_fract_z
 _atom_site_occupancy
  Pa  Pa0  1  0.003412  0.996750  0.009965  1
  Ag  Ag1  1  0.312141  0.687544  0.936833  1
  Ag  Ag2  1  0.457307  0.874972  0.378579  1
  Ag  Ag3  1  0.796414  0.542923  0.378644  1
  Ag  Ag4  1  0.125041  0.203726  0.378528  1
  Ag  Ag5  1  0.201282  0.461709  0.626318  1
  Ag  Ag6  1  0.886626  0.798877  0.626139  1
  Ag  Ag7  1  0.538131  0.113050  0.626371  1
  Se  Se8  1  0.745470  0.919901  0.220414  1
  Se  Se9  1  0.080211  0.605126  0.220618  1
  Se  Se10  1  0.394962  0.254524  0.220638  1
  Se  Se11  1  0.615389  0.743943  0.789059  1
  Se  Se12  1  0.917631  0.384664  0.788888  1
  Se  Se13  1  0.255991  0.082294  0.789004  1
