# generated using pymatgen
data_CaCeAl20IrRu3
_symmetry_space_group_name_H-M   'P 1'
_cell_length_a   6.88333373
_cell_length_b   6.88445816
_cell_length_c   9.18118679
_cell_angle_alpha   90.03339167
_cell_angle_beta   90.07825048
_cell_angle_gamma   96.93863202
_symmetry_Int_Tables_number   1
_chemical_formula_structural   CaCeAl20IrRu3
_chemical_formula_sum   'Ca1 Ce1 Al20 Ir1 Ru3'
_cell_volume   431.89130205
_cell_formula_units_Z   1
loop_
 _symmetry_equiv_pos_site_id
 _symmetry_equiv_pos_as_xyz
  1  'x, y, z'
loop_
 _atom_site_type_symbol
 _atom_site_label
 _atom_site_symmetry_multiplicity
 _atom_site_fract_x
 _atom_site_fract_y
 _atom_site_fract_z
 _atom_site_occupancy
  Ca  Ca0  1  0.874743  0.126380  0.749802  1
  Ce  Ce1  1  0.122042  0.875684  0.250148  1
  Al  Al2  1  0.591250  0.860465  0.251255  1
  Al  Al3  1  0.777913  0.519119  0.249669  1
  Al  Al4  1  0.158342  0.838830  0.897530  1
  Al  Al5  1  0.413830  0.143662  0.748279  1
  Al  Al6  1  0.624424  0.379238  0.952960  1
  Al  Al7  1  0.843095  0.156647  0.400691  1
  Al  Al8  1  0.775975  0.774960  0.000783  1
  Al  Al9  1  0.857075  0.584834  0.749634  1
  Al  Al10  1  0.844850  0.157698  0.100851  1
  Al  Al11  1  0.220360  0.478280  0.750451  1
  Al  Al12  1  0.160893  0.839876  0.601074  1
  Al  Al13  1  0.774394  0.775647  0.501417  1
  Al  Al14  1  0.480389  0.222699  0.252348  1
  Al  Al15  1  0.624049  0.376622  0.546597  1
  Al  Al16  1  0.223646  0.226328  0.500139  1
  Al  Al17  1  0.377468  0.622422  0.446189  1
  Al  Al18  1  0.138665  0.409786  0.250511  1
  Al  Al19  1  0.521786  0.778545  0.747614  1
  Al  Al20  1  0.376493  0.620237  0.054821  1
  Al  Al21  1  0.222269  0.226786  0.997852  1
  Ir  Ir22  1  0.497824  0.000122  0.000494  1
  Ru  Ru23  1  0.497130  0.999637  0.498771  1
  Ru  Ru24  1  0.000456  0.502483  0.001153  1
  Ru  Ru25  1  0.000637  0.503012  0.498968  1
