# generated using pymatgen
data_Pr6Co15P12RuRh2
_symmetry_space_group_name_H-M   'P 1'
_cell_length_a   3.81565400
_cell_length_b   10.70197100
_cell_length_c   12.57302800
_cell_angle_alpha   90.00000000
_cell_angle_beta   90.00000000
_cell_angle_gamma   90.00000000
_symmetry_Int_Tables_number   1
_chemical_formula_structural   Pr6Co15P12RuRh2
_chemical_formula_sum   'Pr6 Co15 P12 Ru1 Rh2'
_cell_volume   513.41983040
_cell_formula_units_Z   1
loop_
 _symmetry_equiv_pos_site_id
 _symmetry_equiv_pos_as_xyz
  1  'x, y, z'
loop_
 _atom_site_type_symbol
 _atom_site_label
 _atom_site_symmetry_multiplicity
 _atom_site_fract_x
 _atom_site_fract_y
 _atom_site_fract_z
 _atom_site_occupancy
  Pr  Pr0  1  0.000000  0.500000  0.518416  1
  Pr  Pr1  1  0.500000  0.000000  0.477067  1
  Pr  Pr2  1  0.500000  0.816264  0.207623  1
  Pr  Pr3  1  0.500000  0.183736  0.207623  1
  Pr  Pr4  1  0.000000  0.687417  0.793633  1
  Pr  Pr5  1  0.000000  0.312583  0.793633  1
  Co  Co6  1  0.000000  0.000000  0.293740  1
  Co  Co7  1  0.000000  0.500000  0.989897  1
  Co  Co8  1  0.500000  0.000000  0.015485  1
  Co  Co9  1  0.500000  0.332478  0.995060  1
  Co  Co10  1  0.500000  0.667522  0.995060  1
  Co  Co11  1  0.000000  0.167725  0.008238  1
  Co  Co12  1  0.000000  0.832275  0.008238  1
  Co  Co13  1  0.500000  0.299097  0.426046  1
  Co  Co14  1  0.500000  0.700903  0.426046  1
  Co  Co15  1  0.000000  0.199112  0.568943  1
  Co  Co16  1  0.000000  0.800888  0.568943  1
  Co  Co17  1  0.500000  0.884261  0.711531  1
  Co  Co18  1  0.500000  0.115739  0.711531  1
  Co  Co19  1  0.000000  0.616393  0.287900  1
  Co  Co20  1  0.000000  0.383607  0.287900  1
  P  P21  1  0.500000  0.500000  0.893254  1
  P  P22  1  0.000000  0.000000  0.114126  1
  P  P23  1  0.500000  0.500000  0.342013  1
  P  P24  1  0.000000  0.000000  0.655128  1
  P  P25  1  0.500000  0.296623  0.609250  1
  P  P26  1  0.500000  0.703377  0.609250  1
  P  P27  1  0.000000  0.195301  0.385812  1
  P  P28  1  0.000000  0.804699  0.385812  1
  P  P29  1  0.500000  0.847780  0.899854  1
  P  P30  1  0.500000  0.152220  0.899854  1
  P  P31  1  0.000000  0.652198  0.104774  1
  P  P32  1  0.000000  0.347802  0.104774  1
  Ru  Ru33  1  0.500000  0.500000  0.155919  1
  Rh  Rh34  1  0.000000  0.000000  0.843299  1
  Rh  Rh35  1  0.500000  0.500000  0.704330  1
