# generated using pymatgen
data_Ti12CdSn9
_symmetry_space_group_name_H-M   'P 1'
_cell_length_a   9.27116300
_cell_length_b   9.27116353
_cell_length_c   5.72697200
_cell_angle_alpha   90.00000000
_cell_angle_beta   90.00000000
_cell_angle_gamma   120.00000169
_symmetry_Int_Tables_number   1
_chemical_formula_structural   Ti12CdSn9
_chemical_formula_sum   'Ti12 Cd1 Sn9'
_cell_volume   426.30864733
_cell_formula_units_Z   1
loop_
 _symmetry_equiv_pos_site_id
 _symmetry_equiv_pos_as_xyz
  1  'x, y, z'
loop_
 _atom_site_type_symbol
 _atom_site_label
 _atom_site_symmetry_multiplicity
 _atom_site_fract_x
 _atom_site_fract_y
 _atom_site_fract_z
 _atom_site_occupancy
  Ti  Ti0  1  0.842597  0.685194  0.754036  1
  Ti  Ti1  1  0.157403  0.842597  0.245964  1
  Ti  Ti2  1  0.685194  0.842597  0.245964  1
  Ti  Ti3  1  0.314806  0.157403  0.754036  1
  Ti  Ti4  1  0.842597  0.157403  0.754036  1
  Ti  Ti5  1  0.157403  0.314806  0.245964  1
  Ti  Ti6  1  0.500000  0.000000  0.500000  1
  Ti  Ti7  1  0.500000  0.500000  0.000000  1
  Ti  Ti8  1  0.000000  0.500000  0.000000  1
  Ti  Ti9  1  0.000000  0.500000  0.500000  1
  Ti  Ti10  1  0.500000  0.000000  0.000000  1
  Ti  Ti11  1  0.500000  0.500000  0.500000  1
  Cd  Cd12  1  0.000000  0.000000  0.500000  1
  Sn  Sn13  1  0.201128  0.402256  0.748340  1
  Sn  Sn14  1  0.798872  0.201128  0.251660  1
  Sn  Sn15  1  0.402256  0.201128  0.251660  1
  Sn  Sn16  1  0.597744  0.798872  0.748340  1
  Sn  Sn17  1  0.201128  0.798872  0.748340  1
  Sn  Sn18  1  0.798872  0.597744  0.251660  1
  Sn  Sn19  1  0.666667  0.333333  0.750828  1
  Sn  Sn20  1  0.333333  0.666667  0.249172  1
  Sn  Sn21  1  0.000000  0.000000  0.000000  1
