# generated using pymatgen
data_Dy4YTm3Pt4
_symmetry_space_group_name_H-M   'P 1'
_cell_length_a   4.75777000
_cell_length_b   7.14217650
_cell_length_c   8.73254640
_cell_angle_alpha   89.78502633
_cell_angle_beta   90.00000000
_cell_angle_gamma   90.00000000
_symmetry_Int_Tables_number   1
_chemical_formula_structural   Dy4YTm3Pt4
_chemical_formula_sum   'Dy4 Y1 Tm3 Pt4'
_cell_volume   296.73711292
_cell_formula_units_Z   1
loop_
 _symmetry_equiv_pos_site_id
 _symmetry_equiv_pos_as_xyz
  1  'x, y, z'
loop_
 _atom_site_type_symbol
 _atom_site_label
 _atom_site_symmetry_multiplicity
 _atom_site_fract_x
 _atom_site_fract_y
 _atom_site_fract_z
 _atom_site_occupancy
  Dy  Dy0  1  0.750000  0.645273  0.420593  1
  Dy  Dy1  1  0.250000  0.991224  0.331142  1
  Dy  Dy2  1  0.750000  0.011277  0.671275  1
  Dy  Dy3  1  0.750000  0.510539  0.830150  1
  Y  Y4  1  0.250000  0.488798  0.168220  1
  Tm  Tm5  1  0.250000  0.856577  0.921575  1
  Tm  Tm6  1  0.250000  0.355126  0.579254  1
  Tm  Tm7  1  0.750000  0.143719  0.078420  1
  Pt  Pt8  1  0.250000  0.253610  0.905861  1
  Pt  Pt9  1  0.250000  0.755713  0.596539  1
  Pt  Pt10  1  0.750000  0.746084  0.090031  1
  Pt  Pt11  1  0.750000  0.242063  0.406941  1
