# generated using pymatgen
data_Tb18Pa2Ir15Rh
_symmetry_space_group_name_H-M   'P 1'
_cell_length_a   7.44666506
_cell_length_b   7.48406833
_cell_length_c   14.54640300
_cell_angle_alpha   90.32111235
_cell_angle_beta   89.99257514
_cell_angle_gamma   90.07134682
_symmetry_Int_Tables_number   1
_chemical_formula_structural   Tb18Pa2Ir15Rh
_chemical_formula_sum   'Tb18 Pa2 Ir15 Rh1'
_cell_volume   810.67731296
_cell_formula_units_Z   1
loop_
 _symmetry_equiv_pos_site_id
 _symmetry_equiv_pos_as_xyz
  1  'x, y, z'
loop_
 _atom_site_type_symbol
 _atom_site_label
 _atom_site_symmetry_multiplicity
 _atom_site_fract_x
 _atom_site_fract_y
 _atom_site_fract_z
 _atom_site_occupancy
  Tb  Tb0  1  0.341396  0.831415  0.122358  1
  Tb  Tb1  1  0.839907  0.669048  0.377260  1
  Tb  Tb2  1  0.339976  0.831484  0.377969  1
  Tb  Tb3  1  0.838822  0.668830  0.122363  1
  Tb  Tb4  1  0.659421  0.168342  0.878944  1
  Tb  Tb5  1  0.159456  0.331634  0.621192  1
  Tb  Tb6  1  0.511522  0.681343  0.592967  1
  Tb  Tb7  1  0.011098  0.818687  0.907125  1
  Tb  Tb8  1  0.490701  0.317955  0.095398  1
  Tb  Tb9  1  0.993376  0.181174  0.405408  1
  Tb  Tb10  1  0.486260  0.321926  0.406846  1
  Tb  Tb11  1  0.988841  0.177306  0.092133  1
  Tb  Tb12  1  0.510870  0.684199  0.908739  1
  Tb  Tb13  1  0.010691  0.815959  0.591134  1
  Tb  Tb14  1  0.822731  0.513060  0.749800  1
  Tb  Tb15  1  0.322568  0.987082  0.750259  1
  Tb  Tb16  1  0.174275  0.494448  0.249786  1
  Tb  Tb17  1  0.673001  0.006729  0.250140  1
  Pa  Pa18  1  0.659069  0.162110  0.623658  1
  Pa  Pa19  1  0.159111  0.338068  0.876272  1
  Ir  Ir20  1  0.689882  0.973258  0.468570  1
  Ir  Ir21  1  0.189245  0.527656  0.031268  1
  Ir  Ir22  1  0.307216  0.051650  0.958876  1
  Ir  Ir23  1  0.807471  0.448174  0.540925  1
  Ir  Ir24  1  0.334059  0.030245  0.545893  1
  Ir  Ir25  1  0.834280  0.469627  0.954340  1
  Ir  Ir26  1  0.668843  0.969138  0.042367  1
  Ir  Ir27  1  0.167077  0.531400  0.457625  1
  Ir  Ir28  1  0.460899  0.378255  0.746949  1
  Ir  Ir29  1  0.960509  0.121659  0.753061  1
  Ir  Ir30  1  0.542653  0.600816  0.251430  1
  Ir  Ir31  1  0.041737  0.899757  0.248592  1
  Ir  Ir32  1  0.698580  0.871321  0.744580  1
  Ir  Ir33  1  0.198955  0.628498  0.755600  1
  Ir  Ir34  1  0.301268  0.142988  0.250757  1
  Rh  Rh35  1  0.804234  0.354759  0.249416  1
