# generated using pymatgen
data_Cs3CuSe2
_symmetry_space_group_name_H-M   'P 1'
_cell_length_a   11.70502676
_cell_length_b   11.81646019
_cell_length_c   8.60117182
_cell_angle_alpha   89.98717896
_cell_angle_beta   113.37010718
_cell_angle_gamma   90.00769166
_symmetry_Int_Tables_number   1
_chemical_formula_structural   Cs3CuSe2
_chemical_formula_sum   'Cs12 Cu4 Se8'
_cell_volume   1092.04864034
_cell_formula_units_Z   4
loop_
 _symmetry_equiv_pos_site_id
 _symmetry_equiv_pos_as_xyz
  1  'x, y, z'
loop_
 _atom_site_type_symbol
 _atom_site_label
 _atom_site_symmetry_multiplicity
 _atom_site_fract_x
 _atom_site_fract_y
 _atom_site_fract_z
 _atom_site_occupancy
  Cs  Cs0  1  0.312864  0.286596  0.080999  1
  Cs  Cs1  1  0.883958  0.025174  0.162308  1
  Cs  Cs2  1  0.983538  0.444973  0.231752  1
  Cs  Cs3  1  0.516462  0.944998  0.268180  1
  Cs  Cs4  1  0.616030  0.525178  0.337575  1
  Cs  Cs5  1  0.187144  0.786610  0.418992  1
  Cs  Cs6  1  0.812815  0.213373  0.580898  1
  Cs  Cs7  1  0.383956  0.474782  0.662305  1
  Cs  Cs8  1  0.483558  0.054969  0.731750  1
  Cs  Cs9  1  0.016462  0.554995  0.768174  1
  Cs  Cs10  1  0.116033  0.974802  0.837646  1
  Cs  Cs11  1  0.687141  0.713364  0.918982  1
  Cu  Cu12  1  0.326369  0.677593  0.038034  1
  Cu  Cu13  1  0.173679  0.177502  0.462453  1
  Cu  Cu14  1  0.826356  0.822470  0.537998  1
  Cu  Cu15  1  0.673736  0.322417  0.961818  1
  Se  Se16  1  0.622915  0.209392  0.137363  1
  Se  Se17  1  0.274625  0.562576  0.211795  1
  Se  Se18  1  0.225310  0.062744  0.288487  1
  Se  Se19  1  0.877101  0.709431  0.362488  1
  Se  Se20  1  0.122820  0.290673  0.637687  1
  Se  Se21  1  0.774633  0.937362  0.711718  1
  Se  Se22  1  0.725379  0.437427  0.788076  1
  Se  Se23  1  0.377116  0.790599  0.862525  1
