# generated using pymatgen
data_Tb12TcOsRu2
_symmetry_space_group_name_H-M   'P 1'
_cell_length_a   6.33031104
_cell_length_b   7.41553202
_cell_length_c   9.23471000
_cell_angle_alpha   90.00000000
_cell_angle_beta   90.00000000
_cell_angle_gamma   90.04513065
_symmetry_Int_Tables_number   1
_chemical_formula_structural   Tb12TcOsRu2
_chemical_formula_sum   'Tb12 Tc1 Os1 Ru2'
_cell_volume   433.50138662
_cell_formula_units_Z   1
loop_
 _symmetry_equiv_pos_site_id
 _symmetry_equiv_pos_as_xyz
  1  'x, y, z'
loop_
 _atom_site_type_symbol
 _atom_site_label
 _atom_site_symmetry_multiplicity
 _atom_site_fract_x
 _atom_site_fract_y
 _atom_site_fract_z
 _atom_site_occupancy
  Tb  Tb0  1  0.333856  0.675899  0.063878  1
  Tb  Tb1  1  0.167206  0.175707  0.434855  1
  Tb  Tb2  1  0.669575  0.323508  0.564828  1
  Tb  Tb3  1  0.832784  0.823769  0.936037  1
  Tb  Tb4  1  0.669575  0.323508  0.935172  1
  Tb  Tb5  1  0.832784  0.823769  0.563963  1
  Tb  Tb6  1  0.333856  0.675899  0.436122  1
  Tb  Tb7  1  0.167206  0.175707  0.065145  1
  Tb  Tb8  1  0.867678  0.540283  0.250000  1
  Tb  Tb9  1  0.628229  0.042408  0.250000  1
  Tb  Tb10  1  0.132471  0.457576  0.750000  1
  Tb  Tb11  1  0.366305  0.959782  0.750000  1
  Tc  Tc12  1  0.038689  0.886286  0.250000  1
  Os  Os13  1  0.539725  0.614563  0.750000  1
  Ru  Ru14  1  0.460757  0.384881  0.250000  1
  Ru  Ru15  1  0.959305  0.116458  0.750000  1
