# generated using pymatgen
data_Dy10Y(Tm3Bi4)3
_symmetry_space_group_name_H-M   'P 1'
_cell_length_a   8.19575875
_cell_length_b   9.45098650
_cell_length_c   11.99781400
_cell_angle_alpha   89.98148539
_cell_angle_beta   90.07354435
_cell_angle_gamma   89.97358560
_symmetry_Int_Tables_number   1
_chemical_formula_structural   Dy10Y(Tm3Bi4)3
_chemical_formula_sum   'Dy10 Y1 Tm9 Bi12'
_cell_volume   929.32582756
_cell_formula_units_Z   1
loop_
 _symmetry_equiv_pos_site_id
 _symmetry_equiv_pos_as_xyz
  1  'x, y, z'
loop_
 _atom_site_type_symbol
 _atom_site_label
 _atom_site_symmetry_multiplicity
 _atom_site_fract_x
 _atom_site_fract_y
 _atom_site_fract_z
 _atom_site_occupancy
  Dy  Dy0  1  0.185204  0.749655  0.718676  1
  Dy  Dy1  1  0.685587  0.749413  0.781787  1
  Dy  Dy2  1  0.814630  0.249711  0.281617  1
  Dy  Dy3  1  0.314102  0.249629  0.218586  1
  Dy  Dy4  1  0.192272  0.939056  0.439758  1
  Dy  Dy5  1  0.309565  0.061684  0.941446  1
  Dy  Dy6  1  0.807211  0.439239  0.560060  1
  Dy  Dy7  1  0.354688  0.749925  0.215919  1
  Dy  Dy8  1  0.852205  0.748424  0.282978  1
  Dy  Dy9  1  0.645847  0.249417  0.783964  1
  Y  Y10  1  0.146971  0.249002  0.716576  1
  Tm  Tm11  1  0.022782  0.749396  0.989162  1
  Tm  Tm12  1  0.523546  0.750250  0.510885  1
  Tm  Tm13  1  0.976516  0.248863  0.010904  1
  Tm  Tm14  1  0.476457  0.249902  0.488847  1
  Tm  Tm15  1  0.308577  0.431218  0.941262  1
  Tm  Tm16  1  0.809447  0.069032  0.559206  1
  Tm  Tm17  1  0.690234  0.932254  0.058306  1
  Tm  Tm18  1  0.190761  0.569047  0.440714  1
  Tm  Tm19  1  0.692570  0.564598  0.059234  1
  Bi  Bi20  1  0.434410  0.003253  0.672324  1
  Bi  Bi21  1  0.934251  0.495418  0.828008  1
  Bi  Bi22  1  0.565935  0.503514  0.327545  1
  Bi  Bi23  1  0.065744  0.995256  0.172226  1
  Bi  Bi24  1  0.567505  0.995847  0.327833  1
  Bi  Bi25  1  0.066554  0.503415  0.171554  1
  Bi  Bi26  1  0.432944  0.495887  0.671975  1
  Bi  Bi27  1  0.932638  0.003265  0.828198  1
  Bi  Bi28  1  0.403994  0.744435  0.956953  1
  Bi  Bi29  1  0.904525  0.755283  0.542286  1
  Bi  Bi30  1  0.597012  0.249420  0.043755  1
  Bi  Bi31  1  0.095316  0.255294  0.457457  1
