# generated using pymatgen
data_Sr6AgSn8P
_symmetry_space_group_name_H-M   'P 1'
_cell_length_a   8.92782230
_cell_length_b   8.92782156
_cell_length_c   8.92782174
_cell_angle_alpha   120.42038964
_cell_angle_beta   120.42039000
_cell_angle_gamma   89.27339098
_symmetry_Int_Tables_number   1
_chemical_formula_structural   Sr6AgSn8P
_chemical_formula_sum   'Sr6 Ag1 Sn8 P1'
_cell_volume   499.93702916
_cell_formula_units_Z   1
loop_
 _symmetry_equiv_pos_site_id
 _symmetry_equiv_pos_as_xyz
  1  'x, y, z'
loop_
 _atom_site_type_symbol
 _atom_site_label
 _atom_site_symmetry_multiplicity
 _atom_site_fract_x
 _atom_site_fract_y
 _atom_site_fract_z
 _atom_site_occupancy
  Sr  Sr0  1  0.266482  0.266482  0.000000  1
  Sr  Sr1  1  0.733518  0.733518  0.000000  1
  Sr  Sr2  1  0.185140  0.648003  0.833143  1
  Sr  Sr3  1  0.814860  0.351997  0.166857  1
  Sr  Sr4  1  0.648003  0.814860  0.462863  1
  Sr  Sr5  1  0.351997  0.185140  0.537137  1
  Ag  Ag6  1  0.000000  0.000000  0.000000  1
  Sn  Sn7  1  0.836957  0.325651  0.785695  1
  Sn  Sn8  1  0.163043  0.674349  0.214305  1
  Sn  Sn9  1  0.539956  0.051262  0.214305  1
  Sn  Sn10  1  0.325651  0.539956  0.488693  1
  Sn  Sn11  1  0.948738  0.163043  0.488693  1
  Sn  Sn12  1  0.460044  0.948738  0.785695  1
  Sn  Sn13  1  0.674349  0.460044  0.511307  1
  Sn  Sn14  1  0.051262  0.836957  0.511307  1
  P  P15  1  0.500000  0.500000  0.000000  1
