# generated using pymatgen
data_Yb4Np2TaSbO16
_symmetry_space_group_name_H-M   'P 1'
_cell_length_a   5.45293871
_cell_length_b   7.80522196
_cell_length_c   7.83356336
_cell_angle_alpha   79.99846536
_cell_angle_beta   86.57151783
_cell_angle_gamma   90.41114520
_symmetry_Int_Tables_number   1
_chemical_formula_structural   Yb4Np2TaSbO16
_chemical_formula_sum   'Yb4 Np2 Ta1 Sb1 O16'
_cell_volume   327.70067855
_cell_formula_units_Z   1
loop_
 _symmetry_equiv_pos_site_id
 _symmetry_equiv_pos_as_xyz
  1  'x, y, z'
loop_
 _atom_site_type_symbol
 _atom_site_label
 _atom_site_symmetry_multiplicity
 _atom_site_fract_x
 _atom_site_fract_y
 _atom_site_fract_z
 _atom_site_occupancy
  Yb  Yb0  1  0.736673  0.599247  0.617999  1
  Yb  Yb1  1  0.261497  0.403218  0.375826  1
  Yb  Yb2  1  0.800075  0.118277  0.663513  1
  Yb  Yb3  1  0.202021  0.879733  0.339652  1
  Np  Np4  1  0.759349  0.199604  0.165237  1
  Np  Np5  1  0.241596  0.801756  0.835476  1
  Ta  Ta6  1  0.278929  0.312105  0.804066  1
  Sb  Sb7  1  0.722013  0.690481  0.189579  1
  O  O8  1  0.925753  0.697236  0.957836  1
  O  O9  1  0.068307  0.302748  0.044569  1
  O  O10  1  0.380466  0.552016  0.821865  1
  O  O11  1  0.608533  0.450025  0.176388  1
  O  O12  1  0.147838  0.064802  0.825182  1
  O  O13  1  0.859535  0.934625  0.172968  1
  O  O14  1  0.590721  0.200001  0.941612  1
  O  O15  1  0.416735  0.797174  0.058945  1
  O  O16  1  0.948835  0.178210  0.377742  1
  O  O17  1  0.050013  0.821836  0.625913  1
  O  O18  1  0.505095  0.321055  0.609510  1
  O  O19  1  0.492188  0.678379  0.393295  1
  O  O20  1  0.536909  0.874909  0.694976  1
  O  O21  1  0.463907  0.124825  0.303355  1
  O  O22  1  0.018537  0.377728  0.661885  1
  O  O23  1  0.984476  0.620009  0.342610  1
