# generated using pymatgen
data_TmLu7(OsBr4)2
_symmetry_space_group_name_H-M   'P 1'
_cell_length_a   8.80309965
_cell_length_b   8.79568599
_cell_length_c   6.45398529
_cell_angle_alpha   89.45624769
_cell_angle_beta   89.43499502
_cell_angle_gamma   89.40077136
_symmetry_Int_Tables_number   1
_chemical_formula_structural   TmLu7(OsBr4)2
_chemical_formula_sum   'Tm1 Lu7 Os2 Br8'
_cell_volume   499.65391958
_cell_formula_units_Z   1
loop_
 _symmetry_equiv_pos_site_id
 _symmetry_equiv_pos_as_xyz
  1  'x, y, z'
loop_
 _atom_site_type_symbol
 _atom_site_label
 _atom_site_symmetry_multiplicity
 _atom_site_fract_x
 _atom_site_fract_y
 _atom_site_fract_z
 _atom_site_occupancy
  Tm  Tm0  1  0.248543  0.901581  0.010217  1
  Lu  Lu1  1  0.752515  0.097981  0.989780  1
  Lu  Lu2  1  0.097902  0.752739  0.490063  1
  Lu  Lu3  1  0.902036  0.247349  0.510228  1
  Lu  Lu4  1  0.753395  0.903235  0.509013  1
  Lu  Lu5  1  0.246439  0.096670  0.491304  1
  Lu  Lu6  1  0.096403  0.246737  0.991070  1
  Lu  Lu7  1  0.902689  0.753545  0.008990  1
  Os  Os8  1  0.994098  0.005686  0.250157  1
  Os  Os9  1  0.004958  0.994617  0.749714  1
  Br  Br10  1  0.420969  0.816366  0.406283  1
  Br  Br11  1  0.579204  0.183683  0.593614  1
  Br  Br12  1  0.183795  0.579152  0.093526  1
  Br  Br13  1  0.816486  0.420892  0.906327  1
  Br  Br14  1  0.416072  0.192186  0.096022  1
  Br  Br15  1  0.583989  0.807821  0.903761  1
  Br  Br16  1  0.807953  0.583840  0.403982  1
  Br  Br17  1  0.192555  0.415920  0.595948  1
