# generated using pymatgen
data_Th2SbAuSe2
_symmetry_space_group_name_H-M   'P 1'
_cell_length_a   4.18304400
_cell_length_b   4.18304400
_cell_length_c   8.74752800
_cell_angle_alpha   90.00000000
_cell_angle_beta   90.00000000
_cell_angle_gamma   90.00000000
_symmetry_Int_Tables_number   1
_chemical_formula_structural   Th2SbAuSe2
_chemical_formula_sum   'Th2 Sb1 Au1 Se2'
_cell_volume   153.06299497
_cell_formula_units_Z   1
loop_
 _symmetry_equiv_pos_site_id
 _symmetry_equiv_pos_as_xyz
  1  'x, y, z'
loop_
 _atom_site_type_symbol
 _atom_site_label
 _atom_site_symmetry_multiplicity
 _atom_site_fract_x
 _atom_site_fract_y
 _atom_site_fract_z
 _atom_site_occupancy
  Th  Th0  1  0.000000  0.500000  0.715187  1
  Th  Th1  1  0.500000  0.000000  0.284813  1
  Sb  Sb2  1  0.500000  0.500000  0.000000  1
  Au  Au3  1  0.000000  0.000000  0.000000  1
  Se  Se4  1  0.000000  0.500000  0.364504  1
  Se  Se5  1  0.500000  0.000000  0.635496  1
