# generated using pymatgen
data_La20Si15Se
_symmetry_space_group_name_H-M   'P 1'
_cell_length_a   8.05986733
_cell_length_b   8.01607253
_cell_length_c   15.59090547
_cell_angle_alpha   90.16546103
_cell_angle_beta   89.30085481
_cell_angle_gamma   90.03122142
_symmetry_Int_Tables_number   1
_chemical_formula_structural   La20Si15Se
_chemical_formula_sum   'La20 Si15 Se1'
_cell_volume   1007.22539865
_cell_formula_units_Z   1
loop_
 _symmetry_equiv_pos_site_id
 _symmetry_equiv_pos_as_xyz
  1  'x, y, z'
loop_
 _atom_site_type_symbol
 _atom_site_label
 _atom_site_symmetry_multiplicity
 _atom_site_fract_x
 _atom_site_fract_y
 _atom_site_fract_z
 _atom_site_occupancy
  La  La0  1  0.369793  0.483504  0.377892  1
  La  La1  1  0.869883  0.022451  0.374648  1
  La  La2  1  0.980753  0.127053  0.123864  1
  La  La3  1  0.027040  0.871168  0.621905  1
  La  La4  1  0.626868  0.520083  0.872374  1
  La  La5  1  0.481282  0.365315  0.625739  1
  La  La6  1  0.519351  0.626749  0.126375  1
  La  La7  1  0.123973  0.978484  0.877506  1
  La  La8  1  0.990252  0.619503  0.053126  1
  La  La9  1  0.013003  0.378471  0.553163  1
  La  La10  1  0.617347  0.989275  0.946001  1
  La  La11  1  0.120209  0.511291  0.802345  1
  La  La12  1  0.871182  0.484525  0.297953  1
  La  La13  1  0.510303  0.120639  0.195322  1
  La  La14  1  0.494192  0.884170  0.700410  1
  La  La15  1  0.382797  0.010321  0.446968  1
  La  La16  1  0.681773  0.695334  0.501362  1
  La  La17  1  0.810070  0.189898  0.751159  1
  La  La18  1  0.193504  0.810106  0.244519  1
  La  La19  1  0.310064  0.310233  0.001360  1
  Si  Si20  1  0.919538  0.288997  0.940944  1
  Si  Si21  1  0.720204  0.082240  0.558383  1
  Si  Si22  1  0.210051  0.422831  0.193344  1
  Si  Si23  1  0.797932  0.576532  0.689510  1
  Si  Si24  1  0.416887  0.212895  0.810778  1
  Si  Si25  1  0.575803  0.789278  0.309781  1
  Si  Si26  1  0.289869  0.922145  0.058417  1
  Si  Si27  1  0.835367  0.802388  0.793759  1
  Si  Si28  1  0.168056  0.197340  0.299283  1
  Si  Si29  1  0.803320  0.831043  0.202842  1
  Si  Si30  1  0.327953  0.668614  0.563783  1
  Si  Si31  1  0.697031  0.332377  0.046467  1
  Si  Si32  1  0.669243  0.305658  0.452754  1
  Si  Si33  1  0.332238  0.696820  0.952778  1
  Si  Si34  1  0.193414  0.168271  0.704373  1
  Se  Se35  1  0.049455  0.703999  0.428814  1
