# generated using pymatgen
data_Lu12Ni4HgRh
_symmetry_space_group_name_H-M   'P 1'
_cell_length_a   8.09572750
_cell_length_b   8.09572967
_cell_length_c   8.09572700
_cell_angle_alpha   111.06126510
_cell_angle_beta   110.30975352
_cell_angle_gamma   107.06992774
_symmetry_Int_Tables_number   1
_chemical_formula_structural   Lu12Ni4HgRh
_chemical_formula_sum   'Lu12 Ni4 Hg1 Rh1'
_cell_volume   407.90293483
_cell_formula_units_Z   1
loop_
 _symmetry_equiv_pos_site_id
 _symmetry_equiv_pos_as_xyz
  1  'x, y, z'
loop_
 _atom_site_type_symbol
 _atom_site_label
 _atom_site_symmetry_multiplicity
 _atom_site_fract_x
 _atom_site_fract_y
 _atom_site_fract_z
 _atom_site_occupancy
  Lu  Lu0  1  0.418042  0.227641  0.190428  1
  Lu  Lu1  1  0.581958  0.772359  0.809572  1
  Lu  Lu2  1  0.037213  0.227641  0.809598  1
  Lu  Lu3  1  0.962787  0.772359  0.190402  1
  Lu  Lu4  1  0.181442  0.281533  0.462914  1
  Lu  Lu5  1  0.818558  0.718467  0.537086  1
  Lu  Lu6  1  0.181382  0.718467  0.899909  1
  Lu  Lu7  1  0.818618  0.281533  0.100091  1
  Lu  Lu8  1  0.324307  0.628867  0.304559  1
  Lu  Lu9  1  0.675693  0.371133  0.695441  1
  Lu  Lu10  1  0.324192  0.019312  0.695120  1
  Lu  Lu11  1  0.675808  0.980688  0.304880  1
  Ni  Ni12  1  0.354058  0.000000  0.354058  1
  Ni  Ni13  1  0.645942  0.000000  0.645942  1
  Ni  Ni14  1  0.121417  0.620873  0.499456  1
  Ni  Ni15  1  0.878583  0.379127  0.500544  1
  Hg  Hg16  1  0.500000  0.500000  0.000000  1
  Rh  Rh17  1  0.000000  0.000000  0.000000  1
