# generated using pymatgen
data_Y2Ho3Rh2
_symmetry_space_group_name_H-M   'P 1'
_cell_length_a   6.37047246
_cell_length_b   7.21499785
_cell_length_c   8.63269385
_cell_angle_alpha   97.10803840
_cell_angle_beta   111.65232432
_cell_angle_gamma   90.00000033
_symmetry_Int_Tables_number   1
_chemical_formula_structural   Y2Ho3Rh2
_chemical_formula_sum   'Y4 Ho6 Rh4'
_cell_volume   365.50396043
_cell_formula_units_Z   2
loop_
 _symmetry_equiv_pos_site_id
 _symmetry_equiv_pos_as_xyz
  1  'x, y, z'
loop_
 _atom_site_type_symbol
 _atom_site_label
 _atom_site_symmetry_multiplicity
 _atom_site_fract_x
 _atom_site_fract_y
 _atom_site_fract_z
 _atom_site_occupancy
  Y  Y0  1  0.979396  0.917766  0.189358  1
  Y  Y1  1  0.790037  0.582234  0.810642  1
  Y  Y2  1  0.020604  0.082234  0.810642  1
  Y  Y3  1  0.209963  0.417766  0.189358  1
  Ho  Ho4  1  0.645017  0.813440  0.437691  1
  Ho  Ho5  1  0.207326  0.686560  0.562309  1
  Ho  Ho6  1  0.354983  0.186560  0.562309  1
  Ho  Ho7  1  0.792674  0.313440  0.437691  1
  Ho  Ho8  1  0.424890  0.750000  0.000000  1
  Ho  Ho9  1  0.575110  0.250000  0.000000  1
  Rh  Rh10  1  0.813749  0.573726  0.222626  1
  Rh  Rh11  1  0.591123  0.926274  0.777374  1
  Rh  Rh12  1  0.186251  0.426274  0.777374  1
  Rh  Rh13  1  0.408877  0.073726  0.222626  1
