# generated using pymatgen
data_Yb4GaAg4Ge3
_symmetry_space_group_name_H-M   'P 1'
_cell_length_a   5.76200903
_cell_length_b   5.76200719
_cell_length_c   10.55752596
_cell_angle_alpha   83.62973997
_cell_angle_beta   83.62974048
_cell_angle_gamma   46.95534005
_symmetry_Int_Tables_number   1
_chemical_formula_structural   Yb4GaAg4Ge3
_chemical_formula_sum   'Yb4 Ga1 Ag4 Ge3'
_cell_volume   254.28481157
_cell_formula_units_Z   1
loop_
 _symmetry_equiv_pos_site_id
 _symmetry_equiv_pos_as_xyz
  1  'x, y, z'
loop_
 _atom_site_type_symbol
 _atom_site_label
 _atom_site_symmetry_multiplicity
 _atom_site_fract_x
 _atom_site_fract_y
 _atom_site_fract_z
 _atom_site_occupancy
  Yb  Yb0  1  0.680262  0.680262  0.680556  1
  Yb  Yb1  1  0.184565  0.184565  0.183390  1
  Yb  Yb2  1  0.400493  0.400493  0.900697  1
  Yb  Yb3  1  0.898968  0.898968  0.397667  1
  Ga  Ga4  1  0.678673  0.678673  0.985991  1
  Ag  Ag5  1  0.386147  0.386147  0.607328  1
  Ag  Ag6  1  0.889315  0.889315  0.105855  1
  Ag  Ag7  1  0.108923  0.108923  0.885594  1
  Ag  Ag8  1  0.607006  0.607006  0.388906  1
  Ge  Ge9  1  0.176087  0.176087  0.486577  1
  Ge  Ge10  1  0.984386  0.984386  0.677356  1
  Ge  Ge11  1  0.486375  0.486375  0.181282  1
