# generated using pymatgen
data_Zr5VPb2
_symmetry_space_group_name_H-M   'P 1'
_cell_length_a   5.58953570
_cell_length_b   8.56256131
_cell_length_c   8.56256096
_cell_angle_alpha   83.88450451
_cell_angle_beta   70.94996498
_cell_angle_gamma   70.94995963
_symmetry_Int_Tables_number   1
_chemical_formula_structural   Zr5VPb2
_chemical_formula_sum   'Zr10 V2 Pb4'
_cell_volume   366.15222066
_cell_formula_units_Z   2
loop_
 _symmetry_equiv_pos_site_id
 _symmetry_equiv_pos_as_xyz
  1  'x, y, z'
loop_
 _atom_site_type_symbol
 _atom_site_label
 _atom_site_symmetry_multiplicity
 _atom_site_fract_x
 _atom_site_fract_y
 _atom_site_fract_z
 _atom_site_occupancy
  Zr  Zr0  1  0.072343  0.127623  0.727691  1
  Zr  Zr1  1  0.927657  0.872377  0.272309  1
  Zr  Zr2  1  0.800035  0.272309  0.127623  1
  Zr  Zr3  1  0.427657  0.272309  0.872377  1
  Zr  Zr4  1  0.199965  0.727691  0.872377  1
  Zr  Zr5  1  0.572343  0.727691  0.127623  1
  Zr  Zr6  1  0.699965  0.872377  0.727691  1
  Zr  Zr7  1  0.300035  0.127623  0.272309  1
  Zr  Zr8  1  0.250000  0.500000  0.500000  1
  Zr  Zr9  1  0.750000  0.500000  0.500000  1
  V  V10  1  0.250000  0.000000  0.000000  1
  V  V11  1  0.750000  0.000000  0.000000  1
  Pb  Pb12  1  0.163819  0.500000  0.172362  1
  Pb  Pb13  1  0.836181  0.500000  0.827638  1
  Pb  Pb14  1  0.336181  0.827638  0.500000  1
  Pb  Pb15  1  0.663819  0.172362  0.500000  1
