# generated using pymatgen
data_Er2Mo3P7Ir9
_symmetry_space_group_name_H-M   'P 1'
_cell_length_a   4.00789005
_cell_length_b   9.53380092
_cell_length_c   9.53422700
_cell_angle_alpha   120.00443122
_cell_angle_beta   89.99125100
_cell_angle_gamma   90.01201949
_symmetry_Int_Tables_number   1
_chemical_formula_structural   Er2Mo3P7Ir9
_chemical_formula_sum   'Er2 Mo3 P7 Ir9'
_cell_volume   315.48491123
_cell_formula_units_Z   1
loop_
 _symmetry_equiv_pos_site_id
 _symmetry_equiv_pos_as_xyz
  1  'x, y, z'
loop_
 _atom_site_type_symbol
 _atom_site_label
 _atom_site_symmetry_multiplicity
 _atom_site_fract_x
 _atom_site_fract_y
 _atom_site_fract_z
 _atom_site_occupancy
  Er  Er0  1  0.261755  0.666591  0.333204  1
  Er  Er1  1  0.761960  0.333255  0.666653  1
  Mo  Mo2  1  0.761968  0.088309  0.866222  1
  Mo  Mo3  1  0.761938  0.133834  0.222116  1
  Mo  Mo4  1  0.761959  0.777927  0.911670  1
  P  P5  1  0.262225  0.000009  0.000008  1
  P  P6  1  0.761752  0.877890  0.591940  1
  P  P7  1  0.761731  0.408052  0.285954  1
  P  P8  1  0.761727  0.714058  0.122082  1
  P  P9  1  0.261944  0.120295  0.416968  1
  P  P10  1  0.261948  0.583057  0.703358  1
  P  P11  1  0.261904  0.296674  0.879743  1
  Ir  Ir12  1  0.261900  0.890579  0.162631  1
  Ir  Ir13  1  0.261922  0.837449  0.727927  1
  Ir  Ir14  1  0.261899  0.272063  0.109494  1
  Ir  Ir15  1  0.761919  0.612038  0.553994  1
  Ir  Ir16  1  0.761912  0.445959  0.058021  1
  Ir  Ir17  1  0.761888  0.941979  0.387954  1
  Ir  Ir18  1  0.261902  0.368651  0.440170  1
  Ir  Ir19  1  0.261926  0.559849  0.928541  1
  Ir  Ir20  1  0.261918  0.071478  0.631351  1
