# generated using pymatgen
data_CsHfPaBr9
_symmetry_space_group_name_H-M   'P 1'
_cell_length_a   7.64390497
_cell_length_b   10.93347826
_cell_length_c   13.50531100
_cell_angle_alpha   65.11936398
_cell_angle_beta   89.34336963
_cell_angle_gamma   88.49504398
_symmetry_Int_Tables_number   1
_chemical_formula_structural   CsHfPaBr9
_chemical_formula_sum   'Cs2 Hf2 Pa2 Br18'
_cell_volume   1023.58709137
_cell_formula_units_Z   2
loop_
 _symmetry_equiv_pos_site_id
 _symmetry_equiv_pos_as_xyz
  1  'x, y, z'
loop_
 _atom_site_type_symbol
 _atom_site_label
 _atom_site_symmetry_multiplicity
 _atom_site_fract_x
 _atom_site_fract_y
 _atom_site_fract_z
 _atom_site_occupancy
  Cs  Cs0  1  0.557892  0.505316  0.735583  1
  Cs  Cs1  1  0.442108  0.494684  0.264417  1
  Hf  Hf2  1  0.277265  0.810148  0.870136  1
  Hf  Hf3  1  0.722735  0.189852  0.129864  1
  Pa  Pa4  1  0.269314  0.167812  0.643046  1
  Pa  Pa5  1  0.730686  0.832188  0.356954  1
  Br  Br6  1  0.144603  0.763512  0.053036  1
  Br  Br7  1  0.855397  0.236488  0.946964  1
  Br  Br8  1  0.138755  0.239198  0.438351  1
  Br  Br9  1  0.861245  0.760802  0.561649  1
  Br  Br10  1  0.143497  0.621756  0.839053  1
  Br  Br11  1  0.856503  0.378244  0.160947  1
  Br  Br12  1  0.131166  0.380197  0.677043  1
  Br  Br13  1  0.868834  0.619803  0.322957  1
  Br  Br14  1  0.999245  0.981468  0.763525  1
  Br  Br15  1  0.000755  0.018532  0.236475  1
  Br  Br16  1  0.409671  0.048935  0.861582  1
  Br  Br17  1  0.590329  0.951065  0.138418  1
  Br  Br18  1  0.410870  0.912491  0.657511  1
  Br  Br19  1  0.589130  0.087509  0.342489  1
  Br  Br20  1  0.572645  0.697161  0.935874  1
  Br  Br21  1  0.427355  0.302839  0.064126  1
  Br  Br22  1  0.581000  0.296963  0.569024  1
  Br  Br23  1  0.419000  0.703037  0.430976  1
