# generated using pymatgen
data_Ho6Ta2Fe(Co5P4)3
_symmetry_space_group_name_H-M   'P 1'
_cell_length_a   3.69013800
_cell_length_b   10.61841300
_cell_length_c   12.27512800
_cell_angle_alpha   90.00000000
_cell_angle_beta   90.00000000
_cell_angle_gamma   90.00000000
_symmetry_Int_Tables_number   1
_chemical_formula_structural   Ho6Ta2Fe(Co5P4)3
_chemical_formula_sum   'Ho6 Ta2 Fe1 Co15 P12'
_cell_volume   480.98136477
_cell_formula_units_Z   1
loop_
 _symmetry_equiv_pos_site_id
 _symmetry_equiv_pos_as_xyz
  1  'x, y, z'
loop_
 _atom_site_type_symbol
 _atom_site_label
 _atom_site_symmetry_multiplicity
 _atom_site_fract_x
 _atom_site_fract_y
 _atom_site_fract_z
 _atom_site_occupancy
  Ho  Ho0  1  0.000000  0.500000  0.527055  1
  Ho  Ho1  1  0.500000  0.000000  0.472988  1
  Ho  Ho2  1  0.500000  0.820031  0.204609  1
  Ho  Ho3  1  0.500000  0.179969  0.204609  1
  Ho  Ho4  1  0.000000  0.678532  0.795764  1
  Ho  Ho5  1  0.000000  0.321468  0.795764  1
  Ta  Ta6  1  0.500000  0.500000  0.156340  1
  Ta  Ta7  1  0.000000  0.000000  0.843206  1
  Fe  Fe8  1  0.000000  0.500000  0.987440  1
  Co  Co9  1  0.500000  0.000000  0.013065  1
  Co  Co10  1  0.500000  0.295564  0.432422  1
  Co  Co11  1  0.500000  0.704436  0.432422  1
  Co  Co12  1  0.000000  0.204570  0.567804  1
  Co  Co13  1  0.000000  0.795430  0.567804  1
  Co  Co14  1  0.500000  0.877965  0.705266  1
  Co  Co15  1  0.500000  0.122035  0.705266  1
  Co  Co16  1  0.000000  0.622336  0.294455  1
  Co  Co17  1  0.000000  0.377664  0.294455  1
  Co  Co18  1  0.500000  0.330577  0.993641  1
  Co  Co19  1  0.500000  0.669423  0.993641  1
  Co  Co20  1  0.000000  0.166117  0.007231  1
  Co  Co21  1  0.000000  0.833883  0.007231  1
  Co  Co22  1  0.500000  0.500000  0.701304  1
  Co  Co23  1  0.000000  0.000000  0.298294  1
  P  P24  1  0.500000  0.311240  0.616124  1
  P  P25  1  0.500000  0.688760  0.616124  1
  P  P26  1  0.000000  0.188569  0.383951  1
  P  P27  1  0.000000  0.811431  0.383951  1
  P  P28  1  0.500000  0.500000  0.883498  1
  P  P29  1  0.000000  0.000000  0.118694  1
  P  P30  1  0.500000  0.840622  0.892230  1
  P  P31  1  0.500000  0.159378  0.892230  1
  P  P32  1  0.000000  0.658974  0.105603  1
  P  P33  1  0.000000  0.341026  0.105603  1
  P  P34  1  0.500000  0.500000  0.357593  1
  P  P35  1  0.000000  0.000000  0.642327  1
