# generated using pymatgen
data_LaEr4(MnB3)2
_symmetry_space_group_name_H-M   'P 1'
_cell_length_a   8.27853803
_cell_length_b   8.27853862
_cell_length_c   8.27853744
_cell_angle_alpha   38.19251045
_cell_angle_beta   38.19251798
_cell_angle_gamma   38.19250420
_symmetry_Int_Tables_number   1
_chemical_formula_structural   LaEr4(MnB3)2
_chemical_formula_sum   'La1 Er4 Mn2 B6'
_cell_volume   194.77179200
_cell_formula_units_Z   1
loop_
 _symmetry_equiv_pos_site_id
 _symmetry_equiv_pos_as_xyz
  1  'x, y, z'
loop_
 _atom_site_type_symbol
 _atom_site_label
 _atom_site_symmetry_multiplicity
 _atom_site_fract_x
 _atom_site_fract_y
 _atom_site_fract_z
 _atom_site_occupancy
  La  La0  1  0.000000  0.000000  0.000000  1
  Er  Er1  1  0.581999  0.581999  0.581999  1
  Er  Er2  1  0.418001  0.418001  0.418001  1
  Er  Er3  1  0.750646  0.750646  0.750646  1
  Er  Er4  1  0.249354  0.249354  0.249354  1
  Mn  Mn5  1  0.885666  0.885666  0.885666  1
  Mn  Mn6  1  0.114334  0.114334  0.114334  1
  B  B7  1  0.500000  0.833475  0.166525  1
  B  B8  1  0.166525  0.500000  0.833475  1
  B  B9  1  0.833475  0.166525  0.500000  1
  B  B10  1  0.500000  0.166525  0.833475  1
  B  B11  1  0.833475  0.500000  0.166525  1
  B  B12  1  0.166525  0.833475  0.500000  1
