# generated using pymatgen
data_Cs8EuSnI12
_symmetry_space_group_name_H-M   'P 1'
_cell_length_a   10.64159147
_cell_length_b   10.64159097
_cell_length_c   10.64159242
_cell_angle_alpha   89.36403350
_cell_angle_beta   89.36402992
_cell_angle_gamma   89.36403481
_symmetry_Int_Tables_number   1
_chemical_formula_structural   Cs8EuSnI12
_chemical_formula_sum   'Cs8 Eu1 Sn1 I12'
_cell_volume   1204.86971434
_cell_formula_units_Z   1
loop_
 _symmetry_equiv_pos_site_id
 _symmetry_equiv_pos_as_xyz
  1  'x, y, z'
loop_
 _atom_site_type_symbol
 _atom_site_label
 _atom_site_symmetry_multiplicity
 _atom_site_fract_x
 _atom_site_fract_y
 _atom_site_fract_z
 _atom_site_occupancy
  Cs  Cs0  1  0.249333  0.249333  0.249333  1
  Cs  Cs1  1  0.750667  0.750667  0.750667  1
  Cs  Cs2  1  0.870248  0.630749  0.250182  1
  Cs  Cs3  1  0.630749  0.250182  0.870248  1
  Cs  Cs4  1  0.250182  0.870248  0.630749  1
  Cs  Cs5  1  0.129752  0.369251  0.749818  1
  Cs  Cs6  1  0.369251  0.749818  0.129752  1
  Cs  Cs7  1  0.749818  0.129752  0.369251  1
  Eu  Eu8  1  0.500000  0.500000  0.500000  1
  Sn  Sn9  1  0.000000  0.000000  0.000000  1
  I  I10  1  0.205709  0.558238  0.430612  1
  I  I11  1  0.057690  0.708269  0.931574  1
  I  I12  1  0.931574  0.057690  0.708269  1
  I  I13  1  0.794291  0.441762  0.569388  1
  I  I14  1  0.708269  0.931574  0.057690  1
  I  I15  1  0.441762  0.569388  0.794291  1
  I  I16  1  0.569388  0.794291  0.441762  1
  I  I17  1  0.558238  0.430612  0.205709  1
  I  I18  1  0.068426  0.942310  0.291731  1
  I  I19  1  0.942310  0.291731  0.068426  1
  I  I20  1  0.291731  0.068426  0.942310  1
  I  I21  1  0.430612  0.205709  0.558238  1
