# generated using pymatgen
data_YTm(ScPt)2
_symmetry_space_group_name_H-M   'P 1'
_cell_length_a   4.62477100
_cell_length_b   6.95566100
_cell_length_c   8.36972200
_cell_angle_alpha   90.00000000
_cell_angle_beta   90.00000000
_cell_angle_gamma   90.00000000
_symmetry_Int_Tables_number   1
_chemical_formula_structural   YTm(ScPt)2
_chemical_formula_sum   'Y2 Tm2 Sc4 Pt4'
_cell_volume   269.24005696
_cell_formula_units_Z   2
loop_
 _symmetry_equiv_pos_site_id
 _symmetry_equiv_pos_as_xyz
  1  'x, y, z'
loop_
 _atom_site_type_symbol
 _atom_site_label
 _atom_site_symmetry_multiplicity
 _atom_site_fract_x
 _atom_site_fract_y
 _atom_site_fract_z
 _atom_site_occupancy
  Y  Y0  1  0.750000  0.014584  0.676243  1
  Y  Y1  1  0.750000  0.514584  0.823757  1
  Tm  Tm2  1  0.250000  0.985100  0.324365  1
  Tm  Tm3  1  0.250000  0.485100  0.175635  1
  Sc  Sc4  1  0.250000  0.858853  0.928082  1
  Sc  Sc5  1  0.250000  0.358853  0.571918  1
  Sc  Sc6  1  0.750000  0.141369  0.076131  1
  Sc  Sc7  1  0.750000  0.641369  0.423869  1
  Pt  Pt8  1  0.250000  0.244800  0.905900  1
  Pt  Pt9  1  0.250000  0.744800  0.594100  1
  Pt  Pt10  1  0.750000  0.755295  0.098920  1
  Pt  Pt11  1  0.750000  0.255295  0.401080  1
