# generated using pymatgen
data_Ho2MnPdF14
_symmetry_space_group_name_H-M   'P 1'
_cell_length_a   5.49043108
_cell_length_b   8.80035101
_cell_length_c   11.85116600
_cell_angle_alpha   62.47022418
_cell_angle_beta   90.18965640
_cell_angle_gamma   90.12272696
_symmetry_Int_Tables_number   1
_chemical_formula_structural   Ho2MnPdF14
_chemical_formula_sum   'Ho4 Mn2 Pd2 F28'
_cell_volume   507.78094184
_cell_formula_units_Z   2
loop_
 _symmetry_equiv_pos_site_id
 _symmetry_equiv_pos_as_xyz
  1  'x, y, z'
loop_
 _atom_site_type_symbol
 _atom_site_label
 _atom_site_symmetry_multiplicity
 _atom_site_fract_x
 _atom_site_fract_y
 _atom_site_fract_z
 _atom_site_occupancy
  Ho  Ho0  1  0.261321  0.815528  0.260733  1
  Ho  Ho1  1  0.738679  0.184472  0.739267  1
  Ho  Ho2  1  0.763534  0.190081  0.232677  1
  Ho  Ho3  1  0.236466  0.809919  0.767323  1
  Mn  Mn4  1  0.758350  0.725974  0.043278  1
  Mn  Mn5  1  0.241650  0.274026  0.956722  1
  Pd  Pd6  1  0.260791  0.272848  0.456571  1
  Pd  Pd7  1  0.739209  0.727152  0.543429  1
  F  F8  1  0.928300  0.701866  0.414398  1
  F  F9  1  0.071700  0.298134  0.585602  1
  F  F10  1  0.440806  0.292750  0.074619  1
  F  F11  1  0.559194  0.707250  0.925381  1
  F  F12  1  0.488852  0.733495  0.133407  1
  F  F13  1  0.511148  0.266505  0.866593  1
  F  F14  1  0.964207  0.278106  0.363585  1
  F  F15  1  0.035793  0.721894  0.636415  1
  F  F16  1  0.955662  0.744513  0.164345  1
  F  F17  1  0.044338  0.255487  0.835655  1
  F  F18  1  0.444913  0.255406  0.321556  1
  F  F19  1  0.555087  0.744594  0.678444  1
  F  F20  1  0.767624  0.489705  0.136610  1
  F  F21  1  0.232376  0.510295  0.863390  1
  F  F22  1  0.278739  0.522553  0.356565  1
  F  F23  1  0.721261  0.477447  0.643435  1
  F  F24  1  0.964232  0.283266  0.042839  1
  F  F25  1  0.035768  0.716734  0.957161  1
  F  F26  1  0.435812  0.723812  0.458034  1
  F  F27  1  0.564188  0.276188  0.541966  1
  F  F28  1  0.745481  0.975497  0.450593  1
  F  F29  1  0.254519  0.024503  0.549407  1
  F  F30  1  0.240241  0.039049  0.048074  1
  F  F31  1  0.759759  0.960951  0.951926  1
  F  F32  1  0.587920  0.971511  0.230723  1
  F  F33  1  0.412080  0.028489  0.769277  1
  F  F34  1  0.085310  0.028861  0.269531  1
  F  F35  1  0.914690  0.971139  0.730469  1
