# generated using pymatgen
data_Nd3CrCo7P6Rh
_symmetry_space_group_name_H-M   'P 1'
_cell_length_a   3.74604400
_cell_length_b   10.77241000
_cell_length_c   12.46961900
_cell_angle_alpha   90.00000000
_cell_angle_beta   90.00000000
_cell_angle_gamma   90.00000000
_symmetry_Int_Tables_number   1
_chemical_formula_structural   Nd3CrCo7P6Rh
_chemical_formula_sum   'Nd6 Cr2 Co14 P12 Rh2'
_cell_volume   503.19803058
_cell_formula_units_Z   2
loop_
 _symmetry_equiv_pos_site_id
 _symmetry_equiv_pos_as_xyz
  1  'x, y, z'
loop_
 _atom_site_type_symbol
 _atom_site_label
 _atom_site_symmetry_multiplicity
 _atom_site_fract_x
 _atom_site_fract_y
 _atom_site_fract_z
 _atom_site_occupancy
  Nd  Nd0  1  0.000000  0.500000  0.519925  1
  Nd  Nd1  1  0.500000  0.000000  0.480075  1
  Nd  Nd2  1  0.500000  0.816055  0.203298  1
  Nd  Nd3  1  0.500000  0.183945  0.203298  1
  Nd  Nd4  1  0.000000  0.683945  0.796702  1
  Nd  Nd5  1  0.000000  0.316055  0.796702  1
  Cr  Cr6  1  0.500000  0.500000  0.153102  1
  Cr  Cr7  1  0.000000  0.000000  0.846898  1
  Co  Co8  1  0.000000  0.500000  0.990197  1
  Co  Co9  1  0.500000  0.000000  0.009803  1
  Co  Co10  1  0.500000  0.332452  0.996079  1
  Co  Co11  1  0.500000  0.667548  0.996079  1
  Co  Co12  1  0.000000  0.167548  0.003921  1
  Co  Co13  1  0.000000  0.832452  0.003921  1
  Co  Co14  1  0.500000  0.298945  0.429765  1
  Co  Co15  1  0.500000  0.701055  0.429765  1
  Co  Co16  1  0.000000  0.201055  0.570235  1
  Co  Co17  1  0.000000  0.798945  0.570235  1
  Co  Co18  1  0.500000  0.882789  0.711324  1
  Co  Co19  1  0.500000  0.117211  0.711324  1
  Co  Co20  1  0.000000  0.617211  0.288676  1
  Co  Co21  1  0.000000  0.382789  0.288676  1
  P  P22  1  0.500000  0.500000  0.893321  1
  P  P23  1  0.000000  0.000000  0.106679  1
  P  P24  1  0.500000  0.500000  0.341811  1
  P  P25  1  0.000000  0.000000  0.658189  1
  P  P26  1  0.500000  0.299557  0.612542  1
  P  P27  1  0.500000  0.700443  0.612542  1
  P  P28  1  0.000000  0.200443  0.387458  1
  P  P29  1  0.000000  0.799557  0.387458  1
  P  P30  1  0.500000  0.847910  0.895126  1
  P  P31  1  0.500000  0.152090  0.895126  1
  P  P32  1  0.000000  0.652090  0.104874  1
  P  P33  1  0.000000  0.347910  0.104874  1
  Rh  Rh34  1  0.500000  0.500000  0.702710  1
  Rh  Rh35  1  0.000000  0.000000  0.297290  1
