# generated using pymatgen
data_TbDy2Al3Ga2Cu
_symmetry_space_group_name_H-M   'P 1'
_cell_length_a   6.95491301
_cell_length_b   6.95432242
_cell_length_c   4.29608000
_cell_angle_alpha   90.00000000
_cell_angle_beta   90.00000000
_cell_angle_gamma   119.99718880
_symmetry_Int_Tables_number   1
_chemical_formula_structural   TbDy2Al3Ga2Cu
_chemical_formula_sum   'Tb1 Dy2 Al3 Ga2 Cu1'
_cell_volume   179.95412963
_cell_formula_units_Z   1
loop_
 _symmetry_equiv_pos_site_id
 _symmetry_equiv_pos_as_xyz
  1  'x, y, z'
loop_
 _atom_site_type_symbol
 _atom_site_label
 _atom_site_symmetry_multiplicity
 _atom_site_fract_x
 _atom_site_fract_y
 _atom_site_fract_z
 _atom_site_occupancy
  Tb  Tb0  1  0.000000  0.589081  0.500000  1
  Dy  Dy1  1  0.410618  0.410504  0.500000  1
  Dy  Dy2  1  0.589382  0.999886  0.500000  1
  Al  Al3  1  0.764477  0.764764  0.000000  1
  Al  Al4  1  0.235523  0.000288  0.000000  1
  Al  Al5  1  0.000000  0.234843  0.000000  1
  Ga  Ga6  1  0.665682  0.332751  0.000000  1
  Ga  Ga7  1  0.334318  0.667070  0.000000  1
  Cu  Cu8  1  0.000000  0.000812  0.500000  1
