# generated using pymatgen
data_YbSm3Ni4(SnH)4
_symmetry_space_group_name_H-M   'P 1'
_cell_length_a   4.32532900
_cell_length_b   7.16395830
_cell_length_c   8.34843922
_cell_angle_alpha   90.28656431
_cell_angle_beta   90.00000000
_cell_angle_gamma   90.00000000
_symmetry_Int_Tables_number   1
_chemical_formula_structural   YbSm3Ni4(SnH)4
_chemical_formula_sum   'Yb1 Sm3 Ni4 Sn4 H4'
_cell_volume   258.68548098
_cell_formula_units_Z   1
loop_
 _symmetry_equiv_pos_site_id
 _symmetry_equiv_pos_as_xyz
  1  'x, y, z'
loop_
 _atom_site_type_symbol
 _atom_site_label
 _atom_site_symmetry_multiplicity
 _atom_site_fract_x
 _atom_site_fract_y
 _atom_site_fract_z
 _atom_site_occupancy
  Yb  Yb0  1  0.750000  0.013741  0.685739  1
  Sm  Sm1  1  0.250000  0.986352  0.315778  1
  Sm  Sm2  1  0.250000  0.486041  0.187880  1
  Sm  Sm3  1  0.750000  0.513330  0.810548  1
  Ni  Ni4  1  0.750000  0.775254  0.105551  1
  Ni  Ni5  1  0.250000  0.224155  0.896659  1
  Ni  Ni6  1  0.250000  0.725345  0.605826  1
  Ni  Ni7  1  0.750000  0.276080  0.393830  1
  Sn  Sn8  1  0.750000  0.655949  0.432643  1
  Sn  Sn9  1  0.250000  0.343076  0.569175  1
  Sn  Sn10  1  0.250000  0.846084  0.928418  1
  Sn  Sn11  1  0.750000  0.153567  0.067307  1
  H  H12  1  0.250000  0.444589  0.919784  1
  H  H13  1  0.750000  0.555623  0.079590  1
  H  H14  1  0.750000  0.057639  0.420084  1
  H  H15  1  0.250000  0.943173  0.581189  1
