# generated using pymatgen
data_Be8NbOsRu2
_symmetry_space_group_name_H-M   'P 1'
_cell_length_a   4.37830200
_cell_length_b   4.37830134
_cell_length_c   7.11394900
_cell_angle_alpha   90.00000000
_cell_angle_beta   90.00000000
_cell_angle_gamma   120.00000496
_symmetry_Int_Tables_number   1
_chemical_formula_structural   Be8NbOsRu2
_chemical_formula_sum   'Be8 Nb1 Os1 Ru2'
_cell_volume   118.10076781
_cell_formula_units_Z   1
loop_
 _symmetry_equiv_pos_site_id
 _symmetry_equiv_pos_as_xyz
  1  'x, y, z'
loop_
 _atom_site_type_symbol
 _atom_site_label
 _atom_site_symmetry_multiplicity
 _atom_site_fract_x
 _atom_site_fract_y
 _atom_site_fract_z
 _atom_site_occupancy
  Be  Be0  1  0.000000  0.000000  0.501314  1
  Be  Be1  1  0.000000  0.000000  0.995272  1
  Be  Be2  1  0.830092  0.169908  0.260738  1
  Be  Be3  1  0.830092  0.660182  0.260738  1
  Be  Be4  1  0.339818  0.169908  0.260738  1
  Be  Be5  1  0.167892  0.832108  0.741027  1
  Be  Be6  1  0.167892  0.335784  0.741027  1
  Be  Be7  1  0.664216  0.832108  0.741027  1
  Nb  Nb8  1  0.333333  0.666667  0.061946  1
  Os  Os9  1  0.666667  0.333333  0.943773  1
  Ru  Ru10  1  0.333333  0.666667  0.431162  1
  Ru  Ru11  1  0.666667  0.333333  0.561236  1
