# generated using pymatgen
data_SmY(SeO4)3
_symmetry_space_group_name_H-M   'P 1'
_cell_length_a   10.11217836
_cell_length_b   10.11219803
_cell_length_c   10.11215801
_cell_angle_alpha   57.69629791
_cell_angle_beta   57.69651386
_cell_angle_gamma   57.69624074
_symmetry_Int_Tables_number   1
_chemical_formula_structural   SmY(SeO4)3
_chemical_formula_sum   'Sm2 Y2 Se6 O24'
_cell_volume   692.47147868
_cell_formula_units_Z   2
loop_
 _symmetry_equiv_pos_site_id
 _symmetry_equiv_pos_as_xyz
  1  'x, y, z'
loop_
 _atom_site_type_symbol
 _atom_site_label
 _atom_site_symmetry_multiplicity
 _atom_site_fract_x
 _atom_site_fract_y
 _atom_site_fract_z
 _atom_site_occupancy
  Sm  Sm0  1  0.356538  0.356538  0.356538  1
  Sm  Sm1  1  0.643462  0.643462  0.643462  1
  Y  Y2  1  0.144556  0.144557  0.144557  1
  Y  Y3  1  0.855444  0.855443  0.855443  1
  Se  Se4  1  0.035558  0.463834  0.753840  1
  Se  Se5  1  0.463834  0.753841  0.035557  1
  Se  Se6  1  0.753841  0.035557  0.463833  1
  Se  Se7  1  0.964442  0.536166  0.246160  1
  Se  Se8  1  0.246159  0.964443  0.536167  1
  Se  Se9  1  0.536166  0.246159  0.964443  1
  O  O10  1  0.224375  0.994313  0.369449  1
  O  O11  1  0.369450  0.224375  0.994312  1
  O  O12  1  0.994311  0.369452  0.224374  1
  O  O13  1  0.775625  0.005687  0.630551  1
  O  O14  1  0.630550  0.775625  0.005688  1
  O  O15  1  0.005689  0.630548  0.775626  1
  O  O16  1  0.269254  0.129076  0.509491  1
  O  O17  1  0.509490  0.269255  0.129075  1
  O  O18  1  0.129076  0.509490  0.269253  1
  O  O19  1  0.730746  0.870924  0.490509  1
  O  O20  1  0.064403  0.295422  0.920576  1
  O  O21  1  0.295423  0.920576  0.064402  1
  O  O22  1  0.920574  0.064401  0.295425  1
  O  O23  1  0.935597  0.704578  0.079424  1
  O  O24  1  0.704577  0.079424  0.935598  1
  O  O25  1  0.079426  0.935599  0.704575  1
  O  O26  1  0.204284  0.436920  0.586588  1
  O  O27  1  0.436919  0.586588  0.204285  1
  O  O28  1  0.586587  0.204285  0.436921  1
  O  O29  1  0.795716  0.563080  0.413412  1
  O  O30  1  0.563081  0.413412  0.795715  1
  O  O31  1  0.413413  0.795715  0.563079  1
  O  O32  1  0.870924  0.490510  0.730747  1
  O  O33  1  0.490510  0.730745  0.870925  1
