# generated using pymatgen
data_LaPr5Al24(IrOs)4
_symmetry_space_group_name_H-M   'P 1'
_cell_length_a   8.92758500
_cell_length_b   8.94569232
_cell_length_c   9.70885950
_cell_angle_alpha   89.90865336
_cell_angle_beta   90.00000000
_cell_angle_gamma   119.93306089
_symmetry_Int_Tables_number   1
_chemical_formula_structural   LaPr5Al24(IrOs)4
_chemical_formula_sum   'La1 Pr5 Al24 Ir4 Os4'
_cell_volume   671.95255648
_cell_formula_units_Z   1
loop_
 _symmetry_equiv_pos_site_id
 _symmetry_equiv_pos_as_xyz
  1  'x, y, z'
loop_
 _atom_site_type_symbol
 _atom_site_label
 _atom_site_symmetry_multiplicity
 _atom_site_fract_x
 _atom_site_fract_y
 _atom_site_fract_z
 _atom_site_occupancy
  La  La0  1  0.191388  0.382775  0.251958  1
  Pr  Pr1  1  0.808795  0.617591  0.748215  1
  Pr  Pr2  1  0.620035  0.809413  0.250628  1
  Pr  Pr3  1  0.380151  0.190265  0.749525  1
  Pr  Pr4  1  0.189379  0.809413  0.250628  1
  Pr  Pr5  1  0.810114  0.190265  0.749525  1
  Al  Al6  1  0.333890  0.667782  0.018353  1
  Al  Al7  1  0.666657  0.333312  0.978684  1
  Al  Al8  1  0.667157  0.334312  0.520399  1
  Al  Al9  1  0.333616  0.667232  0.482365  1
  Al  Al10  1  0.164315  0.328628  0.574914  1
  Al  Al11  1  0.835623  0.671247  0.425981  1
  Al  Al12  1  0.672173  0.834618  0.574123  1
  Al  Al13  1  0.836409  0.672817  0.073735  1
  Al  Al14  1  0.328659  0.165310  0.426498  1
  Al  Al15  1  0.163451  0.326901  0.925273  1
  Al  Al16  1  0.162447  0.834618  0.574123  1
  Al  Al17  1  0.327569  0.163201  0.074313  1
  Al  Al18  1  0.836650  0.165310  0.426498  1
  Al  Al19  1  0.673122  0.836430  0.925311  1
  Al  Al20  1  0.835630  0.163201  0.074313  1
  Al  Al21  1  0.163309  0.836430  0.925311  1
  Al  Al22  1  0.562946  0.125891  0.249369  1
  Al  Al23  1  0.436998  0.873997  0.750720  1
  Al  Al24  1  0.872353  0.437157  0.250040  1
  Al  Al25  1  0.126215  0.562365  0.749853  1
  Al  Al26  1  0.564804  0.437157  0.250040  1
  Al  Al27  1  0.436150  0.562365  0.749853  1
  Al  Al28  1  0.000208  0.000416  0.250128  1
  Al  Al29  1  0.999332  0.998664  0.749887  1
  Ir  Ir30  1  0.500179  0.000359  0.999692  1
  Ir  Ir31  1  0.000121  0.500210  0.000157  1
  Ir  Ir32  1  0.500213  0.000425  0.500458  1
  Ir  Ir33  1  0.500090  0.500210  0.000157  1
  Os  Os34  1  0.000309  0.500227  0.499520  1
  Os  Os35  1  0.499918  0.500227  0.499520  1
  Os  Os36  1  0.999793  0.999586  0.000045  1
  Os  Os37  1  0.999836  0.999672  0.499890  1
