# generated using pymatgen
data_Zr5Co16Si3(P3W)3
_symmetry_space_group_name_H-M   'P 1'
_cell_length_a   11.94670000
_cell_length_b   11.94669977
_cell_length_c   3.66511200
_cell_angle_alpha   90.00000000
_cell_angle_beta   90.00000000
_cell_angle_gamma   119.99999511
_symmetry_Int_Tables_number   1
_chemical_formula_structural   Zr5Co16Si3(P3W)3
_chemical_formula_sum   'Zr5 Co16 Si3 P9 W3'
_cell_volume   453.01628182
_cell_formula_units_Z   1
loop_
 _symmetry_equiv_pos_site_id
 _symmetry_equiv_pos_as_xyz
  1  'x, y, z'
loop_
 _atom_site_type_symbol
 _atom_site_label
 _atom_site_symmetry_multiplicity
 _atom_site_fract_x
 _atom_site_fract_y
 _atom_site_fract_z
 _atom_site_occupancy
  Zr  Zr0  1  0.666667  0.333333  0.000000  1
  Zr  Zr1  1  0.333333  0.666667  0.000000  1
  Zr  Zr2  1  0.820481  0.819150  0.500000  1
  Zr  Zr3  1  0.180850  0.001331  0.500000  1
  Zr  Zr4  1  0.998669  0.179519  0.500000  1
  Co  Co5  1  0.194300  0.373215  0.000000  1
  Co  Co6  1  0.178915  0.805700  0.000000  1
  Co  Co7  1  0.825495  0.631040  0.000000  1
  Co  Co8  1  0.805544  0.174505  0.000000  1
  Co  Co9  1  0.368960  0.194456  0.000000  1
  Co  Co10  1  0.131777  0.485523  0.500000  1
  Co  Co11  1  0.353746  0.868223  0.500000  1
  Co  Co12  1  0.514477  0.646254  0.500000  1
  Co  Co13  1  0.645670  0.524932  0.500000  1
  Co  Co14  1  0.879262  0.354330  0.500000  1
  Co  Co15  1  0.475068  0.120738  0.500000  1
  Co  Co16  1  0.000000  0.000000  0.000000  1
  Co  Co17  1  0.719632  0.996081  0.500000  1
  Co  Co18  1  0.003919  0.723551  0.500000  1
  Co  Co19  1  0.626785  0.821085  0.000000  1
  Co  Co20  1  0.276449  0.280368  0.500000  1
  Si  Si21  1  0.482141  0.314410  0.500000  1
  Si  Si22  1  0.685590  0.167731  0.500000  1
  Si  Si23  1  0.832269  0.517859  0.500000  1
  P  P24  1  0.644802  0.643909  0.000000  1
  P  P25  1  0.356091  0.000893  0.000000  1
  P  P26  1  0.999107  0.355198  0.000000  1
  P  P27  1  0.518764  0.832922  0.500000  1
  P  P28  1  0.167078  0.685842  0.500000  1
  P  P29  1  0.823879  0.998676  0.000000  1
  P  P30  1  0.001324  0.825203  0.000000  1
  P  P31  1  0.314158  0.481236  0.500000  1
  P  P32  1  0.174797  0.176121  0.000000  1
  W  W33  1  0.446952  0.449226  0.000000  1
  W  W34  1  0.550774  0.997726  0.000000  1
  W  W35  1  0.002274  0.553048  0.000000  1
