# generated using pymatgen
data_Hf5Zr3Co2(CuN)2
_symmetry_space_group_name_H-M   'P 1'
_cell_length_a   8.61779491
_cell_length_b   8.61779509
_cell_length_c   8.61779500
_cell_angle_alpha   59.99999650
_cell_angle_beta   59.99999581
_cell_angle_gamma   59.99999789
_symmetry_Int_Tables_number   1
_chemical_formula_structural   Hf5Zr3Co2(CuN)2
_chemical_formula_sum   'Hf10 Zr6 Co4 Cu4 N4'
_cell_volume   452.55716634
_cell_formula_units_Z   2
loop_
 _symmetry_equiv_pos_site_id
 _symmetry_equiv_pos_as_xyz
  1  'x, y, z'
loop_
 _atom_site_type_symbol
 _atom_site_label
 _atom_site_symmetry_multiplicity
 _atom_site_fract_x
 _atom_site_fract_y
 _atom_site_fract_z
 _atom_site_occupancy
  Hf  Hf0  1  0.090674  0.636442  0.636442  1
  Hf  Hf1  1  0.636442  0.090674  0.636442  1
  Hf  Hf2  1  0.636442  0.636442  0.090674  1
  Hf  Hf3  1  0.636442  0.636442  0.636442  1
  Hf  Hf4  1  0.817720  0.817720  0.182280  1
  Hf  Hf5  1  0.182280  0.182280  0.817720  1
  Hf  Hf6  1  0.817720  0.182280  0.817720  1
  Hf  Hf7  1  0.182280  0.817720  0.182280  1
  Hf  Hf8  1  0.182280  0.817720  0.817720  1
  Hf  Hf9  1  0.817720  0.182280  0.182280  1
  Zr  Zr10  1  0.433183  0.433183  0.066817  1
  Zr  Zr11  1  0.066817  0.066817  0.433183  1
  Zr  Zr12  1  0.433183  0.066817  0.433183  1
  Zr  Zr13  1  0.066817  0.433183  0.066817  1
  Zr  Zr14  1  0.066817  0.433183  0.433183  1
  Zr  Zr15  1  0.433183  0.066817  0.066817  1
  Co  Co16  1  0.457218  0.847595  0.847595  1
  Co  Co17  1  0.847595  0.457218  0.847595  1
  Co  Co18  1  0.847595  0.847595  0.457218  1
  Co  Co19  1  0.847595  0.847595  0.847595  1
  Cu  Cu20  1  0.738509  0.420497  0.420497  1
  Cu  Cu21  1  0.420497  0.738509  0.420497  1
  Cu  Cu22  1  0.420497  0.420497  0.738509  1
  Cu  Cu23  1  0.420497  0.420497  0.420497  1
  N  N24  1  0.630736  0.123088  0.123088  1
  N  N25  1  0.123088  0.630736  0.123088  1
  N  N26  1  0.123088  0.123088  0.630736  1
  N  N27  1  0.123088  0.123088  0.123088  1
