# generated using pymatgen
data_CaY(ZnRh)2
_symmetry_space_group_name_H-M   'P 1'
_cell_length_a   4.18139200
_cell_length_b   7.01516577
_cell_length_c   7.94209216
_cell_angle_alpha   90.20468957
_cell_angle_beta   90.00000000
_cell_angle_gamma   90.00000000
_symmetry_Int_Tables_number   1
_chemical_formula_structural   CaY(ZnRh)2
_chemical_formula_sum   'Ca2 Y2 Zn4 Rh4'
_cell_volume   232.96515767
_cell_formula_units_Z   2
loop_
 _symmetry_equiv_pos_site_id
 _symmetry_equiv_pos_as_xyz
  1  'x, y, z'
loop_
 _atom_site_type_symbol
 _atom_site_label
 _atom_site_symmetry_multiplicity
 _atom_site_fract_x
 _atom_site_fract_y
 _atom_site_fract_z
 _atom_site_occupancy
  Ca  Ca0  1  0.250000  0.525321  0.183005  1
  Ca  Ca1  1  0.750000  0.474679  0.816995  1
  Y  Y2  1  0.750000  0.974022  0.684537  1
  Y  Y3  1  0.250000  0.025978  0.315463  1
  Zn  Zn4  1  0.250000  0.646714  0.567933  1
  Zn  Zn5  1  0.750000  0.353286  0.432067  1
  Zn  Zn6  1  0.750000  0.848506  0.066731  1
  Zn  Zn7  1  0.250000  0.151494  0.933269  1
  Rh  Rh8  1  0.250000  0.782897  0.875937  1
  Rh  Rh9  1  0.750000  0.217103  0.124063  1
  Rh  Rh10  1  0.750000  0.735421  0.385901  1
  Rh  Rh11  1  0.250000  0.264579  0.614099  1
