# generated using pymatgen
data_Pr5ZrRuO12
_symmetry_space_group_name_H-M   'P 1'
_cell_length_a   7.19037137
_cell_length_b   7.19037153
_cell_length_c   7.70920712
_cell_angle_alpha   74.50390096
_cell_angle_beta   74.50390241
_cell_angle_gamma   50.73028916
_symmetry_Int_Tables_number   1
_chemical_formula_structural   Pr5ZrRuO12
_chemical_formula_sum   'Pr5 Zr1 Ru1 O12'
_cell_volume   294.77167922
_cell_formula_units_Z   1
loop_
 _symmetry_equiv_pos_site_id
 _symmetry_equiv_pos_as_xyz
  1  'x, y, z'
loop_
 _atom_site_type_symbol
 _atom_site_label
 _atom_site_symmetry_multiplicity
 _atom_site_fract_x
 _atom_site_fract_y
 _atom_site_fract_z
 _atom_site_occupancy
  Pr  Pr0  1  0.298821  0.306912  0.359574  1
  Pr  Pr1  1  0.693088  0.701179  0.640426  1
  Pr  Pr2  1  0.686763  0.701679  0.166775  1
  Pr  Pr3  1  0.298321  0.313237  0.833225  1
  Pr  Pr4  1  0.006536  0.993464  0.500000  1
  Zr  Zr5  1  0.771276  0.228724  0.000000  1
  Ru  Ru6  1  0.254834  0.745166  0.000000  1
  O  O7  1  0.092903  0.598300  0.574637  1
  O  O8  1  0.021625  0.977712  0.182112  1
  O  O9  1  0.401700  0.907097  0.425363  1
  O  O10  1  0.493380  0.508342  0.178681  1
  O  O11  1  0.099624  0.585266  0.080352  1
  O  O12  1  0.901711  0.405556  0.422220  1
  O  O13  1  0.022288  0.978375  0.817888  1
  O  O14  1  0.594444  0.098288  0.577780  1
  O  O15  1  0.491658  0.506620  0.821319  1
  O  O16  1  0.562243  0.105951  0.081566  1
  O  O17  1  0.414734  0.900376  0.919648  1
  O  O18  1  0.894049  0.437757  0.918434  1
