# generated using pymatgen
data_Dy4Cu2PtRh
_symmetry_space_group_name_H-M   'P 1'
_cell_length_a   4.36625200
_cell_length_b   5.57258054
_cell_length_c   7.10225200
_cell_angle_alpha   90.08729478
_cell_angle_beta   90.00000000
_cell_angle_gamma   90.00000000
_symmetry_Int_Tables_number   1
_chemical_formula_structural   Dy4Cu2PtRh
_chemical_formula_sum   'Dy4 Cu2 Pt1 Rh1'
_cell_volume   172.80675897
_cell_formula_units_Z   1
loop_
 _symmetry_equiv_pos_site_id
 _symmetry_equiv_pos_as_xyz
  1  'x, y, z'
loop_
 _atom_site_type_symbol
 _atom_site_label
 _atom_site_symmetry_multiplicity
 _atom_site_fract_x
 _atom_site_fract_y
 _atom_site_fract_z
 _atom_site_occupancy
  Dy  Dy0  1  0.000000  0.116958  0.679481  1
  Dy  Dy1  1  0.000000  0.883819  0.184949  1
  Dy  Dy2  1  0.500000  0.395499  0.320973  1
  Dy  Dy3  1  0.500000  0.607488  0.813485  1
  Cu  Cu4  1  0.500000  0.888623  0.463323  1
  Cu  Cu5  1  0.500000  0.110989  0.963393  1
  Pt  Pt6  1  0.000000  0.384213  0.037317  1
  Rh  Rh7  1  0.000000  0.612410  0.537081  1
