# generated using pymatgen
data_Er2Lu10Tl2Tc3
_symmetry_space_group_name_H-M   'P 1'
_cell_length_a   8.31931101
_cell_length_b   8.31931158
_cell_length_c   8.33636500
_cell_angle_alpha   108.77721025
_cell_angle_beta   108.77719703
_cell_angle_gamma   110.78746106
_symmetry_Int_Tables_number   1
_chemical_formula_structural   Er2Lu10Tl2Tc3
_chemical_formula_sum   'Er2 Lu10 Tl2 Tc3'
_cell_volume   444.40540081
_cell_formula_units_Z   1
loop_
 _symmetry_equiv_pos_site_id
 _symmetry_equiv_pos_as_xyz
  1  'x, y, z'
loop_
 _atom_site_type_symbol
 _atom_site_label
 _atom_site_symmetry_multiplicity
 _atom_site_fract_x
 _atom_site_fract_y
 _atom_site_fract_z
 _atom_site_occupancy
  Er  Er0  1  0.304755  0.304755  0.609510  1
  Er  Er1  1  0.695245  0.695245  0.390490  1
  Lu  Lu2  1  0.694076  0.305924  0.000000  1
  Lu  Lu3  1  0.305924  0.694076  0.000000  1
  Lu  Lu4  1  0.187637  0.427057  0.237359  1
  Lu  Lu5  1  0.812363  0.572943  0.762641  1
  Lu  Lu6  1  0.189698  0.950277  0.762641  1
  Lu  Lu7  1  0.950277  0.189698  0.762641  1
  Lu  Lu8  1  0.810302  0.049723  0.237359  1
  Lu  Lu9  1  0.049723  0.810302  0.237359  1
  Lu  Lu10  1  0.427057  0.187637  0.237359  1
  Lu  Lu11  1  0.572943  0.812363  0.762641  1
  Tl  Tl12  1  0.000000  0.500000  0.500000  1
  Tl  Tl13  1  0.500000  0.000000  0.500000  1
  Tc  Tc14  1  0.370703  0.370703  0.000000  1
  Tc  Tc15  1  0.629297  0.629297  0.000000  1
  Tc  Tc16  1  0.000000  0.000000  0.000000  1
