# generated using pymatgen
data_Sr5LaCd2(RhO6)2
_symmetry_space_group_name_H-M   'P 1'
_cell_length_a   6.81552031
_cell_length_b   6.81552081
_cell_length_c   6.84197434
_cell_angle_alpha   90.12412913
_cell_angle_beta   90.12412859
_cell_angle_gamma   90.57635074
_symmetry_Int_Tables_number   1
_chemical_formula_structural   Sr5LaCd2(RhO6)2
_chemical_formula_sum   'Sr5 La1 Cd2 Rh2 O12'
_cell_volume   317.80115647
_cell_formula_units_Z   1
loop_
 _symmetry_equiv_pos_site_id
 _symmetry_equiv_pos_as_xyz
  1  'x, y, z'
loop_
 _atom_site_type_symbol
 _atom_site_label
 _atom_site_symmetry_multiplicity
 _atom_site_fract_x
 _atom_site_fract_y
 _atom_site_fract_z
 _atom_site_occupancy
  Sr  Sr0  1  0.116000  0.384000  0.750000  1
  Sr  Sr1  1  0.250642  0.886094  0.615923  1
  Sr  Sr2  1  0.613906  0.249358  0.884077  1
  Sr  Sr3  1  0.385719  0.751076  0.112319  1
  Sr  Sr4  1  0.748924  0.114281  0.387681  1
  La  La5  1  0.887592  0.612408  0.250000  1
  Cd  Cd6  1  0.749431  0.750569  0.750000  1
  Cd  Cd7  1  0.252791  0.247209  0.250000  1
  Rh  Rh8  1  0.998501  0.000586  0.003121  1
  Rh  Rh9  1  0.499414  0.501499  0.496879  1
  O  O10  1  0.447769  0.582987  0.783133  1
  O  O11  1  0.589033  0.784905  0.443273  1
  O  O12  1  0.948225  0.293648  0.088467  1
  O  O13  1  0.559807  0.423940  0.211141  1
  O  O14  1  0.206352  0.551775  0.411533  1
  O  O15  1  0.047002  0.710591  0.926988  1
  O  O16  1  0.789409  0.452998  0.573012  1
  O  O17  1  0.715095  0.910967  0.056727  1
  O  O18  1  0.076060  0.940193  0.288859  1
  O  O19  1  0.917013  0.052231  0.716867  1
  O  O20  1  0.414907  0.213593  0.548787  1
  O  O21  1  0.286407  0.085093  0.951213  1
