# generated using pymatgen
data_Eu3BiCl12
_symmetry_space_group_name_H-M   'P 1'
_cell_length_a   12.09422321
_cell_length_b   7.19865744
_cell_length_c   8.14669700
_cell_angle_alpha   64.65093489
_cell_angle_beta   90.20071196
_cell_angle_gamma   89.84794333
_symmetry_Int_Tables_number   1
_chemical_formula_structural   Eu3BiCl12
_chemical_formula_sum   'Eu3 Bi1 Cl12'
_cell_volume   640.96732528
_cell_formula_units_Z   1
loop_
 _symmetry_equiv_pos_site_id
 _symmetry_equiv_pos_as_xyz
  1  'x, y, z'
loop_
 _atom_site_type_symbol
 _atom_site_label
 _atom_site_symmetry_multiplicity
 _atom_site_fract_x
 _atom_site_fract_y
 _atom_site_fract_z
 _atom_site_occupancy
  Eu  Eu0  1  0.332746  0.429207  0.024642  1
  Eu  Eu1  1  0.832929  0.074032  0.969897  1
  Eu  Eu2  1  0.666638  0.575030  0.970312  1
  Bi  Bi3  1  0.166345  0.926309  0.032397  1
  Cl  Cl4  1  0.524786  0.291583  0.210055  1
  Cl  Cl5  1  0.031505  0.219530  0.795537  1
  Cl  Cl6  1  0.471470  0.712380  0.786932  1
  Cl  Cl7  1  0.977162  0.772220  0.206430  1
  Cl  Cl8  1  0.333489  0.178426  0.845236  1
  Cl  Cl9  1  0.832557  0.306529  0.158516  1
  Cl  Cl10  1  0.671597  0.805720  0.162607  1
  Cl  Cl11  1  0.163622  0.701000  0.838931  1
  Cl  Cl12  1  0.193418  0.122238  0.247937  1
  Cl  Cl13  1  0.701704  0.386114  0.746146  1
  Cl  Cl14  1  0.801703  0.881059  0.749829  1
  Cl  Cl15  1  0.298326  0.618625  0.254595  1
