# generated using pymatgen
data_Lu16Th4Si15Ge
_symmetry_space_group_name_H-M   'P 1'
_cell_length_a   7.34138463
_cell_length_b   7.61352203
_cell_length_c   14.42300000
_cell_angle_alpha   89.97062033
_cell_angle_beta   89.57012453
_cell_angle_gamma   89.94084881
_symmetry_Int_Tables_number   1
_chemical_formula_structural   Lu16Th4Si15Ge
_chemical_formula_sum   'Lu16 Th4 Si15 Ge1'
_cell_volume   806.13296266
_cell_formula_units_Z   1
loop_
 _symmetry_equiv_pos_site_id
 _symmetry_equiv_pos_as_xyz
  1  'x, y, z'
loop_
 _atom_site_type_symbol
 _atom_site_label
 _atom_site_symmetry_multiplicity
 _atom_site_fract_x
 _atom_site_fract_y
 _atom_site_fract_z
 _atom_site_occupancy
  Lu  Lu0  1  0.921452  0.673830  0.624449  1
  Lu  Lu1  1  0.425661  0.822110  0.374587  1
  Lu  Lu2  1  0.574355  0.322167  0.125347  1
  Lu  Lu3  1  0.079611  0.177568  0.874548  1
  Lu  Lu4  1  0.578854  0.324050  0.873119  1
  Lu  Lu5  1  0.075229  0.177526  0.128141  1
  Lu  Lu6  1  0.925243  0.677087  0.371696  1
  Lu  Lu7  1  0.421729  0.823457  0.627780  1
  Lu  Lu8  1  0.092161  0.007722  0.499991  1
  Lu  Lu9  1  0.593112  0.492112  0.499716  1
  Lu  Lu10  1  0.407522  0.991988  0.000051  1
  Lu  Lu11  1  0.907071  0.507452  0.999216  1
  Lu  Lu12  1  0.269075  0.321658  0.350488  1
  Lu  Lu13  1  0.760379  0.179161  0.649979  1
  Lu  Lu14  1  0.237156  0.676413  0.849900  1
  Lu  Lu15  1  0.731452  0.821620  0.148830  1
  Th  Th16  1  0.232727  0.678678  0.154989  1
  Th  Th17  1  0.733698  0.820004  0.846699  1
  Th  Th18  1  0.265794  0.322062  0.654480  1
  Th  Th19  1  0.767407  0.178733  0.345383  1
  Si  Si20  1  0.588540  0.532139  0.288270  1
  Si  Si21  1  0.412060  0.032217  0.211850  1
  Si  Si22  1  0.916342  0.467512  0.788799  1
  Si  Si23  1  0.410372  0.030648  0.792668  1
  Si  Si24  1  0.895047  0.475094  0.206398  1
  Si  Si25  1  0.104183  0.974511  0.292927  1
  Si  Si26  1  0.596673  0.528673  0.708004  1
  Si  Si27  1  0.971110  0.370183  0.497935  1
  Si  Si28  1  0.470935  0.129055  0.501404  1
  Si  Si29  1  0.528085  0.628950  0.999362  1
  Si  Si30  1  0.029745  0.871069  0.001886  1
  Si  Si31  1  0.220938  0.610169  0.500185  1
  Si  Si32  1  0.720235  0.888860  0.499038  1
  Si  Si33  1  0.279018  0.389715  0.001209  1
  Si  Si34  1  0.780795  0.110115  0.999953  1
  Ge  Ge35  1  0.076231  0.965692  0.710719  1
