# generated using pymatgen
data_Hf6Fe16Si6Sb
_symmetry_space_group_name_H-M   'P 1'
_cell_length_a   8.12488405
_cell_length_b   8.12488400
_cell_length_c   8.12488400
_cell_angle_alpha   60.00000000
_cell_angle_beta   60.00000019
_cell_angle_gamma   59.99999994
_symmetry_Int_Tables_number   1
_chemical_formula_structural   Hf6Fe16Si6Sb
_chemical_formula_sum   'Hf6 Fe16 Si6 Sb1'
_cell_volume   379.25953888
_cell_formula_units_Z   1
loop_
 _symmetry_equiv_pos_site_id
 _symmetry_equiv_pos_as_xyz
  1  'x, y, z'
loop_
 _atom_site_type_symbol
 _atom_site_label
 _atom_site_symmetry_multiplicity
 _atom_site_fract_x
 _atom_site_fract_y
 _atom_site_fract_z
 _atom_site_occupancy
  Hf  Hf0  1  0.292765  0.707235  0.707235  1
  Hf  Hf1  1  0.707235  0.707235  0.292765  1
  Hf  Hf2  1  0.292765  0.292765  0.707235  1
  Hf  Hf3  1  0.707235  0.292765  0.292765  1
  Hf  Hf4  1  0.707235  0.292765  0.707235  1
  Hf  Hf5  1  0.292765  0.707235  0.292765  1
  Fe  Fe6  1  0.874229  0.874229  0.874229  1
  Fe  Fe7  1  0.028395  0.323868  0.323868  1
  Fe  Fe8  1  0.125771  0.125771  0.622687  1
  Fe  Fe9  1  0.323868  0.028395  0.323868  1
  Fe  Fe10  1  0.323868  0.323868  0.323868  1
  Fe  Fe11  1  0.676132  0.676132  0.971605  1
  Fe  Fe12  1  0.874229  0.874229  0.377313  1
  Fe  Fe13  1  0.676132  0.676132  0.676132  1
  Fe  Fe14  1  0.676132  0.971605  0.676132  1
  Fe  Fe15  1  0.323868  0.323868  0.028395  1
  Fe  Fe16  1  0.874229  0.377313  0.874229  1
  Fe  Fe17  1  0.622687  0.125771  0.125771  1
  Fe  Fe18  1  0.125771  0.622687  0.125771  1
  Fe  Fe19  1  0.125771  0.125771  0.125771  1
  Fe  Fe20  1  0.971605  0.676132  0.676132  1
  Fe  Fe21  1  0.377313  0.874229  0.874229  1
  Si  Si22  1  0.000000  0.000000  0.500000  1
  Si  Si23  1  0.000000  0.500000  0.000000  1
  Si  Si24  1  0.500000  0.000000  0.500000  1
  Si  Si25  1  0.000000  0.500000  0.500000  1
  Si  Si26  1  0.500000  0.000000  0.000000  1
  Si  Si27  1  0.500000  0.500000  0.000000  1
  Sb  Sb28  1  0.000000  0.000000  0.000000  1
