# generated using pymatgen
data_Tm2Sc3(ReTc)12
_symmetry_space_group_name_H-M   'P 1'
_cell_length_a   8.47711704
_cell_length_b   8.47927499
_cell_length_c   8.47927500
_cell_angle_alpha   109.47637384
_cell_angle_beta   109.46606143
_cell_angle_gamma   109.46607185
_symmetry_Int_Tables_number   1
_chemical_formula_structural   Tm2Sc3(ReTc)12
_chemical_formula_sum   'Tm2 Sc3 Re12 Tc12'
_cell_volume   469.21442065
_cell_formula_units_Z   1
loop_
 _symmetry_equiv_pos_site_id
 _symmetry_equiv_pos_as_xyz
  1  'x, y, z'
loop_
 _atom_site_type_symbol
 _atom_site_label
 _atom_site_symmetry_multiplicity
 _atom_site_fract_x
 _atom_site_fract_y
 _atom_site_fract_z
 _atom_site_occupancy
  Tm  Tm0  1  0.001197  0.000000  0.000000  1
  Tm  Tm1  1  0.626588  0.000000  0.000000  1
  Sc  Sc2  1  0.000135  0.626497  0.000000  1
  Sc  Sc3  1  0.000135  0.000000  0.626497  1
  Sc  Sc4  1  0.373638  0.373503  0.373503  1
  Re  Re5  1  0.377244  0.193426  0.000000  1
  Re  Re6  1  0.183819  0.806574  0.806574  1
  Re  Re7  1  0.377244  0.000000  0.193426  1
  Re  Re8  1  0.192727  0.377634  0.000000  1
  Re  Re9  1  0.002309  0.380203  0.193986  1
  Re  Re10  1  0.808323  0.186218  0.806014  1
  Re  Re11  1  0.808323  0.806014  0.186218  1
  Re  Re12  1  0.002309  0.193986  0.380203  1
  Re  Re13  1  0.192727  0.000000  0.377634  1
  Re  Re14  1  0.622106  0.619797  0.813782  1
  Re  Re15  1  0.815090  0.622366  0.622366  1
  Re  Re16  1  0.622106  0.813782  0.619797  1
  Tc  Tc17  1  0.395526  0.672560  0.000000  1
  Tc  Tc18  1  0.722966  0.327440  0.327440  1
  Tc  Tc19  1  0.395526  0.000000  0.672560  1
  Tc  Tc20  1  0.676248  0.398433  0.000000  1
  Tc  Tc21  1  0.999726  0.398404  0.675950  1
  Tc  Tc22  1  0.323776  0.722455  0.324050  1
  Tc  Tc23  1  0.323776  0.324050  0.722455  1
  Tc  Tc24  1  0.999726  0.675950  0.398404  1
  Tc  Tc25  1  0.676248  0.000000  0.398433  1
  Tc  Tc26  1  0.601323  0.601596  0.277545  1
  Tc  Tc27  1  0.277814  0.601567  0.601567  1
  Tc  Tc28  1  0.601323  0.277545  0.601596  1
