# generated using pymatgen
data_Tb6Er5In9Ru4
_symmetry_space_group_name_H-M   'P 1'
_cell_length_a   3.74579400
_cell_length_b   12.98760906
_cell_length_c   12.98761005
_cell_angle_alpha   112.71249712
_cell_angle_beta   90.00000000
_cell_angle_gamma   90.00000000
_symmetry_Int_Tables_number   1
_chemical_formula_structural   Tb6Er5In9Ru4
_chemical_formula_sum   'Tb6 Er5 In9 Ru4'
_cell_volume   582.83685618
_cell_formula_units_Z   1
loop_
 _symmetry_equiv_pos_site_id
 _symmetry_equiv_pos_as_xyz
  1  'x, y, z'
loop_
 _atom_site_type_symbol
 _atom_site_label
 _atom_site_symmetry_multiplicity
 _atom_site_fract_x
 _atom_site_fract_y
 _atom_site_fract_z
 _atom_site_occupancy
  Tb  Tb0  1  0.000000  0.161802  0.838198  1
  Tb  Tb1  1  0.000000  0.838198  0.161802  1
  Tb  Tb2  1  0.000000  0.373960  0.626040  1
  Tb  Tb3  1  0.000000  0.626040  0.373960  1
  Tb  Tb4  1  0.000000  0.690134  0.690134  1
  Tb  Tb5  1  0.000000  0.309866  0.309866  1
  Er  Er6  1  0.000000  0.916902  0.581919  1
  Er  Er7  1  0.000000  0.083098  0.418081  1
  Er  Er8  1  0.000000  0.581919  0.916902  1
  Er  Er9  1  0.000000  0.418081  0.083098  1
  Er  Er10  1  0.000000  0.000000  0.000000  1
  In  In11  1  0.500000  0.155112  0.630397  1
  In  In12  1  0.500000  0.844888  0.369603  1
  In  In13  1  0.500000  0.630397  0.155112  1
  In  In14  1  0.500000  0.369603  0.844888  1
  In  In15  1  0.500000  0.926361  0.780986  1
  In  In16  1  0.500000  0.073639  0.219014  1
  In  In17  1  0.500000  0.780986  0.926361  1
  In  In18  1  0.500000  0.219014  0.073639  1
  In  In19  1  0.500000  0.500000  0.500000  1
  Ru  Ru20  1  0.500000  0.748694  0.550303  1
  Ru  Ru21  1  0.500000  0.251306  0.449697  1
  Ru  Ru22  1  0.500000  0.550303  0.748694  1
  Ru  Ru23  1  0.500000  0.449697  0.251306  1
