# generated using pymatgen
data_YbPrEu7Pt6
_symmetry_space_group_name_H-M   'P 1'
_cell_length_a   7.89064039
_cell_length_b   7.89064066
_cell_length_c   7.89064101
_cell_angle_alpha   70.10778748
_cell_angle_beta   70.10778902
_cell_angle_gamma   70.10778845
_symmetry_Int_Tables_number   1
_chemical_formula_structural   YbPrEu7Pt6
_chemical_formula_sum   'Yb1 Pr1 Eu7 Pt6'
_cell_volume   420.17941042
_cell_formula_units_Z   1
loop_
 _symmetry_equiv_pos_site_id
 _symmetry_equiv_pos_as_xyz
  1  'x, y, z'
loop_
 _atom_site_type_symbol
 _atom_site_label
 _atom_site_symmetry_multiplicity
 _atom_site_fract_x
 _atom_site_fract_y
 _atom_site_fract_z
 _atom_site_occupancy
  Yb  Yb0  1  0.001313  0.001313  0.001313  1
  Pr  Pr1  1  0.804618  0.804618  0.804618  1
  Eu  Eu2  1  0.197127  0.197127  0.197127  1
  Eu  Eu3  1  0.327926  0.605769  0.848869  1
  Eu  Eu4  1  0.848869  0.327926  0.605769  1
  Eu  Eu5  1  0.605769  0.848869  0.327926  1
  Eu  Eu6  1  0.671923  0.392581  0.152283  1
  Eu  Eu7  1  0.152283  0.671923  0.392581  1
  Eu  Eu8  1  0.392581  0.152283  0.671923  1
  Pt  Pt9  1  0.156831  0.954660  0.596930  1
  Pt  Pt10  1  0.596930  0.156831  0.954660  1
  Pt  Pt11  1  0.954660  0.596930  0.156831  1
  Pt  Pt12  1  0.837042  0.040603  0.411525  1
  Pt  Pt13  1  0.411525  0.837042  0.040603  1
  Pt  Pt14  1  0.040603  0.411525  0.837042  1
