# generated using pymatgen
data_Sr8InMo3O16
_symmetry_space_group_name_H-M   'P 1'
_cell_length_a   5.79944281
_cell_length_b   5.79944278
_cell_length_c   12.68301773
_cell_angle_alpha   89.91416483
_cell_angle_beta   90.08583262
_cell_angle_gamma   88.95467826
_symmetry_Int_Tables_number   1
_chemical_formula_structural   Sr8InMo3O16
_chemical_formula_sum   'Sr8 In1 Mo3 O16'
_cell_volume   426.50277585
_cell_formula_units_Z   1
loop_
 _symmetry_equiv_pos_site_id
 _symmetry_equiv_pos_as_xyz
  1  'x, y, z'
loop_
 _atom_site_type_symbol
 _atom_site_label
 _atom_site_symmetry_multiplicity
 _atom_site_fract_x
 _atom_site_fract_y
 _atom_site_fract_z
 _atom_site_occupancy
  Sr  Sr0  1  0.266502  0.763437  0.101595  1
  Sr  Sr1  1  0.264041  0.235959  0.602589  1
  Sr  Sr2  1  0.736648  0.763352  0.602942  1
  Sr  Sr3  1  0.736563  0.233498  0.101595  1
  Sr  Sr4  1  0.763437  0.266502  0.398405  1
  Sr  Sr5  1  0.763352  0.736648  0.897058  1
  Sr  Sr6  1  0.235959  0.264041  0.897411  1
  Sr  Sr7  1  0.233498  0.736563  0.398405  1
  In  In8  1  0.750000  0.750000  0.250000  1
  Mo  Mo9  1  0.250000  0.750000  0.750000  1
  Mo  Mo10  1  0.250000  0.250000  0.250000  1
  Mo  Mo11  1  0.750000  0.250000  0.750000  1
  O  O12  1  0.287193  0.212807  0.089073  1
  O  O13  1  0.286408  0.787407  0.586946  1
  O  O14  1  0.498968  0.001032  0.778685  1
  O  O15  1  0.484535  0.015465  0.276557  1
  O  O16  1  0.499080  0.499080  0.750000  1
  O  O17  1  0.491821  0.491821  0.250000  1
  O  O18  1  0.712593  0.213592  0.586946  1
  O  O19  1  0.706422  0.793578  0.081912  1
  O  O20  1  0.787407  0.286408  0.913054  1
  O  O21  1  0.793578  0.706422  0.418088  1
  O  O22  1  0.008179  0.008179  0.250000  1
  O  O23  1  0.015465  0.484535  0.223443  1
  O  O24  1  0.000920  0.000920  0.750000  1
  O  O25  1  0.001032  0.498968  0.721315  1
  O  O26  1  0.213592  0.712593  0.913054  1
  O  O27  1  0.212807  0.287193  0.410927  1
