# generated using pymatgen
data_BaCaEu2Sc8O16
_symmetry_space_group_name_H-M   'P 1'
_cell_length_a   3.21504300
_cell_length_b   9.78370198
_cell_length_c   11.38330298
_cell_angle_alpha   89.87216392
_cell_angle_beta   90.00000000
_cell_angle_gamma   90.00000000
_symmetry_Int_Tables_number   1
_chemical_formula_structural   BaCaEu2Sc8O16
_chemical_formula_sum   'Ba1 Ca1 Eu2 Sc8 O16'
_cell_volume   358.06116087
_cell_formula_units_Z   1
loop_
 _symmetry_equiv_pos_site_id
 _symmetry_equiv_pos_as_xyz
  1  'x, y, z'
loop_
 _atom_site_type_symbol
 _atom_site_label
 _atom_site_symmetry_multiplicity
 _atom_site_fract_x
 _atom_site_fract_y
 _atom_site_fract_z
 _atom_site_occupancy
  Ba  Ba0  1  0.250000  0.745562  0.153065  1
  Ca  Ca1  1  0.250000  0.243386  0.348584  1
  Eu  Eu2  1  0.750000  0.255596  0.844067  1
  Eu  Eu3  1  0.750000  0.754071  0.650992  1
  Sc  Sc4  1  0.250000  0.573863  0.889852  1
  Sc  Sc5  1  0.750000  0.415304  0.107011  1
  Sc  Sc6  1  0.250000  0.081837  0.606104  1
  Sc  Sc7  1  0.750000  0.926701  0.396459  1
  Sc  Sc8  1  0.750000  0.934981  0.885719  1
  Sc  Sc9  1  0.250000  0.078457  0.109568  1
  Sc  Sc10  1  0.750000  0.427406  0.609425  1
  Sc  Sc11  1  0.250000  0.563501  0.391864  1
  O  O12  1  0.250000  0.573969  0.574158  1
  O  O13  1  0.750000  0.415964  0.425412  1
  O  O14  1  0.250000  0.081558  0.922387  1
  O  O15  1  0.750000  0.939093  0.069742  1
  O  O16  1  0.250000  0.471337  0.217470  1
  O  O17  1  0.750000  0.518475  0.780440  1
  O  O18  1  0.250000  0.984517  0.286050  1
  O  O19  1  0.750000  0.025274  0.715015  1
  O  O20  1  0.250000  0.886279  0.524473  1
  O  O21  1  0.750000  0.122534  0.475999  1
  O  O22  1  0.250000  0.374785  0.977869  1
  O  O23  1  0.750000  0.606608  0.013873  1
  O  O24  1  0.750000  0.704735  0.353286  1
  O  O25  1  0.250000  0.292067  0.663230  1
  O  O26  1  0.750000  0.209308  0.169953  1
  O  O27  1  0.250000  0.792830  0.837933  1
