# generated using pymatgen
data_Dy4Er12Cd4NiIr3
_symmetry_space_group_name_H-M   'P 1'
_cell_length_a   9.53739502
_cell_length_b   9.53426723
_cell_length_c   9.53426792
_cell_angle_alpha   60.24852352
_cell_angle_beta   60.19733855
_cell_angle_gamma   60.19733185
_symmetry_Int_Tables_number   1
_chemical_formula_structural   Dy4Er12Cd4NiIr3
_chemical_formula_sum   'Dy4 Er12 Cd4 Ni1 Ir3'
_cell_volume   616.01646730
_cell_formula_units_Z   1
loop_
 _symmetry_equiv_pos_site_id
 _symmetry_equiv_pos_as_xyz
  1  'x, y, z'
loop_
 _atom_site_type_symbol
 _atom_site_label
 _atom_site_symmetry_multiplicity
 _atom_site_fract_x
 _atom_site_fract_y
 _atom_site_fract_z
 _atom_site_occupancy
  Dy  Dy0  1  0.811971  0.188592  0.811907  1
  Dy  Dy1  1  0.187371  0.813736  0.187357  1
  Dy  Dy2  1  0.811971  0.811907  0.188592  1
  Dy  Dy3  1  0.187371  0.187357  0.813736  1
  Er  Er4  1  0.598499  0.598612  0.598612  1
  Er  Er5  1  0.598074  0.598106  0.203649  1
  Er  Er6  1  0.598074  0.203649  0.598106  1
  Er  Er7  1  0.203378  0.598257  0.598257  1
  Er  Er8  1  0.061601  0.439490  0.439490  1
  Er  Er9  1  0.437988  0.060528  0.060528  1
  Er  Er10  1  0.439601  0.061716  0.439546  1
  Er  Er11  1  0.060554  0.437911  0.060446  1
  Er  Er12  1  0.439601  0.439546  0.061716  1
  Er  Er13  1  0.060554  0.060446  0.437911  1
  Er  Er14  1  0.189402  0.811328  0.811328  1
  Er  Er15  1  0.813421  0.187907  0.187907  1
  Cd  Cd16  1  0.830848  0.830116  0.830116  1
  Cd  Cd17  1  0.831241  0.831867  0.506490  1
  Cd  Cd18  1  0.831241  0.506490  0.831867  1
  Cd  Cd19  1  0.506347  0.831307  0.831307  1
  Ni  Ni20  1  0.392148  0.391933  0.391933  1
  Ir  Ir21  1  0.391926  0.392346  0.824885  1
  Ir  Ir22  1  0.391926  0.824885  0.392346  1
  Ir  Ir23  1  0.824893  0.391966  0.391966  1
