# generated using pymatgen
data_TmUGa5Co6
_symmetry_space_group_name_H-M   'P 1'
_cell_length_a   5.06691562
_cell_length_b   6.54679304
_cell_length_c   6.54679388
_cell_angle_alpha   86.13460687
_cell_angle_beta   67.23349015
_cell_angle_gamma   67.23347922
_symmetry_Int_Tables_number   1
_chemical_formula_structural   TmUGa5Co6
_chemical_formula_sum   'Tm1 U1 Ga5 Co6'
_cell_volume   183.78118526
_cell_formula_units_Z   1
loop_
 _symmetry_equiv_pos_site_id
 _symmetry_equiv_pos_as_xyz
  1  'x, y, z'
loop_
 _atom_site_type_symbol
 _atom_site_label
 _atom_site_symmetry_multiplicity
 _atom_site_fract_x
 _atom_site_fract_y
 _atom_site_fract_z
 _atom_site_occupancy
  Tm  Tm0  1  0.000000  0.991561  0.008439  1
  U  U1  1  0.000000  0.351377  0.648623  1
  Ga  Ga2  1  0.000000  0.674250  0.325750  1
  Ga  Ga3  1  0.500000  0.165286  0.834714  1
  Ga  Ga4  1  0.500000  0.819979  0.180021  1
  Ga  Ga5  1  0.343039  0.661211  0.652709  1
  Ga  Ga6  1  0.656961  0.347291  0.338789  1
  Co  Co7  1  0.246646  0.251795  0.254914  1
  Co  Co8  1  0.753354  0.745086  0.748205  1
  Co  Co9  1  0.491864  0.004825  0.508743  1
  Co  Co10  1  0.508136  0.491257  0.995175  1
  Co  Co11  1  0.005433  0.491257  0.995175  1
  Co  Co12  1  0.994567  0.004825  0.508743  1
