# generated using pymatgen
data_Ca(LaGe)2
_symmetry_space_group_name_H-M   'P 1'
_cell_length_a   7.86814800
_cell_length_b   7.86814800
_cell_length_c   4.55612000
_cell_angle_alpha   90.00000000
_cell_angle_beta   90.00000000
_cell_angle_gamma   90.00000000
_symmetry_Int_Tables_number   1
_chemical_formula_structural   Ca(LaGe)2
_chemical_formula_sum   'Ca2 La4 Ge4'
_cell_volume   282.05915137
_cell_formula_units_Z   2
loop_
 _symmetry_equiv_pos_site_id
 _symmetry_equiv_pos_as_xyz
  1  'x, y, z'
loop_
 _atom_site_type_symbol
 _atom_site_label
 _atom_site_symmetry_multiplicity
 _atom_site_fract_x
 _atom_site_fract_y
 _atom_site_fract_z
 _atom_site_occupancy
  Ca  Ca0  1  0.500000  0.500000  0.000000  1
  Ca  Ca1  1  0.000000  0.000000  0.000000  1
  La  La2  1  0.676769  0.176769  0.500000  1
  La  La3  1  0.323231  0.823231  0.500000  1
  La  La4  1  0.176769  0.323231  0.500000  1
  La  La5  1  0.823231  0.676769  0.500000  1
  Ge  Ge6  1  0.116257  0.616257  0.000000  1
  Ge  Ge7  1  0.883743  0.383743  0.000000  1
  Ge  Ge8  1  0.616257  0.883743  0.000000  1
  Ge  Ge9  1  0.383743  0.116257  0.000000  1
