# generated using pymatgen
data_Ho20NiBi8Os3
_symmetry_space_group_name_H-M   'P 1'
_cell_length_a   7.96439390
_cell_length_b   9.00292000
_cell_length_c   12.42424707
_cell_angle_alpha   90.00000000
_cell_angle_beta   89.68707377
_cell_angle_gamma   90.00000000
_symmetry_Int_Tables_number   1
_chemical_formula_structural   Ho20NiBi8Os3
_chemical_formula_sum   'Ho20 Ni1 Bi8 Os3'
_cell_volume   890.84002952
_cell_formula_units_Z   1
loop_
 _symmetry_equiv_pos_site_id
 _symmetry_equiv_pos_as_xyz
  1  'x, y, z'
loop_
 _atom_site_type_symbol
 _atom_site_label
 _atom_site_symmetry_multiplicity
 _atom_site_fract_x
 _atom_site_fract_y
 _atom_site_fract_z
 _atom_site_occupancy
  Ho  Ho0  1  0.341682  0.750000  0.704607  1
  Ho  Ho1  1  0.658793  0.250000  0.292664  1
  Ho  Ho2  1  0.842380  0.250000  0.791172  1
  Ho  Ho3  1  0.156384  0.750000  0.206347  1
  Ho  Ho4  1  0.878931  0.750000  0.804848  1
  Ho  Ho5  1  0.119292  0.250000  0.194170  1
  Ho  Ho6  1  0.378645  0.250000  0.692717  1
  Ho  Ho7  1  0.619832  0.750000  0.310185  1
  Ho  Ho8  1  0.676370  0.540149  0.564808  1
  Ho  Ho9  1  0.325029  0.457010  0.436455  1
  Ho  Ho10  1  0.173867  0.458243  0.936270  1
  Ho  Ho11  1  0.325029  0.042990  0.436455  1
  Ho  Ho12  1  0.824916  0.543757  0.064171  1
  Ho  Ho13  1  0.676370  0.959851  0.564808  1
  Ho  Ho14  1  0.824916  0.956243  0.064171  1
  Ho  Ho15  1  0.173867  0.041757  0.936270  1
  Ho  Ho16  1  0.052287  0.750000  0.497663  1
  Ho  Ho17  1  0.946089  0.250000  0.502337  1
  Ho  Ho18  1  0.559213  0.250000  0.003663  1
  Ho  Ho19  1  0.442057  0.750000  0.996404  1
  Ni  Ni20  1  0.427987  0.750000  0.489412  1
  Bi  Bi21  1  0.569281  0.508665  0.827342  1
  Bi  Bi22  1  0.430013  0.491856  0.173326  1
  Bi  Bi23  1  0.071956  0.491581  0.671502  1
  Bi  Bi24  1  0.430013  0.008144  0.173326  1
  Bi  Bi25  1  0.929950  0.509268  0.328540  1
  Bi  Bi26  1  0.569281  0.991335  0.827342  1
  Bi  Bi27  1  0.929950  0.990732  0.328540  1
  Bi  Bi28  1  0.071956  0.008419  0.671502  1
  Os  Os29  1  0.075660  0.750000  0.988524  1
  Os  Os30  1  0.923630  0.250000  0.010290  1
  Os  Os31  1  0.574382  0.250000  0.510169  1
