# generated using pymatgen
data_Tb3Al3ZnSiPd
_symmetry_space_group_name_H-M   'P 1'
_cell_length_a   6.96899500
_cell_length_b   6.96899550
_cell_length_c   4.27589900
_cell_angle_alpha   90.00000000
_cell_angle_beta   90.00000000
_cell_angle_gamma   120.00000236
_symmetry_Int_Tables_number   1
_chemical_formula_structural   Tb3Al3ZnSiPd
_chemical_formula_sum   'Tb3 Al3 Zn1 Si1 Pd1'
_cell_volume   179.84501185
_cell_formula_units_Z   1
loop_
 _symmetry_equiv_pos_site_id
 _symmetry_equiv_pos_as_xyz
  1  'x, y, z'
loop_
 _atom_site_type_symbol
 _atom_site_label
 _atom_site_symmetry_multiplicity
 _atom_site_fract_x
 _atom_site_fract_y
 _atom_site_fract_z
 _atom_site_occupancy
  Tb  Tb0  1  0.417686  0.998381  0.000000  1
  Tb  Tb1  1  0.001619  0.419304  0.000000  1
  Tb  Tb2  1  0.580695  0.582314  0.000000  1
  Al  Al3  1  0.762928  0.001006  0.500000  1
  Al  Al4  1  0.238077  0.237072  0.500000  1
  Al  Al5  1  0.998994  0.761922  0.500000  1
  Zn  Zn6  1  0.666666  0.333333  0.500000  1
  Si  Si7  1  0.333333  0.666666  0.500000  1
  Pd  Pd8  1  0.000000  0.000000  0.000000  1
