# generated using pymatgen
data_HoZr3N4
_symmetry_space_group_name_H-M   'P 1'
_cell_length_a   10.95238906
_cell_length_b   10.95238901
_cell_length_c   10.95238810
_cell_angle_alpha   17.35679425
_cell_angle_beta   17.35679791
_cell_angle_gamma   17.35679684
_symmetry_Int_Tables_number   1
_chemical_formula_structural   HoZr3N4
_chemical_formula_sum   'Ho1 Zr3 N4'
_cell_volume   102.03129102
_cell_formula_units_Z   1
loop_
 _symmetry_equiv_pos_site_id
 _symmetry_equiv_pos_as_xyz
  1  'x, y, z'
loop_
 _atom_site_type_symbol
 _atom_site_label
 _atom_site_symmetry_multiplicity
 _atom_site_fract_x
 _atom_site_fract_y
 _atom_site_fract_z
 _atom_site_occupancy
  Ho  Ho0  1  0.000000  0.000000  0.000000  1
  Zr  Zr1  1  0.247777  0.247777  0.247777  1
  Zr  Zr2  1  0.500000  0.500000  0.500000  1
  Zr  Zr3  1  0.752223  0.752223  0.752223  1
  N  N4  1  0.378040  0.378040  0.378040  1
  N  N5  1  0.125612  0.125612  0.125612  1
  N  N6  1  0.621960  0.621960  0.621960  1
  N  N7  1  0.874388  0.874388  0.874388  1
