# generated using pymatgen
data_Dy2Re2TcIr
_symmetry_space_group_name_H-M   'P 1'
_cell_length_a   5.24689334
_cell_length_b   5.24689373
_cell_length_c   9.27905300
_cell_angle_alpha   90.00000000
_cell_angle_beta   90.00000000
_cell_angle_gamma   119.37380180
_symmetry_Int_Tables_number   1
_chemical_formula_structural   Dy2Re2TcIr
_chemical_formula_sum   'Dy4 Re4 Tc2 Ir2'
_cell_volume   222.61003839
_cell_formula_units_Z   2
loop_
 _symmetry_equiv_pos_site_id
 _symmetry_equiv_pos_as_xyz
  1  'x, y, z'
loop_
 _atom_site_type_symbol
 _atom_site_label
 _atom_site_symmetry_multiplicity
 _atom_site_fract_x
 _atom_site_fract_y
 _atom_site_fract_z
 _atom_site_occupancy
  Dy  Dy0  1  0.333562  0.666438  0.437043  1
  Dy  Dy1  1  0.667670  0.332330  0.563109  1
  Dy  Dy2  1  0.667670  0.332330  0.936891  1
  Dy  Dy3  1  0.333562  0.666438  0.062957  1
  Re  Re4  1  0.830594  0.169406  0.250000  1
  Re  Re5  1  0.830586  0.659645  0.250000  1
  Re  Re6  1  0.340355  0.169414  0.250000  1
  Re  Re7  1  0.165668  0.834332  0.750000  1
  Tc  Tc8  1  0.168388  0.344775  0.750000  1
  Tc  Tc9  1  0.655225  0.831612  0.750000  1
  Ir  Ir10  1  0.003360  0.996640  0.500574  1
  Ir  Ir11  1  0.003360  0.996640  0.999426  1
