# generated using pymatgen
data_K2Ag2F5
_symmetry_space_group_name_H-M   'P 1'
_cell_length_a   4.47370600
_cell_length_b   6.31122300
_cell_length_c   11.00848100
_cell_angle_alpha   90.00000000
_cell_angle_beta   90.00000000
_cell_angle_gamma   90.00000000
_symmetry_Int_Tables_number   1
_chemical_formula_structural   K2Ag2F5
_chemical_formula_sum   'K4 Ag4 F10'
_cell_volume   310.81957550
_cell_formula_units_Z   2
loop_
 _symmetry_equiv_pos_site_id
 _symmetry_equiv_pos_as_xyz
  1  'x, y, z'
loop_
 _atom_site_type_symbol
 _atom_site_label
 _atom_site_symmetry_multiplicity
 _atom_site_fract_x
 _atom_site_fract_y
 _atom_site_fract_z
 _atom_site_occupancy
  K  K0  1  0.500000  0.664390  0.854982  1
  K  K1  1  0.500000  0.335610  0.145018  1
  K  K2  1  0.500000  0.164390  0.645018  1
  K  K3  1  0.500000  0.835610  0.354982  1
  Ag  Ag4  1  0.000000  0.697281  0.599376  1
  Ag  Ag5  1  0.000000  0.302719  0.400624  1
  Ag  Ag6  1  0.000000  0.802719  0.099376  1
  Ag  Ag7  1  0.000000  0.197281  0.900624  1
  F  F8  1  0.000000  0.000000  0.500000  1
  F  F9  1  0.000000  0.607696  0.306335  1
  F  F10  1  0.000000  0.107696  0.193665  1
  F  F11  1  0.000000  0.892304  0.806335  1
  F  F12  1  0.500000  0.777844  0.101149  1
  F  F13  1  0.500000  0.222156  0.898851  1
  F  F14  1  0.000000  0.392304  0.693665  1
  F  F15  1  0.500000  0.722156  0.601149  1
  F  F16  1  0.000000  0.500000  0.000000  1
  F  F17  1  0.500000  0.277844  0.398851  1
