# generated using pymatgen
data_ErHf3Pd5Pt7
_symmetry_space_group_name_H-M   'P 1'
_cell_length_a   5.72096732
_cell_length_b   5.72223211
_cell_length_c   9.35067100
_cell_angle_alpha   90.00043637
_cell_angle_beta   89.96977346
_cell_angle_gamma   120.08711663
_symmetry_Int_Tables_number   1
_chemical_formula_structural   ErHf3Pd5Pt7
_chemical_formula_sum   'Er1 Hf3 Pd5 Pt7'
_cell_volume   264.86608520
_cell_formula_units_Z   1
loop_
 _symmetry_equiv_pos_site_id
 _symmetry_equiv_pos_as_xyz
  1  'x, y, z'
loop_
 _atom_site_type_symbol
 _atom_site_label
 _atom_site_symmetry_multiplicity
 _atom_site_fract_x
 _atom_site_fract_y
 _atom_site_fract_z
 _atom_site_occupancy
  Er  Er0  1  0.665215  0.331428  0.750482  1
  Hf  Hf1  1  0.336279  0.666450  0.250068  1
  Hf  Hf2  1  0.000123  0.002044  0.501970  1
  Hf  Hf3  1  0.000093  0.002697  0.998150  1
  Pd  Pd4  1  0.337981  0.168700  0.249225  1
  Pd  Pd5  1  0.659707  0.829528  0.750912  1
  Pd  Pd6  1  0.002152  0.502180  0.003639  1
  Pd  Pd7  1  0.832318  0.661617  0.249335  1
  Pd  Pd8  1  0.169390  0.828911  0.750498  1
  Pt  Pt9  1  0.168153  0.337157  0.750521  1
  Pt  Pt10  1  0.833928  0.168877  0.249356  1
  Pt  Pt11  1  0.496938  0.996075  0.005370  1
  Pt  Pt12  1  0.498793  0.502404  0.495978  1
  Pt  Pt13  1  0.003436  0.502566  0.495532  1
  Pt  Pt14  1  0.497655  0.502322  0.004013  1
  Pt  Pt15  1  0.497840  0.997041  0.494953  1
