# generated using pymatgen
data_YHoSc3P12Ru19
_symmetry_space_group_name_H-M   'P 1'
_cell_length_a   12.45383000
_cell_length_b   12.45383123
_cell_length_c   3.95184900
_cell_angle_alpha   90.00000000
_cell_angle_beta   90.00000000
_cell_angle_gamma   120.00000204
_symmetry_Int_Tables_number   1
_chemical_formula_structural   YHoSc3P12Ru19
_chemical_formula_sum   'Y1 Ho1 Sc3 P12 Ru19'
_cell_volume   530.80728402
_cell_formula_units_Z   1
loop_
 _symmetry_equiv_pos_site_id
 _symmetry_equiv_pos_as_xyz
  1  'x, y, z'
loop_
 _atom_site_type_symbol
 _atom_site_label
 _atom_site_symmetry_multiplicity
 _atom_site_fract_x
 _atom_site_fract_y
 _atom_site_fract_z
 _atom_site_occupancy
  Y  Y0  1  0.666667  0.333333  0.000000  1
  Ho  Ho1  1  0.333333  0.666667  0.000000  1
  Sc  Sc2  1  0.000000  0.182177  0.500000  1
  Sc  Sc3  1  0.817823  0.817823  0.500000  1
  Sc  Sc4  1  0.182177  0.000000  0.500000  1
  P  P5  1  0.000124  0.819043  0.000000  1
  P  P6  1  0.180957  0.181080  0.000000  1
  P  P7  1  0.818920  0.999876  0.000000  1
  P  P8  1  0.693278  0.169382  0.500000  1
  P  P9  1  0.830618  0.523896  0.500000  1
  P  P10  1  0.476104  0.306722  0.500000  1
  P  P11  1  0.169782  0.693260  0.500000  1
  P  P12  1  0.523478  0.830218  0.500000  1
  P  P13  1  0.306740  0.476522  0.500000  1
  P  P14  1  0.000010  0.372510  0.000000  1
  P  P15  1  0.627490  0.627500  0.000000  1
  P  P16  1  0.372500  0.999990  0.000000  1
  Ru  Ru17  1  0.000070  0.556078  0.000000  1
  Ru  Ru18  1  0.443922  0.443993  0.000000  1
  Ru  Ru19  1  0.556007  0.999930  0.000000  1
  Ru  Ru20  1  0.000174  0.721509  0.500000  1
  Ru  Ru21  1  0.278491  0.278665  0.500000  1
  Ru  Ru22  1  0.721335  0.999826  0.500000  1
  Ru  Ru23  1  0.812368  0.184501  0.000000  1
  Ru  Ru24  1  0.815499  0.627867  0.000000  1
  Ru  Ru25  1  0.372133  0.187632  0.000000  1
  Ru  Ru26  1  0.184726  0.812233  0.000000  1
  Ru  Ru27  1  0.627506  0.815274  0.000000  1
  Ru  Ru28  1  0.187767  0.372494  0.000000  1
  Ru  Ru29  1  0.874339  0.365061  0.500000  1
  Ru  Ru30  1  0.634939  0.509278  0.500000  1
  Ru  Ru31  1  0.490722  0.125661  0.500000  1
  Ru  Ru32  1  0.365003  0.873736  0.500000  1
  Ru  Ru33  1  0.508733  0.634997  0.500000  1
  Ru  Ru34  1  0.126264  0.491267  0.500000  1
  Ru  Ru35  1  0.000000  0.000000  0.000000  1
