# generated using pymatgen
data_Tm4Fe8Mo3(P4Rh3)3
_symmetry_space_group_name_H-M   'P 1'
_cell_length_a   3.80202500
_cell_length_b   10.54707099
_cell_length_c   12.27997845
_cell_angle_alpha   90.64138637
_cell_angle_beta   90.00000000
_cell_angle_gamma   90.00000000
_symmetry_Int_Tables_number   1
_chemical_formula_structural   Tm4Fe8Mo3(P4Rh3)3
_chemical_formula_sum   'Tm4 Fe8 Mo3 P12 Rh9'
_cell_volume   492.39907694
_cell_formula_units_Z   1
loop_
 _symmetry_equiv_pos_site_id
 _symmetry_equiv_pos_as_xyz
  1  'x, y, z'
loop_
 _atom_site_type_symbol
 _atom_site_label
 _atom_site_symmetry_multiplicity
 _atom_site_fract_x
 _atom_site_fract_y
 _atom_site_fract_z
 _atom_site_occupancy
  Tm  Tm0  1  0.250000  0.581026  0.710833  1
  Tm  Tm1  1  0.250000  0.920459  0.209757  1
  Tm  Tm2  1  0.750000  0.422800  0.287657  1
  Tm  Tm3  1  0.750000  0.078112  0.793146  1
  Fe  Fe4  1  0.250000  0.878105  0.697001  1
  Fe  Fe5  1  0.250000  0.618650  0.195631  1
  Fe  Fe6  1  0.750000  0.118672  0.304296  1
  Fe  Fe7  1  0.750000  0.380353  0.800008  1
  Fe  Fe8  1  0.250000  0.461416  0.934222  1
  Fe  Fe9  1  0.250000  0.041195  0.438630  1
  Fe  Fe10  1  0.750000  0.536874  0.062244  1
  Fe  Fe11  1  0.750000  0.965447  0.565124  1
  Mo  Mo12  1  0.250000  0.700396  0.989932  1
  Mo  Mo13  1  0.250000  0.796458  0.488623  1
  Mo  Mo14  1  0.750000  0.296850  0.009479  1
  P  P15  1  0.250000  0.433683  0.110597  1
  P  P16  1  0.250000  0.061002  0.616338  1
  P  P17  1  0.750000  0.565300  0.886753  1
  P  P18  1  0.750000  0.935584  0.388838  1
  P  P19  1  0.250000  0.270660  0.865869  1
  P  P20  1  0.250000  0.227338  0.363955  1
  P  P21  1  0.750000  0.726853  0.134329  1
  P  P22  1  0.750000  0.775112  0.633948  1
  P  P23  1  0.250000  0.600267  0.381252  1
  P  P24  1  0.250000  0.898638  0.883416  1
  P  P25  1  0.750000  0.401986  0.617806  1
  P  P26  1  0.750000  0.101631  0.118020  1
  Rh  Rh27  1  0.750000  0.208980  0.511503  1
  Rh  Rh28  1  0.250000  0.405478  0.480225  1
  Rh  Rh29  1  0.250000  0.093869  0.980464  1
  Rh  Rh30  1  0.750000  0.594195  0.519525  1
  Rh  Rh31  1  0.750000  0.905586  0.021433  1
  Rh  Rh32  1  0.250000  0.228116  0.177389  1
  Rh  Rh33  1  0.250000  0.268117  0.676810  1
  Rh  Rh34  1  0.750000  0.771253  0.822211  1
  Rh  Rh35  1  0.750000  0.729540  0.322736  1
