# generated using pymatgen
data_LiLa(TaS2)6
_symmetry_space_group_name_H-M   'P 1'
_cell_length_a   5.84013000
_cell_length_b   5.84013005
_cell_length_c   13.71232200
_cell_angle_alpha   90.00000000
_cell_angle_beta   90.00000000
_cell_angle_gamma   119.99999971
_symmetry_Int_Tables_number   1
_chemical_formula_structural   LiLa(TaS2)6
_chemical_formula_sum   'Li1 La1 Ta6 S12'
_cell_volume   405.02951207
_cell_formula_units_Z   1
loop_
 _symmetry_equiv_pos_site_id
 _symmetry_equiv_pos_as_xyz
  1  'x, y, z'
loop_
 _atom_site_type_symbol
 _atom_site_label
 _atom_site_symmetry_multiplicity
 _atom_site_fract_x
 _atom_site_fract_y
 _atom_site_fract_z
 _atom_site_occupancy
  Li  Li0  1  0.000000  0.000000  0.000000  1
  La  La1  1  0.000000  0.000000  0.500000  1
  Ta  Ta2  1  0.000000  0.000000  0.764373  1
  Ta  Ta3  1  0.000000  0.000000  0.235627  1
  Ta  Ta4  1  0.333333  0.666667  0.233415  1
  Ta  Ta5  1  0.666667  0.333333  0.766585  1
  Ta  Ta6  1  0.666667  0.333333  0.233415  1
  Ta  Ta7  1  0.333333  0.666667  0.766585  1
  S  S8  1  0.333747  0.000000  0.121680  1
  S  S9  1  0.000000  0.333747  0.121680  1
  S  S10  1  0.666253  0.666253  0.121680  1
  S  S11  1  0.338303  0.338303  0.651266  1
  S  S12  1  0.661697  0.661697  0.348734  1
  S  S13  1  0.661697  0.000000  0.651266  1
  S  S14  1  0.000000  0.661697  0.651266  1
  S  S15  1  0.000000  0.666253  0.878320  1
  S  S16  1  0.333747  0.333747  0.878320  1
  S  S17  1  0.000000  0.338303  0.348734  1
  S  S18  1  0.338303  0.000000  0.348734  1
  S  S19  1  0.666253  0.000000  0.878320  1
