# generated using pymatgen
data_Ho8Ti2Nb10Si15Sn
_symmetry_space_group_name_H-M   'P 1'
_cell_length_a   7.11438038
_cell_length_b   7.07490379
_cell_length_c   13.04731756
_cell_angle_alpha   90.03934491
_cell_angle_beta   89.84543068
_cell_angle_gamma   89.88756564
_symmetry_Int_Tables_number   1
_chemical_formula_structural   Ho8Ti2Nb10Si15Sn
_chemical_formula_sum   'Ho8 Ti2 Nb10 Si15 Sn1'
_cell_volume   656.71408672
_cell_formula_units_Z   1
loop_
 _symmetry_equiv_pos_site_id
 _symmetry_equiv_pos_as_xyz
  1  'x, y, z'
loop_
 _atom_site_type_symbol
 _atom_site_label
 _atom_site_symmetry_multiplicity
 _atom_site_fract_x
 _atom_site_fract_y
 _atom_site_fract_z
 _atom_site_occupancy
  Ho  Ho0  1  0.345356  0.999254  0.461710  1
  Ho  Ho1  1  0.506034  0.837202  0.719703  1
  Ho  Ho2  1  0.501224  0.157910  0.217479  1
  Ho  Ho3  1  0.843224  0.500314  0.282000  1
  Ho  Ho4  1  0.158066  0.505943  0.785365  1
  Ho  Ho5  1  0.658911  0.997610  0.969272  1
  Ho  Ho6  1  0.991870  0.348999  0.526189  1
  Ho  Ho7  1  0.000100  0.658469  0.033336  1
  Ti  Ti8  1  0.010094  0.153534  0.126417  1
  Ti  Ti9  1  0.977656  0.833934  0.621936  1
  Nb  Nb10  1  0.329396  0.328822  0.001197  1
  Nb  Nb11  1  0.173128  0.827515  0.249727  1
  Nb  Nb12  1  0.818565  0.173427  0.751899  1
  Nb  Nb13  1  0.671097  0.671415  0.499640  1
  Nb  Nb14  1  0.153400  0.005554  0.879881  1
  Nb  Nb15  1  0.494354  0.651568  0.124416  1
  Nb  Nb16  1  0.513642  0.354387  0.623048  1
  Nb  Nb17  1  0.653090  0.491618  0.878525  1
  Nb  Nb18  1  0.347323  0.509415  0.375954  1
  Nb  Nb19  1  0.845891  0.993647  0.372925  1
  Si  Si20  1  0.368644  0.705706  0.933530  1
  Si  Si21  1  0.631108  0.295345  0.430329  1
  Si  Si22  1  0.707637  0.365214  0.069743  1
  Si  Si23  1  0.291833  0.635559  0.568579  1
  Si  Si24  1  0.798544  0.869100  0.181644  1
  Si  Si25  1  0.132840  0.204543  0.316856  1
  Si  Si26  1  0.867998  0.797935  0.818673  1
  Si  Si27  1  0.293302  0.953337  0.065690  1
  Si  Si28  1  0.548844  0.791953  0.312046  1
  Si  Si29  1  0.457731  0.206614  0.817227  1
  Si  Si30  1  0.797153  0.544134  0.688130  1
  Si  Si31  1  0.206206  0.452578  0.186163  1
  Si  Si32  1  0.705820  0.047758  0.563485  1
  Si  Si33  1  0.954328  0.292713  0.937695  1
  Si  Si34  1  0.046967  0.709974  0.435400  1
  Sn  Sn35  1  0.198621  0.126996  0.674191  1
