# generated using pymatgen
data_LaSmV2F14
_symmetry_space_group_name_H-M   'P 1'
_cell_length_a   5.63709000
_cell_length_b   9.10780405
_cell_length_c   12.14558481
_cell_angle_alpha   62.91868220
_cell_angle_beta   90.00000000
_cell_angle_gamma   90.00000000
_symmetry_Int_Tables_number   1
_chemical_formula_structural   LaSmV2F14
_chemical_formula_sum   'La2 Sm2 V4 F28'
_cell_volume   555.20497673
_cell_formula_units_Z   2
loop_
 _symmetry_equiv_pos_site_id
 _symmetry_equiv_pos_as_xyz
  1  'x, y, z'
loop_
 _atom_site_type_symbol
 _atom_site_label
 _atom_site_symmetry_multiplicity
 _atom_site_fract_x
 _atom_site_fract_y
 _atom_site_fract_z
 _atom_site_occupancy
  La  La0  1  0.757655  0.804072  0.769408  1
  La  La1  1  0.257655  0.195928  0.730592  1
  Sm  Sm2  1  0.241165  0.191823  0.231608  1
  Sm  Sm3  1  0.741165  0.808177  0.268392  1
  V  V4  1  0.753381  0.270328  0.960948  1
  V  V5  1  0.253381  0.729672  0.539052  1
  V  V6  1  0.244885  0.723488  0.048739  1
  V  V7  1  0.744885  0.276512  0.451261  1
  F  F8  1  0.438389  0.705630  0.928104  1
  F  F9  1  0.938389  0.294370  0.571896  1
  F  F10  1  0.554812  0.289938  0.079603  1
  F  F11  1  0.054812  0.710062  0.420397  1
  F  F12  1  0.467805  0.287250  0.537495  1
  F  F13  1  0.967805  0.712750  0.962505  1
  F  F14  1  0.533853  0.718123  0.453314  1
  F  F15  1  0.033853  0.281877  0.046686  1
  F  F16  1  0.767399  0.496629  0.868948  1
  F  F17  1  0.267399  0.503371  0.631052  1
  F  F18  1  0.235615  0.495908  0.138350  1
  F  F19  1  0.735615  0.504092  0.361650  1
  F  F20  1  0.758587  0.045139  0.049085  1
  F  F21  1  0.258587  0.954861  0.450915  1
  F  F22  1  0.241198  0.947931  0.958614  1
  F  F23  1  0.741198  0.052069  0.541386  1
  F  F24  1  0.981886  0.730530  0.630279  1
  F  F25  1  0.481886  0.269470  0.869721  1
  F  F26  1  0.017705  0.268348  0.361212  1
  F  F27  1  0.517705  0.731652  0.138788  1
  F  F28  1  0.046764  0.744758  0.169225  1
  F  F29  1  0.546764  0.255242  0.330775  1
  F  F30  1  0.945306  0.254967  0.837079  1
  F  F31  1  0.445306  0.745033  0.662921  1
  F  F32  1  0.418025  0.972797  0.230490  1
  F  F33  1  0.918025  0.027203  0.269510  1
  F  F34  1  0.595570  0.033016  0.772284  1
  F  F35  1  0.095570  0.966984  0.727716  1
