# generated using pymatgen
data_Ho6Co4P12Ir3Rh11
_symmetry_space_group_name_H-M   'P 1'
_cell_length_a   3.82698700
_cell_length_b   11.09497609
_cell_length_c   12.75980812
_cell_angle_alpha   89.98486185
_cell_angle_beta   90.00000000
_cell_angle_gamma   90.00000000
_symmetry_Int_Tables_number   1
_chemical_formula_structural   Ho6Co4P12Ir3Rh11
_chemical_formula_sum   'Ho6 Co4 P12 Ir3 Rh11'
_cell_volume   541.78563515
_cell_formula_units_Z   1
loop_
 _symmetry_equiv_pos_site_id
 _symmetry_equiv_pos_as_xyz
  1  'x, y, z'
loop_
 _atom_site_type_symbol
 _atom_site_label
 _atom_site_symmetry_multiplicity
 _atom_site_fract_x
 _atom_site_fract_y
 _atom_site_fract_z
 _atom_site_occupancy
  Ho  Ho0  1  0.000000  0.500237  0.521177  1
  Ho  Ho1  1  0.500000  0.999744  0.478845  1
  Ho  Ho2  1  0.500000  0.820709  0.199628  1
  Ho  Ho3  1  0.500000  0.181156  0.198828  1
  Ho  Ho4  1  0.000000  0.685624  0.800203  1
  Ho  Ho5  1  0.000000  0.313878  0.800175  1
  Co  Co6  1  0.000000  0.500133  0.983881  1
  Co  Co7  1  0.500000  0.000506  0.017111  1
  Co  Co8  1  0.000000  0.161294  0.006292  1
  Co  Co9  1  0.000000  0.839722  0.005504  1
  P  P10  1  0.500000  0.315311  0.619982  1
  P  P11  1  0.500000  0.684332  0.620008  1
  P  P12  1  0.000000  0.183951  0.379950  1
  P  P13  1  0.000000  0.816089  0.379585  1
  P  P14  1  0.500000  0.499831  0.883799  1
  P  P15  1  0.000000  0.000566  0.111195  1
  P  P16  1  0.500000  0.852125  0.900263  1
  P  P17  1  0.500000  0.147384  0.899560  1
  P  P18  1  0.000000  0.658228  0.103125  1
  P  P19  1  0.000000  0.344626  0.102586  1
  P  P20  1  0.500000  0.500394  0.348561  1
  P  P21  1  0.000000  0.999942  0.651083  1
  Ir  Ir22  1  0.500000  0.668399  0.994822  1
  Ir  Ir23  1  0.500000  0.499578  0.704608  1
  Ir  Ir24  1  0.000000  0.000431  0.293863  1
  Rh  Rh25  1  0.500000  0.293791  0.429834  1
  Rh  Rh26  1  0.500000  0.705924  0.429907  1
  Rh  Rh27  1  0.000000  0.204905  0.569854  1
  Rh  Rh28  1  0.000000  0.795826  0.569655  1
  Rh  Rh29  1  0.500000  0.872650  0.715633  1
  Rh  Rh30  1  0.500000  0.126405  0.714391  1
  Rh  Rh31  1  0.000000  0.627317  0.284845  1
  Rh  Rh32  1  0.000000  0.371932  0.286539  1
  Rh  Rh33  1  0.500000  0.331117  0.992511  1
  Rh  Rh34  1  0.500000  0.494710  0.164107  1
  Rh  Rh35  1  0.000000  0.001233  0.838094  1
