# generated using pymatgen
data_Dy12Ho8Bi11Sb
_symmetry_space_group_name_H-M   'P 1'
_cell_length_a   8.23448939
_cell_length_b   9.50227400
_cell_length_c   12.02979300
_cell_angle_alpha   90.00000000
_cell_angle_beta   90.03334654
_cell_angle_gamma   90.00000000
_symmetry_Int_Tables_number   1
_chemical_formula_structural   Dy12Ho8Bi11Sb
_chemical_formula_sum   'Dy12 Ho8 Bi11 Sb1'
_cell_volume   941.28752805
_cell_formula_units_Z   1
loop_
 _symmetry_equiv_pos_site_id
 _symmetry_equiv_pos_as_xyz
  1  'x, y, z'
loop_
 _atom_site_type_symbol
 _atom_site_label
 _atom_site_symmetry_multiplicity
 _atom_site_fract_x
 _atom_site_fract_y
 _atom_site_fract_z
 _atom_site_occupancy
  Dy  Dy0  1  0.353142  0.750000  0.212801  1
  Dy  Dy1  1  0.852462  0.750000  0.284175  1
  Dy  Dy2  1  0.647708  0.250000  0.784307  1
  Dy  Dy3  1  0.147608  0.250000  0.715877  1
  Dy  Dy4  1  0.475149  0.250000  0.487957  1
  Dy  Dy5  1  0.975712  0.250000  0.011742  1
  Dy  Dy6  1  0.525065  0.750000  0.512124  1
  Dy  Dy7  1  0.028126  0.750000  0.987823  1
  Dy  Dy8  1  0.312935  0.250000  0.218812  1
  Dy  Dy9  1  0.812672  0.250000  0.281254  1
  Dy  Dy10  1  0.683137  0.750000  0.783705  1
  Dy  Dy11  1  0.188644  0.750000  0.720347  1
  Ho  Ho12  1  0.690025  0.566060  0.057350  1
  Ho  Ho13  1  0.192645  0.935937  0.441330  1
  Ho  Ho14  1  0.308620  0.060303  0.941543  1
  Ho  Ho15  1  0.807395  0.436225  0.558547  1
  Ho  Ho16  1  0.308620  0.439697  0.941543  1
  Ho  Ho17  1  0.807395  0.063775  0.558547  1
  Ho  Ho18  1  0.690025  0.933940  0.057350  1
  Ho  Ho19  1  0.192645  0.564063  0.441330  1
  Bi  Bi20  1  0.907849  0.750000  0.543371  1
  Bi  Bi21  1  0.592836  0.250000  0.042969  1
  Bi  Bi22  1  0.092594  0.250000  0.457156  1
  Bi  Bi23  1  0.565355  0.995353  0.325384  1
  Bi  Bi24  1  0.065321  0.504380  0.174390  1
  Bi  Bi25  1  0.434570  0.495385  0.674487  1
  Bi  Bi26  1  0.934353  0.004206  0.825529  1
  Bi  Bi27  1  0.434570  0.004615  0.674487  1
  Bi  Bi28  1  0.934353  0.495794  0.825529  1
  Bi  Bi29  1  0.565355  0.504647  0.325384  1
  Bi  Bi30  1  0.065321  0.995620  0.174390  1
  Sb  Sb31  1  0.407799  0.750000  0.958462  1
