# generated using pymatgen
data_Y2Co10Si7Ir2
_symmetry_space_group_name_H-M   'P 1'
_cell_length_a   3.70428200
_cell_length_b   9.20172780
_cell_length_c   9.22132259
_cell_angle_alpha   120.34543897
_cell_angle_beta   90.00000000
_cell_angle_gamma   90.00000000
_symmetry_Int_Tables_number   1
_chemical_formula_structural   Y2Co10Si7Ir2
_chemical_formula_sum   'Y2 Co10 Si7 Ir2'
_cell_volume   271.25327980
_cell_formula_units_Z   1
loop_
 _symmetry_equiv_pos_site_id
 _symmetry_equiv_pos_as_xyz
  1  'x, y, z'
loop_
 _atom_site_type_symbol
 _atom_site_label
 _atom_site_symmetry_multiplicity
 _atom_site_fract_x
 _atom_site_fract_y
 _atom_site_fract_z
 _atom_site_occupancy
  Y  Y0  1  0.000000  0.668321  0.336035  1
  Y  Y1  1  0.500000  0.334744  0.668030  1
  Co  Co2  1  0.000000  0.565611  0.943798  1
  Co  Co3  1  0.000000  0.376191  0.431879  1
  Co  Co4  1  0.000000  0.056299  0.623519  1
  Co  Co5  1  0.500000  0.105732  0.876616  1
  Co  Co6  1  0.000000  0.872465  0.153918  1
  Co  Co7  1  0.000000  0.279679  0.124522  1
  Co  Co8  1  0.000000  0.849696  0.721241  1
  Co  Co9  1  0.500000  0.946808  0.383426  1
  Co  Co10  1  0.500000  0.431196  0.049568  1
  Co  Co11  1  0.500000  0.617757  0.564431  1
  Si  Si12  1  0.000000  0.001885  0.998874  1
  Si  Si13  1  0.500000  0.704968  0.113802  1
  Si  Si14  1  0.500000  0.405951  0.290948  1
  Si  Si15  1  0.500000  0.892232  0.599983  1
  Si  Si16  1  0.000000  0.595827  0.704384  1
  Si  Si17  1  0.000000  0.109759  0.406217  1
  Si  Si18  1  0.000000  0.289603  0.888143  1
  Ir  Ir19  1  0.500000  0.775581  0.897240  1
  Ir  Ir20  1  0.500000  0.119693  0.223431  1
