# generated using pymatgen
data_Tb10IrPb6Br
_symmetry_space_group_name_H-M   'P 1'
_cell_length_a   9.24337100
_cell_length_b   9.24353737
_cell_length_c   6.84779400
_cell_angle_alpha   90.00001005
_cell_angle_beta   90.00069326
_cell_angle_gamma   119.99881212
_symmetry_Int_Tables_number   1
_chemical_formula_structural   Tb10IrPb6Br
_chemical_formula_sum   'Tb10 Ir1 Pb6 Br1'
_cell_volume   506.70489869
_cell_formula_units_Z   1
loop_
 _symmetry_equiv_pos_site_id
 _symmetry_equiv_pos_as_xyz
  1  'x, y, z'
loop_
 _atom_site_type_symbol
 _atom_site_label
 _atom_site_symmetry_multiplicity
 _atom_site_fract_x
 _atom_site_fract_y
 _atom_site_fract_z
 _atom_site_occupancy
  Tb  Tb0  1  0.249518  0.999991  0.267167  1
  Tb  Tb1  1  0.750482  0.000008  0.732833  1
  Tb  Tb2  1  0.999977  0.249539  0.267144  1
  Tb  Tb3  1  0.000024  0.750461  0.732856  1
  Tb  Tb4  1  0.750425  0.750440  0.267137  1
  Tb  Tb5  1  0.249575  0.249560  0.732862  1
  Tb  Tb6  1  0.333328  0.666660  0.000000  1
  Tb  Tb7  1  0.666672  0.333341  0.000000  1
  Tb  Tb8  1  0.666668  0.333331  0.500000  1
  Tb  Tb9  1  0.333332  0.666668  0.500000  1
  Ir  Ir10  1  0.000000  0.000000  0.500000  1
  Pb  Pb11  1  0.604033  0.000008  0.247222  1
  Pb  Pb12  1  0.395968  0.999992  0.752778  1
  Pb  Pb13  1  0.000028  0.604054  0.247217  1
  Pb  Pb14  1  0.999971  0.395945  0.752787  1
  Pb  Pb15  1  0.395967  0.395949  0.247200  1
  Pb  Pb16  1  0.604034  0.604052  0.752799  1
  Br  Br17  1  0.000000  0.000000  0.000000  1
