# generated using pymatgen
data_Tb6Th2Mg2FeRu
_symmetry_space_group_name_H-M   'P 1'
_cell_length_a   9.72832958
_cell_length_b   9.72833042
_cell_length_c   9.70680000
_cell_angle_alpha   60.07318402
_cell_angle_beta   60.07318115
_cell_angle_gamma   60.17313236
_symmetry_Int_Tables_number   1
_chemical_formula_structural   Tb6Th2Mg2FeRu
_chemical_formula_sum   'Tb12 Th4 Mg4 Fe2 Ru2'
_cell_volume   651.15364053
_cell_formula_units_Z   2
loop_
 _symmetry_equiv_pos_site_id
 _symmetry_equiv_pos_as_xyz
  1  'x, y, z'
loop_
 _atom_site_type_symbol
 _atom_site_label
 _atom_site_symmetry_multiplicity
 _atom_site_fract_x
 _atom_site_fract_y
 _atom_site_fract_z
 _atom_site_occupancy
  Tb  Tb0  1  0.067428  0.437235  0.436671  1
  Tb  Tb1  1  0.437235  0.067428  0.058666  1
  Tb  Tb2  1  0.437235  0.067428  0.436671  1
  Tb  Tb3  1  0.067428  0.437235  0.058666  1
  Tb  Tb4  1  0.436194  0.436194  0.063806  1
  Tb  Tb5  1  0.062666  0.062666  0.437334  1
  Tb  Tb6  1  0.186551  0.813157  0.813346  1
  Tb  Tb7  1  0.813157  0.186551  0.186946  1
  Tb  Tb8  1  0.813157  0.186551  0.813346  1
  Tb  Tb9  1  0.186551  0.813157  0.186946  1
  Tb  Tb10  1  0.812931  0.812931  0.187069  1
  Tb  Tb11  1  0.186091  0.186091  0.813909  1
  Th  Th12  1  0.591281  0.591281  0.601411  1
  Th  Th13  1  0.591281  0.591281  0.216030  1
  Th  Th14  1  0.587291  0.219471  0.596620  1
  Th  Th15  1  0.219471  0.587291  0.596620  1
  Mg  Mg16  1  0.829666  0.829666  0.829841  1
  Mg  Mg17  1  0.829666  0.829666  0.510827  1
  Mg  Mg18  1  0.829784  0.510062  0.830077  1
  Mg  Mg19  1  0.510062  0.829784  0.830077  1
  Fe  Fe20  1  0.395264  0.395264  0.394413  1
  Fe  Fe21  1  0.395264  0.395264  0.815060  1
  Ru  Ru22  1  0.394181  0.820168  0.392826  1
  Ru  Ru23  1  0.820168  0.394181  0.392826  1
