# generated using pymatgen
data_Ho3Tc2(BiO6)2
_symmetry_space_group_name_H-M   'P 1'
_cell_length_a   6.97519591
_cell_length_b   6.97519684
_cell_length_c   7.61953886
_cell_angle_alpha   72.12278878
_cell_angle_beta   72.12279329
_cell_angle_gamma   48.36257355
_symmetry_Int_Tables_number   1
_chemical_formula_structural   Ho3Tc2(BiO6)2
_chemical_formula_sum   'Ho3 Tc2 Bi2 O12'
_cell_volume   260.90235180
_cell_formula_units_Z   1
loop_
 _symmetry_equiv_pos_site_id
 _symmetry_equiv_pos_as_xyz
  1  'x, y, z'
loop_
 _atom_site_type_symbol
 _atom_site_label
 _atom_site_symmetry_multiplicity
 _atom_site_fract_x
 _atom_site_fract_y
 _atom_site_fract_z
 _atom_site_occupancy
  Ho  Ho0  1  0.000000  0.000000  0.500000  1
  Ho  Ho1  1  0.694858  0.694858  0.644588  1
  Ho  Ho2  1  0.305142  0.305142  0.355412  1
  Tc  Tc3  1  0.215100  0.784900  0.000000  1
  Tc  Tc4  1  0.784900  0.215100  0.000000  1
  Bi  Bi5  1  0.313845  0.313845  0.814776  1
  Bi  Bi6  1  0.686155  0.686155  0.185224  1
  O  O7  1  0.495111  0.495111  0.175049  1
  O  O8  1  0.504889  0.504889  0.824951  1
  O  O9  1  0.004625  0.004625  0.202110  1
  O  O10  1  0.995375  0.995375  0.797890  1
  O  O11  1  0.912255  0.412805  0.903496  1
  O  O12  1  0.587195  0.087745  0.096504  1
  O  O13  1  0.087745  0.587195  0.096504  1
  O  O14  1  0.599870  0.094590  0.563821  1
  O  O15  1  0.905410  0.400130  0.436179  1
  O  O16  1  0.400130  0.905410  0.436179  1
  O  O17  1  0.094590  0.599870  0.563821  1
  O  O18  1  0.412805  0.912255  0.903496  1
