# generated using pymatgen
data_Sc2Si3Ru5
_symmetry_space_group_name_H-M   'P 1'
_cell_length_a   9.76207900
_cell_length_b   9.76207900
_cell_length_c   3.10188200
_cell_angle_alpha   90.00000000
_cell_angle_beta   90.00000000
_cell_angle_gamma   90.00000000
_symmetry_Int_Tables_number   1
_chemical_formula_structural   Sc2Si3Ru5
_chemical_formula_sum   'Sc4 Si6 Ru10'
_cell_volume   295.60372903
_cell_formula_units_Z   2
loop_
 _symmetry_equiv_pos_site_id
 _symmetry_equiv_pos_as_xyz
  1  'x, y, z'
loop_
 _atom_site_type_symbol
 _atom_site_label
 _atom_site_symmetry_multiplicity
 _atom_site_fract_x
 _atom_site_fract_y
 _atom_site_fract_z
 _atom_site_occupancy
  Sc  Sc0  1  0.171940  0.671940  0.000000  1
  Sc  Sc1  1  0.671940  0.828060  0.000000  1
  Sc  Sc2  1  0.328060  0.171940  0.000000  1
  Sc  Sc3  1  0.828060  0.328060  0.000000  1
  Si  Si4  1  0.369878  0.869878  0.000000  1
  Si  Si5  1  0.869878  0.630122  0.000000  1
  Si  Si6  1  0.130122  0.369878  0.000000  1
  Si  Si7  1  0.630122  0.130122  0.000000  1
  Si  Si8  1  0.000000  0.000000  0.000000  1
  Si  Si9  1  0.500000  0.500000  0.000000  1
  Ru  Ru10  1  0.000000  0.500000  0.500000  1
  Ru  Ru11  1  0.500000  0.000000  0.500000  1
  Ru  Ru12  1  0.301243  0.434809  0.500000  1
  Ru  Ru13  1  0.698758  0.565191  0.500000  1
  Ru  Ru14  1  0.565191  0.301243  0.500000  1
  Ru  Ru15  1  0.434809  0.698758  0.500000  1
  Ru  Ru16  1  0.934809  0.801242  0.500000  1
  Ru  Ru17  1  0.801242  0.065191  0.500000  1
  Ru  Ru18  1  0.198757  0.934809  0.500000  1
  Ru  Ru19  1  0.065191  0.198757  0.500000  1
