# generated using pymatgen
data_LaTbNb3P7Pt2Rh7
_symmetry_space_group_name_H-M   'P 1'
_cell_length_a   3.95478000
_cell_length_b   9.69375659
_cell_length_c   9.69226500
_cell_angle_alpha   120.00609285
_cell_angle_beta   90.00018834
_cell_angle_gamma   89.99997083
_symmetry_Int_Tables_number   1
_chemical_formula_structural   LaTbNb3P7Pt2Rh7
_chemical_formula_sum   'La1 Tb1 Nb3 P7 Pt2 Rh7'
_cell_volume   321.76861720
_cell_formula_units_Z   1
loop_
 _symmetry_equiv_pos_site_id
 _symmetry_equiv_pos_as_xyz
  1  'x, y, z'
loop_
 _atom_site_type_symbol
 _atom_site_label
 _atom_site_symmetry_multiplicity
 _atom_site_fract_x
 _atom_site_fract_y
 _atom_site_fract_z
 _atom_site_occupancy
  La  La0  1  0.261838  0.669102  0.334742  1
  Tb  Tb1  1  0.761939  0.331863  0.665549  1
  Nb  Nb2  1  0.761910  0.093521  0.874530  1
  Nb  Nb3  1  0.761900  0.124720  0.219314  1
  Nb  Nb4  1  0.761900  0.780496  0.906090  1
  P  P5  1  0.261949  0.999525  0.000060  1
  P  P6  1  0.761930  0.890269  0.596588  1
  P  P7  1  0.761883  0.400682  0.287013  1
  P  P8  1  0.761886  0.718803  0.119512  1
  P  P9  1  0.261899  0.115401  0.415668  1
  P  P10  1  0.261925  0.582754  0.703831  1
  P  P11  1  0.261936  0.295350  0.878819  1
  Pt  Pt12  1  0.761911  0.609116  0.560814  1
  Pt  Pt13  1  0.761948  0.440364  0.048553  1
  Rh  Rh14  1  0.261916  0.882909  0.160483  1
  Rh  Rh15  1  0.261922  0.838570  0.723464  1
  Rh  Rh16  1  0.261903  0.276861  0.115467  1
  Rh  Rh17  1  0.761899  0.953879  0.390383  1
  Rh  Rh18  1  0.261880  0.365118  0.438236  1
  Rh  Rh19  1  0.261819  0.561031  0.928132  1
  Rh  Rh20  1  0.261906  0.069669  0.632748  1
