# generated using pymatgen
data_La7Pr9Cd4TcPt3
_symmetry_space_group_name_H-M   'P 1'
_cell_length_a   10.16557595
_cell_length_b   10.16306328
_cell_length_c   10.19750993
_cell_angle_alpha   59.33642272
_cell_angle_beta   59.49396868
_cell_angle_gamma   59.60256658
_symmetry_Int_Tables_number   1
_chemical_formula_structural   La7Pr9Cd4TcPt3
_chemical_formula_sum   'La7 Pr9 Cd4 Tc1 Pt3'
_cell_volume   736.10558601
_cell_formula_units_Z   1
loop_
 _symmetry_equiv_pos_site_id
 _symmetry_equiv_pos_as_xyz
  1  'x, y, z'
loop_
 _atom_site_type_symbol
 _atom_site_label
 _atom_site_symmetry_multiplicity
 _atom_site_fract_x
 _atom_site_fract_y
 _atom_site_fract_z
 _atom_site_occupancy
  La  La0  1  0.350997  0.351007  0.351966  1
  La  La1  1  0.346308  0.345530  0.956364  1
  La  La2  1  0.346918  0.955956  0.346043  1
  La  La3  1  0.955769  0.346661  0.346610  1
  La  La4  1  0.817555  0.188240  0.187295  1
  La  La5  1  0.189520  0.807389  0.806692  1
  La  La6  1  0.188116  0.817867  0.188026  1
  Pr  Pr7  1  0.806145  0.190509  0.806524  1
  Pr  Pr8  1  0.188817  0.189726  0.814300  1
  Pr  Pr9  1  0.805532  0.806553  0.190243  1
  Pr  Pr10  1  0.935352  0.564539  0.565552  1
  Pr  Pr11  1  0.556879  0.938231  0.937253  1
  Pr  Pr12  1  0.564862  0.935960  0.564957  1
  Pr  Pr13  1  0.938162  0.556317  0.937692  1
  Pr  Pr14  1  0.565136  0.564276  0.935809  1
  Pr  Pr15  1  0.937713  0.938220  0.556834  1
  Cd  Cd16  1  0.580214  0.579519  0.579508  1
  Cd  Cd17  1  0.580468  0.580396  0.257955  1
  Cd  Cd18  1  0.580071  0.257871  0.580683  1
  Cd  Cd19  1  0.257969  0.579793  0.580482  1
  Tc  Tc20  1  0.140682  0.140456  0.144968  1
  Pt  Pt21  1  0.145917  0.143987  0.574060  1
  Pt  Pt22  1  0.146487  0.574897  0.144393  1
  Pt  Pt23  1  0.574407  0.146096  0.145788  1
