# generated using pymatgen
data_TbYNp3O10
_symmetry_space_group_name_H-M   'P 1'
_cell_length_a   6.56151795
_cell_length_b   6.56151901
_cell_length_c   6.58565278
_cell_angle_alpha   99.90775595
_cell_angle_beta   99.30733778
_cell_angle_gamma   131.68074348
_symmetry_Int_Tables_number   1
_chemical_formula_structural   TbYNp3O10
_chemical_formula_sum   'Tb1 Y1 Np3 O10'
_cell_volume   193.35183766
_cell_formula_units_Z   1
loop_
 _symmetry_equiv_pos_site_id
 _symmetry_equiv_pos_as_xyz
  1  'x, y, z'
loop_
 _atom_site_type_symbol
 _atom_site_label
 _atom_site_symmetry_multiplicity
 _atom_site_fract_x
 _atom_site_fract_y
 _atom_site_fract_z
 _atom_site_occupancy
  Tb  Tb0  1  0.501575  0.499260  0.000835  1
  Y  Y1  1  0.898415  0.700685  0.599100  1
  Np  Np2  1  0.101667  0.299452  0.401120  1
  Np  Np3  1  0.700175  0.099934  0.800108  1
  Np  Np4  1  0.298382  0.900527  0.198909  1
  O  O5  1  0.042033  0.155746  0.697177  1
  O  O6  1  0.541430  0.655142  0.697177  1
  O  O7  1  0.254774  0.750551  0.493445  1
  O  O8  1  0.437451  0.337557  0.299931  1
  O  O9  1  0.742894  0.238671  0.493445  1
  O  O10  1  0.357949  0.044022  0.902818  1
  O  O11  1  0.858796  0.544869  0.902818  1
  O  O12  1  0.962375  0.862480  0.299931  1
  O  O13  1  0.145156  0.449667  0.106594  1
  O  O14  1  0.656926  0.961437  0.106594  1
