# generated using pymatgen
data_TbSc7TiNb11Si16
_symmetry_space_group_name_H-M   'P 1'
_cell_length_a   6.95104351
_cell_length_b   6.95199077
_cell_length_c   12.77818812
_cell_angle_alpha   89.90531700
_cell_angle_beta   90.01042029
_cell_angle_gamma   89.94840642
_symmetry_Int_Tables_number   1
_chemical_formula_structural   TbSc7TiNb11Si16
_chemical_formula_sum   'Tb1 Sc7 Ti1 Nb11 Si16'
_cell_volume   617.48682403
_cell_formula_units_Z   1
loop_
 _symmetry_equiv_pos_site_id
 _symmetry_equiv_pos_as_xyz
  1  'x, y, z'
loop_
 _atom_site_type_symbol
 _atom_site_label
 _atom_site_symmetry_multiplicity
 _atom_site_fract_x
 _atom_site_fract_y
 _atom_site_fract_z
 _atom_site_occupancy
  Tb  Tb0  1  0.994546  0.660373  0.031890  1
  Sc  Sc1  1  0.343320  0.000145  0.467928  1
  Sc  Sc2  1  0.499747  0.843482  0.716922  1
  Sc  Sc3  1  0.499230  0.157774  0.219640  1
  Sc  Sc4  1  0.842992  0.499843  0.283032  1
  Sc  Sc5  1  0.157454  0.498491  0.781819  1
  Sc  Sc6  1  0.655283  0.000181  0.966566  1
  Sc  Sc7  1  0.000902  0.342801  0.532000  1
  Ti  Ti8  1  0.993748  0.850069  0.626546  1
  Nb  Nb9  1  0.328780  0.326792  0.999347  1
  Nb  Nb10  1  0.172671  0.828999  0.251487  1
  Nb  Nb11  1  0.826810  0.172287  0.748458  1
  Nb  Nb12  1  0.672243  0.672695  0.500253  1
  Nb  Nb13  1  0.152031  0.003546  0.870848  1
  Nb  Nb14  1  0.495080  0.650115  0.124615  1
  Nb  Nb15  1  0.505665  0.350267  0.623009  1
  Nb  Nb16  1  0.650595  0.490081  0.874685  1
  Nb  Nb17  1  0.350935  0.506636  0.377892  1
  Nb  Nb18  1  0.849577  0.994440  0.374901  1
  Nb  Nb19  1  0.007462  0.151123  0.127378  1
  Si  Si20  1  0.204033  0.136678  0.676904  1
  Si  Si21  1  0.366488  0.706105  0.927044  1
  Si  Si22  1  0.639846  0.294768  0.429123  1
  Si  Si23  1  0.701497  0.356386  0.071061  1
  Si  Si24  1  0.292690  0.641236  0.572395  1
  Si  Si25  1  0.790398  0.866751  0.182483  1
  Si  Si26  1  0.139359  0.205353  0.322982  1
  Si  Si27  1  0.859526  0.796364  0.817853  1
  Si  Si28  1  0.302932  0.955948  0.063607  1
  Si  Si29  1  0.544443  0.801184  0.314857  1
  Si  Si30  1  0.453066  0.199728  0.812086  1
  Si  Si31  1  0.801984  0.547679  0.684666  1
  Si  Si32  1  0.203410  0.451900  0.188850  1
  Si  Si33  1  0.701706  0.045357  0.564206  1
  Si  Si34  1  0.953739  0.293194  0.934727  1
  Si  Si35  1  0.045813  0.701230  0.437935  1
