# generated using pymatgen
data_Ti9In14Co6Re
_symmetry_space_group_name_H-M   'P 1'
_cell_length_a   9.19359987
_cell_length_b   9.19360064
_cell_length_c   9.19360000
_cell_angle_alpha   60.00000229
_cell_angle_beta   59.99999953
_cell_angle_gamma   60.00000660
_symmetry_Int_Tables_number   1
_chemical_formula_structural   Ti9In14Co6Re
_chemical_formula_sum   'Ti9 In14 Co6 Re1'
_cell_volume   549.46731883
_cell_formula_units_Z   1
loop_
 _symmetry_equiv_pos_site_id
 _symmetry_equiv_pos_as_xyz
  1  'x, y, z'
loop_
 _atom_site_type_symbol
 _atom_site_label
 _atom_site_symmetry_multiplicity
 _atom_site_fract_x
 _atom_site_fract_y
 _atom_site_fract_z
 _atom_site_occupancy
  Ti  Ti0  1  0.118010  0.645969  0.118010  1
  Ti  Ti1  1  0.354031  0.881990  0.881990  1
  Ti  Ti2  1  0.881990  0.881990  0.881990  1
  Ti  Ti3  1  0.645969  0.118010  0.118010  1
  Ti  Ti4  1  0.500000  0.500000  0.500000  1
  Ti  Ti5  1  0.881990  0.881990  0.354031  1
  Ti  Ti6  1  0.118010  0.118010  0.118010  1
  Ti  Ti7  1  0.881990  0.354031  0.881990  1
  Ti  Ti8  1  0.118010  0.118010  0.645969  1
  In  In9  1  0.500000  0.843541  0.156459  1
  In  In10  1  0.500000  0.843541  0.500000  1
  In  In11  1  0.500000  0.156459  0.500000  1
  In  In12  1  0.500000  0.500000  0.843541  1
  In  In13  1  0.156459  0.500000  0.500000  1
  In  In14  1  0.843541  0.156459  0.500000  1
  In  In15  1  0.156459  0.843541  0.500000  1
  In  In16  1  0.500000  0.156459  0.843541  1
  In  In17  1  0.156459  0.500000  0.843541  1
  In  In18  1  0.500000  0.500000  0.156459  1
  In  In19  1  0.843541  0.500000  0.500000  1
  In  In20  1  0.843541  0.500000  0.156459  1
  In  In21  1  0.250000  0.250000  0.250000  1
  In  In22  1  0.750000  0.750000  0.750000  1
  Co  Co23  1  0.784384  0.784384  0.215616  1
  Co  Co24  1  0.215616  0.784384  0.215616  1
  Co  Co25  1  0.215616  0.784384  0.784384  1
  Co  Co26  1  0.215616  0.215616  0.784384  1
  Co  Co27  1  0.784384  0.215616  0.784384  1
  Co  Co28  1  0.784384  0.215616  0.215616  1
  Re  Re29  1  0.000000  0.000000  0.000000  1
