# generated using pymatgen
data_Zr6Ti4Al12Fe6Pd
_symmetry_space_group_name_H-M   'P 1'
_cell_length_a   8.62168232
_cell_length_b   8.62010411
_cell_length_c   8.62010525
_cell_angle_alpha   60.05300992
_cell_angle_beta   59.99395062
_cell_angle_gamma   59.99394446
_symmetry_Int_Tables_number   1
_chemical_formula_structural   Zr6Ti4Al12Fe6Pd
_chemical_formula_sum   'Zr6 Ti4 Al12 Fe6 Pd1'
_cell_volume   453.14377244
_cell_formula_units_Z   1
loop_
 _symmetry_equiv_pos_site_id
 _symmetry_equiv_pos_as_xyz
  1  'x, y, z'
loop_
 _atom_site_type_symbol
 _atom_site_label
 _atom_site_symmetry_multiplicity
 _atom_site_fract_x
 _atom_site_fract_y
 _atom_site_fract_z
 _atom_site_occupancy
  Zr  Zr0  1  0.704810  0.696930  0.303021  1
  Zr  Zr1  1  0.295239  0.696930  0.303021  1
  Zr  Zr2  1  0.698960  0.301040  0.301040  1
  Zr  Zr3  1  0.295239  0.303021  0.696930  1
  Zr  Zr4  1  0.704810  0.303021  0.696930  1
  Zr  Zr5  1  0.302971  0.697029  0.697029  1
  Ti  Ti6  1  0.882229  0.880512  0.355030  1
  Ti  Ti7  1  0.882229  0.355030  0.880512  1
  Ti  Ti8  1  0.352906  0.877199  0.877199  1
  Ti  Ti9  1  0.892695  0.877199  0.877199  1
  Al  Al10  1  0.117809  0.119731  0.644650  1
  Al  Al11  1  0.117809  0.644650  0.119731  1
  Al  Al12  1  0.646760  0.120975  0.120975  1
  Al  Al13  1  0.111290  0.120975  0.120975  1
  Al  Al14  1  0.668487  0.659603  0.003421  1
  Al  Al15  1  0.668487  0.003421  0.659603  1
  Al  Al16  1  0.000240  0.666507  0.666507  1
  Al  Al17  1  0.666745  0.666507  0.666507  1
  Al  Al18  1  0.329781  0.341670  0.998766  1
  Al  Al19  1  0.329781  0.998766  0.341670  1
  Al  Al20  1  0.001447  0.332384  0.332384  1
  Al  Al21  1  0.333784  0.332384  0.332384  1
  Fe  Fe22  1  0.000755  0.999245  0.999245  1
  Fe  Fe23  1  0.998357  0.997186  0.503927  1
  Fe  Fe24  1  0.500530  0.997186  0.503927  1
  Fe  Fe25  1  0.997815  0.502185  0.502185  1
  Fe  Fe26  1  0.500530  0.503927  0.997186  1
  Fe  Fe27  1  0.998357  0.503927  0.997186  1
  Pd  Pd28  1  0.499145  0.000855  0.000855  1
