# generated using pymatgen
data_Dy4TaBi4Ru3O22
_symmetry_space_group_name_H-M   'P 1'
_cell_length_a   6.53172107
_cell_length_b   7.56653812
_cell_length_c   9.69841847
_cell_angle_alpha   101.54425716
_cell_angle_beta   90.67511730
_cell_angle_gamma   89.97054171
_symmetry_Int_Tables_number   1
_chemical_formula_structural   Dy4TaBi4Ru3O22
_chemical_formula_sum   'Dy4 Ta1 Bi4 Ru3 O22'
_cell_volume   469.59036399
_cell_formula_units_Z   1
loop_
 _symmetry_equiv_pos_site_id
 _symmetry_equiv_pos_as_xyz
  1  'x, y, z'
loop_
 _atom_site_type_symbol
 _atom_site_label
 _atom_site_symmetry_multiplicity
 _atom_site_fract_x
 _atom_site_fract_y
 _atom_site_fract_z
 _atom_site_occupancy
  Dy  Dy0  1  0.744505  0.368676  0.481129  1
  Dy  Dy1  1  0.253633  0.632881  0.517747  1
  Dy  Dy2  1  0.758439  0.874534  0.493079  1
  Dy  Dy3  1  0.240578  0.127572  0.510111  1
  Ta  Ta4  1  0.074276  0.796370  0.191079  1
  Bi  Bi5  1  0.458760  0.958735  0.819216  1
  Bi  Bi6  1  0.546769  0.042480  0.183182  1
  Bi  Bi7  1  0.391194  0.456077  0.825312  1
  Bi  Bi8  1  0.611183  0.540961  0.173071  1
  Ru  Ru9  1  0.923146  0.699636  0.801983  1
  Ru  Ru10  1  0.079174  0.292437  0.191675  1
  Ru  Ru11  1  0.926836  0.202838  0.809455  1
  O  O12  1  0.220491  0.719911  0.759734  1
  O  O13  1  0.781017  0.272875  0.242254  1
  O  O14  1  0.631796  0.678573  0.836912  1
  O  O15  1  0.367790  0.322731  0.156339  1
  O  O16  1  0.631864  0.243148  0.841690  1
  O  O17  1  0.365381  0.744169  0.157231  1
  O  O18  1  0.892901  0.164654  0.593752  1
  O  O19  1  0.104670  0.844438  0.413542  1
  O  O20  1  0.222912  0.161686  0.755737  1
  O  O21  1  0.776908  0.843474  0.249825  1
  O  O22  1  0.894782  0.633970  0.592167  1
  O  O23  1  0.107808  0.364145  0.401228  1
  O  O24  1  0.016224  0.543415  0.187029  1
  O  O25  1  0.979190  0.456029  0.817375  1
  O  O26  1  0.989017  0.791568  0.000951  1
  O  O27  1  0.002766  0.219932  0.999010  1
  O  O28  1  0.570805  0.598441  0.395335  1
  O  O29  1  0.427766  0.401919  0.603613  1
  O  O30  1  0.167748  0.055215  0.224569  1
  O  O31  1  0.841774  0.945372  0.772012  1
  O  O32  1  0.544990  0.102971  0.404716  1
  O  O33  1  0.452908  0.898168  0.597941  1
