# generated using pymatgen
data_Nd16In4TcRh3
_symmetry_space_group_name_H-M   'P 1'
_cell_length_a   10.00973253
_cell_length_b   10.01314116
_cell_length_c   10.00923107
_cell_angle_alpha   59.89195499
_cell_angle_beta   59.72150315
_cell_angle_gamma   59.88924011
_symmetry_Int_Tables_number   1
_chemical_formula_structural   Nd16In4TcRh3
_chemical_formula_sum   'Nd16 In4 Tc1 Rh3'
_cell_volume   706.70634029
_cell_formula_units_Z   1
loop_
 _symmetry_equiv_pos_site_id
 _symmetry_equiv_pos_as_xyz
  1  'x, y, z'
loop_
 _atom_site_type_symbol
 _atom_site_label
 _atom_site_symmetry_multiplicity
 _atom_site_fract_x
 _atom_site_fract_y
 _atom_site_fract_z
 _atom_site_occupancy
  Nd  Nd0  1  0.689069  0.309703  0.309898  1
  Nd  Nd1  1  0.691938  0.691908  0.311298  1
  Nd  Nd2  1  0.309608  0.689334  0.309704  1
  Nd  Nd3  1  0.937603  0.937777  0.563606  1
  Nd  Nd4  1  0.151121  0.151014  0.544751  1
  Nd  Nd5  1  0.558088  0.945615  0.558169  1
  Nd  Nd6  1  0.151485  0.151698  0.151393  1
  Nd  Nd7  1  0.309917  0.309817  0.688993  1
  Nd  Nd8  1  0.945700  0.557899  0.558185  1
  Nd  Nd9  1  0.558174  0.557970  0.945644  1
  Nd  Nd10  1  0.563447  0.937876  0.937592  1
  Nd  Nd11  1  0.937687  0.563323  0.937544  1
  Nd  Nd12  1  0.150941  0.544880  0.150921  1
  Nd  Nd13  1  0.311163  0.691988  0.692013  1
  Nd  Nd14  1  0.691984  0.311142  0.691989  1
  Nd  Nd15  1  0.544790  0.151037  0.151080  1
  In  In16  1  0.919163  0.919033  0.243111  1
  In  In17  1  0.243115  0.919096  0.919174  1
  In  In18  1  0.919100  0.243329  0.919085  1
  In  In19  1  0.919468  0.918979  0.919566  1
  Tc  Tc20  1  0.360128  0.360356  0.360081  1
  Rh  Rh21  1  0.921637  0.357286  0.357366  1
  Rh  Rh22  1  0.357399  0.357296  0.921589  1
  Rh  Rh23  1  0.357276  0.921645  0.357248  1
