# generated using pymatgen
data_Dy8Lu2Si7Au
_symmetry_space_group_name_H-M   'P 1'
_cell_length_a   7.42291000
_cell_length_b   7.65939382
_cell_length_c   14.67410102
_cell_angle_alpha   89.69349358
_cell_angle_beta   90.00000000
_cell_angle_gamma   90.00000000
_symmetry_Int_Tables_number   1
_chemical_formula_structural   Dy8Lu2Si7Au
_chemical_formula_sum   'Dy16 Lu4 Si14 Au2'
_cell_volume   834.28394368
_cell_formula_units_Z   2
loop_
 _symmetry_equiv_pos_site_id
 _symmetry_equiv_pos_as_xyz
  1  'x, y, z'
loop_
 _atom_site_type_symbol
 _atom_site_label
 _atom_site_symmetry_multiplicity
 _atom_site_fract_x
 _atom_site_fract_y
 _atom_site_fract_z
 _atom_site_occupancy
  Dy  Dy0  1  0.974371  0.819108  0.100887  1
  Dy  Dy1  1  0.474371  0.680892  0.399113  1
  Dy  Dy2  1  0.524560  0.318030  0.899511  1
  Dy  Dy3  1  0.024560  0.181970  0.600489  1
  Dy  Dy4  1  0.029031  0.179401  0.900108  1
  Dy  Dy5  1  0.529031  0.320599  0.599892  1
  Dy  Dy6  1  0.473876  0.682086  0.102198  1
  Dy  Dy7  1  0.973876  0.817914  0.397802  1
  Dy  Dy8  1  0.675032  0.819830  0.878608  1
  Dy  Dy9  1  0.175032  0.680170  0.621392  1
  Dy  Dy10  1  0.818398  0.328962  0.123381  1
  Dy  Dy11  1  0.318398  0.171038  0.376619  1
  Dy  Dy12  1  0.322398  0.178773  0.123977  1
  Dy  Dy13  1  0.822398  0.321227  0.376023  1
  Dy  Dy14  1  0.182234  0.675361  0.878660  1
  Dy  Dy15  1  0.682234  0.824639  0.621340  1
  Lu  Lu16  1  0.651119  0.992517  0.251194  1
  Lu  Lu17  1  0.151119  0.507483  0.248806  1
  Lu  Lu18  1  0.847076  0.488516  0.751411  1
  Lu  Lu19  1  0.347076  0.011484  0.748589  1
  Si  Si20  1  0.768345  0.630905  0.251008  1
  Si  Si21  1  0.268345  0.869095  0.248992  1
  Si  Si22  1  0.731026  0.125173  0.751477  1
  Si  Si23  1  0.231026  0.374827  0.748523  1
  Si  Si24  1  0.020532  0.104032  0.247704  1
  Si  Si25  1  0.520532  0.395968  0.252296  1
  Si  Si26  1  0.475790  0.605962  0.748285  1
  Si  Si27  1  0.975790  0.894038  0.751715  1
  Si  Si28  1  0.648952  0.029084  0.042140  1
  Si  Si29  1  0.148952  0.470916  0.457860  1
  Si  Si30  1  0.157325  0.472828  0.044083  1
  Si  Si31  1  0.657325  0.027172  0.455917  1
  Si  Si32  1  0.353303  0.970685  0.961753  1
  Si  Si33  1  0.853303  0.529315  0.538247  1
  Au  Au34  1  0.846632  0.525680  0.957277  1
  Au  Au35  1  0.346632  0.974320  0.542723  1
