# generated using pymatgen
data_Tm2Zn19Cu3
_symmetry_space_group_name_H-M   'P 1'
_cell_length_a   6.69518240
_cell_length_b   8.14711993
_cell_length_c   8.14711767
_cell_angle_alpha   99.85497215
_cell_angle_beta   65.64774580
_cell_angle_gamma   114.35228012
_symmetry_Int_Tables_number   1
_chemical_formula_structural   Tm2Zn19Cu3
_chemical_formula_sum   'Tm2 Zn19 Cu3'
_cell_volume   368.83581510
_cell_formula_units_Z   1
loop_
 _symmetry_equiv_pos_site_id
 _symmetry_equiv_pos_as_xyz
  1  'x, y, z'
loop_
 _atom_site_type_symbol
 _atom_site_label
 _atom_site_symmetry_multiplicity
 _atom_site_fract_x
 _atom_site_fract_y
 _atom_site_fract_z
 _atom_site_occupancy
  Tm  Tm0  1  0.998834  0.999016  0.000985  1
  Tm  Tm1  1  0.751164  0.500984  0.499014  1
  Zn  Zn2  1  0.501251  0.003807  0.996192  1
  Zn  Zn3  1  0.099652  0.675062  0.080825  1
  Zn  Zn4  1  0.815068  0.323894  0.081706  1
  Zn  Zn5  1  0.650342  0.580830  0.175060  1
  Zn  Zn6  1  0.173499  0.410842  0.172388  1
  Zn  Zn7  1  0.375003  0.749996  0.250003  1
  Zn  Zn8  1  0.576485  0.089155  0.327614  1
  Zn  Zn9  1  0.099653  0.919175  0.324938  1
  Zn  Zn10  1  0.934923  0.176107  0.418290  1
  Zn  Zn11  1  0.650343  0.824939  0.419170  1
  Zn  Zn12  1  0.248737  0.496180  0.503820  1
  Zn  Zn13  1  0.239829  0.174842  0.583862  1
  Zn  Zn14  1  0.173498  0.827611  0.589158  1
  Zn  Zn15  1  0.510162  0.083862  0.674844  1
  Zn  Zn16  1  0.815068  0.918293  0.676105  1
  Zn  Zn17  1  0.239830  0.416138  0.825157  1
  Zn  Zn18  1  0.934923  0.581710  0.823893  1
  Zn  Zn19  1  0.576486  0.672386  0.910844  1
  Zn  Zn20  1  0.510163  0.325157  0.916139  1
  Cu  Cu21  1  0.375031  0.250004  0.249997  1
  Cu  Cu22  1  0.375031  0.750003  0.749996  1
  Cu  Cu23  1  0.875031  0.250002  0.749998  1
