# generated using pymatgen
data_La7Dy2TmSi8O3
_symmetry_space_group_name_H-M   'P 1'
_cell_length_a   10.75476300
_cell_length_b   10.78469222
_cell_length_c   4.54408100
_cell_angle_alpha   90.00000000
_cell_angle_beta   90.00000000
_cell_angle_gamma   119.90824397
_symmetry_Int_Tables_number   1
_chemical_formula_structural   La7Dy2TmSi8O3
_chemical_formula_sum   'La7 Dy2 Tm1 Si8 O3'
_cell_volume   456.86311871
_cell_formula_units_Z   1
loop_
 _symmetry_equiv_pos_site_id
 _symmetry_equiv_pos_as_xyz
  1  'x, y, z'
loop_
 _atom_site_type_symbol
 _atom_site_label
 _atom_site_symmetry_multiplicity
 _atom_site_fract_x
 _atom_site_fract_y
 _atom_site_fract_z
 _atom_site_occupancy
  La  La0  1  0.212181  0.788590  0.000000  1
  La  La1  1  0.576409  0.788590  0.000000  1
  La  La2  1  0.788321  0.576641  0.000000  1
  La  La3  1  0.000000  0.000000  0.000000  1
  La  La4  1  0.211679  0.423359  0.000000  1
  La  La5  1  0.423591  0.211410  0.000000  1
  La  La6  1  0.787819  0.211410  0.000000  1
  Dy  Dy7  1  0.000000  0.500000  0.500000  1
  Dy  Dy8  1  0.500000  0.500000  0.500000  1
  Tm  Tm9  1  0.500000  0.000000  0.500000  1
  Si  Si10  1  0.000226  0.776905  0.500000  1
  Si  Si11  1  0.999774  0.223095  0.500000  1
  Si  Si12  1  0.223321  0.223095  0.500000  1
  Si  Si13  1  0.776044  0.000000  0.500000  1
  Si  Si14  1  0.334193  0.668388  0.500000  1
  Si  Si15  1  0.223956  0.000000  0.500000  1
  Si  Si16  1  0.665807  0.331612  0.500000  1
  Si  Si17  1  0.776679  0.776905  0.500000  1
  O  O18  1  0.000000  0.500000  0.000000  1
  O  O19  1  0.500000  0.500000  0.000000  1
  O  O20  1  0.500000  0.000000  0.000000  1
