# generated using pymatgen
data_Pr5Te9
_symmetry_space_group_name_H-M   'P 1'
_cell_length_a   13.59544598
_cell_length_b   13.59544591
_cell_length_c   11.22584650
_cell_angle_alpha   79.65871967
_cell_angle_beta   79.65872035
_cell_angle_gamma   26.70964222
_symmetry_Int_Tables_number   1
_chemical_formula_structural   Pr5Te9
_chemical_formula_sum   'Pr10 Te18'
_cell_volume   916.61208602
_cell_formula_units_Z   2
loop_
 _symmetry_equiv_pos_site_id
 _symmetry_equiv_pos_as_xyz
  1  'x, y, z'
loop_
 _atom_site_type_symbol
 _atom_site_label
 _atom_site_symmetry_multiplicity
 _atom_site_fract_x
 _atom_site_fract_y
 _atom_site_fract_z
 _atom_site_occupancy
  Pr  Pr0  1  0.946274  0.045314  0.241179  1
  Pr  Pr1  1  0.146708  0.246792  0.841470  1
  Pr  Pr2  1  0.345427  0.449312  0.437050  1
  Pr  Pr3  1  0.540076  0.651600  0.036800  1
  Pr  Pr4  1  0.752779  0.836703  0.636288  1
  Pr  Pr5  1  0.348400  0.459924  0.963200  1
  Pr  Pr6  1  0.550688  0.654573  0.562950  1
  Pr  Pr7  1  0.753208  0.853292  0.158530  1
  Pr  Pr8  1  0.954686  0.053726  0.758821  1
  Pr  Pr9  1  0.163297  0.247221  0.363712  1
  Te  Te10  1  0.473388  0.572105  0.821580  1
  Te  Te11  1  0.072200  0.177389  0.621702  1
  Te  Te12  1  0.869675  0.979442  0.020403  1
  Te  Te13  1  0.681448  0.763849  0.421978  1
  Te  Te14  1  0.274066  0.375358  0.221559  1
  Te  Te15  1  0.020558  0.130325  0.979597  1
  Te  Te16  1  0.624642  0.725934  0.778441  1
  Te  Te17  1  0.427895  0.526612  0.178420  1
  Te  Te18  1  0.236151  0.318552  0.578022  1
  Te  Te19  1  0.822611  0.927800  0.378298  1
  Te  Te20  1  0.699582  0.300418  0.500000  1
  Te  Te21  1  0.300133  0.902088  0.299172  1
  Te  Te22  1  0.097912  0.699867  0.700828  1
  Te  Te23  1  0.894504  0.494788  0.111851  1
  Te  Te24  1  0.505212  0.105496  0.888149  1
  Te  Te25  1  0.002148  0.603045  0.893738  1
  Te  Te26  1  0.199374  0.800626  0.500000  1
  Te  Te27  1  0.396955  0.997852  0.106262  1
