# generated using pymatgen
data_Dy18Y2CoBi8Os3
_symmetry_space_group_name_H-M   'P 1'
_cell_length_a   7.98334392
_cell_length_b   9.00854000
_cell_length_c   12.48228934
_cell_angle_alpha   90.00000000
_cell_angle_beta   90.23478413
_cell_angle_gamma   90.00000000
_symmetry_Int_Tables_number   1
_chemical_formula_structural   Dy18Y2CoBi8Os3
_chemical_formula_sum   'Dy18 Y2 Co1 Bi8 Os3'
_cell_volume   897.69715650
_cell_formula_units_Z   1
loop_
 _symmetry_equiv_pos_site_id
 _symmetry_equiv_pos_as_xyz
  1  'x, y, z'
loop_
 _atom_site_type_symbol
 _atom_site_label
 _atom_site_symmetry_multiplicity
 _atom_site_fract_x
 _atom_site_fract_y
 _atom_site_fract_z
 _atom_site_occupancy
  Dy  Dy0  1  0.341355  0.250000  0.708472  1
  Dy  Dy1  1  0.657097  0.750000  0.293647  1
  Dy  Dy2  1  0.376180  0.750000  0.694500  1
  Dy  Dy3  1  0.622585  0.250000  0.306091  1
  Dy  Dy4  1  0.875737  0.250000  0.806761  1
  Dy  Dy5  1  0.120547  0.750000  0.188197  1
  Dy  Dy6  1  0.941962  0.750000  0.504538  1
  Dy  Dy7  1  0.057901  0.250000  0.496170  1
  Dy  Dy8  1  0.445189  0.250000  0.996817  1
  Dy  Dy9  1  0.554367  0.750000  0.003626  1
  Dy  Dy10  1  0.674186  0.041954  0.563957  1
  Dy  Dy11  1  0.324434  0.956982  0.435672  1
  Dy  Dy12  1  0.175777  0.958023  0.935946  1
  Dy  Dy13  1  0.324434  0.543018  0.435672  1
  Dy  Dy14  1  0.825958  0.038584  0.062813  1
  Dy  Dy15  1  0.674186  0.458046  0.563957  1
  Dy  Dy16  1  0.825958  0.461416  0.062813  1
  Dy  Dy17  1  0.175777  0.541977  0.935946  1
  Y  Y18  1  0.843060  0.750000  0.797367  1
  Y  Y19  1  0.159266  0.250000  0.208214  1
  Co  Co20  1  0.930547  0.750000  0.010406  1
  Bi  Bi21  1  0.570172  0.492460  0.828219  1
  Bi  Bi22  1  0.430875  0.508250  0.171680  1
  Bi  Bi23  1  0.068532  0.507964  0.672860  1
  Bi  Bi24  1  0.430875  0.991750  0.171680  1
  Bi  Bi25  1  0.930962  0.492886  0.326791  1
  Bi  Bi26  1  0.570172  0.007540  0.828219  1
  Bi  Bi27  1  0.930962  0.007114  0.326791  1
  Bi  Bi28  1  0.068532  0.992036  0.672860  1
  Os  Os29  1  0.575139  0.750000  0.511550  1
  Os  Os30  1  0.423481  0.250000  0.489094  1
  Os  Os31  1  0.073792  0.250000  0.988671  1
