# generated using pymatgen
data_Na4LuBiO6
_symmetry_space_group_name_H-M   'P 1'
_cell_length_a   5.78616698
_cell_length_b   5.78604309
_cell_length_c   5.92660479
_cell_angle_alpha   99.60023018
_cell_angle_beta   99.59217762
_cell_angle_gamma   119.88076736
_symmetry_Int_Tables_number   1
_chemical_formula_structural   Na4LuBiO6
_chemical_formula_sum   'Na4 Lu1 Bi1 O6'
_cell_volume   162.23296156
_cell_formula_units_Z   1
loop_
 _symmetry_equiv_pos_site_id
 _symmetry_equiv_pos_as_xyz
  1  'x, y, z'
loop_
 _atom_site_type_symbol
 _atom_site_label
 _atom_site_symmetry_multiplicity
 _atom_site_fract_x
 _atom_site_fract_y
 _atom_site_fract_z
 _atom_site_occupancy
  Na  Na0  1  0.499870  0.499834  0.000038  1
  Na  Na1  1  0.996278  0.003817  0.500001  1
  Na  Na2  1  0.661091  0.338925  0.499988  1
  Na  Na3  1  0.342195  0.657843  0.500002  1
  Lu  Lu4  1  0.166917  0.832986  0.000018  1
  Bi  Bi5  1  0.832615  0.167378  0.000007  1
  O  O6  1  0.582565  0.943010  0.215154  1
  O  O7  1  0.934984  0.565369  0.218472  1
  O  O8  1  0.204617  0.212893  0.219775  1
  O  O9  1  0.787184  0.795424  0.780215  1
  O  O10  1  0.434689  0.065047  0.781498  1
  O  O11  1  0.057000  0.417478  0.784837  1
