# generated using pymatgen
data_Y4Ga10CoIr5
_symmetry_space_group_name_H-M   'P 1'
_cell_length_a   5.63760166
_cell_length_b   8.57515744
_cell_length_c   8.57515878
_cell_angle_alpha   96.51510508
_cell_angle_beta   109.16239534
_cell_angle_gamma   109.16238726
_symmetry_Int_Tables_number   1
_chemical_formula_structural   Y4Ga10CoIr5
_chemical_formula_sum   'Y4 Ga10 Co1 Ir5'
_cell_volume   358.33742718
_cell_formula_units_Z   1
loop_
 _symmetry_equiv_pos_site_id
 _symmetry_equiv_pos_as_xyz
  1  'x, y, z'
loop_
 _atom_site_type_symbol
 _atom_site_label
 _atom_site_symmetry_multiplicity
 _atom_site_fract_x
 _atom_site_fract_y
 _atom_site_fract_z
 _atom_site_occupancy
  Y  Y0  1  0.781323  0.418383  0.129606  1
  Y  Y1  1  0.718677  0.870394  0.581617  1
  Y  Y2  1  0.233601  0.582115  0.870520  1
  Y  Y3  1  0.266399  0.129480  0.417885  1
  Ga  Ga4  1  0.836750  0.742699  0.904095  1
  Ga  Ga5  1  0.663250  0.095905  0.257301  1
  Ga  Ga6  1  0.190691  0.257176  0.096138  1
  Ga  Ga7  1  0.309309  0.903862  0.742824  1
  Ga  Ga8  1  0.750000  0.201521  0.798479  1
  Ga  Ga9  1  0.250000  0.802073  0.197927  1
  Ga  Ga10  1  0.750000  0.499909  0.500091  1
  Ga  Ga11  1  0.250000  0.499892  0.500108  1
  Ga  Ga12  1  0.750000  0.798647  0.201353  1
  Ga  Ga13  1  0.250000  0.197970  0.802030  1
  Co  Co14  1  0.250000  0.999754  0.000246  1
  Ir  Ir15  1  0.591047  0.440233  0.744677  1
  Ir  Ir16  1  0.908953  0.255323  0.559767  1
  Ir  Ir17  1  0.406404  0.559838  0.255522  1
  Ir  Ir18  1  0.093596  0.744478  0.440162  1
  Ir  Ir19  1  0.750000  0.000345  0.999655  1
