# generated using pymatgen
data_Tb3SmHf4F28
_symmetry_space_group_name_H-M   'P 1'
_cell_length_a   5.75160532
_cell_length_b   9.11149933
_cell_length_c   12.23102724
_cell_angle_alpha   62.26181606
_cell_angle_beta   89.98314883
_cell_angle_gamma   90.01347373
_symmetry_Int_Tables_number   1
_chemical_formula_structural   Tb3SmHf4F28
_chemical_formula_sum   'Tb3 Sm1 Hf4 F28'
_cell_volume   567.31741396
_cell_formula_units_Z   1
loop_
 _symmetry_equiv_pos_site_id
 _symmetry_equiv_pos_as_xyz
  1  'x, y, z'
loop_
 _atom_site_type_symbol
 _atom_site_label
 _atom_site_symmetry_multiplicity
 _atom_site_fract_x
 _atom_site_fract_y
 _atom_site_fract_z
 _atom_site_occupancy
  Tb  Tb0  1  0.743524  0.814723  0.266389  1
  Tb  Tb1  1  0.243575  0.186295  0.233628  1
  Tb  Tb2  1  0.256734  0.188108  0.733373  1
  Sm  Sm3  1  0.756437  0.814313  0.766556  1
  Hf  Hf4  1  0.744223  0.275462  0.454246  1
  Hf  Hf5  1  0.244585  0.725957  0.046725  1
  Hf  Hf6  1  0.255153  0.726096  0.542826  1
  Hf  Hf7  1  0.755337  0.271996  0.956128  1
  F  F8  1  0.461140  0.709925  0.924508  1
  F  F9  1  0.963432  0.289021  0.576658  1
  F  F10  1  0.535664  0.287902  0.077490  1
  F  F11  1  0.035332  0.710894  0.421443  1
  F  F12  1  0.457949  0.282412  0.547624  1
  F  F13  1  0.958356  0.716300  0.955088  1
  F  F14  1  0.543213  0.718091  0.451125  1
  F  F15  1  0.041814  0.280855  0.048753  1
  F  F16  1  0.767381  0.519431  0.860082  1
  F  F17  1  0.266845  0.477913  0.639763  1
  F  F18  1  0.234089  0.477494  0.141738  1
  F  F19  1  0.733298  0.523320  0.358437  1
  F  F20  1  0.759793  0.024742  0.057296  1
  F  F21  1  0.259763  0.973557  0.442485  1
  F  F22  1  0.239848  0.972944  0.943837  1
  F  F23  1  0.739829  0.028147  0.554530  1
  F  F24  1  0.987653  0.732070  0.645691  1
  F  F25  1  0.487474  0.266492  0.852704  1
  F  F26  1  0.011439  0.266546  0.351527  1
  F  F27  1  0.512645  0.733692  0.149107  1
  F  F28  1  0.035890  0.745902  0.172215  1
  F  F29  1  0.535264  0.254686  0.328898  1
  F  F30  1  0.964029  0.253267  0.829840  1
  F  F31  1  0.460289  0.744236  0.669811  1
  F  F32  1  0.427689  0.973001  0.234735  1
  F  F33  1  0.928172  0.027513  0.265317  1
  F  F34  1  0.572597  0.032493  0.765824  1
  F  F35  1  0.079549  0.974205  0.733600  1
