# generated using pymatgen
data_Ta6RuS12
_symmetry_space_group_name_H-M   'P 1'
_cell_length_a   5.77543534
_cell_length_b   5.77543616
_cell_length_c   12.74158372
_cell_angle_alpha   85.68832811
_cell_angle_beta   85.68832444
_cell_angle_gamma   119.99988633
_symmetry_Int_Tables_number   1
_chemical_formula_structural   Ta6RuS12
_chemical_formula_sum   'Ta6 Ru1 S12'
_cell_volume   363.87999501
_cell_formula_units_Z   1
loop_
 _symmetry_equiv_pos_site_id
 _symmetry_equiv_pos_as_xyz
  1  'x, y, z'
loop_
 _atom_site_type_symbol
 _atom_site_label
 _atom_site_symmetry_multiplicity
 _atom_site_fract_x
 _atom_site_fract_y
 _atom_site_fract_z
 _atom_site_occupancy
  Ta  Ta0  1  0.079568  0.079568  0.760326  1
  Ta  Ta1  1  0.411945  0.745230  0.762866  1
  Ta  Ta2  1  0.745230  0.411945  0.762866  1
  Ta  Ta3  1  0.254770  0.588055  0.237134  1
  Ta  Ta4  1  0.588055  0.254770  0.237134  1
  Ta  Ta5  1  0.920432  0.920432  0.239674  1
  Ru  Ru6  1  0.000000  0.000000  0.000000  1
  S  S7  1  0.295908  0.295908  0.113445  1
  S  S8  1  0.628781  0.962444  0.113426  1
  S  S9  1  0.962444  0.628781  0.113426  1
  S  S10  1  0.037556  0.371219  0.886574  1
  S  S11  1  0.371219  0.037556  0.886574  1
  S  S12  1  0.704092  0.704092  0.886555  1
  S  S13  1  0.214195  0.214195  0.362562  1
  S  S14  1  0.545023  0.879731  0.362532  1
  S  S15  1  0.879731  0.545023  0.362532  1
  S  S16  1  0.120269  0.454977  0.637468  1
  S  S17  1  0.454977  0.120269  0.637468  1
  S  S18  1  0.785805  0.785805  0.637438  1
