# generated using pymatgen
data_Yb4Cd3Ag10
_symmetry_space_group_name_H-M   'P 1'
_cell_length_a   8.51369956
_cell_length_b   8.51369896
_cell_length_c   10.60676300
_cell_angle_alpha   90.00000000
_cell_angle_beta   90.00000000
_cell_angle_gamma   107.65848539
_symmetry_Int_Tables_number   1
_chemical_formula_structural   Yb4Cd3Ag10
_chemical_formula_sum   'Yb8 Cd6 Ag20'
_cell_volume   732.58560514
_cell_formula_units_Z   2
loop_
 _symmetry_equiv_pos_site_id
 _symmetry_equiv_pos_as_xyz
  1  'x, y, z'
loop_
 _atom_site_type_symbol
 _atom_site_label
 _atom_site_symmetry_multiplicity
 _atom_site_fract_x
 _atom_site_fract_y
 _atom_site_fract_z
 _atom_site_occupancy
  Yb  Yb0  1  0.700372  0.299628  0.000000  1
  Yb  Yb1  1  0.299628  0.700372  0.000000  1
  Yb  Yb2  1  0.799628  0.200372  0.500000  1
  Yb  Yb3  1  0.200372  0.799628  0.500000  1
  Yb  Yb4  1  0.299918  0.299918  0.201301  1
  Yb  Yb5  1  0.700082  0.700082  0.798699  1
  Yb  Yb6  1  0.200082  0.200082  0.701301  1
  Yb  Yb7  1  0.799918  0.799918  0.298699  1
  Cd  Cd8  1  0.027440  0.527440  0.250000  1
  Cd  Cd9  1  0.972560  0.472560  0.750000  1
  Cd  Cd10  1  0.472560  0.972560  0.750000  1
  Cd  Cd11  1  0.527440  0.027440  0.250000  1
  Cd  Cd12  1  0.000000  0.000000  0.000000  1
  Cd  Cd13  1  0.500000  0.500000  0.500000  1
  Ag  Ag14  1  0.094263  0.094263  0.403606  1
  Ag  Ag15  1  0.905737  0.905737  0.596394  1
  Ag  Ag16  1  0.405737  0.405737  0.903606  1
  Ag  Ag17  1  0.594263  0.594263  0.096394  1
  Ag  Ag18  1  0.893728  0.170794  0.206721  1
  Ag  Ag19  1  0.106272  0.829206  0.793279  1
  Ag  Ag20  1  0.606272  0.329206  0.706721  1
  Ag  Ag21  1  0.670794  0.393728  0.293279  1
  Ag  Ag22  1  0.393728  0.670794  0.293279  1
  Ag  Ag23  1  0.329206  0.606272  0.706721  1
  Ag  Ag24  1  0.829206  0.106272  0.793279  1
  Ag  Ag25  1  0.170794  0.893728  0.206721  1
  Ag  Ag26  1  0.934630  0.647813  0.019531  1
  Ag  Ag27  1  0.065370  0.352187  0.980469  1
  Ag  Ag28  1  0.565370  0.852187  0.519531  1
  Ag  Ag29  1  0.147813  0.434630  0.480469  1
  Ag  Ag30  1  0.434630  0.147813  0.480469  1
  Ag  Ag31  1  0.852187  0.565370  0.519531  1
  Ag  Ag32  1  0.352187  0.065370  0.980469  1
  Ag  Ag33  1  0.647813  0.934630  0.019531  1
