# generated using pymatgen
data_Y3Pa(ReB6)2
_symmetry_space_group_name_H-M   'P 1'
_cell_length_a   3.70874300
_cell_length_b   9.20084080
_cell_length_c   11.56468997
_cell_angle_alpha   89.60762599
_cell_angle_beta   90.00000000
_cell_angle_gamma   90.00000000
_symmetry_Int_Tables_number   1
_chemical_formula_structural   Y3Pa(ReB6)2
_chemical_formula_sum   'Y6 Pa2 Re4 B24'
_cell_volume   394.61906798
_cell_formula_units_Z   2
loop_
 _symmetry_equiv_pos_site_id
 _symmetry_equiv_pos_as_xyz
  1  'x, y, z'
loop_
 _atom_site_type_symbol
 _atom_site_label
 _atom_site_symmetry_multiplicity
 _atom_site_fract_x
 _atom_site_fract_y
 _atom_site_fract_z
 _atom_site_occupancy
  Y  Y0  1  0.000000  0.324025  0.414227  1
  Y  Y1  1  0.000000  0.675975  0.585773  1
  Y  Y2  1  0.000000  0.444808  0.126815  1
  Y  Y3  1  0.000000  0.555192  0.873185  1
  Y  Y4  1  0.000000  0.943610  0.373613  1
  Y  Y5  1  0.000000  0.056390  0.626387  1
  Pa  Pa6  1  0.000000  0.821952  0.086913  1
  Pa  Pa7  1  0.000000  0.178048  0.913087  1
  Re  Re8  1  0.000000  0.134812  0.174606  1
  Re  Re9  1  0.000000  0.865188  0.825394  1
  Re  Re10  1  0.000000  0.640433  0.317930  1
  Re  Re11  1  0.000000  0.359567  0.682070  1
  B  B12  1  0.500000  0.052941  0.066828  1
  B  B13  1  0.500000  0.947059  0.933173  1
  B  B14  1  0.500000  0.553146  0.432408  1
  B  B15  1  0.500000  0.446854  0.567591  1
  B  B16  1  0.500000  0.247186  0.080000  1
  B  B17  1  0.500000  0.752814  0.920000  1
  B  B18  1  0.500000  0.747196  0.419425  1
  B  B19  1  0.500000  0.252804  0.580575  1
  B  B20  1  0.500000  0.290899  0.233586  1
  B  B21  1  0.500000  0.709101  0.766414  1
  B  B22  1  0.500000  0.792039  0.265986  1
  B  B23  1  0.500000  0.207961  0.734014  1
  B  B24  1  0.500000  0.131458  0.313927  1
  B  B25  1  0.500000  0.868542  0.686073  1
  B  B26  1  0.500000  0.632874  0.186022  1
  B  B27  1  0.500000  0.367126  0.813978  1
  B  B28  1  0.500000  0.482492  0.287486  1
  B  B29  1  0.500000  0.517508  0.712514  1
  B  B30  1  0.500000  0.982844  0.212793  1
  B  B31  1  0.500000  0.017156  0.787207  1
  B  B32  1  0.500000  0.106149  0.470224  1
  B  B33  1  0.500000  0.893851  0.529776  1
  B  B34  1  0.500000  0.614205  0.031576  1
  B  B35  1  0.500000  0.385795  0.968424  1
