# generated using pymatgen
data_Eu2B4Ir4Rh
_symmetry_space_group_name_H-M   'P 1'
_cell_length_a   7.60022647
_cell_length_b   6.32762639
_cell_length_c   5.76168121
_cell_angle_alpha   77.74891629
_cell_angle_beta   54.44897551
_cell_angle_gamma   47.75018284
_symmetry_Int_Tables_number   1
_chemical_formula_structural   Eu2B4Ir4Rh
_chemical_formula_sum   'Eu2 B4 Ir4 Rh1'
_cell_volume   159.35503325
_cell_formula_units_Z   1
loop_
 _symmetry_equiv_pos_site_id
 _symmetry_equiv_pos_as_xyz
  1  'x, y, z'
loop_
 _atom_site_type_symbol
 _atom_site_label
 _atom_site_symmetry_multiplicity
 _atom_site_fract_x
 _atom_site_fract_y
 _atom_site_fract_z
 _atom_site_occupancy
  Eu  Eu0  1  0.858070  0.858070  0.141930  1
  Eu  Eu1  1  0.141930  0.141930  0.858070  1
  B  B2  1  0.209445  0.529030  0.471086  1
  B  B3  1  0.790555  0.470970  0.528914  1
  B  B4  1  0.529030  0.209445  0.790440  1
  B  B5  1  0.470970  0.790555  0.209560  1
  Ir  Ir6  1  0.749610  0.749610  0.750390  1
  Ir  Ir7  1  0.250390  0.250390  0.249610  1
  Ir  Ir8  1  0.000000  0.000000  0.500000  1
  Ir  Ir9  1  0.500000  0.500000  0.500000  1
  Rh  Rh10  1  0.500000  0.500000  0.000000  1
