# generated using pymatgen
data_Dy5Y3(OsC2)4
_symmetry_space_group_name_H-M   'P 1'
_cell_length_a   5.14938300
_cell_length_b   6.43535100
_cell_length_c   9.82465900
_cell_angle_alpha   90.00160026
_cell_angle_beta   90.00000000
_cell_angle_gamma   90.00000000
_symmetry_Int_Tables_number   1
_chemical_formula_structural   Dy5Y3(OsC2)4
_chemical_formula_sum   'Dy5 Y3 Os4 C8'
_cell_volume   325.57040500
_cell_formula_units_Z   1
loop_
 _symmetry_equiv_pos_site_id
 _symmetry_equiv_pos_as_xyz
  1  'x, y, z'
loop_
 _atom_site_type_symbol
 _atom_site_label
 _atom_site_symmetry_multiplicity
 _atom_site_fract_x
 _atom_site_fract_y
 _atom_site_fract_z
 _atom_site_occupancy
  Dy  Dy0  1  0.250000  0.186183  0.948147  1
  Dy  Dy1  1  0.250000  0.523364  0.220677  1
  Dy  Dy2  1  0.750000  0.476718  0.779221  1
  Dy  Dy3  1  0.750000  0.976561  0.720738  1
  Dy  Dy4  1  0.250000  0.023195  0.279130  1
  Y  Y5  1  0.250000  0.686772  0.551665  1
  Y  Y6  1  0.750000  0.313310  0.448312  1
  Y  Y7  1  0.750000  0.813262  0.051594  1
  Os  Os8  1  0.250000  0.727454  0.864583  1
  Os  Os9  1  0.750000  0.272434  0.135304  1
  Os  Os10  1  0.750000  0.772493  0.364522  1
  Os  Os11  1  0.250000  0.227460  0.635416  1
  C  C12  1  0.250000  0.463761  0.758188  1
  C  C13  1  0.750000  0.535880  0.242058  1
  C  C14  1  0.750000  0.036017  0.257929  1
  C  C15  1  0.250000  0.964500  0.742587  1
  C  C16  1  0.250000  0.822770  0.052097  1
  C  C17  1  0.750000  0.177837  0.947751  1
  C  C18  1  0.750000  0.677905  0.552181  1
  C  C19  1  0.250000  0.322123  0.447901  1
