# generated using pymatgen
data_AlZn7(PtRh)4
_symmetry_space_group_name_H-M   'P 1'
_cell_length_a   6.08882600
_cell_length_b   4.32198900
_cell_length_c   8.62444500
_cell_angle_alpha   90.00000000
_cell_angle_beta   90.00070968
_cell_angle_gamma   90.00000000
_symmetry_Int_Tables_number   1
_chemical_formula_structural   AlZn7(PtRh)4
_chemical_formula_sum   'Al1 Zn7 Pt4 Rh4'
_cell_volume   226.95950603
_cell_formula_units_Z   1
loop_
 _symmetry_equiv_pos_site_id
 _symmetry_equiv_pos_as_xyz
  1  'x, y, z'
loop_
 _atom_site_type_symbol
 _atom_site_label
 _atom_site_symmetry_multiplicity
 _atom_site_fract_x
 _atom_site_fract_y
 _atom_site_fract_z
 _atom_site_occupancy
  Al  Al0  1  0.500022  0.749999  0.125319  1
  Zn  Zn1  1  0.999697  0.749999  0.125343  1
  Zn  Zn2  1  0.500015  0.250000  0.376819  1
  Zn  Zn3  1  0.000077  0.250000  0.375350  1
  Zn  Zn4  1  0.000162  0.749999  0.625331  1
  Zn  Zn5  1  0.499872  0.749999  0.625342  1
  Zn  Zn6  1  0.000046  0.250000  0.873984  1
  Zn  Zn7  1  0.499976  0.250000  0.872517  1
  Pt  Pt8  1  0.745639  0.250000  0.124736  1
  Pt  Pt9  1  0.252359  0.749999  0.371832  1
  Pt  Pt10  1  0.749973  0.250000  0.624687  1
  Pt  Pt11  1  0.252284  0.749999  0.878733  1
  Rh  Rh12  1  0.254060  0.250000  0.124775  1
  Rh  Rh13  1  0.747991  0.749999  0.371971  1
  Rh  Rh14  1  0.249856  0.250000  0.624732  1
  Rh  Rh15  1  0.747973  0.749999  0.878528  1
