# generated using pymatgen
data_La3Tl3Pd2Pt
_symmetry_space_group_name_H-M   'P 1'
_cell_length_a   7.94847800
_cell_length_b   7.94847811
_cell_length_c   4.00833700
_cell_angle_alpha   90.00000000
_cell_angle_beta   90.00000000
_cell_angle_gamma   119.99999953
_symmetry_Int_Tables_number   1
_chemical_formula_structural   La3Tl3Pd2Pt
_chemical_formula_sum   'La3 Tl3 Pd2 Pt1'
_cell_volume   219.31221469
_cell_formula_units_Z   1
loop_
 _symmetry_equiv_pos_site_id
 _symmetry_equiv_pos_as_xyz
  1  'x, y, z'
loop_
 _atom_site_type_symbol
 _atom_site_label
 _atom_site_symmetry_multiplicity
 _atom_site_fract_x
 _atom_site_fract_y
 _atom_site_fract_z
 _atom_site_occupancy
  La  La0  1  0.409639  0.402603  0.500000  1
  La  La1  1  0.597397  0.007036  0.500000  1
  La  La2  1  0.992964  0.590361  0.500000  1
  Tl  Tl3  1  0.736835  0.743417  0.000000  1
  Tl  Tl4  1  0.256583  0.993417  0.000000  1
  Tl  Tl5  1  0.006583  0.263165  0.000000  1
  Pd  Pd6  1  0.333333  0.666667  0.000000  1
  Pd  Pd7  1  0.000000  0.000000  0.500000  1
  Pt  Pt8  1  0.666667  0.333333  0.000000  1
