# generated using pymatgen
data_Lu10Si16Pt
_symmetry_space_group_name_H-M   'P 1'
_cell_length_a   6.58139428
_cell_length_b   8.02927844
_cell_length_c   10.84081600
_cell_angle_alpha   111.73574264
_cell_angle_beta   107.67076481
_cell_angle_gamma   90.00000382
_symmetry_Int_Tables_number   1
_chemical_formula_structural   Lu10Si16Pt
_chemical_formula_sum   'Lu10 Si16 Pt1'
_cell_volume   502.92596926
_cell_formula_units_Z   1
loop_
 _symmetry_equiv_pos_site_id
 _symmetry_equiv_pos_as_xyz
  1  'x, y, z'
loop_
 _atom_site_type_symbol
 _atom_site_label
 _atom_site_symmetry_multiplicity
 _atom_site_fract_x
 _atom_site_fract_y
 _atom_site_fract_z
 _atom_site_occupancy
  Lu  Lu0  1  0.241047  0.244359  0.000000  1
  Lu  Lu1  1  0.241006  0.755594  0.000000  1
  Lu  Lu2  1  0.832995  0.357027  0.206210  1
  Lu  Lu3  1  0.832995  0.849180  0.206230  1
  Lu  Lu4  1  0.438650  0.450573  0.399604  1
  Lu  Lu5  1  0.438717  0.949136  0.399631  1
  Lu  Lu6  1  0.039046  0.050969  0.600397  1
  Lu  Lu7  1  0.039086  0.549505  0.600370  1
  Lu  Lu8  1  0.626783  0.150815  0.793789  1
  Lu  Lu9  1  0.626763  0.642949  0.793769  1
  Si  Si10  1  0.922373  0.999984  0.000000  1
  Si  Si11  1  0.622391  0.499994  0.000000  1
  Si  Si12  1  0.115981  0.578527  0.157081  1
  Si  Si13  1  0.498738  0.600062  0.200170  1
  Si  Si14  1  0.499919  0.105667  0.211414  1
  Si  Si15  1  0.157070  0.120034  0.240115  1
  Si  Si16  1  0.822915  0.202109  0.404201  1
  Si  Si17  1  0.100953  0.697709  0.395410  1
  Si  Si18  1  0.758602  0.717036  0.434064  1
  Si  Si19  1  0.324539  0.282972  0.565936  1
  Si  Si20  1  0.705543  0.302300  0.604589  1
  Si  Si21  1  0.418712  0.797907  0.595799  1
  Si  Si22  1  0.916954  0.879918  0.759885  1
  Si  Si23  1  0.288504  0.894254  0.788585  1
  Si  Si24  1  0.298568  0.399894  0.799831  1
  Si  Si25  1  0.958901  0.421447  0.842919  1
  Pt  Pt26  1  0.570749  0.000079  0.000000  1
