# generated using pymatgen
data_K4Li2YInBi4
_symmetry_space_group_name_H-M   'P 1'
_cell_length_a   7.12070800
_cell_length_b   11.05981665
_cell_length_c   11.05981600
_cell_angle_alpha   79.46596982
_cell_angle_beta   90.00000000
_cell_angle_gamma   90.00000000
_symmetry_Int_Tables_number   1
_chemical_formula_structural   K4Li2YInBi4
_chemical_formula_sum   'K8 Li4 Y2 In2 Bi8'
_cell_volume   856.32227706
_cell_formula_units_Z   2
loop_
 _symmetry_equiv_pos_site_id
 _symmetry_equiv_pos_as_xyz
  1  'x, y, z'
loop_
 _atom_site_type_symbol
 _atom_site_label
 _atom_site_symmetry_multiplicity
 _atom_site_fract_x
 _atom_site_fract_y
 _atom_site_fract_z
 _atom_site_occupancy
  K  K0  1  0.250004  0.572202  0.072199  1
  K  K1  1  0.273373  0.176994  0.169858  1
  K  K2  1  0.773373  0.323002  0.330144  1
  K  K3  1  0.749998  0.927801  0.427795  1
  K  K4  1  0.249992  0.077972  0.577975  1
  K  K5  1  0.226628  0.669853  0.676997  1
  K  K6  1  0.726631  0.830145  0.823001  1
  K  K7  1  0.750000  0.422029  0.922027  1
  Li  Li8  1  0.500001  0.880918  0.119083  1
  Li  Li9  1  0.000001  0.619084  0.380917  1
  Li  Li10  1  0.999999  0.374559  0.625442  1
  Li  Li11  1  0.500001  0.125441  0.874560  1
  Y  Y12  1  0.000002  0.874404  0.125595  1
  Y  Y13  1  0.500000  0.625593  0.374405  1
  In  In14  1  0.499997  0.369697  0.630302  1
  In  In15  1  0.000001  0.130304  0.869694  1
  Bi  Bi16  1  0.759906  0.107912  0.100699  1
  Bi  Bi17  1  0.750000  0.645152  0.145153  1
  Bi  Bi18  1  0.250001  0.854846  0.354849  1
  Bi  Bi19  1  0.259908  0.392090  0.399303  1
  Bi  Bi20  1  0.740094  0.600699  0.607912  1
  Bi  Bi21  1  0.749998  0.145938  0.645939  1
  Bi  Bi22  1  0.250001  0.354061  0.854063  1
  Bi  Bi23  1  0.240093  0.899302  0.892087  1
