# generated using pymatgen
data_ScPa(ZnRh)2
_symmetry_space_group_name_H-M   'P 1'
_cell_length_a   3.73867200
_cell_length_b   6.97893254
_cell_length_c   8.37543517
_cell_angle_alpha   91.72668175
_cell_angle_beta   90.00000000
_cell_angle_gamma   90.00000000
_symmetry_Int_Tables_number   1
_chemical_formula_structural   ScPa(ZnRh)2
_chemical_formula_sum   'Sc2 Pa2 Zn4 Rh4'
_cell_volume   218.43212210
_cell_formula_units_Z   2
loop_
 _symmetry_equiv_pos_site_id
 _symmetry_equiv_pos_as_xyz
  1  'x, y, z'
loop_
 _atom_site_type_symbol
 _atom_site_label
 _atom_site_symmetry_multiplicity
 _atom_site_fract_x
 _atom_site_fract_y
 _atom_site_fract_z
 _atom_site_occupancy
  Sc  Sc0  1  0.750000  0.940587  0.682745  1
  Sc  Sc1  1  0.250000  0.059413  0.317255  1
  Pa  Pa2  1  0.250000  0.554111  0.191473  1
  Pa  Pa3  1  0.750000  0.445889  0.808527  1
  Zn  Zn4  1  0.250000  0.637455  0.559486  1
  Zn  Zn5  1  0.750000  0.362545  0.440514  1
  Zn  Zn6  1  0.750000  0.888852  0.063634  1
  Zn  Zn7  1  0.250000  0.111148  0.936366  1
  Rh  Rh8  1  0.250000  0.721786  0.874291  1
  Rh  Rh9  1  0.750000  0.278214  0.125709  1
  Rh  Rh10  1  0.750000  0.759239  0.359852  1
  Rh  Rh11  1  0.250000  0.240761  0.640148  1
