# generated using pymatgen
data_LaHo5Co8(P6Rh5)2
_symmetry_space_group_name_H-M   'P 1'
_cell_length_a   3.79741900
_cell_length_b   10.96948400
_cell_length_c   12.59063100
_cell_angle_alpha   90.00000000
_cell_angle_beta   90.00000000
_cell_angle_gamma   90.00000000
_symmetry_Int_Tables_number   1
_chemical_formula_structural   LaHo5Co8(P6Rh5)2
_chemical_formula_sum   'La1 Ho5 Co8 P12 Rh10'
_cell_volume   524.47188721
_cell_formula_units_Z   1
loop_
 _symmetry_equiv_pos_site_id
 _symmetry_equiv_pos_as_xyz
  1  'x, y, z'
loop_
 _atom_site_type_symbol
 _atom_site_label
 _atom_site_symmetry_multiplicity
 _atom_site_fract_x
 _atom_site_fract_y
 _atom_site_fract_z
 _atom_site_occupancy
  La  La0  1  0.500000  0.000000  0.473543  1
  Ho  Ho1  1  0.000000  0.500000  0.517768  1
  Ho  Ho2  1  0.500000  0.815068  0.196821  1
  Ho  Ho3  1  0.500000  0.184932  0.196821  1
  Ho  Ho4  1  0.000000  0.679688  0.804258  1
  Ho  Ho5  1  0.000000  0.320312  0.804258  1
  Co  Co6  1  0.000000  0.500000  0.992198  1
  Co  Co7  1  0.500000  0.000000  0.010935  1
  Co  Co8  1  0.000000  0.619906  0.283049  1
  Co  Co9  1  0.000000  0.380094  0.283049  1
  Co  Co10  1  0.500000  0.334643  0.997628  1
  Co  Co11  1  0.500000  0.665357  0.997628  1
  Co  Co12  1  0.000000  0.168967  0.006936  1
  Co  Co13  1  0.000000  0.831033  0.006936  1
  P  P14  1  0.500000  0.317622  0.619759  1
  P  P15  1  0.500000  0.682378  0.619759  1
  P  P16  1  0.000000  0.196393  0.370236  1
  P  P17  1  0.000000  0.803607  0.370236  1
  P  P18  1  0.500000  0.500000  0.894969  1
  P  P19  1  0.000000  0.000000  0.105482  1
  P  P20  1  0.500000  0.839463  0.905496  1
  P  P21  1  0.500000  0.160537  0.905496  1
  P  P22  1  0.000000  0.656251  0.103636  1
  P  P23  1  0.000000  0.343749  0.103636  1
  P  P24  1  0.500000  0.500000  0.340975  1
  P  P25  1  0.000000  0.000000  0.657824  1
  Rh  Rh26  1  0.500000  0.303327  0.425794  1
  Rh  Rh27  1  0.500000  0.696673  0.425794  1
  Rh  Rh28  1  0.000000  0.209953  0.570983  1
  Rh  Rh29  1  0.000000  0.790047  0.570983  1
  Rh  Rh30  1  0.500000  0.872079  0.717920  1
  Rh  Rh31  1  0.500000  0.127921  0.717920  1
  Rh  Rh32  1  0.500000  0.500000  0.157732  1
  Rh  Rh33  1  0.000000  0.000000  0.844857  1
  Rh  Rh34  1  0.500000  0.500000  0.709427  1
  Rh  Rh35  1  0.000000  0.000000  0.289255  1
