# generated using pymatgen
data_KNd(PS3)2
_symmetry_space_group_name_H-M   'P 1'
_cell_length_a   7.54754200
_cell_length_b   6.63435999
_cell_length_c   10.21519230
_cell_angle_alpha   86.97134559
_cell_angle_beta   90.00000000
_cell_angle_gamma   90.00000000
_symmetry_Int_Tables_number   1
_chemical_formula_structural   KNd(PS3)2
_chemical_formula_sum   'K2 Nd2 P4 S12'
_cell_volume   510.79200093
_cell_formula_units_Z   2
loop_
 _symmetry_equiv_pos_site_id
 _symmetry_equiv_pos_as_xyz
  1  'x, y, z'
loop_
 _atom_site_type_symbol
 _atom_site_label
 _atom_site_symmetry_multiplicity
 _atom_site_fract_x
 _atom_site_fract_y
 _atom_site_fract_z
 _atom_site_occupancy
  K  K0  1  0.473515  0.695321  0.499881  1
  K  K1  1  0.973515  0.304679  0.500119  1
  Nd  Nd2  1  0.196989  0.214062  0.996701  1
  Nd  Nd3  1  0.696989  0.785938  0.003299  1
  P  P4  1  0.685034  0.326276  0.831503  1
  P  P5  1  0.963674  0.797641  0.288610  1
  P  P6  1  0.185034  0.673724  0.168497  1
  P  P7  1  0.463674  0.202359  0.711390  1
  S  S8  1  0.770906  0.593297  0.752369  1
  S  S9  1  0.548952  0.171632  0.529876  1
  S  S10  1  0.765411  0.596836  0.267521  1
  S  S11  1  0.572847  0.361824  0.012931  1
  S  S12  1  0.396118  0.948163  0.826550  1
  S  S13  1  0.265411  0.403164  0.732479  1
  S  S14  1  0.072847  0.638176  0.987069  1
  S  S15  1  0.896118  0.051837  0.173450  1
  S  S16  1  0.048952  0.828368  0.470124  1
  S  S17  1  0.375445  0.897050  0.164781  1
  S  S18  1  0.875445  0.102950  0.835219  1
  S  S19  1  0.270906  0.406703  0.247631  1
