# generated using pymatgen
data_LiEu9Mn(AlSb4)3
_symmetry_space_group_name_H-M   'P 1'
_cell_length_a   4.55750800
_cell_length_b   12.33745722
_cell_length_c   14.46184100
_cell_angle_alpha   89.88647146
_cell_angle_beta   90.00000000
_cell_angle_gamma   90.00000000
_symmetry_Int_Tables_number   1
_chemical_formula_structural   LiEu9Mn(AlSb4)3
_chemical_formula_sum   'Li1 Eu9 Mn1 Al3 Sb12'
_cell_volume   813.15966683
_cell_formula_units_Z   1
loop_
 _symmetry_equiv_pos_site_id
 _symmetry_equiv_pos_as_xyz
  1  'x, y, z'
loop_
 _atom_site_type_symbol
 _atom_site_label
 _atom_site_symmetry_multiplicity
 _atom_site_fract_x
 _atom_site_fract_y
 _atom_site_fract_z
 _atom_site_occupancy
  Li  Li0  1  0.500000  0.003814  0.497812  1
  Eu  Eu1  1  0.500000  0.088351  0.742783  1
  Eu  Eu2  1  0.500000  0.408202  0.251490  1
  Eu  Eu3  1  0.500000  0.321019  0.516974  1
  Eu  Eu4  1  0.500000  0.913345  0.259049  1
  Eu  Eu5  1  0.500000  0.499386  0.000340  1
  Eu  Eu6  1  0.500000  0.166717  0.025905  1
  Eu  Eu7  1  0.500000  0.832679  0.979743  1
  Eu  Eu8  1  0.500000  0.674411  0.479714  1
  Eu  Eu9  1  0.500000  0.591122  0.748192  1
  Mn  Mn10  1  0.000000  0.168433  0.216353  1
  Al  Al11  1  0.000000  0.830450  0.782296  1
  Al  Al12  1  0.000000  0.678774  0.291481  1
  Al  Al13  1  0.000000  0.321857  0.709490  1
  Sb  Sb14  1  0.000000  0.850605  0.410644  1
  Sb  Sb15  1  0.000000  0.148902  0.591778  1
  Sb  Sb16  1  0.000000  0.656633  0.902381  1
  Sb  Sb17  1  0.000000  0.342830  0.098689  1
  Sb  Sb18  1  0.500000  0.336334  0.819449  1
  Sb  Sb19  1  0.500000  0.664704  0.181939  1
  Sb  Sb20  1  0.500000  0.839768  0.672320  1
  Sb  Sb21  1  0.500000  0.161374  0.321820  1
  Sb  Sb22  1  0.000000  0.516908  0.600026  1
  Sb  Sb23  1  0.000000  0.482184  0.399768  1
  Sb  Sb24  1  0.000000  0.018967  0.897794  1
  Sb  Sb25  1  0.000000  0.982232  0.101770  1
