# generated using pymatgen
data_CaErV2O6
_symmetry_space_group_name_H-M   'P 1'
_cell_length_a   5.37372376
_cell_length_b   5.60519568
_cell_length_c   7.63095700
_cell_angle_alpha   89.81364412
_cell_angle_beta   89.31703719
_cell_angle_gamma   89.59136071
_symmetry_Int_Tables_number   1
_chemical_formula_structural   CaErV2O6
_chemical_formula_sum   'Ca2 Er2 V4 O12'
_cell_volume   229.82699759
_cell_formula_units_Z   2
loop_
 _symmetry_equiv_pos_site_id
 _symmetry_equiv_pos_as_xyz
  1  'x, y, z'
loop_
 _atom_site_type_symbol
 _atom_site_label
 _atom_site_symmetry_multiplicity
 _atom_site_fract_x
 _atom_site_fract_y
 _atom_site_fract_z
 _atom_site_occupancy
  Ca  Ca0  1  0.982587  0.057319  0.747533  1
  Ca  Ca1  1  0.017427  0.942669  0.252463  1
  Er  Er2  1  0.518847  0.563821  0.750817  1
  Er  Er3  1  0.481168  0.436174  0.249185  1
  V  V4  1  0.999970  0.499944  0.000029  1
  V  V5  1  0.999976  0.500035  0.499993  1
  V  V6  1  0.499937  0.999961  0.499975  1
  V  V7  1  0.500032  0.000141  0.000020  1
  O  O8  1  0.404742  0.960747  0.739996  1
  O  O9  1  0.891299  0.527980  0.239664  1
  O  O10  1  0.108709  0.472002  0.760337  1
  O  O11  1  0.595269  0.039248  0.259995  1
  O  O12  1  0.207092  0.211464  0.057935  1
  O  O13  1  0.208156  0.208889  0.447292  1
  O  O14  1  0.695022  0.309096  0.949028  1
  O  O15  1  0.791849  0.791099  0.552703  1
  O  O16  1  0.311637  0.696401  0.447364  1
  O  O17  1  0.792916  0.788524  0.942059  1
  O  O18  1  0.688368  0.303588  0.552637  1
  O  O19  1  0.304998  0.690899  0.050969  1
