# generated using pymatgen
data_Na4CeHfCl12
_symmetry_space_group_name_H-M   'P 1'
_cell_length_a   6.82586500
_cell_length_b   6.82586569
_cell_length_c   12.85784200
_cell_angle_alpha   90.00000000
_cell_angle_beta   90.00000000
_cell_angle_gamma   120.00000151
_symmetry_Int_Tables_number   1
_chemical_formula_structural   Na4CeHfCl12
_chemical_formula_sum   'Na4 Ce1 Hf1 Cl12'
_cell_volume   518.81693424
_cell_formula_units_Z   1
loop_
 _symmetry_equiv_pos_site_id
 _symmetry_equiv_pos_as_xyz
  1  'x, y, z'
loop_
 _atom_site_type_symbol
 _atom_site_label
 _atom_site_symmetry_multiplicity
 _atom_site_fract_x
 _atom_site_fract_y
 _atom_site_fract_z
 _atom_site_occupancy
  Na  Na0  1  0.000000  0.000000  0.750000  1
  Na  Na1  1  0.666667  0.333333  0.750000  1
  Na  Na2  1  0.333333  0.666667  0.250000  1
  Na  Na3  1  0.000000  0.000000  0.250000  1
  Ce  Ce4  1  0.666667  0.333333  0.250000  1
  Hf  Hf5  1  0.333333  0.666667  0.750000  1
  Cl  Cl6  1  0.038002  0.371247  0.639111  1
  Cl  Cl7  1  0.333246  0.961998  0.639111  1
  Cl  Cl8  1  0.628753  0.666754  0.639111  1
  Cl  Cl9  1  0.628753  0.961998  0.860889  1
  Cl  Cl10  1  0.333246  0.371247  0.860889  1
  Cl  Cl11  1  0.038002  0.666754  0.860889  1
  Cl  Cl12  1  0.983437  0.333100  0.133011  1
  Cl  Cl13  1  0.349662  0.016563  0.133011  1
  Cl  Cl14  1  0.666900  0.650338  0.133011  1
  Cl  Cl15  1  0.666900  0.016563  0.366989  1
  Cl  Cl16  1  0.349662  0.333100  0.366989  1
  Cl  Cl17  1  0.983437  0.650338  0.366989  1
