# generated using pymatgen
data_Sr2Ga9Ir2Pt
_symmetry_space_group_name_H-M   'P 1'
_cell_length_a   7.65971298
_cell_length_b   7.65971412
_cell_length_c   9.88574900
_cell_angle_alpha   90.00000000
_cell_angle_beta   90.00000000
_cell_angle_gamma   119.04913180
_symmetry_Int_Tables_number   1
_chemical_formula_structural   Sr2Ga9Ir2Pt
_chemical_formula_sum   'Sr4 Ga18 Ir4 Pt2'
_cell_volume   507.04587633
_cell_formula_units_Z   2
loop_
 _symmetry_equiv_pos_site_id
 _symmetry_equiv_pos_as_xyz
  1  'x, y, z'
loop_
 _atom_site_type_symbol
 _atom_site_label
 _atom_site_symmetry_multiplicity
 _atom_site_fract_x
 _atom_site_fract_y
 _atom_site_fract_z
 _atom_site_occupancy
  Sr  Sr0  1  0.996647  0.673566  0.250000  1
  Sr  Sr1  1  0.003353  0.326434  0.750000  1
  Sr  Sr2  1  0.673566  0.996647  0.250000  1
  Sr  Sr3  1  0.326434  0.003353  0.750000  1
  Ga  Ga4  1  0.138338  0.138338  0.250000  1
  Ga  Ga5  1  0.861662  0.861662  0.750000  1
  Ga  Ga6  1  0.003283  0.339913  0.074737  1
  Ga  Ga7  1  0.996717  0.660087  0.925263  1
  Ga  Ga8  1  0.996717  0.660087  0.574737  1
  Ga  Ga9  1  0.339913  0.003283  0.425263  1
  Ga  Ga10  1  0.003283  0.339913  0.425263  1
  Ga  Ga11  1  0.660087  0.996717  0.574737  1
  Ga  Ga12  1  0.660087  0.996717  0.925263  1
  Ga  Ga13  1  0.339913  0.003283  0.074737  1
  Ga  Ga14  1  0.338232  0.338232  0.553640  1
  Ga  Ga15  1  0.661768  0.661768  0.446360  1
  Ga  Ga16  1  0.661768  0.661768  0.053640  1
  Ga  Ga17  1  0.338232  0.338232  0.946360  1
  Ga  Ga18  1  0.338324  0.544624  0.250000  1
  Ga  Ga19  1  0.661676  0.455376  0.750000  1
  Ga  Ga20  1  0.544624  0.338324  0.250000  1
  Ga  Ga21  1  0.455376  0.661676  0.750000  1
  Ir  Ir22  1  0.670267  0.329733  0.000000  1
  Ir  Ir23  1  0.329733  0.670267  0.000000  1
  Ir  Ir24  1  0.329733  0.670267  0.500000  1
  Ir  Ir25  1  0.670267  0.329733  0.500000  1
  Pt  Pt26  1  0.000000  0.000000  0.000000  1
  Pt  Pt27  1  0.000000  0.000000  0.500000  1
