# generated using pymatgen
data_Dy7Sc(Si3Pt)4
_symmetry_space_group_name_H-M   'P 1'
_cell_length_a   8.11928700
_cell_length_b   8.11928779
_cell_length_c   8.08292400
_cell_angle_alpha   90.00000000
_cell_angle_beta   90.00000000
_cell_angle_gamma   119.99999272
_symmetry_Int_Tables_number   1
_chemical_formula_structural   Dy7Sc(Si3Pt)4
_chemical_formula_sum   'Dy7 Sc1 Si12 Pt4'
_cell_volume   461.46098332
_cell_formula_units_Z   1
loop_
 _symmetry_equiv_pos_site_id
 _symmetry_equiv_pos_as_xyz
  1  'x, y, z'
loop_
 _atom_site_type_symbol
 _atom_site_label
 _atom_site_symmetry_multiplicity
 _atom_site_fract_x
 _atom_site_fract_y
 _atom_site_fract_z
 _atom_site_occupancy
  Dy  Dy0  1  0.000000  0.000000  0.750000  1
  Dy  Dy1  1  0.002221  0.501110  0.250000  1
  Dy  Dy2  1  0.498890  0.501110  0.250000  1
  Dy  Dy3  1  0.501127  0.002255  0.750000  1
  Dy  Dy4  1  0.498890  0.997779  0.250000  1
  Dy  Dy5  1  0.501127  0.498873  0.750000  1
  Dy  Dy6  1  0.997745  0.498873  0.750000  1
  Sc  Sc7  1  0.000000  0.000000  0.250000  1
  Si  Si8  1  0.164787  0.329574  0.001489  1
  Si  Si9  1  0.670426  0.835213  0.001489  1
  Si  Si10  1  0.164787  0.329574  0.498511  1
  Si  Si11  1  0.329500  0.164750  0.003532  1
  Si  Si12  1  0.164787  0.835213  0.001489  1
  Si  Si13  1  0.670426  0.835213  0.498511  1
  Si  Si14  1  0.835250  0.670500  0.003532  1
  Si  Si15  1  0.329500  0.164750  0.496468  1
  Si  Si16  1  0.164787  0.835213  0.498511  1
  Si  Si17  1  0.835250  0.670500  0.496468  1
  Si  Si18  1  0.835250  0.164750  0.003532  1
  Si  Si19  1  0.835250  0.164750  0.496468  1
  Pt  Pt20  1  0.333333  0.666667  0.997671  1
  Pt  Pt21  1  0.333333  0.666667  0.502329  1
  Pt  Pt22  1  0.666667  0.333333  0.002649  1
  Pt  Pt23  1  0.666667  0.333333  0.497351  1
