# generated using pymatgen
data_Ta3Mn4NbPt8
_symmetry_space_group_name_H-M   'P 1'
_cell_length_a   5.51760500
_cell_length_b   4.88171618
_cell_length_c   9.28815306
_cell_angle_alpha   79.64697889
_cell_angle_beta   90.00000000
_cell_angle_gamma   90.00000000
_symmetry_Int_Tables_number   1
_chemical_formula_structural   Ta3Mn4NbPt8
_chemical_formula_sum   'Ta3 Mn4 Nb1 Pt8'
_cell_volume   246.10680579
_cell_formula_units_Z   1
loop_
 _symmetry_equiv_pos_site_id
 _symmetry_equiv_pos_as_xyz
  1  'x, y, z'
loop_
 _atom_site_type_symbol
 _atom_site_label
 _atom_site_symmetry_multiplicity
 _atom_site_fract_x
 _atom_site_fract_y
 _atom_site_fract_z
 _atom_site_occupancy
  Ta  Ta0  1  0.750000  0.627181  0.124548  1
  Ta  Ta1  1  0.250000  0.204348  0.376302  1
  Ta  Ta2  1  0.750000  0.794237  0.624227  1
  Mn  Mn3  1  0.250000  0.632539  0.123981  1
  Mn  Mn4  1  0.750000  0.368360  0.875314  1
  Mn  Mn5  1  0.250000  0.797901  0.625221  1
  Mn  Mn6  1  0.750000  0.199960  0.375805  1
  Nb  Nb7  1  0.250000  0.375560  0.874642  1
  Pt  Pt8  1  0.500101  0.865477  0.874732  1
  Pt  Pt9  1  0.999262  0.135963  0.126283  1
  Pt  Pt10  1  0.500738  0.135963  0.126283  1
  Pt  Pt11  1  0.999899  0.865477  0.874732  1
  Pt  Pt12  1  0.499888  0.704759  0.374676  1
  Pt  Pt13  1  0.000475  0.293757  0.624290  1
  Pt  Pt14  1  0.499525  0.293757  0.624290  1
  Pt  Pt15  1  0.000112  0.704759  0.374676  1
