# generated using pymatgen
data_Dy4Sn5GeIr7
_symmetry_space_group_name_H-M   'P 1'
_cell_length_a   7.54882118
_cell_length_b   7.54882140
_cell_length_c   7.54882112
_cell_angle_alpha   109.36695867
_cell_angle_beta   109.52337981
_cell_angle_gamma   109.52337569
_symmetry_Int_Tables_number   1
_chemical_formula_structural   Dy4Sn5GeIr7
_chemical_formula_sum   'Dy4 Sn5 Ge1 Ir7'
_cell_volume   331.14213389
_cell_formula_units_Z   1
loop_
 _symmetry_equiv_pos_site_id
 _symmetry_equiv_pos_as_xyz
  1  'x, y, z'
loop_
 _atom_site_type_symbol
 _atom_site_label
 _atom_site_symmetry_multiplicity
 _atom_site_fract_x
 _atom_site_fract_y
 _atom_site_fract_z
 _atom_site_occupancy
  Dy  Dy0  1  0.000000  0.990438  0.528092  1
  Dy  Dy1  1  0.000000  0.528092  0.990438  1
  Dy  Dy2  1  0.462346  0.990438  0.990438  1
  Dy  Dy3  1  0.537654  0.528092  0.528092  1
  Sn  Sn4  1  0.685946  0.700748  0.014801  1
  Sn  Sn5  1  0.314054  0.014801  0.328855  1
  Sn  Sn6  1  0.000000  0.291822  0.291822  1
  Sn  Sn7  1  0.314054  0.328855  0.014801  1
  Sn  Sn8  1  0.685946  0.014801  0.700748  1
  Ge  Ge9  1  0.000000  0.655600  0.655600  1
  Ir  Ir10  1  0.754055  0.246511  0.492456  1
  Ir  Ir11  1  0.754055  0.492456  0.246511  1
  Ir  Ir12  1  0.500000  0.260744  0.760744  1
  Ir  Ir13  1  0.245945  0.492456  0.738401  1
  Ir  Ir14  1  0.245945  0.738401  0.492456  1
  Ir  Ir15  1  0.500000  0.760744  0.260744  1
  Ir  Ir16  1  0.000000  0.965003  0.965003  1
