# generated using pymatgen
data_TbY2Mg3Si2Pd
_symmetry_space_group_name_H-M   'P 1'
_cell_length_a   7.27200590
_cell_length_b   7.27200638
_cell_length_c   4.26134400
_cell_angle_alpha   90.00000000
_cell_angle_beta   90.00000000
_cell_angle_gamma   120.10235935
_symmetry_Int_Tables_number   1
_chemical_formula_structural   TbY2Mg3Si2Pd
_chemical_formula_sum   'Tb1 Y2 Mg3 Si2 Pd1'
_cell_volume   194.95609893
_cell_formula_units_Z   1
loop_
 _symmetry_equiv_pos_site_id
 _symmetry_equiv_pos_as_xyz
  1  'x, y, z'
loop_
 _atom_site_type_symbol
 _atom_site_label
 _atom_site_symmetry_multiplicity
 _atom_site_fract_x
 _atom_site_fract_y
 _atom_site_fract_z
 _atom_site_occupancy
  Tb  Tb0  1  0.417630  0.417630  0.500000  1
  Y  Y1  1  0.999907  0.582026  0.500000  1
  Y  Y2  1  0.582026  0.999907  0.500000  1
  Mg  Mg3  1  0.755741  0.755741  0.000000  1
  Mg  Mg4  1  0.244360  0.999918  0.000000  1
  Mg  Mg5  1  0.999918  0.244360  0.000000  1
  Si  Si6  1  0.666737  0.333390  0.000000  1
  Si  Si7  1  0.333390  0.666737  0.000000  1
  Pd  Pd8  1  0.000290  0.000290  0.500000  1
