# generated using pymatgen
data_Ba6Sr2DyUSe12
_symmetry_space_group_name_H-M   'P 1'
_cell_length_a   8.98126119
_cell_length_b   8.98126040
_cell_length_c   8.98126102
_cell_angle_alpha   90.86197810
_cell_angle_beta   90.86196090
_cell_angle_gamma   90.86196648
_symmetry_Int_Tables_number   1
_chemical_formula_structural   Ba6Sr2DyUSe12
_chemical_formula_sum   'Ba6 Sr2 Dy1 U1 Se12'
_cell_volume   724.20742906
_cell_formula_units_Z   1
loop_
 _symmetry_equiv_pos_site_id
 _symmetry_equiv_pos_as_xyz
  1  'x, y, z'
loop_
 _atom_site_type_symbol
 _atom_site_label
 _atom_site_symmetry_multiplicity
 _atom_site_fract_x
 _atom_site_fract_y
 _atom_site_fract_z
 _atom_site_occupancy
  Ba  Ba0  1  0.870773  0.621858  0.257860  1
  Ba  Ba1  1  0.257860  0.870773  0.621858  1
  Ba  Ba2  1  0.621858  0.257860  0.870773  1
  Ba  Ba3  1  0.742140  0.129227  0.378142  1
  Ba  Ba4  1  0.378142  0.742140  0.129227  1
  Ba  Ba5  1  0.129227  0.378142  0.742140  1
  Sr  Sr6  1  0.254924  0.254924  0.254924  1
  Sr  Sr7  1  0.745076  0.745076  0.745076  1
  Dy  Dy8  1  0.500000  0.500000  0.500000  1
  U  U9  1  0.000000  0.000000  0.000000  1
  Se  Se10  1  0.198083  0.556547  0.413381  1
  Se  Se11  1  0.413381  0.198083  0.556547  1
  Se  Se12  1  0.556547  0.413381  0.198083  1
  Se  Se13  1  0.922938  0.050632  0.705545  1
  Se  Se14  1  0.705545  0.922938  0.050632  1
  Se  Se15  1  0.050632  0.705545  0.922938  1
  Se  Se16  1  0.801917  0.443453  0.586619  1
  Se  Se17  1  0.586619  0.801917  0.443453  1
  Se  Se18  1  0.443453  0.586619  0.801917  1
  Se  Se19  1  0.077062  0.949368  0.294455  1
  Se  Se20  1  0.294455  0.077062  0.949368  1
  Se  Se21  1  0.949368  0.294455  0.077062  1
