# generated using pymatgen
data_Li2La5NdAu10
_symmetry_space_group_name_H-M   'P 1'
_cell_length_a   8.20318700
_cell_length_b   8.22521741
_cell_length_c   8.20361700
_cell_angle_alpha   65.98208221
_cell_angle_beta   66.13679645
_cell_angle_gamma   66.03369314
_symmetry_Int_Tables_number   1
_chemical_formula_structural   Li2La5NdAu10
_chemical_formula_sum   'Li2 La5 Nd1 Au10'
_cell_volume   442.62515953
_cell_formula_units_Z   1
loop_
 _symmetry_equiv_pos_site_id
 _symmetry_equiv_pos_as_xyz
  1  'x, y, z'
loop_
 _atom_site_type_symbol
 _atom_site_label
 _atom_site_symmetry_multiplicity
 _atom_site_fract_x
 _atom_site_fract_y
 _atom_site_fract_z
 _atom_site_occupancy
  Li  Li0  1  0.655303  0.654355  0.655834  1
  Li  Li1  1  0.346240  0.345176  0.343922  1
  La  La2  1  0.889467  0.194317  0.622293  1
  La  La3  1  0.623466  0.889475  0.194085  1
  La  La4  1  0.193803  0.621680  0.891351  1
  La  La5  1  0.109795  0.804897  0.377394  1
  La  La6  1  0.377254  0.110359  0.804928  1
  Nd  Nd7  1  0.805678  0.378194  0.109432  1
  Au  Au8  1  0.997689  0.004366  0.001049  1
  Au  Au9  1  0.501839  0.499486  0.497360  1
  Au  Au10  1  0.795594  0.794259  0.797394  1
  Au  Au11  1  0.201659  0.205024  0.203085  1
  Au  Au12  1  0.942578  0.548369  0.318556  1
  Au  Au13  1  0.319767  0.942786  0.549538  1
  Au  Au14  1  0.551272  0.319387  0.944915  1
  Au  Au15  1  0.054532  0.449610  0.683421  1
  Au  Au16  1  0.682013  0.059563  0.447887  1
  Au  Au17  1  0.452049  0.678697  0.057556  1
