# generated using pymatgen
data_Be2Nb2SiRu5
_symmetry_space_group_name_H-M   'P 1'
_cell_length_a   9.32881800
_cell_length_b   9.32881800
_cell_length_c   3.04225200
_cell_angle_alpha   90.00000000
_cell_angle_beta   90.00000000
_cell_angle_gamma   90.00000000
_symmetry_Int_Tables_number   1
_chemical_formula_structural   Be2Nb2SiRu5
_chemical_formula_sum   'Be4 Nb4 Si2 Ru10'
_cell_volume   264.75759410
_cell_formula_units_Z   2
loop_
 _symmetry_equiv_pos_site_id
 _symmetry_equiv_pos_as_xyz
  1  'x, y, z'
loop_
 _atom_site_type_symbol
 _atom_site_label
 _atom_site_symmetry_multiplicity
 _atom_site_fract_x
 _atom_site_fract_y
 _atom_site_fract_z
 _atom_site_occupancy
  Be  Be0  1  0.625673  0.874327  0.000000  1
  Be  Be1  1  0.374327  0.125673  0.000000  1
  Be  Be2  1  0.125673  0.625673  0.000000  1
  Be  Be3  1  0.874327  0.374327  0.000000  1
  Nb  Nb4  1  0.827220  0.672780  0.000000  1
  Nb  Nb5  1  0.172780  0.327220  0.000000  1
  Nb  Nb6  1  0.327220  0.827220  0.000000  1
  Nb  Nb7  1  0.672780  0.172780  0.000000  1
  Si  Si8  1  0.500000  0.500000  0.000000  1
  Si  Si9  1  0.000000  0.000000  0.000000  1
  Ru  Ru10  1  0.565376  0.703747  0.500000  1
  Ru  Ru11  1  0.434624  0.296253  0.500000  1
  Ru  Ru12  1  0.065376  0.796253  0.500000  1
  Ru  Ru13  1  0.934624  0.203747  0.500000  1
  Ru  Ru14  1  0.296253  0.565376  0.500000  1
  Ru  Ru15  1  0.703747  0.434624  0.500000  1
  Ru  Ru16  1  0.203747  0.065376  0.500000  1
  Ru  Ru17  1  0.796253  0.934624  0.500000  1
  Ru  Ru18  1  0.500000  0.000000  0.500000  1
  Ru  Ru19  1  0.000000  0.500000  0.500000  1
