# generated using pymatgen
data_Dy3Ga4Co7(NiB)2
_symmetry_space_group_name_H-M   'P 1'
_cell_length_a   5.18657700
_cell_length_b   5.19750251
_cell_length_c   10.40418500
_cell_angle_alpha   90.00000000
_cell_angle_beta   90.00000000
_cell_angle_gamma   119.93048210
_symmetry_Int_Tables_number   1
_chemical_formula_structural   Dy3Ga4Co7(NiB)2
_chemical_formula_sum   'Dy3 Ga4 Co7 Ni2 B2'
_cell_volume   243.06254215
_cell_formula_units_Z   1
loop_
 _symmetry_equiv_pos_site_id
 _symmetry_equiv_pos_as_xyz
  1  'x, y, z'
loop_
 _atom_site_type_symbol
 _atom_site_label
 _atom_site_symmetry_multiplicity
 _atom_site_fract_x
 _atom_site_fract_y
 _atom_site_fract_z
 _atom_site_occupancy
  Dy  Dy0  1  0.000000  0.000000  0.000000  1
  Dy  Dy1  1  0.000000  0.000000  0.327477  1
  Dy  Dy2  1  0.000000  0.000000  0.672523  1
  Ga  Ga3  1  0.334879  0.669759  0.315137  1
  Ga  Ga4  1  0.665121  0.330241  0.315137  1
  Ga  Ga5  1  0.665121  0.330241  0.684863  1
  Ga  Ga6  1  0.334879  0.669759  0.684863  1
  Co  Co7  1  0.500000  0.000000  0.500000  1
  Co  Co8  1  0.500000  0.000000  0.129677  1
  Co  Co9  1  0.500000  0.500000  0.130042  1
  Co  Co10  1  0.000000  0.500000  0.130042  1
  Co  Co11  1  0.500000  0.000000  0.870323  1
  Co  Co12  1  0.500000  0.500000  0.869958  1
  Co  Co13  1  0.000000  0.500000  0.869958  1
  Ni  Ni14  1  0.500000  0.500000  0.500000  1
  Ni  Ni15  1  0.000000  0.500000  0.500000  1
  B  B16  1  0.333073  0.666147  0.000000  1
  B  B17  1  0.666927  0.333853  0.000000  1
