# generated using pymatgen
data_Pr10Ga4SnBi
_symmetry_space_group_name_H-M   'P 1'
_cell_length_a   8.19530200
_cell_length_b   8.19530200
_cell_length_c   14.47474400
_cell_angle_alpha   90.00000000
_cell_angle_beta   90.00000000
_cell_angle_gamma   90.00000000
_symmetry_Int_Tables_number   1
_chemical_formula_structural   Pr10Ga4SnBi
_chemical_formula_sum   'Pr20 Ga8 Sn2 Bi2'
_cell_volume   972.16686754
_cell_formula_units_Z   2
loop_
 _symmetry_equiv_pos_site_id
 _symmetry_equiv_pos_as_xyz
  1  'x, y, z'
loop_
 _atom_site_type_symbol
 _atom_site_label
 _atom_site_symmetry_multiplicity
 _atom_site_fract_x
 _atom_site_fract_y
 _atom_site_fract_z
 _atom_site_occupancy
  Pr  Pr0  1  0.830765  0.834721  0.608100  1
  Pr  Pr1  1  0.167092  0.834520  0.105473  1
  Pr  Pr2  1  0.165279  0.830765  0.391900  1
  Pr  Pr3  1  0.000000  0.500000  0.770292  1
  Pr  Pr4  1  0.834721  0.169235  0.391900  1
  Pr  Pr5  1  0.669235  0.665279  0.391900  1
  Pr  Pr6  1  0.665279  0.330765  0.608100  1
  Pr  Pr7  1  0.334721  0.669235  0.608100  1
  Pr  Pr8  1  0.000000  0.500000  0.224677  1
  Pr  Pr9  1  0.665480  0.667092  0.105473  1
  Pr  Pr10  1  0.667092  0.334520  0.894527  1
  Pr  Pr11  1  0.834520  0.832908  0.894527  1
  Pr  Pr12  1  0.330765  0.334721  0.391900  1
  Pr  Pr13  1  0.169235  0.165279  0.608100  1
  Pr  Pr14  1  0.832908  0.165480  0.105473  1
  Pr  Pr15  1  0.332908  0.665480  0.894527  1
  Pr  Pr16  1  0.334520  0.332908  0.105473  1
  Pr  Pr17  1  0.500000  0.000000  0.229708  1
  Pr  Pr18  1  0.165480  0.167092  0.894527  1
  Pr  Pr19  1  0.500000  0.000000  0.775323  1
  Ga  Ga20  1  0.625240  0.374039  0.253845  1
  Ga  Ga21  1  0.125240  0.874039  0.746155  1
  Ga  Ga22  1  0.374039  0.374760  0.746155  1
  Ga  Ga23  1  0.374760  0.625961  0.253845  1
  Ga  Ga24  1  0.874039  0.874760  0.253845  1
  Ga  Ga25  1  0.625961  0.625240  0.746155  1
  Ga  Ga26  1  0.874760  0.125961  0.746155  1
  Ga  Ga27  1  0.125961  0.125240  0.253845  1
  Sn  Sn28  1  0.500000  0.000000  0.001389  1
  Sn  Sn29  1  0.000000  0.500000  0.998611  1
  Bi  Bi30  1  0.000000  0.500000  0.503642  1
  Bi  Bi31  1  0.500000  0.000000  0.496358  1
