# generated using pymatgen
data_Tb2Pu2B3C4
_symmetry_space_group_name_H-M   'P 1'
_cell_length_a   3.48924083
_cell_length_b   3.67427516
_cell_length_c   11.50180638
_cell_angle_alpha   90.28261923
_cell_angle_beta   98.31109116
_cell_angle_gamma   90.00398858
_symmetry_Int_Tables_number   1
_chemical_formula_structural   Tb2Pu2B3C4
_chemical_formula_sum   'Tb2 Pu2 B3 C4'
_cell_volume   145.90766275
_cell_formula_units_Z   1
loop_
 _symmetry_equiv_pos_site_id
 _symmetry_equiv_pos_as_xyz
  1  'x, y, z'
loop_
 _atom_site_type_symbol
 _atom_site_label
 _atom_site_symmetry_multiplicity
 _atom_site_fract_x
 _atom_site_fract_y
 _atom_site_fract_z
 _atom_site_occupancy
  Tb  Tb0  1  0.180165  0.996391  0.351477  1
  Tb  Tb1  1  0.819835  0.003609  0.648523  1
  Pu  Pu2  1  0.574325  0.493394  0.130653  1
  Pu  Pu3  1  0.425675  0.506606  0.869347  1
  B  B4  1  0.000000  0.000000  0.000000  1
  B  B5  1  0.731850  0.498689  0.459403  1
  B  B6  1  0.268150  0.501311  0.540597  1
  C  C7  1  0.072069  0.993588  0.130652  1
  C  C8  1  0.927931  0.006412  0.869348  1
  C  C9  1  0.668260  0.495352  0.324965  1
  C  C10  1  0.331740  0.504648  0.675035  1
