# generated using pymatgen
data_Sc12Ga3Tc2
_symmetry_space_group_name_H-M   'P 1'
_cell_length_a   7.81781127
_cell_length_b   7.81781009
_cell_length_c   7.81781200
_cell_angle_alpha   110.01232696
_cell_angle_beta   110.01230820
_cell_angle_gamma   108.39437168
_symmetry_Int_Tables_number   1
_chemical_formula_structural   Sc12Ga3Tc2
_chemical_formula_sum   'Sc12 Ga3 Tc2'
_cell_volume   367.72129207
_cell_formula_units_Z   1
loop_
 _symmetry_equiv_pos_site_id
 _symmetry_equiv_pos_as_xyz
  1  'x, y, z'
loop_
 _atom_site_type_symbol
 _atom_site_label
 _atom_site_symmetry_multiplicity
 _atom_site_fract_x
 _atom_site_fract_y
 _atom_site_fract_z
 _atom_site_occupancy
  Sc  Sc0  1  0.314893  0.314893  0.629786  1
  Sc  Sc1  1  0.685107  0.685107  0.370214  1
  Sc  Sc2  1  0.314893  0.685107  0.000000  1
  Sc  Sc3  1  0.685107  0.314893  0.000000  1
  Sc  Sc4  1  0.447118  0.191205  0.255913  1
  Sc  Sc5  1  0.552882  0.808795  0.744087  1
  Sc  Sc6  1  0.935292  0.191205  0.744087  1
  Sc  Sc7  1  0.191205  0.935292  0.744087  1
  Sc  Sc8  1  0.064708  0.808795  0.255913  1
  Sc  Sc9  1  0.808795  0.064708  0.255913  1
  Sc  Sc10  1  0.191205  0.447118  0.255913  1
  Sc  Sc11  1  0.808795  0.552882  0.744087  1
  Ga  Ga12  1  0.000000  0.000000  0.000000  1
  Ga  Ga13  1  0.500000  0.000000  0.500000  1
  Ga  Ga14  1  0.000000  0.500000  0.500000  1
  Tc  Tc15  1  0.335105  0.335105  0.000000  1
  Tc  Tc16  1  0.664895  0.664895  0.000000  1
