# generated using pymatgen
data_Th2Al3Cu2Sn
_symmetry_space_group_name_H-M   'P 1'
_cell_length_a   9.36630010
_cell_length_b   9.36629985
_cell_length_c   4.30422100
_cell_angle_alpha   90.00000000
_cell_angle_beta   90.00000000
_cell_angle_gamma   153.84114475
_symmetry_Int_Tables_number   1
_chemical_formula_structural   Th2Al3Cu2Sn
_chemical_formula_sum   'Th2 Al3 Cu2 Sn1'
_cell_volume   166.46877004
_cell_formula_units_Z   1
loop_
 _symmetry_equiv_pos_site_id
 _symmetry_equiv_pos_as_xyz
  1  'x, y, z'
loop_
 _atom_site_type_symbol
 _atom_site_label
 _atom_site_symmetry_multiplicity
 _atom_site_fract_x
 _atom_site_fract_y
 _atom_site_fract_z
 _atom_site_occupancy
  Th  Th0  1  0.891267  0.108733  0.750000  1
  Th  Th1  1  0.107870  0.892130  0.250000  1
  Al  Al2  1  0.249532  0.750468  0.750000  1
  Al  Al3  1  0.749050  0.250950  0.250000  1
  Al  Al4  1  0.544557  0.455443  0.750000  1
  Cu  Cu5  1  0.675476  0.324524  0.750000  1
  Cu  Cu6  1  0.320761  0.679239  0.250000  1
  Sn  Sn7  1  0.461485  0.538515  0.250000  1
