# generated using pymatgen
data_Tb4Nd16Si15Ag
_symmetry_space_group_name_H-M   'P 1'
_cell_length_a   7.70075076
_cell_length_b   7.93855790
_cell_length_c   15.18673462
_cell_angle_alpha   90.26906686
_cell_angle_beta   90.70850276
_cell_angle_gamma   90.25359440
_symmetry_Int_Tables_number   1
_chemical_formula_structural   Tb4Nd16Si15Ag
_chemical_formula_sum   'Tb4 Nd16 Si15 Ag1'
_cell_volume   928.31790556
_cell_formula_units_Z   1
loop_
 _symmetry_equiv_pos_site_id
 _symmetry_equiv_pos_as_xyz
  1  'x, y, z'
loop_
 _atom_site_type_symbol
 _atom_site_label
 _atom_site_symmetry_multiplicity
 _atom_site_fract_x
 _atom_site_fract_y
 _atom_site_fract_z
 _atom_site_occupancy
  Tb  Tb0  1  0.851115  0.511098  0.750026  1
  Tb  Tb1  1  0.350020  0.986289  0.748792  1
  Tb  Tb2  1  0.149484  0.486564  0.249701  1
  Tb  Tb3  1  0.652278  0.013765  0.246881  1
  Nd  Nd4  1  0.678444  0.176111  0.623900  1
  Nd  Nd5  1  0.184995  0.320388  0.877852  1
  Nd  Nd6  1  0.316648  0.819112  0.121525  1
  Nd  Nd7  1  0.824746  0.675218  0.375927  1
  Nd  Nd8  1  0.317671  0.824526  0.379053  1
  Nd  Nd9  1  0.815835  0.680208  0.121904  1
  Nd  Nd10  1  0.683579  0.180150  0.877772  1
  Nd  Nd11  1  0.177604  0.320675  0.623686  1
  Nd  Nd12  1  0.524031  0.678077  0.603028  1
  Nd  Nd13  1  0.030665  0.814822  0.900343  1
  Nd  Nd14  1  0.468060  0.315711  0.099533  1
  Nd  Nd15  1  0.979113  0.187483  0.396697  1
  Nd  Nd16  1  0.468870  0.321219  0.397831  1
  Nd  Nd17  1  0.969067  0.185823  0.099211  1
  Nd  Nd18  1  0.532657  0.685995  0.898556  1
  Nd  Nd19  1  0.027862  0.814243  0.602470  1
  Si  Si20  1  0.138510  0.526572  0.040434  1
  Si  Si21  1  0.359957  0.027280  0.959816  1
  Si  Si22  1  0.854755  0.472471  0.540666  1
  Si  Si23  1  0.344552  0.027041  0.544710  1
  Si  Si24  1  0.861512  0.473563  0.959143  1
  Si  Si25  1  0.638219  0.973111  0.039483  1
  Si  Si26  1  0.143685  0.528805  0.461597  1
  Si  Si27  1  0.477601  0.400743  0.751087  1
  Si  Si28  1  0.976216  0.096878  0.751854  1
  Si  Si29  1  0.522988  0.600903  0.248679  1
  Si  Si30  1  0.024834  0.902714  0.248501  1
  Si  Si31  1  0.737120  0.872890  0.751213  1
  Si  Si32  1  0.236484  0.625818  0.751816  1
  Si  Si33  1  0.265482  0.125191  0.247793  1
  Si  Si34  1  0.762409  0.374910  0.248392  1
  Ag  Ag35  1  0.652931  0.973639  0.460128  1
