# generated using pymatgen
data_PrNd9Si5Hg
_symmetry_space_group_name_H-M   'P 1'
_cell_length_a   7.80203328
_cell_length_b   7.80418743
_cell_length_c   9.06249378
_cell_angle_alpha   115.50214349
_cell_angle_beta   115.44961016
_cell_angle_gamma   90.05188273
_symmetry_Int_Tables_number   1
_chemical_formula_structural   PrNd9Si5Hg
_chemical_formula_sum   'Pr1 Nd9 Si5 Hg1'
_cell_volume   437.85349530
_cell_formula_units_Z   1
loop_
 _symmetry_equiv_pos_site_id
 _symmetry_equiv_pos_as_xyz
  1  'x, y, z'
loop_
 _atom_site_type_symbol
 _atom_site_label
 _atom_site_symmetry_multiplicity
 _atom_site_fract_x
 _atom_site_fract_y
 _atom_site_fract_z
 _atom_site_occupancy
  Pr  Pr0  1  0.530182  0.038085  0.712725  1
  Nd  Nd1  1  0.496867  0.497030  0.993861  1
  Nd  Nd2  1  0.003412  0.003280  0.006613  1
  Nd  Nd3  1  0.969164  0.824335  0.285582  1
  Nd  Nd4  1  0.316306  0.461011  0.285524  1
  Nd  Nd5  1  0.824161  0.316278  0.285701  1
  Nd  Nd6  1  0.461374  0.969385  0.285644  1
  Nd  Nd7  1  0.038582  0.183792  0.714424  1
  Nd  Nd8  1  0.675937  0.530569  0.714344  1
  Nd  Nd9  1  0.183514  0.675749  0.714487  1
  Si  Si10  1  0.249234  0.250439  0.499468  1
  Si  Si11  1  0.615417  0.884399  0.000631  1
  Si  Si12  1  0.384426  0.115390  0.000684  1
  Si  Si13  1  0.885587  0.385493  0.000673  1
  Si  Si14  1  0.115356  0.615392  0.000077  1
  Hg  Hg15  1  0.750479  0.749373  0.499560  1
