# generated using pymatgen
data_Yb3(CePb2)2
_symmetry_space_group_name_H-M   'P 1'
_cell_length_a   8.12305300
_cell_length_b   8.76909800
_cell_length_c   16.59740600
_cell_angle_alpha   90.00000000
_cell_angle_beta   90.00000000
_cell_angle_gamma   90.00000000
_symmetry_Int_Tables_number   1
_chemical_formula_structural   Yb3(CePb2)2
_chemical_formula_sum   'Yb12 Ce8 Pb16'
_cell_volume   1182.26389834
_cell_formula_units_Z   4
loop_
 _symmetry_equiv_pos_site_id
 _symmetry_equiv_pos_as_xyz
  1  'x, y, z'
loop_
 _atom_site_type_symbol
 _atom_site_label
 _atom_site_symmetry_multiplicity
 _atom_site_fract_x
 _atom_site_fract_y
 _atom_site_fract_z
 _atom_site_occupancy
  Yb  Yb0  1  0.499389  0.689171  0.592618  1
  Yb  Yb1  1  0.999389  0.810829  0.907382  1
  Yb  Yb2  1  0.500611  0.310829  0.092618  1
  Yb  Yb3  1  0.000611  0.189171  0.407382  1
  Yb  Yb4  1  0.500611  0.310829  0.407382  1
  Yb  Yb5  1  0.000611  0.189171  0.092618  1
  Yb  Yb6  1  0.499389  0.689171  0.907382  1
  Yb  Yb7  1  0.999389  0.810829  0.592618  1
  Yb  Yb8  1  0.829904  0.510676  0.750000  1
  Yb  Yb9  1  0.329904  0.989324  0.750000  1
  Yb  Yb10  1  0.170096  0.489324  0.250000  1
  Yb  Yb11  1  0.670096  0.010676  0.250000  1
  Ce  Ce12  1  0.669736  0.161217  0.620725  1
  Ce  Ce13  1  0.169736  0.338783  0.879275  1
  Ce  Ce14  1  0.330264  0.838783  0.120725  1
  Ce  Ce15  1  0.830264  0.661217  0.379275  1
  Ce  Ce16  1  0.330264  0.838783  0.379275  1
  Ce  Ce17  1  0.830264  0.661217  0.120725  1
  Ce  Ce18  1  0.669736  0.161217  0.879275  1
  Ce  Ce19  1  0.169736  0.338783  0.620725  1
  Pb  Pb20  1  0.680609  0.963531  0.457088  1
  Pb  Pb21  1  0.180609  0.536469  0.042912  1
  Pb  Pb22  1  0.319391  0.036469  0.957088  1
  Pb  Pb23  1  0.819391  0.463531  0.542912  1
  Pb  Pb24  1  0.319391  0.036469  0.542912  1
  Pb  Pb25  1  0.819391  0.463531  0.957088  1
  Pb  Pb26  1  0.680609  0.963531  0.042912  1
  Pb  Pb27  1  0.180609  0.536469  0.457088  1
  Pb  Pb28  1  0.470795  0.373853  0.750000  1
  Pb  Pb29  1  0.970795  0.126147  0.750000  1
  Pb  Pb30  1  0.529205  0.626147  0.250000  1
  Pb  Pb31  1  0.029205  0.873853  0.250000  1
  Pb  Pb32  1  0.708512  0.864795  0.750000  1
  Pb  Pb33  1  0.208512  0.635205  0.750000  1
  Pb  Pb34  1  0.291488  0.135205  0.250000  1
  Pb  Pb35  1  0.791488  0.364795  0.250000  1
