# generated using pymatgen
data_NaTh3(ReN3)4
_symmetry_space_group_name_H-M   'P 1'
_cell_length_a   5.46990400
_cell_length_b   5.52473811
_cell_length_c   7.81155100
_cell_angle_alpha   90.00000000
_cell_angle_beta   90.00000000
_cell_angle_gamma   90.28451283
_symmetry_Int_Tables_number   1
_chemical_formula_structural   NaTh3(ReN3)4
_chemical_formula_sum   'Na1 Th3 Re4 N12'
_cell_volume   236.06049780
_cell_formula_units_Z   1
loop_
 _symmetry_equiv_pos_site_id
 _symmetry_equiv_pos_as_xyz
  1  'x, y, z'
loop_
 _atom_site_type_symbol
 _atom_site_label
 _atom_site_symmetry_multiplicity
 _atom_site_fract_x
 _atom_site_fract_y
 _atom_site_fract_z
 _atom_site_occupancy
  Na  Na0  1  0.504040  0.531746  0.250000  1
  Th  Th1  1  0.998997  0.033746  0.250000  1
  Th  Th2  1  0.495171  0.461866  0.750000  1
  Th  Th3  1  0.002350  0.961266  0.750000  1
  Re  Re4  1  0.996395  0.501666  0.009816  1
  Re  Re5  1  0.502894  0.998479  0.491635  1
  Re  Re6  1  0.996395  0.501666  0.490184  1
  Re  Re7  1  0.502894  0.998479  0.008365  1
  N  N8  1  0.446413  0.982627  0.250000  1
  N  N9  1  0.059547  0.503447  0.250000  1
  N  N10  1  0.566207  0.021339  0.750000  1
  N  N11  1  0.928089  0.510815  0.750000  1
  N  N12  1  0.797245  0.795911  0.025282  1
  N  N13  1  0.711229  0.287321  0.465320  1
  N  N14  1  0.202619  0.202296  0.530024  1
  N  N15  1  0.289211  0.710899  0.957033  1
  N  N16  1  0.202619  0.202296  0.969976  1
  N  N17  1  0.289211  0.710899  0.542967  1
  N  N18  1  0.797245  0.795911  0.474718  1
  N  N19  1  0.711229  0.287321  0.034680  1
