# generated using pymatgen
data_TbHo2ZrAl17SiRh6
_symmetry_space_group_name_H-M   'P 1'
_cell_length_a   7.53394300
_cell_length_b   7.51915637
_cell_length_c   9.40687800
_cell_angle_alpha   90.00000000
_cell_angle_beta   90.00000000
_cell_angle_gamma   119.49045971
_symmetry_Int_Tables_number   1
_chemical_formula_structural   TbHo2ZrAl17SiRh6
_chemical_formula_sum   'Tb1 Ho2 Zr1 Al17 Si1 Rh6'
_cell_volume   463.84687956
_cell_formula_units_Z   1
loop_
 _symmetry_equiv_pos_site_id
 _symmetry_equiv_pos_as_xyz
  1  'x, y, z'
loop_
 _atom_site_type_symbol
 _atom_site_label
 _atom_site_symmetry_multiplicity
 _atom_site_fract_x
 _atom_site_fract_y
 _atom_site_fract_z
 _atom_site_occupancy
  Tb  Tb0  1  0.324225  0.008178  0.750000  1
  Ho  Ho1  1  0.007564  0.322249  0.750000  1
  Ho  Ho2  1  0.670984  0.996024  0.250000  1
  Zr  Zr3  1  0.994858  0.670667  0.250000  1
  Al  Al4  1  0.121843  0.119714  0.250000  1
  Al  Al5  1  0.000144  0.337649  0.078423  1
  Al  Al6  1  0.999764  0.663071  0.929908  1
  Al  Al7  1  0.999764  0.663071  0.570092  1
  Al  Al8  1  0.331222  0.997533  0.420893  1
  Al  Al9  1  0.000144  0.337649  0.421577  1
  Al  Al10  1  0.662990  0.998434  0.575473  1
  Al  Al11  1  0.662990  0.998434  0.924527  1
  Al  Al12  1  0.331222  0.997533  0.079107  1
  Al  Al13  1  0.337436  0.337768  0.548160  1
  Al  Al14  1  0.671021  0.668388  0.438779  1
  Al  Al15  1  0.671021  0.668388  0.061221  1
  Al  Al16  1  0.337436  0.337768  0.951840  1
  Al  Al17  1  0.333777  0.550046  0.250000  1
  Al  Al18  1  0.666499  0.452339  0.750000  1
  Al  Al19  1  0.554109  0.341621  0.250000  1
  Al  Al20  1  0.448595  0.662081  0.750000  1
  Si  Si21  1  0.867093  0.865651  0.750000  1
  Rh  Rh22  1  0.673628  0.329432  0.000625  1
  Rh  Rh23  1  0.330346  0.674122  0.001313  1
  Rh  Rh24  1  0.330346  0.674122  0.498687  1
  Rh  Rh25  1  0.673628  0.329432  0.499375  1
  Rh  Rh26  1  0.998676  0.999315  0.993934  1
  Rh  Rh27  1  0.998676  0.999315  0.506066  1
