# generated using pymatgen
data_UPa3Ge3AsIr4
_symmetry_space_group_name_H-M   'P 1'
_cell_length_a   4.33949200
_cell_length_b   6.95446153
_cell_length_c   7.65257703
_cell_angle_alpha   90.01594974
_cell_angle_beta   90.00000000
_cell_angle_gamma   90.00000000
_symmetry_Int_Tables_number   1
_chemical_formula_structural   UPa3Ge3AsIr4
_chemical_formula_sum   'U1 Pa3 Ge3 As1 Ir4'
_cell_volume   230.94581371
_cell_formula_units_Z   1
loop_
 _symmetry_equiv_pos_site_id
 _symmetry_equiv_pos_as_xyz
  1  'x, y, z'
loop_
 _atom_site_type_symbol
 _atom_site_label
 _atom_site_symmetry_multiplicity
 _atom_site_fract_x
 _atom_site_fract_y
 _atom_site_fract_z
 _atom_site_occupancy
  U  U0  1  0.750000  0.007444  0.703987  1
  Pa  Pa1  1  0.250000  0.493545  0.200664  1
  Pa  Pa2  1  0.750000  0.507965  0.796617  1
  Pa  Pa3  1  0.250000  0.990368  0.297930  1
  Ge  Ge4  1  0.250000  0.819240  0.912835  1
  Ge  Ge5  1  0.250000  0.318350  0.585748  1
  Ge  Ge6  1  0.750000  0.680787  0.415630  1
  As  As7  1  0.750000  0.190275  0.086920  1
  Ir  Ir8  1  0.750000  0.771503  0.085317  1
  Ir  Ir9  1  0.250000  0.220834  0.911961  1
  Ir  Ir10  1  0.750000  0.271008  0.416098  1
  Ir  Ir11  1  0.250000  0.728680  0.586294  1
