# generated using pymatgen
data_K3Rb3(LuBi2)2
_symmetry_space_group_name_H-M   'P 1'
_cell_length_a   10.32369577
_cell_length_b   10.32369701
_cell_length_c   10.26095800
_cell_angle_alpha   131.13581163
_cell_angle_beta   68.22550659
_cell_angle_gamma   135.63106860
_symmetry_Int_Tables_number   1
_chemical_formula_structural   K3Rb3(LuBi2)2
_chemical_formula_sum   'K3 Rb3 Lu2 Bi4'
_cell_volume   565.62465108
_cell_formula_units_Z   1
loop_
 _symmetry_equiv_pos_site_id
 _symmetry_equiv_pos_as_xyz
  1  'x, y, z'
loop_
 _atom_site_type_symbol
 _atom_site_label
 _atom_site_symmetry_multiplicity
 _atom_site_fract_x
 _atom_site_fract_y
 _atom_site_fract_z
 _atom_site_occupancy
  K  K0  1  0.249898  0.250461  0.997021  1
  K  K1  1  0.746560  0.747123  0.997021  1
  K  K2  1  0.315331  0.787740  0.103070  1
  Rb  Rb3  1  0.182045  0.273970  0.456016  1
  Rb  Rb4  1  0.818995  0.724353  0.543349  1
  Rb  Rb5  1  0.681743  0.231528  0.913271  1
  Lu  Lu6  1  0.750915  0.246993  0.498291  1
  Lu  Lu7  1  0.251298  0.747375  0.498290  1
  Bi  Bi8  1  0.900519  0.297783  0.198300  1
  Bi  Bi9  1  0.600889  0.799436  0.400325  1
  Bi  Bi10  1  0.400544  0.192673  0.593217  1
  Bi  Bi11  1  0.101263  0.700561  0.801826  1
