# generated using pymatgen
data_RbSb2(RhO3)4
_symmetry_space_group_name_H-M   'P 1'
_cell_length_a   8.63827228
_cell_length_b   8.63827173
_cell_length_c   8.63827100
_cell_angle_alpha   106.41468452
_cell_angle_beta   106.41468346
_cell_angle_gamma   115.77418503
_symmetry_Int_Tables_number   1
_chemical_formula_structural   RbSb2(RhO3)4
_chemical_formula_sum   'Rb2 Sb4 Rh8 O24'
_cell_volume   491.64988757
_cell_formula_units_Z   2
loop_
 _symmetry_equiv_pos_site_id
 _symmetry_equiv_pos_as_xyz
  1  'x, y, z'
loop_
 _atom_site_type_symbol
 _atom_site_label
 _atom_site_symmetry_multiplicity
 _atom_site_fract_x
 _atom_site_fract_y
 _atom_site_fract_z
 _atom_site_occupancy
  Rb  Rb0  1  0.207615  0.207631  0.999997  1
  Rb  Rb1  1  0.792385  0.792369  0.000003  1
  Sb  Sb2  1  0.647772  0.165369  0.813119  1
  Sb  Sb3  1  0.352228  0.834631  0.186881  1
  Sb  Sb4  1  0.834612  0.647694  0.482347  1
  Sb  Sb5  1  0.165388  0.352306  0.517653  1
  Rh  Rh6  1  0.985061  0.500827  0.819591  1
  Rh  Rh7  1  0.681209  0.165432  0.180410  1
  Rh  Rh8  1  0.165578  0.985029  0.484235  1
  Rh  Rh9  1  0.500826  0.681383  0.515792  1
  Rh  Rh10  1  0.014939  0.499173  0.180409  1
  Rh  Rh11  1  0.318791  0.834568  0.819590  1
  Rh  Rh12  1  0.834422  0.014971  0.515765  1
  Rh  Rh13  1  0.499174  0.318617  0.484208  1
  O  O14  1  0.845760  0.200615  0.046419  1
  O  O15  1  0.154240  0.799385  0.953581  1
  O  O16  1  0.799368  0.845821  0.645178  1
  O  O17  1  0.200632  0.154179  0.354822  1
  O  O18  1  0.179874  0.534908  0.047843  1
  O  O19  1  0.487067  0.132008  0.952185  1
  O  O20  1  0.132113  0.180025  0.645093  1
  O  O21  1  0.534924  0.487024  0.354933  1
  O  O22  1  0.820126  0.465092  0.952157  1
  O  O23  1  0.512933  0.867992  0.047815  1
  O  O24  1  0.867887  0.819975  0.354907  1
  O  O25  1  0.465076  0.512976  0.645067  1
  O  O26  1  0.456071  0.166921  0.622979  1
  O  O27  1  0.543929  0.833079  0.377021  1
  O  O28  1  0.833169  0.456209  0.289436  1
  O  O29  1  0.166831  0.543791  0.710564  1
  O  O30  1  0.792404  0.497771  0.620957  1
  O  O31  1  0.876810  0.171467  0.378997  1
  O  O32  1  0.171419  0.792401  0.294703  1
  O  O33  1  0.497680  0.876700  0.705290  1
  O  O34  1  0.207596  0.502229  0.379043  1
  O  O35  1  0.123190  0.828533  0.621003  1
  O  O36  1  0.828581  0.207599  0.705297  1
  O  O37  1  0.502320  0.123300  0.294710  1
