# generated using pymatgen
data_Pr4Dy3HoAu4
_symmetry_space_group_name_H-M   'P 1'
_cell_length_a   5.04241000
_cell_length_b   7.30550624
_cell_length_c   9.12441405
_cell_angle_alpha   90.02739479
_cell_angle_beta   90.00000000
_cell_angle_gamma   90.00000000
_symmetry_Int_Tables_number   1
_chemical_formula_structural   Pr4Dy3HoAu4
_chemical_formula_sum   'Pr4 Dy3 Ho1 Au4'
_cell_volume   336.11926590
_cell_formula_units_Z   1
loop_
 _symmetry_equiv_pos_site_id
 _symmetry_equiv_pos_as_xyz
  1  'x, y, z'
loop_
 _atom_site_type_symbol
 _atom_site_label
 _atom_site_symmetry_multiplicity
 _atom_site_fract_x
 _atom_site_fract_y
 _atom_site_fract_z
 _atom_site_occupancy
  Pr  Pr0  1  0.250000  0.488493  0.176842  1
  Pr  Pr1  1  0.750000  0.512297  0.822912  1
  Pr  Pr2  1  0.250000  0.988091  0.322894  1
  Pr  Pr3  1  0.750000  0.011598  0.677075  1
  Dy  Dy4  1  0.750000  0.647644  0.418105  1
  Dy  Dy5  1  0.250000  0.352382  0.581893  1
  Dy  Dy6  1  0.750000  0.147682  0.081420  1
  Ho  Ho7  1  0.250000  0.852475  0.918433  1
  Au  Au8  1  0.250000  0.246620  0.900862  1
  Au  Au9  1  0.750000  0.752554  0.098595  1
  Au  Au10  1  0.250000  0.747981  0.600249  1
  Au  Au11  1  0.750000  0.252184  0.400721  1
