# generated using pymatgen
data_YbY19Cd6NiOs
_symmetry_space_group_name_H-M   'P 1'
_cell_length_a   9.65697800
_cell_length_b   9.65697813
_cell_length_c   9.82308400
_cell_angle_alpha   90.00000000
_cell_angle_beta   90.00000000
_cell_angle_gamma   119.99999270
_symmetry_Int_Tables_number   1
_chemical_formula_structural   YbY19Cd6NiOs
_chemical_formula_sum   'Yb1 Y19 Cd6 Ni1 Os1'
_cell_volume   793.34303154
_cell_formula_units_Z   1
loop_
 _symmetry_equiv_pos_site_id
 _symmetry_equiv_pos_as_xyz
  1  'x, y, z'
loop_
 _atom_site_type_symbol
 _atom_site_label
 _atom_site_symmetry_multiplicity
 _atom_site_fract_x
 _atom_site_fract_y
 _atom_site_fract_z
 _atom_site_occupancy
  Yb  Yb0  1  0.000000  0.000000  0.500016  1
  Y  Y1  1  0.000000  0.000000  0.000179  1
  Y  Y2  1  0.540672  0.459328  0.250420  1
  Y  Y3  1  0.540672  0.081343  0.250420  1
  Y  Y4  1  0.918657  0.459328  0.250420  1
  Y  Y5  1  0.457057  0.542943  0.749382  1
  Y  Y6  1  0.457057  0.914115  0.749382  1
  Y  Y7  1  0.085885  0.542943  0.749382  1
  Y  Y8  1  0.209510  0.790490  0.439530  1
  Y  Y9  1  0.209510  0.419020  0.439530  1
  Y  Y10  1  0.580980  0.790490  0.439530  1
  Y  Y11  1  0.788782  0.211218  0.563273  1
  Y  Y12  1  0.788782  0.577564  0.563273  1
  Y  Y13  1  0.422436  0.211218  0.563273  1
  Y  Y14  1  0.789017  0.210983  0.937564  1
  Y  Y15  1  0.789017  0.578033  0.937564  1
  Y  Y16  1  0.421967  0.210983  0.937564  1
  Y  Y17  1  0.209450  0.790550  0.059522  1
  Y  Y18  1  0.209450  0.418901  0.059522  1
  Y  Y19  1  0.581099  0.790550  0.059522  1
  Cd  Cd20  1  0.884908  0.115092  0.250141  1
  Cd  Cd21  1  0.884908  0.769816  0.250141  1
  Cd  Cd22  1  0.230184  0.115092  0.250141  1
  Cd  Cd23  1  0.115093  0.884907  0.749884  1
  Cd  Cd24  1  0.115093  0.230186  0.749884  1
  Cd  Cd25  1  0.769814  0.884907  0.749884  1
  Ni  Ni26  1  0.666667  0.333333  0.749563  1
  Os  Os27  1  0.333333  0.666667  0.251093  1
