# generated using pymatgen
data_CoTcNi7S8
_symmetry_space_group_name_H-M   'P 1'
_cell_length_a   7.05891041
_cell_length_b   7.05890906
_cell_length_c   7.05890942
_cell_angle_alpha   59.63340355
_cell_angle_beta   59.63340641
_cell_angle_gamma   59.63340159
_symmetry_Int_Tables_number   1
_chemical_formula_structural   CoTcNi7S8
_chemical_formula_sum   'Co1 Tc1 Ni7 S8'
_cell_volume   246.64072026
_cell_formula_units_Z   1
loop_
 _symmetry_equiv_pos_site_id
 _symmetry_equiv_pos_as_xyz
  1  'x, y, z'
loop_
 _atom_site_type_symbol
 _atom_site_label
 _atom_site_symmetry_multiplicity
 _atom_site_fract_x
 _atom_site_fract_y
 _atom_site_fract_z
 _atom_site_occupancy
  Co  Co0  1  0.875884  0.875884  0.875884  1
  Tc  Tc1  1  0.498933  0.498933  0.498933  1
  Ni  Ni2  1  0.621919  0.126367  0.126367  1
  Ni  Ni3  1  0.126367  0.621919  0.126367  1
  Ni  Ni4  1  0.126367  0.126367  0.621919  1
  Ni  Ni5  1  0.125978  0.125978  0.125978  1
  Ni  Ni6  1  0.379940  0.872912  0.872912  1
  Ni  Ni7  1  0.872912  0.379940  0.872912  1
  Ni  Ni8  1  0.872912  0.872912  0.379940  1
  S  S9  1  0.249608  0.249608  0.249608  1
  S  S10  1  0.754237  0.754237  0.754237  1
  S  S11  1  0.737826  0.260965  0.260965  1
  S  S12  1  0.739210  0.256768  0.739210  1
  S  S13  1  0.739210  0.739210  0.256768  1
  S  S14  1  0.256768  0.739210  0.739210  1
  S  S15  1  0.260965  0.737826  0.260965  1
  S  S16  1  0.260965  0.260965  0.737826  1
