# generated using pymatgen
data_V10GaB4S
_symmetry_space_group_name_H-M   'P 1'
_cell_length_a   6.74145700
_cell_length_b   6.74145735
_cell_length_c   6.74145687
_cell_angle_alpha   129.31733451
_cell_angle_beta   129.31734097
_cell_angle_gamma   74.50050162
_symmetry_Int_Tables_number   1
_chemical_formula_structural   V10GaB4S
_chemical_formula_sum   'V10 Ga1 B4 S1'
_cell_volume   178.70705838
_cell_formula_units_Z   1
loop_
 _symmetry_equiv_pos_site_id
 _symmetry_equiv_pos_as_xyz
  1  'x, y, z'
loop_
 _atom_site_type_symbol
 _atom_site_label
 _atom_site_symmetry_multiplicity
 _atom_site_fract_x
 _atom_site_fract_y
 _atom_site_fract_z
 _atom_site_occupancy
  V  V0  1  0.524686  0.687949  0.487753  1
  V  V1  1  0.036934  0.524686  0.836737  1
  V  V2  1  0.687949  0.200197  0.163263  1
  V  V3  1  0.975314  0.463066  0.163263  1
  V  V4  1  0.200197  0.036934  0.512247  1
  V  V5  1  0.463066  0.299803  0.487753  1
  V  V6  1  0.812051  0.975314  0.512247  1
  V  V7  1  0.299803  0.812051  0.836737  1
  V  V8  1  0.998369  0.998369  0.000000  1
  V  V9  1  0.501631  0.501631  0.000000  1
  Ga  Ga10  1  0.750000  0.750000  0.000000  1
  B  B11  1  0.615520  0.115520  0.731041  1
  B  B12  1  0.115520  0.384480  0.500000  1
  B  B13  1  0.884480  0.615520  0.500000  1
  B  B14  1  0.384480  0.884480  0.268959  1
  S  S15  1  0.250000  0.250000  0.000000  1
