# generated using pymatgen
data_Ho2TmHfIn2Ir3
_symmetry_space_group_name_H-M   'P 1'
_cell_length_a   7.43506901
_cell_length_b   7.21858146
_cell_length_c   4.13454600
_cell_angle_alpha   90.00000000
_cell_angle_beta   90.00000000
_cell_angle_gamma   119.00197423
_symmetry_Int_Tables_number   1
_chemical_formula_structural   Ho2TmHfIn2Ir3
_chemical_formula_sum   'Ho2 Tm1 Hf1 In2 Ir3'
_cell_volume   194.07770927
_cell_formula_units_Z   1
loop_
 _symmetry_equiv_pos_site_id
 _symmetry_equiv_pos_as_xyz
  1  'x, y, z'
loop_
 _atom_site_type_symbol
 _atom_site_label
 _atom_site_symmetry_multiplicity
 _atom_site_fract_x
 _atom_site_fract_y
 _atom_site_fract_z
 _atom_site_occupancy
  Ho  Ho0  1  0.415320  0.003914  0.000000  1
  Ho  Ho1  1  0.000064  0.394443  0.000000  1
  Tm  Tm2  1  0.585349  0.588796  0.000000  1
  Hf  Hf3  1  0.999567  0.751466  0.500000  1
  In  In4  1  0.256545  0.255077  0.500000  1
  In  In5  1  0.743690  0.998175  0.500000  1
  Ir  Ir6  1  0.999399  0.978999  0.000000  1
  Ir  Ir7  1  0.681212  0.355687  0.500000  1
  Ir  Ir8  1  0.318853  0.673445  0.500000  1
