# generated using pymatgen
data_Zr10Hg3Bi3B2
_symmetry_space_group_name_H-M   'P 1'
_cell_length_a   8.66907300
_cell_length_b   8.66907373
_cell_length_c   5.85062400
_cell_angle_alpha   90.00000000
_cell_angle_beta   90.00000000
_cell_angle_gamma   120.00000103
_symmetry_Int_Tables_number   1
_chemical_formula_structural   Zr10Hg3Bi3B2
_chemical_formula_sum   'Zr10 Hg3 Bi3 B2'
_cell_volume   380.78354457
_cell_formula_units_Z   1
loop_
 _symmetry_equiv_pos_site_id
 _symmetry_equiv_pos_as_xyz
  1  'x, y, z'
loop_
 _atom_site_type_symbol
 _atom_site_label
 _atom_site_symmetry_multiplicity
 _atom_site_fract_x
 _atom_site_fract_y
 _atom_site_fract_z
 _atom_site_occupancy
  Zr  Zr0  1  0.666667  0.333333  0.007699  1
  Zr  Zr1  1  0.333333  0.666667  0.007699  1
  Zr  Zr2  1  0.333333  0.666667  0.492301  1
  Zr  Zr3  1  0.666667  0.333333  0.492301  1
  Zr  Zr4  1  0.775906  0.775906  0.750000  1
  Zr  Zr5  1  0.224094  0.000000  0.750000  1
  Zr  Zr6  1  0.000000  0.224094  0.750000  1
  Zr  Zr7  1  0.225641  0.225641  0.250000  1
  Zr  Zr8  1  0.774359  0.000000  0.250000  1
  Zr  Zr9  1  0.000000  0.774359  0.250000  1
  Hg  Hg10  1  0.605662  0.605662  0.250000  1
  Hg  Hg11  1  0.394338  0.000000  0.250000  1
  Hg  Hg12  1  0.000000  0.394338  0.250000  1
  Bi  Bi13  1  0.398612  0.398612  0.750000  1
  Bi  Bi14  1  0.601388  0.000000  0.750000  1
  Bi  Bi15  1  0.000000  0.601388  0.750000  1
  B  B16  1  0.000000  0.000000  0.002165  1
  B  B17  1  0.000000  0.000000  0.497835  1
