# generated using pymatgen
data_HoTm5(AlAu)6
_symmetry_space_group_name_H-M   'P 1'
_cell_length_a   7.34270365
_cell_length_b   7.34073769
_cell_length_c   7.94158700
_cell_angle_alpha   90.00000000
_cell_angle_beta   90.00000000
_cell_angle_gamma   120.08249631
_symmetry_Int_Tables_number   1
_chemical_formula_structural   HoTm5(AlAu)6
_chemical_formula_sum   'Ho1 Tm5 Al6 Au6'
_cell_volume   370.40088111
_cell_formula_units_Z   1
loop_
 _symmetry_equiv_pos_site_id
 _symmetry_equiv_pos_as_xyz
  1  'x, y, z'
loop_
 _atom_site_type_symbol
 _atom_site_label
 _atom_site_symmetry_multiplicity
 _atom_site_fract_x
 _atom_site_fract_y
 _atom_site_fract_z
 _atom_site_occupancy
  Ho  Ho0  1  0.414371  0.412156  0.250000  1
  Tm  Tm1  1  0.586341  0.997807  0.750000  1
  Tm  Tm2  1  0.002346  0.588608  0.750000  1
  Tm  Tm3  1  0.411415  0.413644  0.750000  1
  Tm  Tm4  1  0.998041  0.586463  0.250000  1
  Tm  Tm5  1  0.588635  0.002471  0.250000  1
  Al  Al6  1  0.752316  0.752291  0.999272  1
  Al  Al7  1  0.247620  0.999825  0.999742  1
  Al  Al8  1  0.999849  0.247576  0.999666  1
  Al  Al9  1  0.752316  0.752291  0.500728  1
  Al  Al10  1  0.247620  0.999825  0.500258  1
  Al  Al11  1  0.999849  0.247576  0.500334  1
  Au  Au12  1  0.999530  0.999459  0.750000  1
  Au  Au13  1  0.998454  0.998742  0.250000  1
  Au  Au14  1  0.667643  0.333329  0.995801  1
  Au  Au15  1  0.667643  0.333329  0.504199  1
  Au  Au16  1  0.333006  0.667304  0.497758  1
  Au  Au17  1  0.333006  0.667304  0.002242  1
