# generated using pymatgen
data_TaNb5Si6(MoRu2)2
_symmetry_space_group_name_H-M   'P 1'
_cell_length_a   7.53612425
_cell_length_b   7.52533977
_cell_length_c   7.53612496
_cell_angle_alpha   126.79201115
_cell_angle_beta   124.22200162
_cell_angle_gamma   80.75329133
_symmetry_Int_Tables_number   1
_chemical_formula_structural   TaNb5Si6(MoRu2)2
_chemical_formula_sum   'Ta1 Nb5 Si6 Mo2 Ru4'
_cell_volume   272.80507598
_cell_formula_units_Z   1
loop_
 _symmetry_equiv_pos_site_id
 _symmetry_equiv_pos_as_xyz
  1  'x, y, z'
loop_
 _atom_site_type_symbol
 _atom_site_label
 _atom_site_symmetry_multiplicity
 _atom_site_fract_x
 _atom_site_fract_y
 _atom_site_fract_z
 _atom_site_occupancy
  Ta  Ta0  1  0.558302  0.094725  0.036423  1
  Nb  Nb1  1  0.441604  0.477138  0.535534  1
  Nb  Nb2  1  0.961347  0.491505  0.030157  1
  Nb  Nb3  1  0.038619  0.068230  0.529612  1
  Nb  Nb4  1  0.752160  0.919902  0.667742  1
  Nb  Nb5  1  0.247348  0.915225  0.167877  1
  Si  Si6  1  0.780132  0.552170  0.272038  1
  Si  Si7  1  0.220490  0.491843  0.771353  1
  Si  Si8  1  0.334441  0.817899  0.492346  1
  Si  Si9  1  0.665703  0.158063  0.484102  1
  Si  Si10  1  0.825553  0.817899  0.983457  1
  Si  Si11  1  0.173961  0.158063  0.992361  1
  Mo  Mo12  1  0.500779  0.249401  0.750321  1
  Mo  Mo13  1  0.999079  0.249401  0.248622  1
  Ru  Ru14  1  0.162750  0.748069  0.657008  1
  Ru  Ru15  1  0.837734  0.492299  0.583361  1
  Ru  Ru16  1  0.591060  0.748069  0.085319  1
  Ru  Ru17  1  0.408937  0.492299  0.154565  1
