# generated using pymatgen
data_Cs4Ce(EuI4)3
_symmetry_space_group_name_H-M   'P 1'
_cell_length_a   4.93373100
_cell_length_b   10.82721651
_cell_length_c   18.35592000
_cell_angle_alpha   90.20232821
_cell_angle_beta   90.00000000
_cell_angle_gamma   90.00000000
_symmetry_Int_Tables_number   1
_chemical_formula_structural   Cs4Ce(EuI4)3
_chemical_formula_sum   'Cs4 Ce1 Eu3 I12'
_cell_volume   980.54095215
_cell_formula_units_Z   1
loop_
 _symmetry_equiv_pos_site_id
 _symmetry_equiv_pos_as_xyz
  1  'x, y, z'
loop_
 _atom_site_type_symbol
 _atom_site_label
 _atom_site_symmetry_multiplicity
 _atom_site_fract_x
 _atom_site_fract_y
 _atom_site_fract_z
 _atom_site_occupancy
  Cs  Cs0  1  0.750000  0.579573  0.173238  1
  Cs  Cs1  1  0.250000  0.417465  0.827470  1
  Cs  Cs2  1  0.750000  0.080130  0.326670  1
  Cs  Cs3  1  0.250000  0.922764  0.672526  1
  Ce  Ce4  1  0.750000  0.839422  0.942116  1
  Eu  Eu5  1  0.250000  0.662640  0.441217  1
  Eu  Eu6  1  0.750000  0.338344  0.558344  1
  Eu  Eu7  1  0.250000  0.161351  0.058280  1
  I  I8  1  0.750000  0.832676  0.503380  1
  I  I9  1  0.250000  0.167223  0.497267  1
  I  I10  1  0.750000  0.332604  0.997487  1
  I  I11  1  0.250000  0.665597  0.001075  1
  I  I12  1  0.250000  0.528940  0.604739  1
  I  I13  1  0.750000  0.471640  0.395911  1
  I  I14  1  0.250000  0.027601  0.894767  1
  I  I15  1  0.750000  0.971312  0.105133  1
  I  I16  1  0.250000  0.795727  0.286818  1
  I  I17  1  0.750000  0.204544  0.713187  1
  I  I18  1  0.250000  0.296535  0.213007  1
  I  I19  1  0.750000  0.703913  0.787369  1
