# generated using pymatgen
data_Pr3Th(B10Rh)2
_symmetry_space_group_name_H-M   'P 1'
_cell_length_a   4.21956100
_cell_length_b   5.75022597
_cell_length_c   11.47796398
_cell_angle_alpha   90.02196615
_cell_angle_beta   90.00000000
_cell_angle_gamma   90.00000000
_symmetry_Int_Tables_number   1
_chemical_formula_structural   Pr3Th(B10Rh)2
_chemical_formula_sum   'Pr3 Th1 B20 Rh2'
_cell_volume   278.49474626
_cell_formula_units_Z   1
loop_
 _symmetry_equiv_pos_site_id
 _symmetry_equiv_pos_as_xyz
  1  'x, y, z'
loop_
 _atom_site_type_symbol
 _atom_site_label
 _atom_site_symmetry_multiplicity
 _atom_site_fract_x
 _atom_site_fract_y
 _atom_site_fract_z
 _atom_site_occupancy
  Pr  Pr0  1  0.500000  0.295738  0.865252  1
  Pr  Pr1  1  0.500000  0.704619  0.134392  1
  Pr  Pr2  1  0.500000  0.797800  0.637021  1
  Th  Th3  1  0.500000  0.204197  0.364508  1
  B  B4  1  0.000000  0.118317  0.542631  1
  B  B5  1  0.000000  0.881050  0.456668  1
  B  B6  1  0.000000  0.618400  0.956530  1
  B  B7  1  0.000000  0.381274  0.043952  1
  B  B8  1  0.000000  0.138577  0.697049  1
  B  B9  1  0.000000  0.863698  0.303367  1
  B  B10  1  0.300224  0.217542  0.119074  1
  B  B11  1  0.299892  0.782217  0.881884  1
  B  B12  1  0.699431  0.717289  0.380835  1
  B  B13  1  0.699400  0.281207  0.617817  1
  B  B14  1  0.700108  0.782217  0.881884  1
  B  B15  1  0.699776  0.217542  0.119074  1
  B  B16  1  0.300600  0.281207  0.617817  1
  B  B17  1  0.300569  0.717289  0.380835  1
  B  B18  1  0.000000  0.056902  0.193582  1
  B  B19  1  0.000000  0.944404  0.807423  1
  B  B20  1  0.000000  0.555303  0.307296  1
  B  B21  1  0.000000  0.445153  0.691926  1
  B  B22  1  0.000000  0.361925  0.197639  1
  B  B23  1  0.000000  0.638439  0.802531  1
  Rh  Rh24  1  0.000000  0.497533  0.498844  1
  Rh  Rh25  1  0.000000  0.000163  0.000167  1
