# generated using pymatgen
data_RbSnAsRh2
_symmetry_space_group_name_H-M   'P 1'
_cell_length_a   8.17890393
_cell_length_b   8.17890382
_cell_length_c   8.17890381
_cell_angle_alpha   150.80992907
_cell_angle_beta   150.80993066
_cell_angle_gamma   41.75379813
_symmetry_Int_Tables_number   1
_chemical_formula_structural   RbSnAsRh2
_chemical_formula_sum   'Rb1 Sn1 As1 Rh2'
_cell_volume   129.83900323
_cell_formula_units_Z   1
loop_
 _symmetry_equiv_pos_site_id
 _symmetry_equiv_pos_as_xyz
  1  'x, y, z'
loop_
 _atom_site_type_symbol
 _atom_site_label
 _atom_site_symmetry_multiplicity
 _atom_site_fract_x
 _atom_site_fract_y
 _atom_site_fract_z
 _atom_site_occupancy
  Rb  Rb0  1  0.015395  0.015395  0.000000  1
  Sn  Sn1  1  0.349588  0.349588  0.000000  1
  As  As2  1  0.656629  0.656629  0.000000  1
  Rh  Rh3  1  0.739194  0.239194  0.500000  1
  Rh  Rh4  1  0.239194  0.739194  0.500000  1
