# generated using pymatgen
data_CsLaDy2CBr6
_symmetry_space_group_name_H-M   'P 1'
_cell_length_a   8.98644484
_cell_length_b   9.01188876
_cell_length_c   9.59089556
_cell_angle_alpha   71.05415248
_cell_angle_beta   84.90524618
_cell_angle_gamma   89.24224998
_symmetry_Int_Tables_number   1
_chemical_formula_structural   CsLaDy2CBr6
_chemical_formula_sum   'Cs2 La2 Dy4 C2 Br12'
_cell_volume   731.63633840
_cell_formula_units_Z   2
loop_
 _symmetry_equiv_pos_site_id
 _symmetry_equiv_pos_as_xyz
  1  'x, y, z'
loop_
 _atom_site_type_symbol
 _atom_site_label
 _atom_site_symmetry_multiplicity
 _atom_site_fract_x
 _atom_site_fract_y
 _atom_site_fract_z
 _atom_site_occupancy
  Cs  Cs0  1  0.467223  0.360989  0.332266  1
  Cs  Cs1  1  0.532778  0.639011  0.667734  1
  La  La2  1  0.911743  0.730784  0.004390  1
  La  La3  1  0.088257  0.269216  0.995609  1
  Dy  Dy4  1  0.747375  0.083526  0.000595  1
  Dy  Dy5  1  0.252624  0.916474  0.999406  1
  Dy  Dy6  1  0.973291  0.888815  0.320645  1
  Dy  Dy7  1  0.026708  0.111185  0.679356  1
  C  C8  1  0.006454  0.026604  0.921898  1
  C  C9  1  0.993545  0.973396  0.078102  1
  Br  Br10  1  0.073924  0.189003  0.338231  1
  Br  Br11  1  0.926076  0.810997  0.661769  1
  Br  Br12  1  0.222284  0.598278  0.000522  1
  Br  Br13  1  0.777717  0.401722  0.999478  1
  Br  Br14  1  0.412463  0.189990  0.002020  1
  Br  Br15  1  0.587536  0.810011  0.997979  1
  Br  Br16  1  0.671700  0.001120  0.320216  1
  Br  Br17  1  0.328300  0.998880  0.679784  1
  Br  Br18  1  0.274864  0.780208  0.317696  1
  Br  Br19  1  0.725136  0.219792  0.682304  1
  Br  Br20  1  0.850701  0.592911  0.337935  1
  Br  Br21  1  0.149298  0.407089  0.662065  1
