# generated using pymatgen
data_ErHg(Pd2Au)2
_symmetry_space_group_name_H-M   'P 1'
_cell_length_a   6.01761363
_cell_length_b   6.01855575
_cell_length_c   7.87442100
_cell_angle_alpha   90.00063461
_cell_angle_beta   90.00120172
_cell_angle_gamma   89.94530433
_symmetry_Int_Tables_number   1
_chemical_formula_structural   ErHg(Pd2Au)2
_chemical_formula_sum   'Er2 Hg2 Pd8 Au4'
_cell_volume   285.19047691
_cell_formula_units_Z   2
loop_
 _symmetry_equiv_pos_site_id
 _symmetry_equiv_pos_as_xyz
  1  'x, y, z'
loop_
 _atom_site_type_symbol
 _atom_site_label
 _atom_site_symmetry_multiplicity
 _atom_site_fract_x
 _atom_site_fract_y
 _atom_site_fract_z
 _atom_site_occupancy
  Er  Er0  1  0.249768  0.250003  0.999997  1
  Er  Er1  1  0.750232  0.749997  0.000003  1
  Hg  Hg2  1  0.749883  0.750007  0.499987  1
  Hg  Hg3  1  0.250118  0.249993  0.500013  1
  Pd  Pd4  1  0.500099  0.000046  0.249156  1
  Pd  Pd5  1  0.500143  0.500065  0.249391  1
  Pd  Pd6  1  0.000022  0.000069  0.249634  1
  Pd  Pd7  1  0.999959  0.499984  0.249383  1
  Pd  Pd8  1  0.999978  0.999931  0.750366  1
  Pd  Pd9  1  0.000041  0.500016  0.750617  1
  Pd  Pd10  1  0.499901  0.999954  0.750844  1
  Pd  Pd11  1  0.499857  0.499935  0.750609  1
  Au  Au12  1  0.750207  0.250013  0.000022  1
  Au  Au13  1  0.249791  0.749987  0.999978  1
  Au  Au14  1  0.749996  0.250003  0.499962  1
  Au  Au15  1  0.250004  0.749997  0.500039  1
