# generated using pymatgen
data_Y3Cd(Mo2O7)2
_symmetry_space_group_name_H-M   'P 1'
_cell_length_a   7.39717088
_cell_length_b   7.39717109
_cell_length_c   7.39717046
_cell_angle_alpha   59.80862809
_cell_angle_beta   59.80862883
_cell_angle_gamma   59.80862812
_symmetry_Int_Tables_number   1
_chemical_formula_structural   Y3Cd(Mo2O7)2
_chemical_formula_sum   'Y3 Cd1 Mo4 O14'
_cell_volume   284.96480825
_cell_formula_units_Z   1
loop_
 _symmetry_equiv_pos_site_id
 _symmetry_equiv_pos_as_xyz
  1  'x, y, z'
loop_
 _atom_site_type_symbol
 _atom_site_label
 _atom_site_symmetry_multiplicity
 _atom_site_fract_x
 _atom_site_fract_y
 _atom_site_fract_z
 _atom_site_occupancy
  Y  Y0  1  0.625000  0.125000  0.125000  1
  Y  Y1  1  0.125000  0.625000  0.125000  1
  Y  Y2  1  0.125000  0.125000  0.625000  1
  Cd  Cd3  1  0.125000  0.125000  0.125000  1
  Mo  Mo4  1  0.625000  0.625000  0.625000  1
  Mo  Mo5  1  0.125000  0.625000  0.625000  1
  Mo  Mo6  1  0.625000  0.125000  0.625000  1
  Mo  Mo7  1  0.625000  0.625000  0.125000  1
  O  O8  1  0.250195  0.250195  0.250195  1
  O  O9  1  0.999805  0.999805  0.999805  1
  O  O10  1  0.540991  0.952156  0.540991  1
  O  O11  1  0.291610  0.691122  0.291610  1
  O  O12  1  0.540991  0.540991  0.952156  1
  O  O13  1  0.952156  0.540991  0.540991  1
  O  O14  1  0.558878  0.958390  0.958390  1
  O  O15  1  0.958390  0.958390  0.558878  1
  O  O16  1  0.958390  0.558878  0.958390  1
  O  O17  1  0.691122  0.291610  0.291610  1
  O  O18  1  0.297844  0.709009  0.709009  1
  O  O19  1  0.709009  0.709009  0.297844  1
  O  O20  1  0.291610  0.291610  0.691122  1
  O  O21  1  0.709009  0.297844  0.709009  1
