# generated using pymatgen
data_SrAs12PdRu3
_symmetry_space_group_name_H-M   'P 1'
_cell_length_a   7.50267490
_cell_length_b   7.50267370
_cell_length_c   7.50267532
_cell_angle_alpha   109.46356356
_cell_angle_beta   109.46355212
_cell_angle_gamma   109.46356276
_symmetry_Int_Tables_number   1
_chemical_formula_structural   SrAs12PdRu3
_chemical_formula_sum   'Sr1 As12 Pd1 Ru3'
_cell_volume   325.19927890
_cell_formula_units_Z   1
loop_
 _symmetry_equiv_pos_site_id
 _symmetry_equiv_pos_as_xyz
  1  'x, y, z'
loop_
 _atom_site_type_symbol
 _atom_site_label
 _atom_site_symmetry_multiplicity
 _atom_site_fract_x
 _atom_site_fract_y
 _atom_site_fract_z
 _atom_site_occupancy
  Sr  Sr0  1  0.000000  0.000000  0.000000  1
  As  As1  1  0.858020  0.652807  0.500294  1
  As  As2  1  0.141980  0.347193  0.499706  1
  As  As3  1  0.151137  0.652635  0.803142  1
  As  As4  1  0.848863  0.347365  0.196858  1
  As  As5  1  0.652807  0.500294  0.858020  1
  As  As6  1  0.347193  0.499706  0.141980  1
  As  As7  1  0.652635  0.803142  0.151137  1
  As  As8  1  0.347365  0.196858  0.848863  1
  As  As9  1  0.500294  0.858020  0.652807  1
  As  As10  1  0.499706  0.141980  0.347193  1
  As  As11  1  0.196858  0.848863  0.347365  1
  As  As12  1  0.803142  0.151137  0.652635  1
  Pd  Pd13  1  0.500000  0.500000  0.500000  1
  Ru  Ru14  1  0.500000  0.000000  0.000000  1
  Ru  Ru15  1  0.000000  0.500000  0.000000  1
  Ru  Ru16  1  0.000000  0.000000  0.500000  1
