# generated using pymatgen
data_Eu2PuO6
_symmetry_space_group_name_H-M   'P 1'
_cell_length_a   5.60306900
_cell_length_b   5.63483900
_cell_length_c   16.83112700
_cell_angle_alpha   90.00000000
_cell_angle_beta   90.00000000
_cell_angle_gamma   90.00000000
_symmetry_Int_Tables_number   1
_chemical_formula_structural   Eu2PuO6
_chemical_formula_sum   'Eu8 Pu4 O24'
_cell_volume   531.39893475
_cell_formula_units_Z   4
loop_
 _symmetry_equiv_pos_site_id
 _symmetry_equiv_pos_as_xyz
  1  'x, y, z'
loop_
 _atom_site_type_symbol
 _atom_site_label
 _atom_site_symmetry_multiplicity
 _atom_site_fract_x
 _atom_site_fract_y
 _atom_site_fract_z
 _atom_site_occupancy
  Eu  Eu0  1  0.756063  0.253735  0.571578  1
  Eu  Eu1  1  0.243937  0.753735  0.928422  1
  Eu  Eu2  1  0.256063  0.246265  0.428422  1
  Eu  Eu3  1  0.743937  0.746265  0.071578  1
  Eu  Eu4  1  0.743606  0.246028  0.928540  1
  Eu  Eu5  1  0.256394  0.746028  0.571460  1
  Eu  Eu6  1  0.243606  0.253972  0.071460  1
  Eu  Eu7  1  0.756394  0.753972  0.428540  1
  Pu  Pu8  1  0.250025  0.250185  0.750011  1
  Pu  Pu9  1  0.749975  0.750185  0.749989  1
  Pu  Pu10  1  0.750025  0.249815  0.249989  1
  Pu  Pu11  1  0.249975  0.749815  0.250011  1
  O  O12  1  0.003985  0.501853  0.494874  1
  O  O13  1  0.996015  0.001853  0.005126  1
  O  O14  1  0.503985  0.998147  0.505126  1
  O  O15  1  0.496015  0.498147  0.994874  1
  O  O16  1  0.496068  0.998310  0.005068  1
  O  O17  1  0.503932  0.498310  0.494932  1
  O  O18  1  0.996068  0.501690  0.994932  1
  O  O19  1  0.003932  0.001690  0.505068  1
  O  O20  1  0.042451  0.420653  0.299822  1
  O  O21  1  0.957549  0.920653  0.200178  1
  O  O22  1  0.542451  0.079347  0.700178  1
  O  O23  1  0.457549  0.579347  0.799822  1
  O  O24  1  0.457576  0.078860  0.200142  1
  O  O25  1  0.542424  0.578860  0.299858  1
  O  O26  1  0.957576  0.421140  0.799858  1
  O  O27  1  0.042424  0.921140  0.700142  1
  O  O28  1  0.167155  0.385223  0.651312  1
  O  O29  1  0.832845  0.885223  0.848688  1
  O  O30  1  0.667155  0.114777  0.348688  1
  O  O31  1  0.332845  0.614777  0.151312  1
  O  O32  1  0.332749  0.115167  0.848662  1
  O  O33  1  0.667251  0.615167  0.651338  1
  O  O34  1  0.832749  0.384833  0.151338  1
  O  O35  1  0.167251  0.884833  0.348662  1
