# generated using pymatgen
data_TbTmFe8Co4P7
_symmetry_space_group_name_H-M   'P 1'
_cell_length_a   3.61009800
_cell_length_b   8.97662196
_cell_length_c   8.96956748
_cell_angle_alpha   120.02069482
_cell_angle_beta   90.00000000
_cell_angle_gamma   90.00000000
_symmetry_Int_Tables_number   1
_chemical_formula_structural   TbTmFe8Co4P7
_chemical_formula_sum   'Tb1 Tm1 Fe8 Co4 P7'
_cell_volume   251.67695864
_cell_formula_units_Z   1
loop_
 _symmetry_equiv_pos_site_id
 _symmetry_equiv_pos_as_xyz
  1  'x, y, z'
loop_
 _atom_site_type_symbol
 _atom_site_label
 _atom_site_symmetry_multiplicity
 _atom_site_fract_x
 _atom_site_fract_y
 _atom_site_fract_z
 _atom_site_occupancy
  Tb  Tb0  1  0.000000  0.666108  0.332285  1
  Tm  Tm1  1  0.500000  0.333995  0.667360  1
  Fe  Fe2  1  0.000000  0.567807  0.628144  1
  Fe  Fe3  1  0.000000  0.880646  0.726088  1
  Fe  Fe4  1  0.000000  0.272923  0.154373  1
  Fe  Fe5  1  0.000000  0.847554  0.119913  1
  Fe  Fe6  1  0.500000  0.613733  0.048472  1
  Fe  Fe7  1  0.500000  0.126599  0.898129  1
  Fe  Fe8  1  0.500000  0.101822  0.229218  1
  Fe  Fe9  1  0.500000  0.777943  0.876940  1
  Co  Co10  1  0.000000  0.370014  0.938687  1
  Co  Co11  1  0.000000  0.060252  0.432931  1
  Co  Co12  1  0.500000  0.949513  0.563805  1
  Co  Co13  1  0.500000  0.434478  0.384387  1
  P  P14  1  0.000000  0.111921  0.704582  1
  P  P15  1  0.000000  0.296704  0.409274  1
  P  P16  1  0.000000  0.592479  0.887949  1
  P  P17  1  0.500000  0.709859  0.601252  1
  P  P18  1  0.500000  0.400864  0.111664  1
  P  P19  1  0.500000  0.884818  0.285104  1
  P  P20  1  0.000000  0.999967  0.999443  1
