# generated using pymatgen
data_Be3Ag2(AsO4)3
_symmetry_space_group_name_H-M   'P 1'
_cell_length_a   7.98101300
_cell_length_b   8.49012662
_cell_length_c   17.08787400
_cell_angle_alpha   60.55795335
_cell_angle_beta   90.00000000
_cell_angle_gamma   90.00000000
_symmetry_Int_Tables_number   1
_chemical_formula_structural   Be3Ag2(AsO4)3
_chemical_formula_sum   'Be12 Ag8 As12 O48'
_cell_volume   1008.33590770
_cell_formula_units_Z   4
loop_
 _symmetry_equiv_pos_site_id
 _symmetry_equiv_pos_as_xyz
  1  'x, y, z'
loop_
 _atom_site_type_symbol
 _atom_site_label
 _atom_site_symmetry_multiplicity
 _atom_site_fract_x
 _atom_site_fract_y
 _atom_site_fract_z
 _atom_site_occupancy
  Be  Be0  1  0.832217  0.811393  0.762732  1
  Be  Be1  1  0.668857  0.156359  0.406583  1
  Be  Be2  1  0.168857  0.843641  0.093417  1
  Be  Be3  1  0.331143  0.843641  0.593417  1
  Be  Be4  1  0.831143  0.156359  0.906583  1
  Be  Be5  1  0.169962  0.480362  0.418535  1
  Be  Be6  1  0.669962  0.519638  0.081465  1
  Be  Be7  1  0.830038  0.519638  0.581465  1
  Be  Be8  1  0.330038  0.480362  0.918535  1
  Be  Be9  1  0.667783  0.811393  0.262732  1
  Be  Be10  1  0.167783  0.188607  0.237268  1
  Be  Be11  1  0.332217  0.188607  0.737268  1
  Ag  Ag12  1  0.463405  0.149314  0.091854  1
  Ag  Ag13  1  0.036595  0.149314  0.591854  1
  Ag  Ag14  1  0.536595  0.850686  0.908146  1
  Ag  Ag15  1  0.963405  0.850686  0.408146  1
  Ag  Ag16  1  0.539225  0.794290  0.435337  1
  Ag  Ag17  1  0.039225  0.205710  0.064663  1
  Ag  Ag18  1  0.460775  0.205710  0.564663  1
  Ag  Ag19  1  0.960775  0.794290  0.935337  1
  As  As20  1  0.214471  0.810350  0.763588  1
  As  As21  1  0.714471  0.189650  0.736412  1
  As  As22  1  0.785529  0.189650  0.236412  1
  As  As23  1  0.285529  0.810350  0.263588  1
  As  As24  1  0.713734  0.471973  0.917329  1
  As  As25  1  0.213734  0.528027  0.582671  1
  As  As26  1  0.286266  0.528027  0.082671  1
  As  As27  1  0.786266  0.471973  0.417329  1
  As  As28  1  0.216664  0.162667  0.905635  1
  As  As29  1  0.716664  0.837333  0.594365  1
  As  As30  1  0.783336  0.837333  0.094365  1
  As  As31  1  0.283336  0.162667  0.405635  1
  O  O32  1  0.154941  0.710376  0.051262  1
  O  O33  1  0.016970  0.766386  0.810487  1
  O  O34  1  0.516970  0.233614  0.689513  1
  O  O35  1  0.983030  0.233614  0.189513  1
  O  O36  1  0.483030  0.766386  0.310487  1
  O  O37  1  0.514658  0.384070  0.948986  1
  O  O38  1  0.014658  0.615930  0.551014  1
  O  O39  1  0.485342  0.615930  0.051014  1
  O  O40  1  0.985342  0.384070  0.448986  1
  O  O41  1  0.019357  0.093235  0.891903  1
  O  O42  1  0.519357  0.906765  0.608097  1
  O  O43  1  0.980643  0.906765  0.108097  1
  O  O44  1  0.151195  0.103431  0.345303  1
  O  O45  1  0.651195  0.896569  0.154697  1
  O  O46  1  0.848805  0.896569  0.654697  1
  O  O47  1  0.348805  0.103431  0.845303  1
  O  O48  1  0.654941  0.289624  0.448738  1
  O  O49  1  0.480643  0.093235  0.391903  1
  O  O50  1  0.345059  0.710376  0.551262  1
  O  O51  1  0.845059  0.289624  0.948738  1
  O  O52  1  0.767917  0.963486  0.480402  1
  O  O53  1  0.649238  0.300347  0.147258  1
  O  O54  1  0.850762  0.300347  0.647258  1
  O  O55  1  0.350762  0.699653  0.852742  1
  O  O56  1  0.726801  0.253743  0.815633  1
  O  O57  1  0.226801  0.746257  0.684367  1
  O  O58  1  0.273199  0.746257  0.184367  1
  O  O59  1  0.773199  0.253743  0.315633  1
  O  O60  1  0.718952  0.631845  0.808106  1
  O  O61  1  0.218952  0.368155  0.691894  1
  O  O62  1  0.281048  0.368155  0.191894  1
  O  O63  1  0.781048  0.631845  0.308106  1
  O  O64  1  0.219389  0.385075  0.874826  1
  O  O65  1  0.719389  0.614925  0.625174  1
  O  O66  1  0.780611  0.614925  0.125174  1
  O  O67  1  0.280611  0.385075  0.374826  1
  O  O68  1  0.745013  0.957991  0.789785  1
  O  O69  1  0.245013  0.042009  0.710215  1
  O  O70  1  0.254987  0.042009  0.210215  1
  O  O71  1  0.754987  0.957991  0.289785  1
  O  O72  1  0.772438  0.560589  0.986533  1
  O  O73  1  0.272438  0.439411  0.513467  1
  O  O74  1  0.227562  0.439411  0.013467  1
  O  O75  1  0.727562  0.560589  0.486533  1
  O  O76  1  0.732083  0.963486  0.980402  1
  O  O77  1  0.232083  0.036514  0.519598  1
  O  O78  1  0.267917  0.036514  0.019598  1
  O  O79  1  0.149238  0.699653  0.352742  1
