# generated using pymatgen
data_Tc3S4Br
_symmetry_space_group_name_H-M   'P 1'
_cell_length_a   11.64146200
_cell_length_b   6.43491438
_cell_length_c   11.26908945
_cell_angle_alpha   67.67672821
_cell_angle_beta   90.00000000
_cell_angle_gamma   90.00000000
_symmetry_Int_Tables_number   1
_chemical_formula_structural   Tc3S4Br
_chemical_formula_sum   'Tc12 S16 Br4'
_cell_volume   780.92067681
_cell_formula_units_Z   4
loop_
 _symmetry_equiv_pos_site_id
 _symmetry_equiv_pos_as_xyz
  1  'x, y, z'
loop_
 _atom_site_type_symbol
 _atom_site_label
 _atom_site_symmetry_multiplicity
 _atom_site_fract_x
 _atom_site_fract_y
 _atom_site_fract_z
 _atom_site_occupancy
  Tc  Tc0  1  0.522765  0.304921  0.440553  1
  Tc  Tc1  1  0.437258  0.030067  0.343679  1
  Tc  Tc2  1  0.355102  0.036025  0.556574  1
  Tc  Tc3  1  0.477235  0.695079  0.559447  1
  Tc  Tc4  1  0.022765  0.695079  0.059447  1
  Tc  Tc5  1  0.977235  0.304921  0.940553  1
  Tc  Tc6  1  0.562742  0.969933  0.656321  1
  Tc  Tc7  1  0.062742  0.030067  0.843679  1
  Tc  Tc8  1  0.644898  0.963975  0.443426  1
  Tc  Tc9  1  0.937258  0.969933  0.156321  1
  Tc  Tc10  1  0.855102  0.963975  0.943426  1
  Tc  Tc11  1  0.144898  0.036025  0.056574  1
  S  S12  1  0.667296  0.660179  0.646310  1
  S  S13  1  0.558289  0.721384  0.349845  1
  S  S14  1  0.941711  0.721384  0.849845  1
  S  S15  1  0.290526  0.780317  0.464219  1
  S  S16  1  0.790526  0.219683  0.035781  1
  S  S17  1  0.903633  0.274413  0.750200  1
  S  S18  1  0.096367  0.725587  0.249800  1
  S  S19  1  0.709474  0.219683  0.535781  1
  S  S20  1  0.058289  0.278616  0.150155  1
  S  S21  1  0.441711  0.278616  0.650155  1
  S  S22  1  0.403633  0.725587  0.749800  1
  S  S23  1  0.332704  0.339821  0.353690  1
  S  S24  1  0.167296  0.339821  0.853690  1
  S  S25  1  0.596367  0.274413  0.250200  1
  S  S26  1  0.832704  0.660179  0.146310  1
  S  S27  1  0.209474  0.780317  0.964219  1
  Br  Br28  1  0.640437  0.903790  0.887385  1
  Br  Br29  1  0.859563  0.903790  0.387385  1
  Br  Br30  1  0.359563  0.096210  0.112615  1
  Br  Br31  1  0.140437  0.096210  0.612615  1
