# generated using pymatgen
data_Co4ReB4W3
_symmetry_space_group_name_H-M   'P 1'
_cell_length_a   3.24609400
_cell_length_b   5.73350180
_cell_length_c   6.61148950
_cell_angle_alpha   89.59727440
_cell_angle_beta   90.00000000
_cell_angle_gamma   90.00000000
_symmetry_Int_Tables_number   1
_chemical_formula_structural   Co4ReB4W3
_chemical_formula_sum   'Co4 Re1 B4 W3'
_cell_volume   123.04660335
_cell_formula_units_Z   1
loop_
 _symmetry_equiv_pos_site_id
 _symmetry_equiv_pos_as_xyz
  1  'x, y, z'
loop_
 _atom_site_type_symbol
 _atom_site_label
 _atom_site_symmetry_multiplicity
 _atom_site_fract_x
 _atom_site_fract_y
 _atom_site_fract_z
 _atom_site_occupancy
  Co  Co0  1  0.250000  0.143640  0.443926  1
  Co  Co1  1  0.250000  0.645667  0.055887  1
  Co  Co2  1  0.750000  0.853605  0.557123  1
  Co  Co3  1  0.750000  0.356812  0.943169  1
  Re  Re4  1  0.250000  0.029911  0.827912  1
  B  B5  1  0.250000  0.271599  0.123744  1
  B  B6  1  0.250000  0.770768  0.374504  1
  B  B7  1  0.750000  0.730851  0.871815  1
  B  B8  1  0.750000  0.225711  0.628371  1
  W  W9  1  0.250000  0.527569  0.674305  1
  W  W10  1  0.750000  0.972087  0.173302  1
  W  W11  1  0.750000  0.471781  0.325946  1
