# generated using pymatgen
data_YEr17(TmPt8)2
_symmetry_space_group_name_H-M   'P 1'
_cell_length_a   7.42489007
_cell_length_b   7.51290731
_cell_length_c   14.65437000
_cell_angle_alpha   90.00966839
_cell_angle_beta   90.00877618
_cell_angle_gamma   90.03071291
_symmetry_Int_Tables_number   1
_chemical_formula_structural   YEr17(TmPt8)2
_chemical_formula_sum   'Y1 Er17 Tm2 Pt16'
_cell_volume   817.45741471
_cell_formula_units_Z   1
loop_
 _symmetry_equiv_pos_site_id
 _symmetry_equiv_pos_as_xyz
  1  'x, y, z'
loop_
 _atom_site_type_symbol
 _atom_site_label
 _atom_site_symmetry_multiplicity
 _atom_site_fract_x
 _atom_site_fract_y
 _atom_site_fract_z
 _atom_site_occupancy
  Y  Y0  1  0.998467  0.820457  0.092855  1
  Er  Er1  1  0.818887  0.488653  0.749996  1
  Er  Er2  1  0.318935  0.011422  0.750073  1
  Er  Er3  1  0.656187  0.832506  0.622154  1
  Er  Er4  1  0.156584  0.667286  0.877786  1
  Er  Er5  1  0.843849  0.332451  0.377845  1
  Er  Er6  1  0.344182  0.167805  0.122340  1
  Er  Er7  1  0.343876  0.167569  0.377796  1
  Er  Er8  1  0.843823  0.332406  0.122206  1
  Er  Er9  1  0.156226  0.667588  0.622089  1
  Er  Er10  1  0.656217  0.832347  0.877904  1
  Er  Er11  1  0.997672  0.819935  0.406773  1
  Er  Er12  1  0.497741  0.680039  0.093058  1
  Er  Er13  1  0.502240  0.319831  0.592966  1
  Er  Er14  1  0.002508  0.180527  0.906957  1
  Er  Er15  1  0.002285  0.180104  0.592983  1
  Er  Er16  1  0.502130  0.319922  0.907057  1
  Er  Er17  1  0.497676  0.680208  0.406953  1
  Tm  Tm18  1  0.681029  0.988642  0.250144  1
  Tm  Tm19  1  0.181139  0.511198  0.250143  1
  Pt  Pt20  1  0.816268  0.642868  0.250643  1
  Pt  Pt21  1  0.317544  0.856509  0.250177  1
  Pt  Pt22  1  0.683063  0.143259  0.750020  1
  Pt  Pt23  1  0.182990  0.356665  0.750023  1
  Pt  Pt24  1  0.546048  0.386995  0.249981  1
  Pt  Pt25  1  0.046353  0.113497  0.250292  1
  Pt  Pt26  1  0.953551  0.887114  0.750050  1
  Pt  Pt27  1  0.453587  0.612864  0.750025  1
  Pt  Pt28  1  0.816123  0.532140  0.541929  1
  Pt  Pt29  1  0.316464  0.968172  0.957819  1
  Pt  Pt30  1  0.683874  0.032021  0.457935  1
  Pt  Pt31  1  0.184339  0.466632  0.041630  1
  Pt  Pt32  1  0.183932  0.467819  0.457957  1
  Pt  Pt33  1  0.682252  0.033178  0.041718  1
  Pt  Pt34  1  0.316094  0.967890  0.541931  1
  Pt  Pt35  1  0.815869  0.531484  0.957792  1
