# generated using pymatgen
data_Ca7Tb2NdIr4
_symmetry_space_group_name_H-M   'P 1'
_cell_length_a   6.62543488
_cell_length_b   7.46103156
_cell_length_c   8.73125052
_cell_angle_alpha   96.96385528
_cell_angle_beta   113.11004711
_cell_angle_gamma   90.44319215
_symmetry_Int_Tables_number   1
_chemical_formula_structural   Ca7Tb2NdIr4
_chemical_formula_sum   'Ca7 Tb2 Nd1 Ir4'
_cell_volume   393.32016937
_cell_formula_units_Z   1
loop_
 _symmetry_equiv_pos_site_id
 _symmetry_equiv_pos_as_xyz
  1  'x, y, z'
loop_
 _atom_site_type_symbol
 _atom_site_label
 _atom_site_symmetry_multiplicity
 _atom_site_fract_x
 _atom_site_fract_y
 _atom_site_fract_z
 _atom_site_occupancy
  Ca  Ca0  1  0.800381  0.576431  0.821491  1
  Ca  Ca1  1  0.021578  0.082450  0.820137  1
  Ca  Ca2  1  0.194531  0.418957  0.173554  1
  Ca  Ca3  1  0.637305  0.819384  0.433109  1
  Ca  Ca4  1  0.203836  0.679936  0.564974  1
  Ca  Ca5  1  0.364416  0.180121  0.567316  1
  Ca  Ca6  1  0.799408  0.318718  0.434358  1
  Tb  Tb7  1  0.429350  0.747358  0.998726  1
  Tb  Tb8  1  0.563540  0.252003  0.001263  1
  Nd  Nd9  1  0.975033  0.918626  0.169689  1
  Ir  Ir10  1  0.811773  0.582910  0.209892  1
  Ir  Ir11  1  0.611486  0.926945  0.807852  1
  Ir  Ir12  1  0.194320  0.423701  0.788943  1
  Ir  Ir13  1  0.393041  0.072460  0.208697  1
