# generated using pymatgen
data_Lu7Sc3(Ga2Bi)2
_symmetry_space_group_name_H-M   'P 1'
_cell_length_a   8.50016901
_cell_length_b   8.47819494
_cell_length_c   6.25046718
_cell_angle_alpha   89.90409093
_cell_angle_beta   90.04782875
_cell_angle_gamma   119.91451757
_symmetry_Int_Tables_number   1
_chemical_formula_structural   Lu7Sc3(Ga2Bi)2
_chemical_formula_sum   'Lu7 Sc3 Ga4 Bi2'
_cell_volume   390.43335168
_cell_formula_units_Z   1
loop_
 _symmetry_equiv_pos_site_id
 _symmetry_equiv_pos_as_xyz
  1  'x, y, z'
loop_
 _atom_site_type_symbol
 _atom_site_label
 _atom_site_symmetry_multiplicity
 _atom_site_fract_x
 _atom_site_fract_y
 _atom_site_fract_z
 _atom_site_occupancy
  Lu  Lu0  1  0.304668  0.652334  0.000000  1
  Lu  Lu1  1  0.231626  0.000231  0.250720  1
  Lu  Lu2  1  0.231626  0.231395  0.749280  1
  Lu  Lu3  1  0.016806  0.767342  0.745918  1
  Lu  Lu4  1  0.016806  0.249462  0.254082  1
  Lu  Lu5  1  0.767457  0.748983  0.248142  1
  Lu  Lu6  1  0.767457  0.018473  0.751858  1
  Sc  Sc7  1  0.670857  0.335428  0.500000  1
  Sc  Sc8  1  0.677069  0.338534  0.000000  1
  Sc  Sc9  1  0.310182  0.655092  0.500000  1
  Ga  Ga10  1  0.994643  0.401061  0.740921  1
  Ga  Ga11  1  0.994643  0.593582  0.259079  1
  Ga  Ga12  1  0.405600  0.399308  0.251230  1
  Ga  Ga13  1  0.405600  0.006292  0.748770  1
  Bi  Bi14  1  0.602482  0.996366  0.253716  1
  Bi  Bi15  1  0.602482  0.606116  0.746284  1
