# generated using pymatgen
data_La4Y6IrOs3
_symmetry_space_group_name_H-M   'P 1'
_cell_length_a   6.57121991
_cell_length_b   7.34561846
_cell_length_c   8.80799852
_cell_angle_alpha   96.63963278
_cell_angle_beta   111.89313858
_cell_angle_gamma   89.98363498
_symmetry_Int_Tables_number   1
_chemical_formula_structural   La4Y6IrOs3
_chemical_formula_sum   'La4 Y6 Ir1 Os3'
_cell_volume   391.42794882
_cell_formula_units_Z   1
loop_
 _symmetry_equiv_pos_site_id
 _symmetry_equiv_pos_as_xyz
  1  'x, y, z'
loop_
 _atom_site_type_symbol
 _atom_site_label
 _atom_site_symmetry_multiplicity
 _atom_site_fract_x
 _atom_site_fract_y
 _atom_site_fract_z
 _atom_site_occupancy
  La  La0  1  0.980434  0.909289  0.189955  1
  La  La1  1  0.788032  0.590063  0.805666  1
  La  La2  1  0.014359  0.089480  0.806339  1
  La  La3  1  0.207462  0.413149  0.192139  1
  Y  Y4  1  0.638024  0.815210  0.432786  1
  Y  Y5  1  0.206707  0.683334  0.568069  1
  Y  Y6  1  0.362692  0.184584  0.571107  1
  Y  Y7  1  0.795694  0.318224  0.432731  1
  Y  Y8  1  0.428663  0.747710  0.997504  1
  Y  Y9  1  0.570001  0.250666  0.999877  1
  Ir  Ir10  1  0.407667  0.077011  0.225373  1
  Os  Os11  1  0.825693  0.579019  0.224484  1
  Os  Os12  1  0.601193  0.922512  0.777419  1
  Os  Os13  1  0.173380  0.419748  0.776554  1
