# generated using pymatgen
data_La3Ce5(Si3Pt)4
_symmetry_space_group_name_H-M   'P 1'
_cell_length_a   8.25583600
_cell_length_b   8.25583626
_cell_length_c   8.59326000
_cell_angle_alpha   90.00000000
_cell_angle_beta   90.00000000
_cell_angle_gamma   119.99999898
_symmetry_Int_Tables_number   1
_chemical_formula_structural   La3Ce5(Si3Pt)4
_chemical_formula_sum   'La3 Ce5 Si12 Pt4'
_cell_volume   507.23675573
_cell_formula_units_Z   1
loop_
 _symmetry_equiv_pos_site_id
 _symmetry_equiv_pos_as_xyz
  1  'x, y, z'
loop_
 _atom_site_type_symbol
 _atom_site_label
 _atom_site_symmetry_multiplicity
 _atom_site_fract_x
 _atom_site_fract_y
 _atom_site_fract_z
 _atom_site_occupancy
  La  La0  1  0.499884  0.500116  0.750000  1
  La  La1  1  0.499884  0.999765  0.750000  1
  La  La2  1  0.000235  0.500116  0.750000  1
  Ce  Ce3  1  0.000000  0.000000  0.250000  1
  Ce  Ce4  1  0.000000  0.000000  0.750000  1
  Ce  Ce5  1  0.500468  0.499532  0.250000  1
  Ce  Ce6  1  0.500468  0.000937  0.250000  1
  Ce  Ce7  1  0.999063  0.499532  0.250000  1
  Si  Si8  1  0.164816  0.835184  0.495364  1
  Si  Si9  1  0.164816  0.329633  0.495364  1
  Si  Si10  1  0.670367  0.835184  0.495364  1
  Si  Si11  1  0.835307  0.164693  0.495068  1
  Si  Si12  1  0.835307  0.670614  0.495068  1
  Si  Si13  1  0.329386  0.164693  0.495068  1
  Si  Si14  1  0.835307  0.164693  0.004932  1
  Si  Si15  1  0.835307  0.670614  0.004932  1
  Si  Si16  1  0.329386  0.164693  0.004932  1
  Si  Si17  1  0.164816  0.835184  0.004636  1
  Si  Si18  1  0.164816  0.329633  0.004636  1
  Si  Si19  1  0.670367  0.835184  0.004636  1
  Pt  Pt20  1  0.333333  0.666667  0.491723  1
  Pt  Pt21  1  0.666667  0.333333  0.491672  1
  Pt  Pt22  1  0.666667  0.333333  0.008328  1
  Pt  Pt23  1  0.333333  0.666667  0.008277  1
