# generated using pymatgen
data_Ce3Nd7Pb6
_symmetry_space_group_name_H-M   'P 1'
_cell_length_a   9.48959600
_cell_length_b   9.48959582
_cell_length_c   6.68575400
_cell_angle_alpha   90.00000000
_cell_angle_beta   90.00000000
_cell_angle_gamma   120.00000063
_symmetry_Int_Tables_number   1
_chemical_formula_structural   Ce3Nd7Pb6
_chemical_formula_sum   'Ce3 Nd7 Pb6'
_cell_volume   521.40652390
_cell_formula_units_Z   1
loop_
 _symmetry_equiv_pos_site_id
 _symmetry_equiv_pos_as_xyz
  1  'x, y, z'
loop_
 _atom_site_type_symbol
 _atom_site_label
 _atom_site_symmetry_multiplicity
 _atom_site_fract_x
 _atom_site_fract_y
 _atom_site_fract_z
 _atom_site_occupancy
  Ce  Ce0  1  0.333333  0.666667  0.000000  1
  Ce  Ce1  1  0.333333  0.666667  0.500000  1
  Ce  Ce2  1  0.666667  0.333333  0.500000  1
  Nd  Nd3  1  0.666667  0.333333  0.000000  1
  Nd  Nd4  1  0.757132  0.759129  0.750545  1
  Nd  Nd5  1  0.240871  0.998003  0.750545  1
  Nd  Nd6  1  0.001997  0.242868  0.750545  1
  Nd  Nd7  1  0.240871  0.242868  0.249455  1
  Nd  Nd8  1  0.757132  0.998003  0.249455  1
  Nd  Nd9  1  0.001997  0.759129  0.249455  1
  Pb  Pb10  1  0.392521  0.390478  0.749075  1
  Pb  Pb11  1  0.609522  0.002043  0.749075  1
  Pb  Pb12  1  0.997957  0.607479  0.749075  1
  Pb  Pb13  1  0.609522  0.607479  0.250925  1
  Pb  Pb14  1  0.392521  0.002043  0.250925  1
  Pb  Pb15  1  0.997957  0.390478  0.250925  1
