# generated using pymatgen
data_Ba4Re6O18F
_symmetry_space_group_name_H-M   'P 1'
_cell_length_a   8.20529997
_cell_length_b   8.20529943
_cell_length_c   8.20530000
_cell_angle_alpha   109.47122203
_cell_angle_beta   109.47122070
_cell_angle_gamma   109.47121840
_symmetry_Int_Tables_number   1
_chemical_formula_structural   Ba4Re6O18F
_chemical_formula_sum   'Ba4 Re6 O18 F1'
_cell_volume   425.26679554
_cell_formula_units_Z   1
loop_
 _symmetry_equiv_pos_site_id
 _symmetry_equiv_pos_as_xyz
  1  'x, y, z'
loop_
 _atom_site_type_symbol
 _atom_site_label
 _atom_site_symmetry_multiplicity
 _atom_site_fract_x
 _atom_site_fract_y
 _atom_site_fract_z
 _atom_site_occupancy
  Ba  Ba0  1  0.000000  0.333504  0.000000  1
  Ba  Ba1  1  0.000000  0.000000  0.333504  1
  Ba  Ba2  1  0.666496  0.666496  0.666496  1
  Ba  Ba3  1  0.333504  0.000000  0.000000  1
  Re  Re4  1  0.500000  0.365556  0.865556  1
  Re  Re5  1  0.500000  0.634444  0.134444  1
  Re  Re6  1  0.365556  0.865556  0.500000  1
  Re  Re7  1  0.634444  0.134444  0.500000  1
  Re  Re8  1  0.865556  0.500000  0.365556  1
  Re  Re9  1  0.134444  0.500000  0.634444  1
  O  O10  1  0.695828  0.350606  0.068195  1
  O  O11  1  0.649394  0.345222  0.717589  1
  O  O12  1  0.282411  0.627634  0.931805  1
  O  O13  1  0.654778  0.304172  0.372366  1
  O  O14  1  0.345222  0.717589  0.649394  1
  O  O15  1  0.931805  0.282411  0.627634  1
  O  O16  1  0.068195  0.695828  0.350606  1
  O  O17  1  0.000000  0.663977  0.663977  1
  O  O18  1  0.663977  0.663977  0.000000  1
  O  O19  1  0.717589  0.649394  0.345222  1
  O  O20  1  0.350606  0.068195  0.695828  1
  O  O21  1  0.663977  0.000000  0.663977  1
  O  O22  1  0.000000  0.336023  0.336023  1
  O  O23  1  0.627634  0.931805  0.282411  1
  O  O24  1  0.372366  0.654778  0.304172  1
  O  O25  1  0.304172  0.372366  0.654778  1
  O  O26  1  0.336023  0.000000  0.336023  1
  O  O27  1  0.336023  0.336023  0.000000  1
  F  F28  1  0.000000  0.000000  0.000000  1
