# generated using pymatgen
data_NaNi2(Sn3Ru)2
_symmetry_space_group_name_H-M   'P 1'
_cell_length_a   6.80154426
_cell_length_b   6.80154344
_cell_length_c   6.88108829
_cell_angle_alpha   119.77012322
_cell_angle_beta   119.77011657
_cell_angle_gamma   89.73321777
_symmetry_Int_Tables_number   1
_chemical_formula_structural   NaNi2(Sn3Ru)2
_chemical_formula_sum   'Na1 Ni2 Sn6 Ru2'
_cell_volume   227.15349429
_cell_formula_units_Z   1
loop_
 _symmetry_equiv_pos_site_id
 _symmetry_equiv_pos_as_xyz
  1  'x, y, z'
loop_
 _atom_site_type_symbol
 _atom_site_label
 _atom_site_symmetry_multiplicity
 _atom_site_fract_x
 _atom_site_fract_y
 _atom_site_fract_z
 _atom_site_occupancy
  Na  Na0  1  0.002523  0.002523  0.000000  1
  Ni  Ni1  1  0.407164  0.407164  0.654563  1
  Ni  Ni2  1  0.752601  0.752601  0.345437  1
  Sn  Sn3  1  0.994970  0.494970  0.500000  1
  Sn  Sn4  1  0.461284  0.461284  0.351555  1
  Sn  Sn5  1  0.541334  0.881663  0.000000  1
  Sn  Sn6  1  0.881663  0.541334  0.000000  1
  Sn  Sn7  1  0.109729  0.109729  0.648445  1
  Sn  Sn8  1  0.494970  0.994970  0.500000  1
  Ru  Ru9  1  0.266802  0.586962  0.000000  1
  Ru  Ru10  1  0.586962  0.266802  0.000000  1
