# generated using pymatgen
data_ThMn(ZnCo)2
_symmetry_space_group_name_H-M   'P 1'
_cell_length_a   5.14063675
_cell_length_b   5.19764336
_cell_length_c   4.08918800
_cell_angle_alpha   90.00000000
_cell_angle_beta   90.00000000
_cell_angle_gamma   120.36752355
_symmetry_Int_Tables_number   1
_chemical_formula_structural   ThMn(ZnCo)2
_chemical_formula_sum   'Th1 Mn1 Zn2 Co2'
_cell_volume   94.26941008
_cell_formula_units_Z   1
loop_
 _symmetry_equiv_pos_site_id
 _symmetry_equiv_pos_as_xyz
  1  'x, y, z'
loop_
 _atom_site_type_symbol
 _atom_site_label
 _atom_site_symmetry_multiplicity
 _atom_site_fract_x
 _atom_site_fract_y
 _atom_site_fract_z
 _atom_site_occupancy
  Th  Th0  1  0.000000  0.000000  0.000000  1
  Mn  Mn1  1  0.000000  0.500000  0.500000  1
  Zn  Zn2  1  0.500000  0.000000  0.500000  1
  Zn  Zn3  1  0.500000  0.500000  0.500000  1
  Co  Co4  1  0.308837  0.654419  0.000000  1
  Co  Co5  1  0.691163  0.345581  0.000000  1
