# generated using pymatgen
data_Zr4CoRh
_symmetry_space_group_name_H-M   'P 1'
_cell_length_a   8.69686473
_cell_length_b   8.69686493
_cell_length_c   8.69686600
_cell_angle_alpha   60.00000355
_cell_angle_beta   60.00000278
_cell_angle_gamma   60.00000702
_symmetry_Int_Tables_number   1
_chemical_formula_structural   Zr4CoRh
_chemical_formula_sum   'Zr16 Co4 Rh4'
_cell_volume   465.12883627
_cell_formula_units_Z   4
loop_
 _symmetry_equiv_pos_site_id
 _symmetry_equiv_pos_as_xyz
  1  'x, y, z'
loop_
 _atom_site_type_symbol
 _atom_site_label
 _atom_site_symmetry_multiplicity
 _atom_site_fract_x
 _atom_site_fract_y
 _atom_site_fract_z
 _atom_site_occupancy
  Zr  Zr0  1  0.683904  0.105365  0.105365  1
  Zr  Zr1  1  0.105365  0.683904  0.105365  1
  Zr  Zr2  1  0.105365  0.105365  0.683904  1
  Zr  Zr3  1  0.105365  0.105365  0.105365  1
  Zr  Zr4  1  0.313395  0.313395  0.686605  1
  Zr  Zr5  1  0.686605  0.686605  0.313395  1
  Zr  Zr6  1  0.313395  0.686605  0.313395  1
  Zr  Zr7  1  0.686605  0.313395  0.686605  1
  Zr  Zr8  1  0.686605  0.313395  0.313395  1
  Zr  Zr9  1  0.313395  0.686605  0.686605  1
  Zr  Zr10  1  0.942450  0.942450  0.557550  1
  Zr  Zr11  1  0.557550  0.557550  0.942450  1
  Zr  Zr12  1  0.942450  0.557550  0.942450  1
  Zr  Zr13  1  0.557550  0.942450  0.557550  1
  Zr  Zr14  1  0.557550  0.942450  0.942450  1
  Zr  Zr15  1  0.942450  0.557550  0.557550  1
  Co  Co16  1  0.320449  0.893184  0.893184  1
  Co  Co17  1  0.893184  0.320449  0.893184  1
  Co  Co18  1  0.893184  0.893184  0.320449  1
  Co  Co19  1  0.893184  0.893184  0.893184  1
  Rh  Rh20  1  0.996648  0.334450  0.334450  1
  Rh  Rh21  1  0.334450  0.996648  0.334450  1
  Rh  Rh22  1  0.334450  0.334450  0.996648  1
  Rh  Rh23  1  0.334450  0.334450  0.334450  1
