# generated using pymatgen
data_Nd3Dy5(HgRh)2
_symmetry_space_group_name_H-M   'P 1'
_cell_length_a   9.72426430
_cell_length_b   9.72426450
_cell_length_c   9.72426500
_cell_angle_alpha   60.00000171
_cell_angle_beta   60.00000101
_cell_angle_gamma   60.00000333
_symmetry_Int_Tables_number   1
_chemical_formula_structural   Nd3Dy5(HgRh)2
_chemical_formula_sum   'Nd6 Dy10 Hg4 Rh4'
_cell_volume   650.21251567
_cell_formula_units_Z   2
loop_
 _symmetry_equiv_pos_site_id
 _symmetry_equiv_pos_as_xyz
  1  'x, y, z'
loop_
 _atom_site_type_symbol
 _atom_site_label
 _atom_site_symmetry_multiplicity
 _atom_site_fract_x
 _atom_site_fract_y
 _atom_site_fract_z
 _atom_site_occupancy
  Nd  Nd0  1  0.189663  0.810337  0.810337  1
  Nd  Nd1  1  0.810337  0.189663  0.189663  1
  Nd  Nd2  1  0.810337  0.189663  0.810337  1
  Nd  Nd3  1  0.189663  0.810337  0.189663  1
  Nd  Nd4  1  0.810337  0.810337  0.189663  1
  Nd  Nd5  1  0.189663  0.189663  0.810337  1
  Dy  Dy6  1  0.599699  0.599699  0.599699  1
  Dy  Dy7  1  0.599699  0.599699  0.200903  1
  Dy  Dy8  1  0.599699  0.200903  0.599699  1
  Dy  Dy9  1  0.200903  0.599699  0.599699  1
  Dy  Dy10  1  0.062592  0.437408  0.437408  1
  Dy  Dy11  1  0.437408  0.062592  0.062592  1
  Dy  Dy12  1  0.437408  0.062592  0.437408  1
  Dy  Dy13  1  0.062592  0.437408  0.062592  1
  Dy  Dy14  1  0.437408  0.437408  0.062592  1
  Dy  Dy15  1  0.062592  0.062592  0.437408  1
  Hg  Hg16  1  0.832770  0.832770  0.832770  1
  Hg  Hg17  1  0.832770  0.832770  0.501689  1
  Hg  Hg18  1  0.832770  0.501689  0.832770  1
  Hg  Hg19  1  0.501689  0.832770  0.832770  1
  Rh  Rh20  1  0.392328  0.392328  0.392328  1
  Rh  Rh21  1  0.392328  0.392328  0.823017  1
  Rh  Rh22  1  0.392328  0.823017  0.392328  1
  Rh  Rh23  1  0.823017  0.392328  0.392328  1
