# generated using pymatgen
data_LaGd7(Ho3Sn4)4
_symmetry_space_group_name_H-M   'P 1'
_cell_length_a   8.14504778
_cell_length_b   8.34789840
_cell_length_c   15.70119900
_cell_angle_alpha   89.97191457
_cell_angle_beta   90.12942661
_cell_angle_gamma   90.27966900
_symmetry_Int_Tables_number   1
_chemical_formula_structural   LaGd7(Ho3Sn4)4
_chemical_formula_sum   'La1 Gd7 Ho12 Sn16'
_cell_volume   1067.57225323
_cell_formula_units_Z   1
loop_
 _symmetry_equiv_pos_site_id
 _symmetry_equiv_pos_as_xyz
  1  'x, y, z'
loop_
 _atom_site_type_symbol
 _atom_site_label
 _atom_site_symmetry_multiplicity
 _atom_site_fract_x
 _atom_site_fract_y
 _atom_site_fract_z
 _atom_site_occupancy
  La  La0  1  0.007920  0.178187  0.905051  1
  Gd  Gd1  1  0.510641  0.321947  0.903484  1
  Gd  Gd2  1  0.011242  0.179678  0.596523  1
  Gd  Gd3  1  0.490407  0.679883  0.403763  1
  Gd  Gd4  1  0.990182  0.819474  0.097603  1
  Gd  Gd5  1  0.488466  0.679489  0.097252  1
  Gd  Gd6  1  0.989835  0.820923  0.403564  1
  Gd  Gd7  1  0.509323  0.320398  0.594251  1
  Ho  Ho8  1  0.352204  0.836362  0.875377  1
  Ho  Ho9  1  0.851233  0.663544  0.622920  1
  Ho  Ho10  1  0.648983  0.162354  0.375944  1
  Ho  Ho11  1  0.148569  0.338039  0.124651  1
  Ho  Ho12  1  0.648126  0.163322  0.124846  1
  Ho  Ho13  1  0.148443  0.336670  0.375804  1
  Ho  Ho14  1  0.351584  0.837278  0.623338  1
  Ho  Ho15  1  0.852388  0.662672  0.876287  1
  Ho  Ho16  1  0.185423  0.500945  0.749353  1
  Ho  Ho17  1  0.685336  0.998236  0.749032  1
  Ho  Ho18  1  0.814843  0.499685  0.249967  1
  Ho  Ho19  1  0.315000  0.001009  0.250242  1
  Sn  Sn20  1  0.309594  0.037989  0.043704  1
  Sn  Sn21  1  0.807491  0.461189  0.457194  1
  Sn  Sn22  1  0.694030  0.961273  0.541881  1
  Sn  Sn23  1  0.196520  0.541486  0.958717  1
  Sn  Sn24  1  0.687962  0.955756  0.959769  1
  Sn  Sn25  1  0.192553  0.538817  0.541810  1
  Sn  Sn26  1  0.306481  0.039460  0.457634  1
  Sn  Sn27  1  0.803729  0.462494  0.043220  1
  Sn  Sn28  1  0.548477  0.621919  0.749629  1
  Sn  Sn29  1  0.048800  0.876041  0.749430  1
  Sn  Sn30  1  0.452131  0.378456  0.250814  1
  Sn  Sn31  1  0.951854  0.121682  0.250041  1
  Sn  Sn32  1  0.320847  0.147817  0.748441  1
  Sn  Sn33  1  0.815157  0.355070  0.747519  1
  Sn  Sn34  1  0.682291  0.852833  0.250358  1
  Sn  Sn35  1  0.181934  0.647625  0.250589  1
