# generated using pymatgen
data_La2Dy2TeWO12
_symmetry_space_group_name_H-M   'P 1'
_cell_length_a   5.45502200
_cell_length_b   9.36174710
_cell_length_c   10.23254211
_cell_angle_alpha   89.98340574
_cell_angle_beta   90.00000000
_cell_angle_gamma   90.00000000
_symmetry_Int_Tables_number   1
_chemical_formula_structural   La2Dy2TeWO12
_chemical_formula_sum   'La4 Dy4 Te2 W2 O24'
_cell_volume   522.56092694
_cell_formula_units_Z   2
loop_
 _symmetry_equiv_pos_site_id
 _symmetry_equiv_pos_as_xyz
  1  'x, y, z'
loop_
 _atom_site_type_symbol
 _atom_site_label
 _atom_site_symmetry_multiplicity
 _atom_site_fract_x
 _atom_site_fract_y
 _atom_site_fract_z
 _atom_site_occupancy
  La  La0  1  0.532706  0.221103  0.359719  1
  La  La1  1  0.032706  0.278897  0.640281  1
  La  La2  1  0.469439  0.720529  0.143469  1
  La  La3  1  0.969439  0.779471  0.856531  1
  Dy  Dy4  1  0.516976  0.105279  0.955297  1
  Dy  Dy5  1  0.016976  0.394721  0.044703  1
  Dy  Dy6  1  0.481140  0.601229  0.541932  1
  Dy  Dy7  1  0.981140  0.898771  0.458068  1
  Te  Te8  1  0.533432  0.490062  0.857974  1
  Te  Te9  1  0.033432  0.009938  0.142026  1
  W  W10  1  0.467011  0.990415  0.642882  1
  W  W11  1  0.967011  0.509585  0.357118  1
  O  O12  1  0.304668  0.143834  0.167672  1
  O  O13  1  0.804668  0.356166  0.832328  1
  O  O14  1  0.691868  0.639660  0.333897  1
  O  O15  1  0.191868  0.860340  0.666103  1
  O  O16  1  0.726946  0.104926  0.559878  1
  O  O17  1  0.226946  0.395074  0.440122  1
  O  O18  1  0.273668  0.608828  0.935510  1
  O  O19  1  0.773668  0.891172  0.064490  1
  O  O20  1  0.673734  0.632983  0.742748  1
  O  O21  1  0.173734  0.867017  0.257252  1
  O  O22  1  0.322086  0.132313  0.758005  1
  O  O23  1  0.822086  0.367687  0.241995  1
  O  O24  1  0.665881  0.953863  0.793918  1
  O  O25  1  0.165881  0.546137  0.206082  1
  O  O26  1  0.333844  0.449773  0.706416  1
  O  O27  1  0.833844  0.050227  0.293584  1
  O  O28  1  0.256541  0.078389  0.503716  1
  O  O29  1  0.756541  0.421611  0.496284  1
  O  O30  1  0.743543  0.574220  0.996790  1
  O  O31  1  0.243543  0.925780  0.003210  1
  O  O32  1  0.111515  0.665342  0.459980  1
  O  O33  1  0.611515  0.834658  0.540020  1
  O  O34  1  0.895003  0.159721  0.031651  1
  O  O35  1  0.395003  0.340279  0.968349  1
