# generated using pymatgen
data_Mg2ScZn3(B2Rh5)2
_symmetry_space_group_name_H-M   'P 1'
_cell_length_a   9.42327658
_cell_length_b   9.42327686
_cell_length_c   2.94367300
_cell_angle_alpha   90.00000000
_cell_angle_beta   90.00000000
_cell_angle_gamma   90.00558786
_symmetry_Int_Tables_number   1
_chemical_formula_structural   Mg2ScZn3(B2Rh5)2
_chemical_formula_sum   'Mg2 Sc1 Zn3 B4 Rh10'
_cell_volume   261.39269819
_cell_formula_units_Z   1
loop_
 _symmetry_equiv_pos_site_id
 _symmetry_equiv_pos_as_xyz
  1  'x, y, z'
loop_
 _atom_site_type_symbol
 _atom_site_label
 _atom_site_symmetry_multiplicity
 _atom_site_fract_x
 _atom_site_fract_y
 _atom_site_fract_z
 _atom_site_occupancy
  Mg  Mg0  1  0.325311  0.177132  0.000000  1
  Mg  Mg1  1  0.677132  0.825311  0.000000  1
  Sc  Sc2  1  0.173322  0.673322  0.000000  1
  Zn  Zn3  1  0.820335  0.320335  0.000000  1
  Zn  Zn4  1  0.001460  0.997733  0.000000  1
  Zn  Zn5  1  0.497733  0.501460  0.000000  1
  B  B6  1  0.627443  0.127443  0.000000  1
  B  B7  1  0.127449  0.372320  0.000000  1
  B  B8  1  0.872320  0.627449  0.000000  1
  B  B9  1  0.375598  0.875598  0.000000  1
  Rh  Rh10  1  0.070207  0.215426  0.500000  1
  Rh  Rh11  1  0.217565  0.927792  0.500000  1
  Rh  Rh12  1  0.787037  0.076622  0.500000  1
  Rh  Rh13  1  0.930707  0.781484  0.500000  1
  Rh  Rh14  1  0.427792  0.717565  0.500000  1
  Rh  Rh15  1  0.576622  0.287037  0.500000  1
  Rh  Rh16  1  0.715426  0.570207  0.500000  1
  Rh  Rh17  1  0.281484  0.430707  0.500000  1
  Rh  Rh18  1  0.501912  0.001912  0.500000  1
  Rh  Rh19  1  0.993145  0.493145  0.500000  1
