# generated using pymatgen
data_Ca2Cr3Ni9As7
_symmetry_space_group_name_H-M   'P 1'
_cell_length_a   9.54154700
_cell_length_b   9.54154667
_cell_length_c   3.81665700
_cell_angle_alpha   90.00000000
_cell_angle_beta   90.00000000
_cell_angle_gamma   119.99999768
_symmetry_Int_Tables_number   1
_chemical_formula_structural   Ca2Cr3Ni9As7
_chemical_formula_sum   'Ca2 Cr3 Ni9 As7'
_cell_volume   300.92020331
_cell_formula_units_Z   1
loop_
 _symmetry_equiv_pos_site_id
 _symmetry_equiv_pos_as_xyz
  1  'x, y, z'
loop_
 _atom_site_type_symbol
 _atom_site_label
 _atom_site_symmetry_multiplicity
 _atom_site_fract_x
 _atom_site_fract_y
 _atom_site_fract_z
 _atom_site_occupancy
  Ca  Ca0  1  0.333333  0.666667  0.000000  1
  Ca  Ca1  1  0.666667  0.333333  0.500000  1
  Cr  Cr2  1  0.221282  0.120351  0.500000  1
  Cr  Cr3  1  0.879649  0.100931  0.500000  1
  Cr  Cr4  1  0.899069  0.778718  0.500000  1
  Ni  Ni5  1  0.124082  0.279082  0.000000  1
  Ni  Ni6  1  0.720918  0.845000  0.000000  1
  Ni  Ni7  1  0.155000  0.875918  0.000000  1
  Ni  Ni8  1  0.430755  0.371464  0.000000  1
  Ni  Ni9  1  0.628536  0.059292  0.000000  1
  Ni  Ni10  1  0.940708  0.569245  0.000000  1
  Ni  Ni11  1  0.051883  0.432434  0.500000  1
  Ni  Ni12  1  0.567566  0.619450  0.500000  1
  Ni  Ni13  1  0.380550  0.948117  0.500000  1
  As  As14  1  0.293724  0.409040  0.500000  1
  As  As15  1  0.590960  0.884684  0.500000  1
  As  As16  1  0.115316  0.706276  0.500000  1
  As  As17  1  0.410634  0.114195  0.000000  1
  As  As18  1  0.885805  0.296438  0.000000  1
  As  As19  1  0.703562  0.589366  0.000000  1
  As  As20  1  0.000000  0.000000  0.000000  1
