# generated using pymatgen
data_Sr2Co7(NiP2)3
_symmetry_space_group_name_H-M   'P 1'
_cell_length_a   6.10937146
_cell_length_b   6.10937149
_cell_length_c   11.45575396
_cell_angle_alpha   90.52311908
_cell_angle_beta   89.47688082
_cell_angle_gamma   145.61273857
_symmetry_Int_Tables_number   1
_chemical_formula_structural   Sr2Co7(NiP2)3
_chemical_formula_sum   'Sr2 Co7 Ni3 P6'
_cell_volume   241.47876250
_cell_formula_units_Z   1
loop_
 _symmetry_equiv_pos_site_id
 _symmetry_equiv_pos_as_xyz
  1  'x, y, z'
loop_
 _atom_site_type_symbol
 _atom_site_label
 _atom_site_symmetry_multiplicity
 _atom_site_fract_x
 _atom_site_fract_y
 _atom_site_fract_z
 _atom_site_occupancy
  Sr  Sr0  1  0.163340  0.836660  0.249794  1
  Sr  Sr1  1  0.838042  0.161958  0.749751  1
  Co  Co2  1  0.448971  0.551029  0.357535  1
  Co  Co3  1  0.447225  0.552775  0.141023  1
  Co  Co4  1  0.803759  0.196241  0.064897  1
  Co  Co5  1  0.197195  0.802805  0.936219  1
  Co  Co6  1  0.194474  0.805526  0.565033  1
  Co  Co7  1  0.803002  0.196998  0.433530  1
  Co  Co8  1  0.554239  0.445761  0.858942  1
  Ni  Ni9  1  0.997987  0.002013  0.501239  1
  Ni  Ni10  1  0.000259  0.999741  0.000112  1
  Ni  Ni11  1  0.550113  0.449887  0.642979  1
  P  P12  1  0.893491  0.106509  0.249406  1
  P  P13  1  0.111250  0.888750  0.753222  1
  P  P14  1  0.380279  0.619721  0.963106  1
  P  P15  1  0.620548  0.379452  0.037205  1
  P  P16  1  0.619590  0.380410  0.462139  1
  P  P17  1  0.376237  0.623763  0.533868  1
