# generated using pymatgen
data_Ba4NaAu6
_symmetry_space_group_name_H-M   'P 1'
_cell_length_a   16.89010164
_cell_length_b   16.89010075
_cell_length_c   4.58894600
_cell_angle_alpha   90.00000000
_cell_angle_beta   90.00000000
_cell_angle_gamma   164.30311920
_symmetry_Int_Tables_number   1
_chemical_formula_structural   Ba4NaAu6
_chemical_formula_sum   'Ba4 Na1 Au6'
_cell_volume   354.17820849
_cell_formula_units_Z   1
loop_
 _symmetry_equiv_pos_site_id
 _symmetry_equiv_pos_as_xyz
  1  'x, y, z'
loop_
 _atom_site_type_symbol
 _atom_site_label
 _atom_site_symmetry_multiplicity
 _atom_site_fract_x
 _atom_site_fract_y
 _atom_site_fract_z
 _atom_site_occupancy
  Ba  Ba0  1  0.998237  0.001763  0.000000  1
  Ba  Ba1  1  0.616599  0.383401  0.000000  1
  Ba  Ba2  1  0.378048  0.621952  0.000000  1
  Ba  Ba3  1  0.204616  0.795383  0.500000  1
  Na  Na4  1  0.801207  0.198792  0.500000  1
  Au  Au5  1  0.724473  0.275527  0.000000  1
  Au  Au6  1  0.279128  0.720872  0.000000  1
  Au  Au7  1  0.904399  0.095601  0.500000  1
  Au  Au8  1  0.540877  0.459122  0.500000  1
  Au  Au9  1  0.456231  0.543768  0.500000  1
  Au  Au10  1  0.096183  0.903817  0.500000  1
