# generated using pymatgen
data_Dy4Lu(AlTe)2
_symmetry_space_group_name_H-M   'P 1'
_cell_length_a   8.68781359
_cell_length_b   8.68781514
_cell_length_c   7.92078900
_cell_angle_alpha   90.00000000
_cell_angle_beta   90.00000000
_cell_angle_gamma   126.04201986
_symmetry_Int_Tables_number   1
_chemical_formula_structural   Dy4Lu(AlTe)2
_chemical_formula_sum   'Dy8 Lu2 Al4 Te4'
_cell_volume   483.40993155
_cell_formula_units_Z   2
loop_
 _symmetry_equiv_pos_site_id
 _symmetry_equiv_pos_as_xyz
  1  'x, y, z'
loop_
 _atom_site_type_symbol
 _atom_site_label
 _atom_site_symmetry_multiplicity
 _atom_site_fract_x
 _atom_site_fract_y
 _atom_site_fract_z
 _atom_site_occupancy
  Dy  Dy0  1  0.797103  0.538571  0.168169  1
  Dy  Dy1  1  0.461429  0.202897  0.831831  1
  Dy  Dy2  1  0.961429  0.702897  0.668169  1
  Dy  Dy3  1  0.297103  0.038571  0.331831  1
  Dy  Dy4  1  0.202897  0.461429  0.831831  1
  Dy  Dy5  1  0.538571  0.797103  0.168169  1
  Dy  Dy6  1  0.038571  0.297103  0.331831  1
  Dy  Dy7  1  0.702897  0.961429  0.668169  1
  Lu  Lu8  1  0.000000  0.000000  0.000000  1
  Lu  Lu9  1  0.500000  0.500000  0.500000  1
  Al  Al10  1  0.874369  0.874369  0.375286  1
  Al  Al11  1  0.125631  0.125631  0.624714  1
  Al  Al12  1  0.625631  0.625631  0.875286  1
  Al  Al13  1  0.374369  0.374369  0.124714  1
  Te  Te14  1  0.204075  0.795925  0.000000  1
  Te  Te15  1  0.704075  0.295925  0.500000  1
  Te  Te16  1  0.795925  0.204075  0.000000  1
  Te  Te17  1  0.295925  0.704075  0.500000  1
