# generated using pymatgen
data_Li3(GeIr)2
_symmetry_space_group_name_H-M   'P 1'
_cell_length_a   6.88425636
_cell_length_b   6.88425785
_cell_length_c   6.88425643
_cell_angle_alpha   35.41959379
_cell_angle_beta   35.41959282
_cell_angle_gamma   35.41958527
_symmetry_Int_Tables_number   1
_chemical_formula_structural   Li3(GeIr)2
_chemical_formula_sum   'Li3 Ge2 Ir2'
_cell_volume   97.92063929
_cell_formula_units_Z   1
loop_
 _symmetry_equiv_pos_site_id
 _symmetry_equiv_pos_as_xyz
  1  'x, y, z'
loop_
 _atom_site_type_symbol
 _atom_site_label
 _atom_site_symmetry_multiplicity
 _atom_site_fract_x
 _atom_site_fract_y
 _atom_site_fract_z
 _atom_site_occupancy
  Li  Li0  1  0.639609  0.639609  0.639609  1
  Li  Li1  1  0.360391  0.360391  0.360391  1
  Li  Li2  1  0.500000  0.500000  0.500000  1
  Ge  Ge3  1  0.915089  0.915089  0.915089  1
  Ge  Ge4  1  0.084911  0.084911  0.084911  1
  Ir  Ir5  1  0.782676  0.782676  0.782676  1
  Ir  Ir6  1  0.217325  0.217325  0.217325  1
