# generated using pymatgen
data_La2Dy16Y2Si15Pt
_symmetry_space_group_name_H-M   'P 1'
_cell_length_a   7.44921157
_cell_length_b   7.77659599
_cell_length_c   14.72546721
_cell_angle_alpha   89.60309676
_cell_angle_beta   89.98269857
_cell_angle_gamma   89.91420150
_symmetry_Int_Tables_number   1
_chemical_formula_structural   La2Dy16Y2Si15Pt
_chemical_formula_sum   'La2 Dy16 Y2 Si15 Pt1'
_cell_volume   853.01762301
_cell_formula_units_Z   1
loop_
 _symmetry_equiv_pos_site_id
 _symmetry_equiv_pos_as_xyz
  1  'x, y, z'
loop_
 _atom_site_type_symbol
 _atom_site_label
 _atom_site_symmetry_multiplicity
 _atom_site_fract_x
 _atom_site_fract_y
 _atom_site_fract_z
 _atom_site_occupancy
  La  La0  1  0.523102  0.570424  0.342237  1
  La  La1  1  0.023372  0.428590  0.657067  1
  Dy  Dy2  1  0.811072  0.575672  0.875149  1
  Dy  Dy3  1  0.318515  0.426662  0.125185  1
  Dy  Dy4  1  0.182319  0.928433  0.373207  1
  Dy  Dy5  1  0.681920  0.069500  0.627205  1
  Dy  Dy6  1  0.182830  0.928273  0.628514  1
  Dy  Dy7  1  0.682378  0.070488  0.371224  1
  Dy  Dy8  1  0.815328  0.571864  0.125917  1
  Dy  Dy9  1  0.322000  0.431053  0.873809  1
  Dy  Dy10  1  0.644256  0.235228  0.999433  1
  Dy  Dy11  1  0.156265  0.758887  0.000734  1
  Dy  Dy12  1  0.350636  0.262828  0.500099  1
  Dy  Dy13  1  0.850377  0.736241  0.499841  1
  Dy  Dy14  1  0.475383  0.932150  0.847310  1
  Dy  Dy15  1  0.973067  0.066264  0.152123  1
  Dy  Dy16  1  0.473416  0.933215  0.151709  1
  Dy  Dy17  1  0.971390  0.066807  0.849166  1
  Y  Y18  1  0.527740  0.565801  0.651920  1
  Y  Y19  1  0.027750  0.433740  0.347733  1
  Si  Si20  1  0.020143  0.351265  0.999977  1
  Si  Si21  1  0.476434  0.859292  0.501163  1
  Si  Si22  1  0.976714  0.140035  0.499021  1
  Si  Si23  1  0.650342  0.276459  0.790772  1
  Si  Si24  1  0.149905  0.722558  0.209166  1
  Si  Si25  1  0.351566  0.215623  0.287604  1
  Si  Si26  1  0.851945  0.784119  0.712981  1
  Si  Si27  1  0.361306  0.219681  0.710788  1
  Si  Si28  1  0.861001  0.780478  0.288597  1
  Si  Si29  1  0.646185  0.269272  0.206245  1
  Si  Si30  1  0.145234  0.728890  0.793397  1
  Si  Si31  1  0.770651  0.881047  0.000710  1
  Si  Si32  1  0.259387  0.125361  0.999622  1
  Si  Si33  1  0.234279  0.627640  0.501796  1
  Si  Si34  1  0.733388  0.372832  0.498468  1
  Pt  Pt35  1  0.518408  0.653325  0.000110  1
