# generated using pymatgen
data_Y3Ga2SiAg3
_symmetry_space_group_name_H-M   'P 1'
_cell_length_a   7.24573300
_cell_length_b   7.24573375
_cell_length_c   4.14808200
_cell_angle_alpha   90.00000000
_cell_angle_beta   90.00000000
_cell_angle_gamma   119.99999202
_symmetry_Int_Tables_number   1
_chemical_formula_structural   Y3Ga2SiAg3
_chemical_formula_sum   'Y3 Ga2 Si1 Ag3'
_cell_volume   188.60043827
_cell_formula_units_Z   1
loop_
 _symmetry_equiv_pos_site_id
 _symmetry_equiv_pos_as_xyz
  1  'x, y, z'
loop_
 _atom_site_type_symbol
 _atom_site_label
 _atom_site_symmetry_multiplicity
 _atom_site_fract_x
 _atom_site_fract_y
 _atom_site_fract_z
 _atom_site_occupancy
  Y  Y0  1  0.995373  0.416994  0.500000  1
  Y  Y1  1  0.583006  0.578379  0.500000  1
  Y  Y2  1  0.421621  0.004627  0.500000  1
  Ga  Ga3  1  0.333333  0.666667  0.000000  1
  Ga  Ga4  1  0.000000  0.000000  0.500000  1
  Si  Si5  1  0.666667  0.333333  0.000000  1
  Ag  Ag6  1  0.998104  0.747453  0.000000  1
  Ag  Ag7  1  0.252547  0.250652  0.000000  1
  Ag  Ag8  1  0.749348  0.001896  0.000000  1
