# generated using pymatgen
data_Gd3(YSb4)5
_symmetry_space_group_name_H-M   'P 1'
_cell_length_a   4.23861400
_cell_length_b   13.17154691
_cell_length_c   14.66609600
_cell_angle_alpha   77.68535521
_cell_angle_beta   90.00000000
_cell_angle_gamma   90.00000000
_symmetry_Int_Tables_number   1
_chemical_formula_structural   Gd3(YSb4)5
_chemical_formula_sum   'Gd3 Y5 Sb20'
_cell_volume   799.95540772
_cell_formula_units_Z   1
loop_
 _symmetry_equiv_pos_site_id
 _symmetry_equiv_pos_as_xyz
  1  'x, y, z'
loop_
 _atom_site_type_symbol
 _atom_site_label
 _atom_site_symmetry_multiplicity
 _atom_site_fract_x
 _atom_site_fract_y
 _atom_site_fract_z
 _atom_site_occupancy
  Gd  Gd0  1  0.250000  0.394615  0.771255  1
  Gd  Gd1  1  0.750000  0.605306  0.228680  1
  Gd  Gd2  1  0.250000  0.664045  0.855492  1
  Y  Y3  1  0.750000  0.335912  0.144933  1
  Y  Y4  1  0.250000  0.669828  0.576652  1
  Y  Y5  1  0.750000  0.330027  0.422799  1
  Y  Y6  1  0.250000  0.952113  0.360417  1
  Y  Y7  1  0.750000  0.048063  0.639467  1
  Sb  Sb8  1  0.250000  0.143372  0.780074  1
  Sb  Sb9  1  0.750000  0.856893  0.220405  1
  Sb  Sb10  1  0.250000  0.143071  0.482682  1
  Sb  Sb11  1  0.750000  0.856686  0.517268  1
  Sb  Sb12  1  0.250000  0.150711  0.172989  1
  Sb  Sb13  1  0.750000  0.849608  0.826811  1
  Sb  Sb14  1  0.250000  0.419974  0.977326  1
  Sb  Sb15  1  0.750000  0.579899  0.023411  1
  Sb  Sb16  1  0.750000  0.031082  0.905881  1
  Sb  Sb17  1  0.250000  0.968402  0.094186  1
  Sb  Sb18  1  0.750000  0.137797  0.322678  1
  Sb  Sb19  1  0.250000  0.862498  0.676860  1
  Sb  Sb20  1  0.750000  0.279985  0.939100  1
  Sb  Sb21  1  0.250000  0.720002  0.061620  1
  Sb  Sb22  1  0.750000  0.287589  0.652976  1
  Sb  Sb23  1  0.250000  0.712423  0.347116  1
  Sb  Sb24  1  0.750000  0.577509  0.733361  1
  Sb  Sb25  1  0.250000  0.422565  0.265777  1
  Sb  Sb26  1  0.750000  0.574703  0.447386  1
  Sb  Sb27  1  0.250000  0.425319  0.552398  1
