# generated using pymatgen
data_Dy5Tm5Si5Sn
_symmetry_space_group_name_H-M   'P 1'
_cell_length_a   8.48239670
_cell_length_b   8.49505464
_cell_length_c   6.32513900
_cell_angle_alpha   90.00000000
_cell_angle_beta   90.00000000
_cell_angle_gamma   120.22333222
_symmetry_Int_Tables_number   1
_chemical_formula_structural   Dy5Tm5Si5Sn
_chemical_formula_sum   'Dy5 Tm5 Si5 Sn1'
_cell_volume   393.82538026
_cell_formula_units_Z   1
loop_
 _symmetry_equiv_pos_site_id
 _symmetry_equiv_pos_as_xyz
  1  'x, y, z'
loop_
 _atom_site_type_symbol
 _atom_site_label
 _atom_site_symmetry_multiplicity
 _atom_site_fract_x
 _atom_site_fract_y
 _atom_site_fract_z
 _atom_site_occupancy
  Dy  Dy0  1  0.765046  0.765308  0.250000  1
  Dy  Dy1  1  0.240898  0.989800  0.250000  1
  Dy  Dy2  1  0.241093  0.241439  0.750000  1
  Dy  Dy3  1  0.756033  0.998972  0.750000  1
  Dy  Dy4  1  0.998673  0.755133  0.750000  1
  Tm  Tm5  1  0.673978  0.331337  0.502692  1
  Tm  Tm6  1  0.331271  0.673500  0.502792  1
  Tm  Tm7  1  0.331271  0.673500  0.997208  1
  Tm  Tm8  1  0.673978  0.331337  0.997308  1
  Tm  Tm9  1  0.989327  0.241173  0.250000  1
  Si  Si10  1  0.604628  0.999372  0.250000  1
  Si  Si11  1  0.998478  0.602548  0.250000  1
  Si  Si12  1  0.604673  0.604779  0.750000  1
  Si  Si13  1  0.394542  0.001525  0.750000  1
  Si  Si14  1  0.001394  0.394692  0.750000  1
  Sn  Sn15  1  0.394721  0.395587  0.250000  1
