# generated using pymatgen
data_Tb2Er2Tm(CoB3)2
_symmetry_space_group_name_H-M   'P 1'
_cell_length_a   5.39248114
_cell_length_b   5.39248293
_cell_length_c   8.28028633
_cell_angle_alpha   70.99674727
_cell_angle_beta   70.99674164
_cell_angle_gamma   60.00001866
_symmetry_Int_Tables_number   1
_chemical_formula_structural   Tb2Er2Tm(CoB3)2
_chemical_formula_sum   'Tb2 Er2 Tm1 Co2 B6'
_cell_volume   193.22165338
_cell_formula_units_Z   1
loop_
 _symmetry_equiv_pos_site_id
 _symmetry_equiv_pos_as_xyz
  1  'x, y, z'
loop_
 _atom_site_type_symbol
 _atom_site_label
 _atom_site_symmetry_multiplicity
 _atom_site_fract_x
 _atom_site_fract_y
 _atom_site_fract_z
 _atom_site_occupancy
  Tb  Tb0  1  0.252998  0.252998  0.241007  1
  Tb  Tb1  1  0.747002  0.747002  0.758993  1
  Er  Er2  1  0.416200  0.416200  0.751401  1
  Er  Er3  1  0.583800  0.583800  0.248599  1
  Tm  Tm4  1  0.000000  0.000000  0.000000  1
  Co  Co5  1  0.119344  0.119344  0.641968  1
  Co  Co6  1  0.880656  0.880656  0.358032  1
  B  B7  1  0.168937  0.831063  0.500000  1
  B  B8  1  0.831063  0.500000  0.500000  1
  B  B9  1  0.500000  0.168937  0.500000  1
  B  B10  1  0.168937  0.500000  0.500000  1
  B  B11  1  0.500000  0.831063  0.500000  1
  B  B12  1  0.831063  0.168937  0.500000  1
