# generated using pymatgen
data_Pr3Nd7Al4(Os2Ru)2
_symmetry_space_group_name_H-M   'P 1'
_cell_length_a   8.61665823
_cell_length_b   8.59832869
_cell_length_c   8.59873262
_cell_angle_alpha   109.44883897
_cell_angle_beta   109.75915981
_cell_angle_gamma   109.36955790
_symmetry_Int_Tables_number   1
_chemical_formula_structural   Pr3Nd7Al4(Os2Ru)2
_chemical_formula_sum   'Pr3 Nd7 Al4 Os4 Ru2'
_cell_volume   489.41772961
_cell_formula_units_Z   1
loop_
 _symmetry_equiv_pos_site_id
 _symmetry_equiv_pos_as_xyz
  1  'x, y, z'
loop_
 _atom_site_type_symbol
 _atom_site_label
 _atom_site_symmetry_multiplicity
 _atom_site_fract_x
 _atom_site_fract_y
 _atom_site_fract_z
 _atom_site_occupancy
  Pr  Pr0  1  0.499438  0.999649  0.285766  1
  Pr  Pr1  1  0.286552  0.499975  0.000294  1
  Pr  Pr2  1  0.999684  0.285778  0.499341  1
  Nd  Nd3  1  0.249080  0.681125  0.433604  1
  Nd  Nd4  1  0.749901  0.818156  0.065877  1
  Nd  Nd5  1  0.432662  0.248513  0.681527  1
  Nd  Nd6  1  0.681870  0.433208  0.250620  1
  Nd  Nd7  1  0.067325  0.751211  0.818934  1
  Nd  Nd8  1  0.817984  0.067278  0.748967  1
  Nd  Nd9  1  0.213443  0.213831  0.213982  1
  Al  Al10  1  0.590067  0.589094  0.590152  1
  Al  Al11  1  0.500440  0.001413  0.910592  1
  Al  Al12  1  0.910221  0.500130  0.000583  1
  Al  Al13  1  0.001163  0.910214  0.499489  1
  Os  Os14  1  0.250145  0.116925  0.866974  1
  Os  Os15  1  0.749627  0.383168  0.633382  1
  Os  Os16  1  0.866354  0.250185  0.116310  1
  Os  Os17  1  0.116273  0.866591  0.250059  1
  Ru  Ru18  1  0.633889  0.749625  0.383709  1
  Ru  Ru19  1  0.383880  0.633931  0.749837  1
