# generated using pymatgen
data_Pm4SiBO10
_symmetry_space_group_name_H-M   'P 1'
_cell_length_a   8.93401107
_cell_length_b   7.57340700
_cell_length_c   6.79773366
_cell_angle_alpha   89.99993931
_cell_angle_beta   109.50571541
_cell_angle_gamma   90.00004123
_symmetry_Int_Tables_number   1
_chemical_formula_structural   Pm4SiBO10
_chemical_formula_sum   'Pm8 Si2 B2 O20'
_cell_volume   433.54395542
_cell_formula_units_Z   2
loop_
 _symmetry_equiv_pos_site_id
 _symmetry_equiv_pos_as_xyz
  1  'x, y, z'
loop_
 _atom_site_type_symbol
 _atom_site_label
 _atom_site_symmetry_multiplicity
 _atom_site_fract_x
 _atom_site_fract_y
 _atom_site_fract_z
 _atom_site_occupancy
  Pm  Pm0  1  0.895351  0.673881  0.099410  1
  Pm  Pm1  1  0.506397  0.631638  0.226445  1
  Pm  Pm2  1  0.493604  0.131639  0.273555  1
  Pm  Pm3  1  0.104648  0.173881  0.400589  1
  Pm  Pm4  1  0.888665  0.848618  0.594706  1
  Pm  Pm5  1  0.514419  0.874233  0.731442  1
  Pm  Pm6  1  0.485580  0.374233  0.768557  1
  Pm  Pm7  1  0.111335  0.348618  0.905294  1
  Si  Si8  1  0.796997  0.431906  0.545165  1
  Si  Si9  1  0.203004  0.931907  0.954834  1
  B  B10  1  0.803077  0.053747  0.043842  1
  B  B11  1  0.196921  0.553747  0.456156  1
  O  O12  1  0.392469  0.884368  0.010537  1
  O  O13  1  0.388560  0.374292  0.049298  1
  O  O14  1  0.903368  0.204632  0.037169  1
  O  O15  1  0.205931  0.085867  0.129586  1
  O  O16  1  0.874947  0.959126  0.248359  1
  O  O17  1  0.125052  0.459126  0.251638  1
  O  O18  1  0.794070  0.585865  0.370414  1
  O  O19  1  0.096632  0.704634  0.462831  1
  O  O20  1  0.611441  0.874292  0.450702  1
  O  O21  1  0.607531  0.384367  0.489463  1
  O  O22  1  0.356006  0.634816  0.491072  1
  O  O23  1  0.390600  0.125328  0.549648  1
  O  O24  1  0.901901  0.258485  0.548832  1
  O  O25  1  0.209505  0.422747  0.626494  1
  O  O26  1  0.871734  0.536310  0.768457  1
  O  O27  1  0.128266  0.036312  0.731542  1
  O  O28  1  0.790493  0.922748  0.873506  1
  O  O29  1  0.098099  0.758486  0.951170  1
  O  O30  1  0.609400  0.625329  0.950350  1
  O  O31  1  0.643994  0.134816  0.008926  1
