# generated using pymatgen
data_Cs3KAlGaSe5
_symmetry_space_group_name_H-M   'P 1'
_cell_length_a   8.40575944
_cell_length_b   9.01464820
_cell_length_c   11.42068578
_cell_angle_alpha   77.01914940
_cell_angle_beta   84.14612437
_cell_angle_gamma   81.08529919
_symmetry_Int_Tables_number   1
_chemical_formula_structural   Cs3KAlGaSe5
_chemical_formula_sum   'Cs6 K2 Al2 Ga2 Se10'
_cell_volume   831.06886770
_cell_formula_units_Z   2
loop_
 _symmetry_equiv_pos_site_id
 _symmetry_equiv_pos_as_xyz
  1  'x, y, z'
loop_
 _atom_site_type_symbol
 _atom_site_label
 _atom_site_symmetry_multiplicity
 _atom_site_fract_x
 _atom_site_fract_y
 _atom_site_fract_z
 _atom_site_occupancy
  Cs  Cs0  1  0.187916  0.087378  0.871309  1
  Cs  Cs1  1  0.051981  0.605006  0.762269  1
  Cs  Cs2  1  0.812084  0.912622  0.128691  1
  Cs  Cs3  1  0.948019  0.394994  0.237731  1
  Cs  Cs4  1  0.573084  0.711513  0.506029  1
  Cs  Cs5  1  0.426916  0.288487  0.493971  1
  K  K6  1  0.433904  0.337465  0.084246  1
  K  K7  1  0.566096  0.662535  0.915754  1
  Al  Al8  1  0.901758  0.082023  0.599724  1
  Al  Al9  1  0.098242  0.917977  0.400276  1
  Ga  Ga10  1  0.290494  0.727941  0.207245  1
  Ga  Ga11  1  0.709506  0.272059  0.792755  1
  Se  Se12  1  0.883304  0.348037  0.604300  1
  Se  Se13  1  0.183081  0.963663  0.584431  1
  Se  Se14  1  0.440707  0.405225  0.775347  1
  Se  Se15  1  0.181055  0.688410  0.032624  1
  Se  Se16  1  0.818945  0.311590  0.967376  1
  Se  Se17  1  0.559293  0.594775  0.224653  1
  Se  Se18  1  0.116696  0.651963  0.395700  1
  Se  Se19  1  0.262476  0.012820  0.221033  1
  Se  Se20  1  0.737524  0.987180  0.778967  1
  Se  Se21  1  0.816919  0.036337  0.415569  1
