# generated using pymatgen
data_Pu2CdPt2
_symmetry_space_group_name_H-M   'P 1'
_cell_length_a   7.72094000
_cell_length_b   7.72094000
_cell_length_c   3.67580100
_cell_angle_alpha   90.00000000
_cell_angle_beta   90.00000000
_cell_angle_gamma   90.00000000
_symmetry_Int_Tables_number   1
_chemical_formula_structural   Pu2CdPt2
_chemical_formula_sum   'Pu4 Cd2 Pt4'
_cell_volume   219.12521067
_cell_formula_units_Z   2
loop_
 _symmetry_equiv_pos_site_id
 _symmetry_equiv_pos_as_xyz
  1  'x, y, z'
loop_
 _atom_site_type_symbol
 _atom_site_label
 _atom_site_symmetry_multiplicity
 _atom_site_fract_x
 _atom_site_fract_y
 _atom_site_fract_z
 _atom_site_occupancy
  Pu  Pu0  1  0.665803  0.165803  0.500000  1
  Pu  Pu1  1  0.165803  0.334197  0.500000  1
  Pu  Pu2  1  0.334197  0.834197  0.500000  1
  Pu  Pu3  1  0.834197  0.665803  0.500000  1
  Cd  Cd4  1  0.000000  0.000000  0.000000  1
  Cd  Cd5  1  0.500000  0.500000  0.000000  1
  Pt  Pt6  1  0.864322  0.364322  0.000000  1
  Pt  Pt7  1  0.635678  0.864322  0.000000  1
  Pt  Pt8  1  0.135678  0.635678  0.000000  1
  Pt  Pt9  1  0.364322  0.135678  0.000000  1
