# generated using pymatgen
data_GaAsPd4
_symmetry_space_group_name_H-M   'P 1'
_cell_length_a   3.47542300
_cell_length_b   6.84378018
_cell_length_c   11.81114439
_cell_angle_alpha   89.92623349
_cell_angle_beta   90.00000000
_cell_angle_gamma   90.00000000
_symmetry_Int_Tables_number   1
_chemical_formula_structural   GaAsPd4
_chemical_formula_sum   'Ga3 As3 Pd12'
_cell_volume   280.92820311
_cell_formula_units_Z   3
loop_
 _symmetry_equiv_pos_site_id
 _symmetry_equiv_pos_as_xyz
  1  'x, y, z'
loop_
 _atom_site_type_symbol
 _atom_site_label
 _atom_site_symmetry_multiplicity
 _atom_site_fract_x
 _atom_site_fract_y
 _atom_site_fract_z
 _atom_site_occupancy
  Ga  Ga0  1  0.000000  0.501516  0.166003  1
  Ga  Ga1  1  0.000000  0.497972  0.835939  1
  Ga  Ga2  1  0.000000  0.001084  0.331433  1
  As  As3  1  0.500000  0.001575  0.002813  1
  As  As4  1  0.500000  0.498362  0.497745  1
  As  As5  1  0.000000  0.997977  0.666577  1
  Pd  Pd6  1  0.000000  0.735527  0.001301  1
  Pd  Pd7  1  0.000000  0.229384  0.502544  1
  Pd  Pd8  1  0.000000  0.637976  0.633849  1
  Pd  Pd9  1  0.000000  0.136580  0.132672  1
  Pd  Pd10  1  0.000000  0.127923  0.863348  1
  Pd  Pd11  1  0.000000  0.632530  0.365793  1
  Pd  Pd12  1  0.500000  0.892612  0.496715  1
  Pd  Pd13  1  0.500000  0.395094  0.998350  1
  Pd  Pd14  1  0.500000  0.796221  0.805370  1
  Pd  Pd15  1  0.500000  0.301980  0.302455  1
  Pd  Pd16  1  0.500000  0.309913  0.697315  1
  Pd  Pd17  1  0.500000  0.805972  0.199779  1
