# generated using pymatgen
data_Dy5Ho3(LuGa3)2
_symmetry_space_group_name_H-M   'P 1'
_cell_length_a   7.56283300
_cell_length_b   7.56222600
_cell_length_c   14.12486000
_cell_angle_alpha   90.00200961
_cell_angle_beta   90.00000000
_cell_angle_gamma   90.00000000
_symmetry_Int_Tables_number   1
_chemical_formula_structural   Dy5Ho3(LuGa3)2
_chemical_formula_sum   'Dy10 Ho6 Lu4 Ga12'
_cell_volume   807.82690728
_cell_formula_units_Z   2
loop_
 _symmetry_equiv_pos_site_id
 _symmetry_equiv_pos_as_xyz
  1  'x, y, z'
loop_
 _atom_site_type_symbol
 _atom_site_label
 _atom_site_symmetry_multiplicity
 _atom_site_fract_x
 _atom_site_fract_y
 _atom_site_fract_z
 _atom_site_occupancy
  Dy  Dy0  1  0.676333  0.662489  0.602811  1
  Dy  Dy1  1  0.676429  0.337618  0.102803  1
  Dy  Dy2  1  0.823788  0.837615  0.397176  1
  Dy  Dy3  1  0.176212  0.837615  0.897176  1
  Dy  Dy4  1  0.323571  0.337618  0.602803  1
  Dy  Dy5  1  0.323667  0.662489  0.102811  1
  Dy  Dy6  1  0.176255  0.162285  0.397189  1
  Dy  Dy7  1  0.823745  0.162285  0.897189  1
  Dy  Dy8  1  0.662417  0.323843  0.397170  1
  Dy  Dy9  1  0.337583  0.323843  0.897170  1
  Ho  Ho10  1  0.162270  0.823859  0.602975  1
  Ho  Ho11  1  0.837730  0.823859  0.102975  1
  Ho  Ho12  1  0.337713  0.676193  0.397015  1
  Ho  Ho13  1  0.662287  0.676193  0.897015  1
  Ho  Ho14  1  0.837742  0.176107  0.602978  1
  Ho  Ho15  1  0.162258  0.176107  0.102978  1
  Lu  Lu16  1  0.999931  0.500039  0.762238  1
  Lu  Lu17  1  0.000069  0.500039  0.262238  1
  Lu  Lu18  1  0.499956  0.999940  0.237655  1
  Lu  Lu19  1  0.500044  0.999940  0.737655  1
  Ga  Ga20  1  0.000072  0.500071  0.495470  1
  Ga  Ga21  1  0.999928  0.500071  0.995470  1
  Ga  Ga22  1  0.499921  0.999933  0.504591  1
  Ga  Ga23  1  0.500079  0.999933  0.004591  1
  Ga  Ga24  1  0.876148  0.876116  0.749965  1
  Ga  Ga25  1  0.876164  0.123833  0.249955  1
  Ga  Ga26  1  0.623871  0.623895  0.250007  1
  Ga  Ga27  1  0.376129  0.623895  0.750007  1
  Ga  Ga28  1  0.123836  0.123833  0.749955  1
  Ga  Ga29  1  0.123852  0.876116  0.249965  1
  Ga  Ga30  1  0.376090  0.376165  0.250002  1
  Ga  Ga31  1  0.623910  0.376165  0.750002  1
