# generated using pymatgen
data_Na2GaPbAu2
_symmetry_space_group_name_H-M   'P 1'
_cell_length_a   4.46519900
_cell_length_b   7.64433440
_cell_length_c   8.39468979
_cell_angle_alpha   87.35618832
_cell_angle_beta   90.00000000
_cell_angle_gamma   90.00000000
_symmetry_Int_Tables_number   1
_chemical_formula_structural   Na2GaPbAu2
_chemical_formula_sum   'Na4 Ga2 Pb2 Au4'
_cell_volume   286.23493236
_cell_formula_units_Z   2
loop_
 _symmetry_equiv_pos_site_id
 _symmetry_equiv_pos_as_xyz
  1  'x, y, z'
loop_
 _atom_site_type_symbol
 _atom_site_label
 _atom_site_symmetry_multiplicity
 _atom_site_fract_x
 _atom_site_fract_y
 _atom_site_fract_z
 _atom_site_occupancy
  Na  Na0  1  0.250000  0.017145  0.336355  1
  Na  Na1  1  0.250000  0.510686  0.195094  1
  Na  Na2  1  0.750000  0.982855  0.663645  1
  Na  Na3  1  0.750000  0.489314  0.804906  1
  Ga  Ga4  1  0.250000  0.654518  0.569290  1
  Ga  Ga5  1  0.750000  0.345482  0.430710  1
  Pb  Pb6  1  0.750000  0.839352  0.073215  1
  Pb  Pb7  1  0.250000  0.160648  0.926785  1
  Au  Au8  1  0.250000  0.769992  0.853904  1
  Au  Au9  1  0.750000  0.230008  0.146096  1
  Au  Au10  1  0.750000  0.697050  0.409020  1
  Au  Au11  1  0.250000  0.302950  0.590980  1
