# generated using pymatgen
data_Hf6Zr2Co16SiP11
_symmetry_space_group_name_H-M   'P 1'
_cell_length_a   12.09221329
_cell_length_b   12.09221400
_cell_length_c   3.64127000
_cell_angle_alpha   90.00000000
_cell_angle_beta   90.00000000
_cell_angle_gamma   119.97761995
_symmetry_Int_Tables_number   1
_chemical_formula_structural   Hf6Zr2Co16SiP11
_chemical_formula_sum   'Hf6 Zr2 Co16 Si1 P11'
_cell_volume   461.20396717
_cell_formula_units_Z   1
loop_
 _symmetry_equiv_pos_site_id
 _symmetry_equiv_pos_as_xyz
  1  'x, y, z'
loop_
 _atom_site_type_symbol
 _atom_site_label
 _atom_site_symmetry_multiplicity
 _atom_site_fract_x
 _atom_site_fract_y
 _atom_site_fract_z
 _atom_site_occupancy
  Hf  Hf0  1  0.441870  0.441870  0.000000  1
  Hf  Hf1  1  0.555676  0.000675  0.000000  1
  Hf  Hf2  1  0.000675  0.555676  0.000000  1
  Hf  Hf3  1  0.826193  0.826193  0.500000  1
  Hf  Hf4  1  0.175144  0.999752  0.500000  1
  Hf  Hf5  1  0.999752  0.175144  0.500000  1
  Zr  Zr6  1  0.667075  0.333902  0.000000  1
  Zr  Zr7  1  0.333902  0.667075  0.000000  1
  Co  Co8  1  0.191934  0.370177  0.000000  1
  Co  Co9  1  0.177783  0.807239  0.000000  1
  Co  Co10  1  0.825809  0.628831  0.000000  1
  Co  Co11  1  0.807239  0.177783  0.000000  1
  Co  Co12  1  0.370177  0.191934  0.000000  1
  Co  Co13  1  0.125671  0.480365  0.500000  1
  Co  Co14  1  0.354367  0.874634  0.500000  1
  Co  Co15  1  0.517636  0.644554  0.500000  1
  Co  Co16  1  0.644554  0.517636  0.500000  1
  Co  Co17  1  0.874634  0.354367  0.500000  1
  Co  Co18  1  0.480365  0.125671  0.500000  1
  Co  Co19  1  0.000653  0.000653  0.000000  1
  Co  Co20  1  0.722556  0.001853  0.500000  1
  Co  Co21  1  0.001853  0.722556  0.500000  1
  Co  Co22  1  0.628831  0.825809  0.000000  1
  Co  Co23  1  0.277370  0.277370  0.500000  1
  Si  Si24  1  0.654751  0.654751  0.000000  1
  P  P25  1  0.344610  0.999645  0.000000  1
  P  P26  1  0.999645  0.344610  0.000000  1
  P  P27  1  0.481548  0.308522  0.500000  1
  P  P28  1  0.690904  0.173269  0.500000  1
  P  P29  1  0.827316  0.518391  0.500000  1
  P  P30  1  0.518391  0.827316  0.500000  1
  P  P31  1  0.173269  0.690904  0.500000  1
  P  P32  1  0.825297  0.999502  0.000000  1
  P  P33  1  0.999502  0.825297  0.000000  1
  P  P34  1  0.308522  0.481548  0.500000  1
  P  P35  1  0.174524  0.174524  0.000000  1
