# generated using pymatgen
data_Pr4As7Rh8
_symmetry_space_group_name_H-M   'P 1'
_cell_length_a   4.14778500
_cell_length_b   13.21372364
_cell_length_c   13.63720426
_cell_angle_alpha   81.62036615
_cell_angle_beta   90.00000000
_cell_angle_gamma   90.00000000
_symmetry_Int_Tables_number   1
_chemical_formula_structural   Pr4As7Rh8
_chemical_formula_sum   'Pr8 As14 Rh16'
_cell_volume   739.44424356
_cell_formula_units_Z   2
loop_
 _symmetry_equiv_pos_site_id
 _symmetry_equiv_pos_as_xyz
  1  'x, y, z'
loop_
 _atom_site_type_symbol
 _atom_site_label
 _atom_site_symmetry_multiplicity
 _atom_site_fract_x
 _atom_site_fract_y
 _atom_site_fract_z
 _atom_site_occupancy
  Pr  Pr0  1  0.250000  0.100135  0.793360  1
  Pr  Pr1  1  0.750000  0.899865  0.206640  1
  Pr  Pr2  1  0.250000  0.284092  0.101500  1
  Pr  Pr3  1  0.750000  0.715908  0.898500  1
  Pr  Pr4  1  0.250000  0.519209  0.292210  1
  Pr  Pr5  1  0.750000  0.480791  0.707790  1
  Pr  Pr6  1  0.250000  0.208843  0.437000  1
  Pr  Pr7  1  0.750000  0.791157  0.563000  1
  As  As8  1  0.250000  0.054082  0.100160  1
  As  As9  1  0.750000  0.945918  0.899840  1
  As  As10  1  0.250000  0.312235  0.688149  1
  As  As11  1  0.750000  0.687765  0.311851  1
  As  As12  1  0.250000  0.607057  0.565500  1
  As  As13  1  0.750000  0.392943  0.434500  1
  As  As14  1  0.250000  0.848374  0.719897  1
  As  As15  1  0.750000  0.151626  0.280103  1
  As  As16  1  0.750000  0.258643  0.920310  1
  As  As17  1  0.250000  0.741357  0.079690  1
  As  As18  1  0.750000  0.094616  0.586301  1
  As  As19  1  0.250000  0.905384  0.413699  1
  As  As20  1  0.750000  0.471419  0.128569  1
  As  As21  1  0.250000  0.528581  0.871431  1
  Rh  Rh22  1  0.250000  0.988848  0.573691  1
  Rh  Rh23  1  0.750000  0.011152  0.426309  1
  Rh  Rh24  1  0.250000  0.666164  0.731734  1
  Rh  Rh25  1  0.750000  0.333836  0.268266  1
  Rh  Rh26  1  0.250000  0.553634  0.046195  1
  Rh  Rh27  1  0.750000  0.446366  0.953805  1
  Rh  Rh28  1  0.250000  0.053720  0.279117  1
  Rh  Rh29  1  0.750000  0.946280  0.720883  1
  Rh  Rh30  1  0.250000  0.425701  0.526591  1
  Rh  Rh31  1  0.750000  0.574299  0.473409  1
  Rh  Rh32  1  0.250000  0.917354  0.996995  1
  Rh  Rh33  1  0.750000  0.082646  0.003005  1
  Rh  Rh34  1  0.250000  0.721254  0.400238  1
  Rh  Rh35  1  0.750000  0.278746  0.599762  1
  Rh  Rh36  1  0.250000  0.343564  0.861133  1
  Rh  Rh37  1  0.750000  0.656436  0.138867  1
