# generated using pymatgen
data_Pr8YEr3In20
_symmetry_space_group_name_H-M   'P 1'
_cell_length_a   6.69229501
_cell_length_b   10.56169500
_cell_length_c   12.49458002
_cell_angle_alpha   90.00000000
_cell_angle_beta   90.00602640
_cell_angle_gamma   90.00000000
_symmetry_Int_Tables_number   1
_chemical_formula_structural   Pr8YEr3In20
_chemical_formula_sum   'Pr8 Y1 Er3 In20'
_cell_volume   883.14163423
_cell_formula_units_Z   1
loop_
 _symmetry_equiv_pos_site_id
 _symmetry_equiv_pos_as_xyz
  1  'x, y, z'
loop_
 _atom_site_type_symbol
 _atom_site_label
 _atom_site_symmetry_multiplicity
 _atom_site_fract_x
 _atom_site_fract_y
 _atom_site_fract_z
 _atom_site_occupancy
  Pr  Pr0  1  0.888913  0.490136  0.143934  1
  Pr  Pr1  1  0.610987  0.009746  0.644025  1
  Pr  Pr2  1  0.111105  0.990138  0.856085  1
  Pr  Pr3  1  0.388836  0.509831  0.356082  1
  Pr  Pr4  1  0.111105  0.509862  0.856085  1
  Pr  Pr5  1  0.388836  0.990169  0.356082  1
  Pr  Pr6  1  0.888913  0.009864  0.143934  1
  Pr  Pr7  1  0.610987  0.490254  0.644025  1
  Y  Y8  1  0.849835  0.250000  0.439601  1
  Er  Er9  1  0.349560  0.750000  0.060371  1
  Er  Er10  1  0.150462  0.750000  0.560393  1
  Er  Er11  1  0.650482  0.250000  0.939676  1
  In  In12  1  0.616968  0.750000  0.502457  1
  In  In13  1  0.883071  0.750000  0.002472  1
  In  In14  1  0.382642  0.250000  0.497645  1
  In  In15  1  0.116948  0.250000  0.997521  1
  In  In16  1  0.654513  0.750000  0.243787  1
  In  In17  1  0.845481  0.750000  0.743793  1
  In  In18  1  0.345509  0.250000  0.756234  1
  In  In19  1  0.155053  0.250000  0.255906  1
  In  In20  1  0.110267  0.750000  0.284299  1
  In  In21  1  0.389725  0.750000  0.784303  1
  In  In22  1  0.889705  0.250000  0.715802  1
  In  In23  1  0.610012  0.250000  0.215456  1
  In  In24  1  0.875106  0.545559  0.404481  1
  In  In25  1  0.624840  0.954777  0.904503  1
  In  In26  1  0.124936  0.045164  0.595544  1
  In  In27  1  0.375160  0.454755  0.095488  1
  In  In28  1  0.124936  0.454836  0.595544  1
  In  In29  1  0.375160  0.045245  0.095488  1
  In  In30  1  0.875106  0.954441  0.404481  1
  In  In31  1  0.624840  0.545223  0.904503  1
