# generated using pymatgen
data_Y3ErGa18(NiIr2)2
_symmetry_space_group_name_H-M   'P 1'
_cell_length_a   7.54949266
_cell_length_b   7.55003195
_cell_length_c   9.45279500
_cell_angle_alpha   90.00000000
_cell_angle_beta   90.00000000
_cell_angle_gamma   120.01753368
_symmetry_Int_Tables_number   1
_chemical_formula_structural   Y3ErGa18(NiIr2)2
_chemical_formula_sum   'Y3 Er1 Ga18 Ni2 Ir4'
_cell_volume   466.53117420
_cell_formula_units_Z   1
loop_
 _symmetry_equiv_pos_site_id
 _symmetry_equiv_pos_as_xyz
  1  'x, y, z'
loop_
 _atom_site_type_symbol
 _atom_site_label
 _atom_site_symmetry_multiplicity
 _atom_site_fract_x
 _atom_site_fract_y
 _atom_site_fract_z
 _atom_site_occupancy
  Y  Y0  1  0.996465  0.662475  0.750000  1
  Y  Y1  1  0.003569  0.337733  0.250000  1
  Y  Y2  1  0.662188  0.996419  0.750000  1
  Er  Er3  1  0.337859  0.003517  0.250000  1
  Ga  Ga4  1  0.113446  0.113246  0.750000  1
  Ga  Ga5  1  0.887855  0.887316  0.250000  1
  Ga  Ga6  1  0.999316  0.328051  0.577681  1
  Ga  Ga7  1  0.001325  0.672411  0.421021  1
  Ga  Ga8  1  0.001325  0.672411  0.078979  1
  Ga  Ga9  1  0.327990  0.999333  0.922871  1
  Ga  Ga10  1  0.999316  0.328051  0.922319  1
  Ga  Ga11  1  0.671234  0.000863  0.079087  1
  Ga  Ga12  1  0.671234  0.000863  0.420913  1
  Ga  Ga13  1  0.327990  0.999333  0.577129  1
  Ga  Ga14  1  0.327042  0.326559  0.065943  1
  Ga  Ga15  1  0.672692  0.672681  0.935713  1
  Ga  Ga16  1  0.672692  0.672681  0.564287  1
  Ga  Ga17  1  0.327042  0.326559  0.434057  1
  Ga  Ga18  1  0.337522  0.541506  0.750000  1
  Ga  Ga19  1  0.661409  0.457609  0.250000  1
  Ga  Ga20  1  0.541439  0.337391  0.750000  1
  Ga  Ga21  1  0.458463  0.662638  0.250000  1
  Ni  Ni22  1  0.000086  0.000028  0.499892  1
  Ni  Ni23  1  0.000086  0.000028  0.000108  1
  Ir  Ir24  1  0.671746  0.328514  0.499830  1
  Ir  Ir25  1  0.328462  0.671635  0.499841  1
  Ir  Ir26  1  0.328462  0.671635  0.000159  1
  Ir  Ir27  1  0.671746  0.328514  0.000170  1
