# generated using pymatgen
data_Tm2Th3Tc2Rh
_symmetry_space_group_name_H-M   'P 1'
_cell_length_a   8.27639000
_cell_length_b   8.27639104
_cell_length_c   6.46922400
_cell_angle_alpha   90.00000000
_cell_angle_beta   90.00000000
_cell_angle_gamma   120.04702627
_symmetry_Int_Tables_number   1
_chemical_formula_structural   Tm2Th3Tc2Rh
_chemical_formula_sum   'Tm4 Th6 Tc4 Rh2'
_cell_volume   383.58249231
_cell_formula_units_Z   2
loop_
 _symmetry_equiv_pos_site_id
 _symmetry_equiv_pos_as_xyz
  1  'x, y, z'
loop_
 _atom_site_type_symbol
 _atom_site_label
 _atom_site_symmetry_multiplicity
 _atom_site_fract_x
 _atom_site_fract_y
 _atom_site_fract_z
 _atom_site_occupancy
  Tm  Tm0  1  0.334108  0.665892  0.000000  1
  Tm  Tm1  1  0.665892  0.334108  0.000000  1
  Tm  Tm2  1  0.665892  0.334108  0.500000  1
  Tm  Tm3  1  0.334108  0.665892  0.500000  1
  Th  Th4  1  0.248411  0.991533  0.250000  1
  Th  Th5  1  0.751589  0.008467  0.750000  1
  Th  Th6  1  0.991533  0.248411  0.250000  1
  Th  Th7  1  0.008467  0.751589  0.750000  1
  Th  Th8  1  0.749945  0.749945  0.250000  1
  Th  Th9  1  0.250055  0.250055  0.750000  1
  Tc  Tc10  1  0.615608  0.996067  0.250000  1
  Tc  Tc11  1  0.384392  0.003933  0.750000  1
  Tc  Tc12  1  0.996067  0.615608  0.250000  1
  Tc  Tc13  1  0.003933  0.384392  0.750000  1
  Rh  Rh14  1  0.381808  0.381808  0.250000  1
  Rh  Rh15  1  0.618192  0.618192  0.750000  1
