# generated using pymatgen
data_NdSm3(Si5Os3)2
_symmetry_space_group_name_H-M   'P 1'
_cell_length_a   8.20269637
_cell_length_b   8.20049045
_cell_length_c   5.86236993
_cell_angle_alpha   70.43322366
_cell_angle_beta   70.39945714
_cell_angle_gamma   93.73522745
_symmetry_Int_Tables_number   1
_chemical_formula_structural   NdSm3(Si5Os3)2
_chemical_formula_sum   'Nd1 Sm3 Si10 Os6'
_cell_volume   342.96672767
_cell_formula_units_Z   1
loop_
 _symmetry_equiv_pos_site_id
 _symmetry_equiv_pos_as_xyz
  1  'x, y, z'
loop_
 _atom_site_type_symbol
 _atom_site_label
 _atom_site_symmetry_multiplicity
 _atom_site_fract_x
 _atom_site_fract_y
 _atom_site_fract_z
 _atom_site_occupancy
  Nd  Nd0  1  0.867333  0.603047  0.754083  1
  Sm  Sm1  1  0.398416  0.131427  0.745593  1
  Sm  Sm2  1  0.131700  0.397929  0.245986  1
  Sm  Sm3  1  0.602461  0.867272  0.254772  1
  Si  Si4  1  0.065696  0.260910  0.835497  1
  Si  Si5  1  0.738542  0.937795  0.664147  1
  Si  Si6  1  0.936130  0.739459  0.163856  1
  Si  Si7  1  0.260492  0.064339  0.335859  1
  Si  Si8  1  0.208198  0.792692  0.750471  1
  Si  Si9  1  0.792420  0.207941  0.249145  1
  Si  Si10  1  0.510859  0.486379  0.751104  1
  Si  Si11  1  0.487073  0.511554  0.250230  1
  Si  Si12  1  0.772968  0.226222  0.750171  1
  Si  Si13  1  0.227487  0.772969  0.249034  1
  Os  Os14  1  0.256818  0.543029  0.631697  1
  Os  Os15  1  0.457522  0.743240  0.867918  1
  Os  Os16  1  0.743166  0.456853  0.368887  1
  Os  Os17  1  0.542306  0.255478  0.132158  1
  Os  Os18  1  0.002740  0.998320  0.749681  1
  Os  Os19  1  0.997673  0.003143  0.249709  1
