# generated using pymatgen
data_Er16In4Ru3Pt
_symmetry_space_group_name_H-M   'P 1'
_cell_length_a   9.55985364
_cell_length_b   9.57174330
_cell_length_c   9.55985400
_cell_angle_alpha   60.04108067
_cell_angle_beta   59.99999874
_cell_angle_gamma   60.04108109
_symmetry_Int_Tables_number   1
_chemical_formula_structural   Er16In4Ru3Pt
_chemical_formula_sum   'Er16 In4 Ru3 Pt1'
_cell_volume   618.93912239
_cell_formula_units_Z   1
loop_
 _symmetry_equiv_pos_site_id
 _symmetry_equiv_pos_as_xyz
  1  'x, y, z'
loop_
 _atom_site_type_symbol
 _atom_site_label
 _atom_site_symmetry_multiplicity
 _atom_site_fract_x
 _atom_site_fract_y
 _atom_site_fract_z
 _atom_site_occupancy
  Er  Er0  1  0.058714  0.060000  0.440643  1
  Er  Er1  1  0.650906  0.047282  0.650906  1
  Er  Er2  1  0.190665  0.809429  0.190665  1
  Er  Er3  1  0.440643  0.060000  0.440643  1
  Er  Er4  1  0.196412  0.185690  0.808949  1
  Er  Er5  1  0.648486  0.653144  0.648486  1
  Er  Er6  1  0.049886  0.653144  0.648486  1
  Er  Er7  1  0.440643  0.060000  0.058714  1
  Er  Er8  1  0.648486  0.653144  0.049886  1
  Er  Er9  1  0.190665  0.809429  0.809242  1
  Er  Er10  1  0.808949  0.185690  0.808949  1
  Er  Er11  1  0.808949  0.185690  0.196412  1
  Er  Er12  1  0.809242  0.809429  0.190665  1
  Er  Er13  1  0.061327  0.441600  0.435747  1
  Er  Er14  1  0.435747  0.441600  0.061327  1
  Er  Er15  1  0.061327  0.441600  0.061327  1
  In  In16  1  0.748523  0.417241  0.417118  1
  In  In17  1  0.417118  0.417241  0.748523  1
  In  In18  1  0.416263  0.751211  0.416263  1
  In  In19  1  0.417118  0.417241  0.417118  1
  Ru  Ru20  1  0.858790  0.858301  0.858790  1
  Ru  Ru21  1  0.424121  0.858301  0.858790  1
  Ru  Ru22  1  0.858790  0.858301  0.424121  1
  Pt  Pt23  1  0.858236  0.425292  0.858236  1
