# generated using pymatgen
data_Nd3DyPa2(Co3P2)6
_symmetry_space_group_name_H-M   'P 1'
_cell_length_a   3.75318700
_cell_length_b   10.58991000
_cell_length_c   12.26846200
_cell_angle_alpha   90.00119515
_cell_angle_beta   90.00000000
_cell_angle_gamma   90.00000000
_symmetry_Int_Tables_number   1
_chemical_formula_structural   Nd3DyPa2(Co3P2)6
_chemical_formula_sum   'Nd3 Dy1 Pa2 Co18 P12'
_cell_volume   487.62121764
_cell_formula_units_Z   1
loop_
 _symmetry_equiv_pos_site_id
 _symmetry_equiv_pos_as_xyz
  1  'x, y, z'
loop_
 _atom_site_type_symbol
 _atom_site_label
 _atom_site_symmetry_multiplicity
 _atom_site_fract_x
 _atom_site_fract_y
 _atom_site_fract_z
 _atom_site_occupancy
  Nd  Nd0  1  0.500000  0.814187  0.205393  1
  Nd  Nd1  1  0.500000  0.186174  0.206766  1
  Nd  Nd2  1  0.000000  0.684966  0.793539  1
  Dy  Dy3  1  0.000000  0.314024  0.794078  1
  Pa  Pa4  1  0.000000  0.498651  0.528071  1
  Pa  Pa5  1  0.500000  0.999802  0.473252  1
  Co  Co6  1  0.500000  0.499040  0.158048  1
  Co  Co7  1  0.000000  0.001355  0.841532  1
  Co  Co8  1  0.500000  0.498357  0.694066  1
  Co  Co9  1  0.000000  0.000360  0.307552  1
  Co  Co10  1  0.000000  0.498259  0.982539  1
  Co  Co11  1  0.500000  0.001443  0.013854  1
  Co  Co12  1  0.500000  0.334168  0.992453  1
  Co  Co13  1  0.500000  0.664160  0.993472  1
  Co  Co14  1  0.000000  0.167135  0.004035  1
  Co  Co15  1  0.000000  0.834469  0.004701  1
  Co  Co16  1  0.500000  0.303219  0.433924  1
  Co  Co17  1  0.500000  0.696529  0.431568  1
  Co  Co18  1  0.000000  0.197752  0.571064  1
  Co  Co19  1  0.000000  0.802828  0.568627  1
  Co  Co20  1  0.500000  0.883239  0.709074  1
  Co  Co21  1  0.500000  0.120121  0.711624  1
  Co  Co22  1  0.000000  0.617349  0.290018  1
  Co  Co23  1  0.000000  0.382484  0.291407  1
  P  P24  1  0.500000  0.497166  0.878629  1
  P  P25  1  0.000000  0.000860  0.117890  1
  P  P26  1  0.500000  0.500004  0.343052  1
  P  P27  1  0.000000  0.000197  0.657568  1
  P  P28  1  0.500000  0.305895  0.617465  1
  P  P29  1  0.500000  0.693644  0.613371  1
  P  P30  1  0.000000  0.194901  0.388351  1
  P  P31  1  0.000000  0.805209  0.386561  1
  P  P32  1  0.500000  0.849494  0.896007  1
  P  P33  1  0.500000  0.153319  0.894387  1
  P  P34  1  0.000000  0.649216  0.102412  1
  P  P35  1  0.000000  0.350026  0.103651  1
