# generated using pymatgen
data_Sc5Al16SbIr7
_symmetry_space_group_name_H-M   'P 1'
_cell_length_a   8.74046153
_cell_length_b   8.78815538
_cell_length_c   8.78815706
_cell_angle_alpha   59.64127670
_cell_angle_beta   60.17937023
_cell_angle_gamma   60.17937170
_symmetry_Int_Tables_number   1
_chemical_formula_structural   Sc5Al16SbIr7
_chemical_formula_sum   'Sc5 Al16 Sb1 Ir7'
_cell_volume   477.29789640
_cell_formula_units_Z   1
loop_
 _symmetry_equiv_pos_site_id
 _symmetry_equiv_pos_as_xyz
  1  'x, y, z'
loop_
 _atom_site_type_symbol
 _atom_site_label
 _atom_site_symmetry_multiplicity
 _atom_site_fract_x
 _atom_site_fract_y
 _atom_site_fract_z
 _atom_site_occupancy
  Sc  Sc0  1  0.790540  0.209460  0.209460  1
  Sc  Sc1  1  0.774217  0.225783  0.767581  1
  Sc  Sc2  1  0.774217  0.767581  0.225783  1
  Sc  Sc3  1  0.232419  0.767581  0.225783  1
  Sc  Sc4  1  0.232419  0.225783  0.767581  1
  Al  Al5  1  0.868583  0.835026  0.835026  1
  Al  Al6  1  0.849062  0.823221  0.478658  1
  Al  Al7  1  0.461366  0.835026  0.835026  1
  Al  Al8  1  0.849062  0.478658  0.823221  1
  Al  Al9  1  0.176779  0.150938  0.150938  1
  Al  Al10  1  0.164974  0.131417  0.538634  1
  Al  Al11  1  0.164974  0.538634  0.131417  1
  Al  Al12  1  0.521342  0.150938  0.150938  1
  Al  Al13  1  0.606386  0.623332  0.623332  1
  Al  Al14  1  0.632492  0.616878  0.118137  1
  Al  Al15  1  0.146950  0.623332  0.623332  1
  Al  Al16  1  0.632492  0.118137  0.616878  1
  Al  Al17  1  0.383122  0.367508  0.367508  1
  Al  Al18  1  0.376668  0.393614  0.853050  1
  Al  Al19  1  0.376668  0.853050  0.393614  1
  Al  Al20  1  0.881863  0.367508  0.367508  1
  Sb  Sb21  1  0.027258  0.972742  0.972742  1
  Ir  Ir22  1  0.512487  0.487513  0.487513  1
  Ir  Ir23  1  0.011568  0.488432  0.488432  1
  Ir  Ir24  1  0.511568  0.988432  0.988432  1
  Ir  Ir25  1  0.514551  0.994290  0.485449  1
  Ir  Ir26  1  0.514551  0.485449  0.994290  1
  Ir  Ir27  1  0.005710  0.485449  0.994290  1
  Ir  Ir28  1  0.005710  0.994290  0.485449  1
