# generated using pymatgen
data_La16Cd4Ir3Pd
_symmetry_space_group_name_H-M   'P 1'
_cell_length_a   10.14223458
_cell_length_b   10.14223517
_cell_length_c   10.14223416
_cell_angle_alpha   60.27284996
_cell_angle_beta   60.27284956
_cell_angle_gamma   60.27284778
_symmetry_Int_Tables_number   1
_chemical_formula_structural   La16Cd4Ir3Pd
_chemical_formula_sum   'La16 Cd4 Ir3 Pd1'
_cell_volume   742.26618375
_cell_formula_units_Z   1
loop_
 _symmetry_equiv_pos_site_id
 _symmetry_equiv_pos_as_xyz
  1  'x, y, z'
loop_
 _atom_site_type_symbol
 _atom_site_label
 _atom_site_symmetry_multiplicity
 _atom_site_fract_x
 _atom_site_fract_y
 _atom_site_fract_z
 _atom_site_occupancy
  La  La0  1  0.596525  0.596525  0.596525  1
  La  La1  1  0.601038  0.601038  0.203646  1
  La  La2  1  0.601038  0.203646  0.601038  1
  La  La3  1  0.203646  0.601038  0.601038  1
  La  La4  1  0.053618  0.441037  0.441037  1
  La  La5  1  0.439848  0.059588  0.059588  1
  La  La6  1  0.441037  0.053618  0.441037  1
  La  La7  1  0.059588  0.439848  0.059588  1
  La  La8  1  0.441037  0.441037  0.053618  1
  La  La9  1  0.059588  0.059588  0.439848  1
  La  La10  1  0.190693  0.811207  0.811207  1
  La  La11  1  0.812221  0.188930  0.188930  1
  La  La12  1  0.811207  0.190693  0.811207  1
  La  La13  1  0.188930  0.812221  0.188930  1
  La  La14  1  0.811207  0.811207  0.190693  1
  La  La15  1  0.188930  0.188930  0.812221  1
  Cd  Cd16  1  0.829458  0.829458  0.829458  1
  Cd  Cd17  1  0.830170  0.830170  0.510489  1
  Cd  Cd18  1  0.830170  0.510489  0.830170  1
  Cd  Cd19  1  0.510489  0.830170  0.830170  1
  Ir  Ir20  1  0.391383  0.391383  0.825080  1
  Ir  Ir21  1  0.391383  0.825080  0.391383  1
  Ir  Ir22  1  0.825080  0.391383  0.391383  1
  Pd  Pd23  1  0.391716  0.391716  0.391716  1
