# generated using pymatgen
data_KLiHfTe3
_symmetry_space_group_name_H-M   'P 1'
_cell_length_a   4.23149800
_cell_length_b   8.99574252
_cell_length_c   10.81239182
_cell_angle_alpha   69.64304285
_cell_angle_beta   90.00000000
_cell_angle_gamma   90.00000000
_symmetry_Int_Tables_number   1
_chemical_formula_structural   KLiHfTe3
_chemical_formula_sum   'K2 Li2 Hf2 Te6'
_cell_volume   385.87300635
_cell_formula_units_Z   2
loop_
 _symmetry_equiv_pos_site_id
 _symmetry_equiv_pos_as_xyz
  1  'x, y, z'
loop_
 _atom_site_type_symbol
 _atom_site_label
 _atom_site_symmetry_multiplicity
 _atom_site_fract_x
 _atom_site_fract_y
 _atom_site_fract_z
 _atom_site_occupancy
  K  K0  1  0.750000  0.748574  0.286109  1
  K  K1  1  0.250000  0.251426  0.713891  1
  Li  Li2  1  0.250000  0.077188  0.400672  1
  Li  Li3  1  0.750000  0.922812  0.599328  1
  Hf  Hf4  1  0.250000  0.688161  0.836499  1
  Hf  Hf5  1  0.750000  0.311839  0.163501  1
  Te  Te6  1  0.250000  0.753031  0.561250  1
  Te  Te7  1  0.750000  0.898898  0.857447  1
  Te  Te8  1  0.750000  0.448598  0.869488  1
  Te  Te9  1  0.750000  0.246969  0.438750  1
  Te  Te10  1  0.250000  0.551402  0.130512  1
  Te  Te11  1  0.250000  0.101102  0.142553  1
