# generated using pymatgen
data_Sm7Th(Si3Rh)4
_symmetry_space_group_name_H-M   'P 1'
_cell_length_a   8.23288522
_cell_length_b   8.27589493
_cell_length_c   8.16002900
_cell_angle_alpha   90.00000000
_cell_angle_beta   90.00000000
_cell_angle_gamma   120.17295639
_symmetry_Int_Tables_number   1
_chemical_formula_structural   Sm7Th(Si3Rh)4
_chemical_formula_sum   'Sm7 Th1 Si12 Rh4'
_cell_volume   480.65097010
_cell_formula_units_Z   1
loop_
 _symmetry_equiv_pos_site_id
 _symmetry_equiv_pos_as_xyz
  1  'x, y, z'
loop_
 _atom_site_type_symbol
 _atom_site_label
 _atom_site_symmetry_multiplicity
 _atom_site_fract_x
 _atom_site_fract_y
 _atom_site_fract_z
 _atom_site_occupancy
  Sm  Sm0  1  0.000050  0.000025  0.250000  1
  Sm  Sm1  1  0.999989  0.999995  0.750000  1
  Sm  Sm2  1  0.506602  0.492973  0.250000  1
  Sm  Sm3  1  0.506602  0.013629  0.250000  1
  Sm  Sm4  1  0.985345  0.492672  0.250000  1
  Sm  Sm5  1  0.493484  0.507788  0.750000  1
  Sm  Sm6  1  0.493484  0.985695  0.750000  1
  Th  Th7  1  0.012620  0.506309  0.750000  1
  Si  Si8  1  0.167153  0.835299  0.500086  1
  Si  Si9  1  0.167153  0.331856  0.500086  1
  Si  Si10  1  0.665056  0.832528  0.500901  1
  Si  Si11  1  0.832793  0.164866  0.498111  1
  Si  Si12  1  0.832793  0.667927  0.498111  1
  Si  Si13  1  0.334944  0.167471  0.499349  1
  Si  Si14  1  0.832793  0.164866  0.001889  1
  Si  Si15  1  0.832793  0.667927  0.001889  1
  Si  Si16  1  0.334944  0.167471  0.000651  1
  Si  Si17  1  0.167153  0.835299  0.999914  1
  Si  Si18  1  0.167153  0.331856  0.999914  1
  Si  Si19  1  0.665056  0.832528  0.999099  1
  Rh  Rh20  1  0.330266  0.665133  0.472917  1
  Rh  Rh21  1  0.670756  0.335377  0.531856  1
  Rh  Rh22  1  0.670756  0.335377  0.968144  1
  Rh  Rh23  1  0.330266  0.665133  0.027083  1
