# generated using pymatgen
data_La9Bi16Br3
_symmetry_space_group_name_H-M   'P 1'
_cell_length_a   21.97790100
_cell_length_b   21.97805526
_cell_length_c   4.45923400
_cell_angle_alpha   90.00000000
_cell_angle_beta   90.00000000
_cell_angle_gamma   119.99947432
_symmetry_Int_Tables_number   1
_chemical_formula_structural   La9Bi16Br3
_chemical_formula_sum   'La18 Bi32 Br6'
_cell_volume   1865.38580930
_cell_formula_units_Z   2
loop_
 _symmetry_equiv_pos_site_id
 _symmetry_equiv_pos_as_xyz
  1  'x, y, z'
loop_
 _atom_site_type_symbol
 _atom_site_label
 _atom_site_symmetry_multiplicity
 _atom_site_fract_x
 _atom_site_fract_y
 _atom_site_fract_z
 _atom_site_occupancy
  La  La0  1  0.691195  0.233233  0.250000  1
  La  La1  1  0.148624  0.242929  0.250000  1
  La  La2  1  0.542026  0.308802  0.250000  1
  La  La3  1  0.394360  0.402303  0.250000  1
  La  La4  1  0.766772  0.457964  0.250000  1
  La  La5  1  0.007929  0.605648  0.250000  1
  La  La6  1  0.094311  0.851386  0.250000  1
  La  La7  1  0.757083  0.905705  0.250000  1
  La  La8  1  0.597657  0.992056  0.250000  1
  La  La9  1  0.402343  0.007944  0.749999  1
  La  La10  1  0.242917  0.094295  0.749999  1
  La  La11  1  0.905689  0.148614  0.749999  1
  La  La12  1  0.992071  0.394352  0.749999  1
  La  La13  1  0.233227  0.542036  0.749999  1
  La  La14  1  0.605640  0.597697  0.749999  1
  La  La15  1  0.457974  0.691198  0.749999  1
  La  La16  1  0.851376  0.757071  0.749999  1
  La  La17  1  0.308805  0.766767  0.749999  1
  Bi  Bi18  1  0.772855  0.127508  0.250000  1
  Bi  Bi19  1  0.510061  0.136422  0.250000  1
  Bi  Bi20  1  0.354646  0.227127  0.250000  1
  Bi  Bi21  1  0.002817  0.282159  0.250000  1
  Bi  Bi22  1  0.863586  0.373644  0.250000  1
  Bi  Bi23  1  0.250170  0.427275  0.250000  1
  Bi  Bi24  1  0.626353  0.489935  0.250000  1
  Bi  Bi25  1  0.103730  0.509070  0.250000  1
  Bi  Bi26  1  0.490932  0.594661  0.250000  1
  Bi  Bi27  1  0.872478  0.645351  0.250000  1
  Bi  Bi28  1  0.333341  0.666670  0.250000  1
  Bi  Bi29  1  0.717835  0.720648  0.250000  1
  Bi  Bi30  1  0.177107  0.749830  0.250000  1
  Bi  Bi31  1  0.572732  0.822908  0.250000  1
  Bi  Bi32  1  0.405341  0.896263  0.250000  1
  Bi  Bi33  1  0.279358  0.997181  0.250000  1
  Bi  Bi34  1  0.720642  0.002819  0.749999  1
  Bi  Bi35  1  0.594659  0.103737  0.749999  1
  Bi  Bi36  1  0.427268  0.177092  0.749999  1
  Bi  Bi37  1  0.822893  0.250169  0.749999  1
  Bi  Bi38  1  0.282165  0.279352  0.749999  1
  Bi  Bi39  1  0.666659  0.333330  0.749999  1
  Bi  Bi40  1  0.127522  0.354648  0.749999  1
  Bi  Bi41  1  0.509068  0.405339  0.749999  1
  Bi  Bi42  1  0.896270  0.490930  0.749999  1
  Bi  Bi43  1  0.373648  0.510064  0.749999  1
  Bi  Bi44  1  0.749830  0.572725  0.749999  1
  Bi  Bi45  1  0.136414  0.626357  0.749999  1
  Bi  Bi46  1  0.997183  0.717841  0.749999  1
  Bi  Bi47  1  0.645354  0.772873  0.749999  1
  Bi  Bi48  1  0.489939  0.863579  0.749999  1
  Bi  Bi49  1  0.227145  0.872493  0.749999  1
  Br  Br50  1  0.900227  0.051083  0.250000  1
  Br  Br51  1  0.150852  0.099773  0.250000  1
  Br  Br52  1  0.948917  0.849144  0.250000  1
  Br  Br53  1  0.051083  0.150856  0.749999  1
  Br  Br54  1  0.849149  0.900227  0.749999  1
  Br  Br55  1  0.099773  0.948916  0.749999  1
