# generated using pymatgen
data_Li6Sn5AsRh12
_symmetry_space_group_name_H-M   'P 1'
_cell_length_a   4.33030372
_cell_length_b   6.18962902
_cell_length_c   13.09775202
_cell_angle_alpha   89.99842329
_cell_angle_beta   89.99309909
_cell_angle_gamma   89.93429433
_symmetry_Int_Tables_number   1
_chemical_formula_structural   Li6Sn5AsRh12
_chemical_formula_sum   'Li6 Sn5 As1 Rh12'
_cell_volume   351.05846771
_cell_formula_units_Z   1
loop_
 _symmetry_equiv_pos_site_id
 _symmetry_equiv_pos_as_xyz
  1  'x, y, z'
loop_
 _atom_site_type_symbol
 _atom_site_label
 _atom_site_symmetry_multiplicity
 _atom_site_fract_x
 _atom_site_fract_y
 _atom_site_fract_z
 _atom_site_occupancy
  Li  Li0  1  0.000052  0.000083  0.002882  1
  Li  Li1  1  0.499667  0.499954  0.163049  1
  Li  Li2  1  0.999487  0.000058  0.333380  1
  Li  Li3  1  0.500046  0.499955  0.503637  1
  Li  Li4  1  0.000401  0.000066  0.663853  1
  Li  Li5  1  0.500505  0.499962  0.833372  1
  Sn  Sn6  1  0.000100  0.499971  0.996723  1
  Sn  Sn7  1  0.499591  0.000057  0.165009  1
  Sn  Sn8  1  0.999502  0.499958  0.333326  1
  Sn  Sn9  1  0.500039  0.000065  0.501710  1
  Sn  Sn10  1  0.000312  0.499982  0.669899  1
  As  As11  1  0.500359  0.999929  0.833175  1
  Rh  Rh12  1  0.500218  0.239634  0.990679  1
  Rh  Rh13  1  0.500016  0.760315  0.990720  1
  Rh  Rh14  1  0.999571  0.251939  0.164416  1
  Rh  Rh15  1  0.999694  0.748054  0.164403  1
  Rh  Rh16  1  0.499535  0.249651  0.333367  1
  Rh  Rh17  1  0.499382  0.750259  0.333360  1
  Rh  Rh18  1  0.999957  0.251897  0.502316  1
  Rh  Rh19  1  0.000082  0.748091  0.502290  1
  Rh  Rh20  1  0.500472  0.239781  0.675909  1
  Rh  Rh21  1  0.500272  0.760200  0.675896  1
  Rh  Rh22  1  0.000266  0.230971  0.833326  1
  Rh  Rh23  1  0.000475  0.769175  0.833297  1
