# generated using pymatgen
data_Lu4GeAs5Ir6Ru
_symmetry_space_group_name_H-M   'P 1'
_cell_length_a   7.21238540
_cell_length_b   7.21238498
_cell_length_c   7.21238628
_cell_angle_alpha   109.17387671
_cell_angle_beta   109.62009707
_cell_angle_gamma   109.62010154
_symmetry_Int_Tables_number   1
_chemical_formula_structural   Lu4GeAs5Ir6Ru
_chemical_formula_sum   'Lu4 Ge1 As5 Ir6 Ru1'
_cell_volume   288.80593934
_cell_formula_units_Z   1
loop_
 _symmetry_equiv_pos_site_id
 _symmetry_equiv_pos_as_xyz
  1  'x, y, z'
loop_
 _atom_site_type_symbol
 _atom_site_label
 _atom_site_symmetry_multiplicity
 _atom_site_fract_x
 _atom_site_fract_y
 _atom_site_fract_z
 _atom_site_occupancy
  Lu  Lu0  1  0.000000  0.999274  0.500232  1
  Lu  Lu1  1  0.000000  0.500232  0.999274  1
  Lu  Lu2  1  0.499043  0.999274  0.999274  1
  Lu  Lu3  1  0.500957  0.500232  0.500232  1
  Ge  Ge4  1  0.000000  0.686489  0.686489  1
  As  As5  1  0.685810  0.685057  0.999247  1
  As  As6  1  0.314190  0.999247  0.313437  1
  As  As7  1  0.000000  0.317387  0.317387  1
  As  As8  1  0.314190  0.313437  0.999247  1
  As  As9  1  0.685810  0.999247  0.685057  1
  Ir  Ir10  1  0.749592  0.249951  0.500359  1
  Ir  Ir11  1  0.749592  0.500359  0.249951  1
  Ir  Ir12  1  0.500000  0.249390  0.749390  1
  Ir  Ir13  1  0.250408  0.500359  0.750766  1
  Ir  Ir14  1  0.250408  0.750766  0.500359  1
  Ir  Ir15  1  0.500000  0.749390  0.249390  1
  Ru  Ru16  1  0.000000  0.999911  0.999911  1
