# generated using pymatgen
data_Dy3Tm4Lu3(TlSb)4
_symmetry_space_group_name_H-M   'P 1'
_cell_length_a   8.59641163
_cell_length_b   8.82405192
_cell_length_c   8.02359535
_cell_angle_alpha   89.99426188
_cell_angle_beta   89.86465868
_cell_angle_gamma   125.16550494
_symmetry_Int_Tables_number   1
_chemical_formula_structural   Dy3Tm4Lu3(TlSb)4
_chemical_formula_sum   'Dy3 Tm4 Lu3 Tl4 Sb4'
_cell_volume   497.54890203
_cell_formula_units_Z   1
loop_
 _symmetry_equiv_pos_site_id
 _symmetry_equiv_pos_as_xyz
  1  'x, y, z'
loop_
 _atom_site_type_symbol
 _atom_site_label
 _atom_site_symmetry_multiplicity
 _atom_site_fract_x
 _atom_site_fract_y
 _atom_site_fract_z
 _atom_site_occupancy
  Dy  Dy0  1  0.179875  0.461978  0.831665  1
  Dy  Dy1  1  0.681182  0.963471  0.668893  1
  Dy  Dy2  1  0.322330  0.037907  0.330347  1
  Tm  Tm3  1  0.024487  0.294300  0.337409  1
  Tm  Tm4  1  0.977883  0.708322  0.662188  1
  Tm  Tm5  1  0.475611  0.206648  0.836777  1
  Tm  Tm6  1  0.814215  0.536572  0.166708  1
  Lu  Lu7  1  0.523407  0.790535  0.162478  1
  Lu  Lu8  1  0.999213  0.999443  0.000519  1
  Lu  Lu9  1  0.501198  0.500907  0.499659  1
  Tl  Tl10  1  0.366415  0.365049  0.133361  1
  Tl  Tl11  1  0.633535  0.634751  0.866324  1
  Tl  Tl12  1  0.133733  0.134919  0.633383  1
  Tl  Tl13  1  0.867519  0.865126  0.365334  1
  Sb  Sb14  1  0.783837  0.192695  0.015408  1
  Sb  Sb15  1  0.211029  0.803618  0.990048  1
  Sb  Sb16  1  0.714917  0.309207  0.511386  1
  Sb  Sb17  1  0.289616  0.694551  0.488115  1
