# generated using pymatgen
data_K16ThSnSb8
_symmetry_space_group_name_H-M   'P 1'
_cell_length_a   11.75742325
_cell_length_b   11.75742361
_cell_length_c   11.75742300
_cell_angle_alpha   59.99999890
_cell_angle_beta   59.99999789
_cell_angle_gamma   59.99999798
_symmetry_Int_Tables_number   1
_chemical_formula_structural   K16ThSnSb8
_chemical_formula_sum   'K16 Th1 Sn1 Sb8'
_cell_volume   1149.26834870
_cell_formula_units_Z   1
loop_
 _symmetry_equiv_pos_site_id
 _symmetry_equiv_pos_as_xyz
  1  'x, y, z'
loop_
 _atom_site_type_symbol
 _atom_site_label
 _atom_site_symmetry_multiplicity
 _atom_site_fract_x
 _atom_site_fract_y
 _atom_site_fract_z
 _atom_site_occupancy
  K  K0  1  0.620730  0.137810  0.620730  1
  K  K1  1  0.620730  0.620730  0.137810  1
  K  K2  1  0.137810  0.620730  0.620730  1
  K  K3  1  0.620730  0.620730  0.620730  1
  K  K4  1  0.024033  0.024033  0.475967  1
  K  K5  1  0.777609  0.222391  0.222391  1
  K  K6  1  0.222391  0.777609  0.777609  1
  K  K7  1  0.777609  0.777609  0.222391  1
  K  K8  1  0.777609  0.222391  0.777609  1
  K  K9  1  0.222391  0.777609  0.222391  1
  K  K10  1  0.475967  0.024033  0.475967  1
  K  K11  1  0.475967  0.024033  0.024033  1
  K  K12  1  0.024033  0.475967  0.475967  1
  K  K13  1  0.024033  0.475967  0.024033  1
  K  K14  1  0.222391  0.222391  0.777609  1
  K  K15  1  0.475967  0.475967  0.024033  1
  Th  Th16  1  0.750000  0.750000  0.750000  1
  Sn  Sn17  1  0.500000  0.500000  0.500000  1
  Sb  Sb18  1  0.397173  0.808481  0.397173  1
  Sb  Sb19  1  0.856773  0.856773  0.429681  1
  Sb  Sb20  1  0.429681  0.856773  0.856773  1
  Sb  Sb21  1  0.856773  0.856773  0.856773  1
  Sb  Sb22  1  0.808481  0.397173  0.397173  1
  Sb  Sb23  1  0.397173  0.397173  0.397173  1
  Sb  Sb24  1  0.397173  0.397173  0.808481  1
  Sb  Sb25  1  0.856773  0.429681  0.856773  1
