# generated using pymatgen
data_Nd2YCo8ReP6
_symmetry_space_group_name_H-M   'P 1'
_cell_length_a   3.75559100
_cell_length_b   10.57549600
_cell_length_c   12.32166200
_cell_angle_alpha   90.00000000
_cell_angle_beta   90.00000000
_cell_angle_gamma   90.00000000
_symmetry_Int_Tables_number   1
_chemical_formula_structural   Nd2YCo8ReP6
_chemical_formula_sum   'Nd4 Y2 Co16 Re2 P12'
_cell_volume   489.38237726
_cell_formula_units_Z   2
loop_
 _symmetry_equiv_pos_site_id
 _symmetry_equiv_pos_as_xyz
  1  'x, y, z'
loop_
 _atom_site_type_symbol
 _atom_site_label
 _atom_site_symmetry_multiplicity
 _atom_site_fract_x
 _atom_site_fract_y
 _atom_site_fract_z
 _atom_site_occupancy
  Nd  Nd0  1  0.000000  0.500000  0.522737  1
  Nd  Nd1  1  0.500000  0.000000  0.475719  1
  Nd  Nd2  1  0.000000  0.682518  0.794339  1
  Nd  Nd3  1  0.000000  0.317482  0.794339  1
  Y  Y4  1  0.500000  0.818060  0.205202  1
  Y  Y5  1  0.500000  0.181940  0.205202  1
  Co  Co6  1  0.500000  0.500000  0.703813  1
  Co  Co7  1  0.000000  0.000000  0.295202  1
  Co  Co8  1  0.000000  0.500000  0.990489  1
  Co  Co9  1  0.500000  0.000000  0.014489  1
  Co  Co10  1  0.500000  0.331130  0.993190  1
  Co  Co11  1  0.500000  0.668870  0.993190  1
  Co  Co12  1  0.000000  0.166696  0.011910  1
  Co  Co13  1  0.000000  0.833304  0.011910  1
  Co  Co14  1  0.500000  0.296116  0.427610  1
  Co  Co15  1  0.500000  0.703884  0.427610  1
  Co  Co16  1  0.000000  0.203171  0.567747  1
  Co  Co17  1  0.000000  0.796829  0.567747  1
  Co  Co18  1  0.500000  0.881446  0.710005  1
  Co  Co19  1  0.500000  0.118554  0.710005  1
  Co  Co20  1  0.000000  0.620236  0.288238  1
  Co  Co21  1  0.000000  0.379764  0.288238  1
  Re  Re22  1  0.500000  0.500000  0.154705  1
  Re  Re23  1  0.000000  0.000000  0.846384  1
  P  P24  1  0.500000  0.500000  0.885645  1
  P  P25  1  0.000000  0.000000  0.119961  1
  P  P26  1  0.500000  0.500000  0.344417  1
  P  P27  1  0.000000  0.000000  0.655062  1
  P  P28  1  0.500000  0.306815  0.612960  1
  P  P29  1  0.500000  0.693185  0.612960  1
  P  P30  1  0.000000  0.190961  0.381454  1
  P  P31  1  0.000000  0.809039  0.381454  1
  P  P32  1  0.500000  0.848247  0.895665  1
  P  P33  1  0.500000  0.151753  0.895665  1
  P  P34  1  0.000000  0.654897  0.107367  1
  P  P35  1  0.000000  0.345103  0.107367  1
