# generated using pymatgen
data_Lu12Si12OsRuRh2
_symmetry_space_group_name_H-M   'P 1'
_cell_length_a   4.15029800
_cell_length_b   10.52816275
_cell_length_c   12.08310411
_cell_angle_alpha   90.02534750
_cell_angle_beta   90.00000000
_cell_angle_gamma   90.00000000
_symmetry_Int_Tables_number   1
_chemical_formula_structural   Lu12Si12OsRuRh2
_chemical_formula_sum   'Lu12 Si12 Os1 Ru1 Rh2'
_cell_volume   527.97133733
_cell_formula_units_Z   1
loop_
 _symmetry_equiv_pos_site_id
 _symmetry_equiv_pos_as_xyz
  1  'x, y, z'
loop_
 _atom_site_type_symbol
 _atom_site_label
 _atom_site_symmetry_multiplicity
 _atom_site_fract_x
 _atom_site_fract_y
 _atom_site_fract_z
 _atom_site_occupancy
  Lu  Lu0  1  0.250000  0.877630  0.020455  1
  Lu  Lu1  1  0.250000  0.621923  0.520381  1
  Lu  Lu2  1  0.750000  0.122192  0.981647  1
  Lu  Lu3  1  0.750000  0.377609  0.482432  1
  Lu  Lu4  1  0.250000  0.921103  0.602835  1
  Lu  Lu5  1  0.250000  0.578981  0.102913  1
  Lu  Lu6  1  0.750000  0.078982  0.396094  1
  Lu  Lu7  1  0.750000  0.420948  0.894873  1
  Lu  Lu8  1  0.250000  0.661071  0.798184  1
  Lu  Lu9  1  0.250000  0.839720  0.298322  1
  Lu  Lu10  1  0.750000  0.341907  0.200915  1
  Lu  Lu11  1  0.750000  0.157973  0.701076  1
  Si  Si12  1  0.250000  0.014638  0.823286  1
  Si  Si13  1  0.250000  0.484979  0.322908  1
  Si  Si14  1  0.750000  0.985697  0.178410  1
  Si  Si15  1  0.750000  0.514027  0.678451  1
  Si  Si16  1  0.250000  0.250609  0.840654  1
  Si  Si17  1  0.250000  0.249103  0.341043  1
  Si  Si18  1  0.750000  0.748393  0.157631  1
  Si  Si19  1  0.750000  0.751743  0.657225  1
  Si  Si20  1  0.250000  0.197694  0.545291  1
  Si  Si21  1  0.250000  0.303218  0.044370  1
  Si  Si22  1  0.750000  0.806238  0.455425  1
  Si  Si23  1  0.750000  0.693603  0.955413  1
  Os  Os24  1  0.250000  0.392102  0.677634  1
  Ru  Ru25  1  0.250000  0.108251  0.178011  1
  Rh  Rh26  1  0.750000  0.610129  0.322145  1
  Rh  Rh27  1  0.750000  0.889538  0.821975  1
