# generated using pymatgen
data_Nd3ThCd2(CuPd)2
_symmetry_space_group_name_H-M   'P 1'
_cell_length_a   7.83977206
_cell_length_b   7.85861480
_cell_length_c   3.85886500
_cell_angle_alpha   90.00000000
_cell_angle_beta   90.00000000
_cell_angle_gamma   91.33006844
_symmetry_Int_Tables_number   1
_chemical_formula_structural   Nd3ThCd2(CuPd)2
_chemical_formula_sum   'Nd3 Th1 Cd2 Cu2 Pd2'
_cell_volume   237.67964681
_cell_formula_units_Z   1
loop_
 _symmetry_equiv_pos_site_id
 _symmetry_equiv_pos_as_xyz
  1  'x, y, z'
loop_
 _atom_site_type_symbol
 _atom_site_label
 _atom_site_symmetry_multiplicity
 _atom_site_fract_x
 _atom_site_fract_y
 _atom_site_fract_z
 _atom_site_occupancy
  Nd  Nd0  1  0.323118  0.826461  0.500000  1
  Nd  Nd1  1  0.175445  0.324675  0.500000  1
  Nd  Nd2  1  0.825897  0.674739  0.500000  1
  Th  Th3  1  0.671757  0.177009  0.500000  1
  Cd  Cd4  1  0.999667  0.996924  0.000000  1
  Cd  Cd5  1  0.497862  0.508301  0.000000  1
  Cu  Cu6  1  0.119144  0.619134  0.000000  1
  Cu  Cu7  1  0.625457  0.878851  0.000000  1
  Pd  Pd8  1  0.871735  0.371962  0.000000  1
  Pd  Pd9  1  0.389919  0.121944  0.000000  1
