# generated using pymatgen
data_Ce9Dy(ZnSn3)2
_symmetry_space_group_name_H-M   'P 1'
_cell_length_a   6.40901601
_cell_length_b   9.53140865
_cell_length_c   9.51757600
_cell_angle_alpha   120.04809113
_cell_angle_beta   89.99718394
_cell_angle_gamma   90.00562998
_symmetry_Int_Tables_number   1
_chemical_formula_structural   Ce9Dy(ZnSn3)2
_chemical_formula_sum   'Ce9 Dy1 Zn2 Sn6'
_cell_volume   503.26272739
_cell_formula_units_Z   1
loop_
 _symmetry_equiv_pos_site_id
 _symmetry_equiv_pos_as_xyz
  1  'x, y, z'
loop_
 _atom_site_type_symbol
 _atom_site_label
 _atom_site_symmetry_multiplicity
 _atom_site_fract_x
 _atom_site_fract_y
 _atom_site_fract_z
 _atom_site_occupancy
  Ce  Ce0  1  0.750024  0.714742  0.717524  1
  Ce  Ce1  1  0.750024  0.997217  0.282476  1
  Ce  Ce2  1  0.250082  0.720045  0.000000  1
  Ce  Ce3  1  0.249991  0.284077  0.282569  1
  Ce  Ce4  1  0.249991  0.001509  0.717431  1
  Ce  Ce5  1  0.498019  0.334501  0.665892  1
  Ce  Ce6  1  0.498019  0.668609  0.334108  1
  Ce  Ce7  1  0.001924  0.668635  0.334191  1
  Ce  Ce8  1  0.001924  0.334444  0.665809  1
  Dy  Dy9  1  0.750054  0.279038  0.000000  1
  Zn  Zn10  1  0.498103  0.000922  0.000000  1
  Zn  Zn11  1  0.001945  0.000925  0.000000  1
  Sn  Sn12  1  0.750182  0.619841  0.000000  1
  Sn  Sn13  1  0.749975  0.369365  0.365350  1
  Sn  Sn14  1  0.749975  0.004017  0.634650  1
  Sn  Sn15  1  0.249774  0.369896  0.000000  1
  Sn  Sn16  1  0.250000  0.631052  0.629886  1
  Sn  Sn17  1  0.250000  0.001165  0.370114  1
