# generated using pymatgen
data_Pr3Zn(SiRh3)2
_symmetry_space_group_name_H-M   'P 1'
_cell_length_a   5.68450900
_cell_length_b   5.68450858
_cell_length_c   15.43863700
_cell_angle_alpha   90.00000000
_cell_angle_beta   90.00000000
_cell_angle_gamma   119.99999665
_symmetry_Int_Tables_number   1
_chemical_formula_structural   Pr3Zn(SiRh3)2
_chemical_formula_sum   'Pr6 Zn2 Si4 Rh12'
_cell_volume   432.04152137
_cell_formula_units_Z   2
loop_
 _symmetry_equiv_pos_site_id
 _symmetry_equiv_pos_as_xyz
  1  'x, y, z'
loop_
 _atom_site_type_symbol
 _atom_site_label
 _atom_site_symmetry_multiplicity
 _atom_site_fract_x
 _atom_site_fract_y
 _atom_site_fract_z
 _atom_site_occupancy
  Pr  Pr0  1  0.333333  0.666667  0.538622  1
  Pr  Pr1  1  0.666667  0.333333  0.461378  1
  Pr  Pr2  1  0.666667  0.333333  0.038622  1
  Pr  Pr3  1  0.333333  0.666667  0.961378  1
  Pr  Pr4  1  0.333333  0.666667  0.750000  1
  Pr  Pr5  1  0.666667  0.333333  0.250000  1
  Zn  Zn6  1  0.000000  0.000000  0.000000  1
  Zn  Zn7  1  0.000000  0.000000  0.500000  1
  Si  Si8  1  0.000000  0.000000  0.250000  1
  Si  Si9  1  0.000000  0.000000  0.750000  1
  Si  Si10  1  0.333333  0.666667  0.250000  1
  Si  Si11  1  0.666667  0.333333  0.750000  1
  Rh  Rh12  1  0.167100  0.334200  0.137036  1
  Rh  Rh13  1  0.832900  0.665800  0.862964  1
  Rh  Rh14  1  0.665800  0.832900  0.137036  1
  Rh  Rh15  1  0.832900  0.665800  0.637036  1
  Rh  Rh16  1  0.334200  0.167100  0.862964  1
  Rh  Rh17  1  0.167100  0.334200  0.362964  1
  Rh  Rh18  1  0.167100  0.832900  0.137036  1
  Rh  Rh19  1  0.334200  0.167100  0.637036  1
  Rh  Rh20  1  0.832900  0.167100  0.862964  1
  Rh  Rh21  1  0.665800  0.832900  0.362964  1
  Rh  Rh22  1  0.832900  0.167100  0.637036  1
  Rh  Rh23  1  0.167100  0.832900  0.362964  1
