# generated using pymatgen
data_LaPr2Tc4(P2O)2
_symmetry_space_group_name_H-M   'P 1'
_cell_length_a   4.16373825
_cell_length_b   4.16430000
_cell_length_c   13.57142662
_cell_angle_alpha   98.82429535
_cell_angle_beta   98.82260690
_cell_angle_gamma   89.97811278
_symmetry_Int_Tables_number   1
_chemical_formula_structural   LaPr2Tc4(P2O)2
_chemical_formula_sum   'La1 Pr2 Tc4 P4 O2'
_cell_volume   229.71450431
_cell_formula_units_Z   1
loop_
 _symmetry_equiv_pos_site_id
 _symmetry_equiv_pos_as_xyz
  1  'x, y, z'
loop_
 _atom_site_type_symbol
 _atom_site_label
 _atom_site_symmetry_multiplicity
 _atom_site_fract_x
 _atom_site_fract_y
 _atom_site_fract_z
 _atom_site_occupancy
  La  La0  1  0.293274  0.293282  0.587098  1
  Pr  Pr1  1  0.000378  0.000376  0.000669  1
  Pr  Pr2  1  0.705638  0.705657  0.410890  1
  Tc  Tc3  1  0.593141  0.093005  0.186049  1
  Tc  Tc4  1  0.093021  0.593156  0.186079  1
  Tc  Tc5  1  0.907562  0.407443  0.815064  1
  Tc  Tc6  1  0.407456  0.907560  0.815077  1
  P  P7  1  0.550105  0.550111  0.100257  1
  P  P8  1  0.134645  0.134647  0.268962  1
  P  P9  1  0.865820  0.865808  0.731925  1
  P  P10  1  0.450070  0.450055  0.900049  1
  O  O11  1  0.749575  0.249319  0.498934  1
  O  O12  1  0.249325  0.749590  0.498945  1
