# generated using pymatgen
data_Y5Tl3Br
_symmetry_space_group_name_H-M   'P 1'
_cell_length_a   9.19498100
_cell_length_b   9.19497977
_cell_length_c   6.85004000
_cell_angle_alpha   90.00000000
_cell_angle_beta   90.00000000
_cell_angle_gamma   120.00000083
_symmetry_Int_Tables_number   1
_chemical_formula_structural   Y5Tl3Br
_chemical_formula_sum   'Y10 Tl6 Br2'
_cell_volume   501.56283645
_cell_formula_units_Z   2
loop_
 _symmetry_equiv_pos_site_id
 _symmetry_equiv_pos_as_xyz
  1  'x, y, z'
loop_
 _atom_site_type_symbol
 _atom_site_label
 _atom_site_symmetry_multiplicity
 _atom_site_fract_x
 _atom_site_fract_y
 _atom_site_fract_z
 _atom_site_occupancy
  Y  Y0  1  0.734090  0.734090  0.250000  1
  Y  Y1  1  0.000000  0.734090  0.750000  1
  Y  Y2  1  0.734090  0.000000  0.750000  1
  Y  Y3  1  0.333333  0.666667  0.500000  1
  Y  Y4  1  0.265910  0.265910  0.750000  1
  Y  Y5  1  0.000000  0.265910  0.250000  1
  Y  Y6  1  0.666667  0.333333  0.500000  1
  Y  Y7  1  0.265910  0.000000  0.250000  1
  Y  Y8  1  0.333333  0.666667  0.000000  1
  Y  Y9  1  0.666667  0.333333  0.000000  1
  Tl  Tl10  1  0.393157  0.000000  0.750000  1
  Tl  Tl11  1  0.000000  0.606843  0.250000  1
  Tl  Tl12  1  0.606843  0.000000  0.250000  1
  Tl  Tl13  1  0.000000  0.393157  0.750000  1
  Tl  Tl14  1  0.393157  0.393157  0.250000  1
  Tl  Tl15  1  0.606843  0.606843  0.750000  1
  Br  Br16  1  0.000000  0.000000  0.500000  1
  Br  Br17  1  0.000000  0.000000  0.000000  1
