# generated using pymatgen
data_Zr2ZnB2Ru4Pt
_symmetry_space_group_name_H-M   'P 1'
_cell_length_a   9.33618247
_cell_length_b   9.49209613
_cell_length_c   3.10759900
_cell_angle_alpha   90.00000000
_cell_angle_beta   90.00000000
_cell_angle_gamma   90.32474310
_symmetry_Int_Tables_number   1
_chemical_formula_structural   Zr2ZnB2Ru4Pt
_chemical_formula_sum   'Zr4 Zn2 B4 Ru8 Pt2'
_cell_volume   275.39081819
_cell_formula_units_Z   2
loop_
 _symmetry_equiv_pos_site_id
 _symmetry_equiv_pos_as_xyz
  1  'x, y, z'
loop_
 _atom_site_type_symbol
 _atom_site_label
 _atom_site_symmetry_multiplicity
 _atom_site_fract_x
 _atom_site_fract_y
 _atom_site_fract_z
 _atom_site_occupancy
  Zr  Zr0  1  0.675900  0.182846  0.000000  1
  Zr  Zr1  1  0.324100  0.817154  0.000000  1
  Zr  Zr2  1  0.175308  0.332737  0.000000  1
  Zr  Zr3  1  0.824692  0.667263  0.000000  1
  Zn  Zn4  1  0.000000  0.000000  0.000000  1
  Zn  Zn5  1  0.500000  0.500000  0.000000  1
  B  B6  1  0.124099  0.625183  0.000000  1
  B  B7  1  0.875901  0.374817  0.000000  1
  B  B8  1  0.616681  0.870315  0.000000  1
  B  B9  1  0.383319  0.129685  0.000000  1
  Ru  Ru10  1  0.068694  0.782977  0.500000  1
  Ru  Ru11  1  0.714812  0.428184  0.500000  1
  Ru  Ru12  1  0.931306  0.217023  0.500000  1
  Ru  Ru13  1  0.285188  0.571816  0.500000  1
  Ru  Ru14  1  0.571351  0.717386  0.500000  1
  Ru  Ru15  1  0.428649  0.282614  0.500000  1
  Ru  Ru16  1  0.500000  0.000000  0.500000  1
  Ru  Ru17  1  0.000000  0.500000  0.500000  1
  Pt  Pt18  1  0.215677  0.069826  0.500000  1
  Pt  Pt19  1  0.784323  0.930174  0.500000  1
