# generated using pymatgen
data_Ho3LuAl3ZnPt4
_symmetry_space_group_name_H-M   'P 1'
_cell_length_a   4.40759700
_cell_length_b   6.78879679
_cell_length_c   7.79121035
_cell_angle_alpha   90.11316220
_cell_angle_beta   90.00000000
_cell_angle_gamma   90.00000000
_symmetry_Int_Tables_number   1
_chemical_formula_structural   Ho3LuAl3ZnPt4
_chemical_formula_sum   'Ho3 Lu1 Al3 Zn1 Pt4'
_cell_volume   233.13032590
_cell_formula_units_Z   1
loop_
 _symmetry_equiv_pos_site_id
 _symmetry_equiv_pos_as_xyz
  1  'x, y, z'
loop_
 _atom_site_type_symbol
 _atom_site_label
 _atom_site_symmetry_multiplicity
 _atom_site_fract_x
 _atom_site_fract_y
 _atom_site_fract_z
 _atom_site_occupancy
  Ho  Ho0  1  0.250000  0.528419  0.818883  1
  Ho  Ho1  1  0.750000  0.971508  0.318451  1
  Ho  Ho2  1  0.750000  0.466855  0.178612  1
  Lu  Lu3  1  0.250000  0.029527  0.684439  1
  Al  Al4  1  0.250000  0.648188  0.438987  1
  Al  Al5  1  0.750000  0.855775  0.936784  1
  Al  Al6  1  0.750000  0.356078  0.560306  1
  Zn  Zn7  1  0.250000  0.148905  0.064312  1
  Pt  Pt8  1  0.250000  0.271278  0.391489  1
  Pt  Pt9  1  0.250000  0.762741  0.118205  1
  Pt  Pt10  1  0.750000  0.732127  0.618396  1
  Pt  Pt11  1  0.750000  0.228599  0.871133  1
