# generated using pymatgen
data_Tb3YbTmIr2
_symmetry_space_group_name_H-M   'P 1'
_cell_length_a   6.51488221
_cell_length_b   7.24811984
_cell_length_c   8.52139295
_cell_angle_alpha   96.62673001
_cell_angle_beta   112.47413041
_cell_angle_gamma   89.99999822
_symmetry_Int_Tables_number   1
_chemical_formula_structural   Tb3YbTmIr2
_chemical_formula_sum   'Tb6 Yb2 Tm2 Ir4'
_cell_volume   368.91443751
_cell_formula_units_Z   2
loop_
 _symmetry_equiv_pos_site_id
 _symmetry_equiv_pos_as_xyz
  1  'x, y, z'
loop_
 _atom_site_type_symbol
 _atom_site_label
 _atom_site_symmetry_multiplicity
 _atom_site_fract_x
 _atom_site_fract_y
 _atom_site_fract_z
 _atom_site_occupancy
  Tb  Tb0  1  0.029665  0.080801  0.818576  1
  Tb  Tb1  1  0.211090  0.419199  0.181424  1
  Tb  Tb2  1  0.651422  0.818086  0.439990  1
  Tb  Tb3  1  0.211433  0.681914  0.560010  1
  Tb  Tb4  1  0.344600  0.182928  0.560563  1
  Tb  Tb5  1  0.784035  0.317072  0.439437  1
  Yb  Yb6  1  0.970820  0.919963  0.179706  1
  Yb  Yb7  1  0.791113  0.580037  0.820294  1
  Tm  Tm8  1  0.434894  0.750000  0.000000  1
  Tm  Tm9  1  0.570520  0.250000  0.000000  1
  Ir  Ir10  1  0.820491  0.567702  0.224350  1
  Ir  Ir11  1  0.596141  0.932298  0.775650  1
  Ir  Ir12  1  0.184477  0.425619  0.785178  1
  Ir  Ir13  1  0.399298  0.074381  0.214822  1
