# generated using pymatgen
data_DyYLu2(ReC2)2
_symmetry_space_group_name_H-M   'P 1'
_cell_length_a   5.05348100
_cell_length_b   6.56070900
_cell_length_c   9.75264500
_cell_angle_alpha   90.00000000
_cell_angle_beta   90.00000000
_cell_angle_gamma   90.00000000
_symmetry_Int_Tables_number   1
_chemical_formula_structural   DyYLu2(ReC2)2
_chemical_formula_sum   'Dy2 Y2 Lu4 Re4 C8'
_cell_volume   323.34327165
_cell_formula_units_Z   2
loop_
 _symmetry_equiv_pos_site_id
 _symmetry_equiv_pos_as_xyz
  1  'x, y, z'
loop_
 _atom_site_type_symbol
 _atom_site_label
 _atom_site_symmetry_multiplicity
 _atom_site_fract_x
 _atom_site_fract_y
 _atom_site_fract_z
 _atom_site_occupancy
  Dy  Dy0  1  0.750000  0.534515  0.785208  1
  Dy  Dy1  1  0.750000  0.034515  0.714792  1
  Y  Y2  1  0.250000  0.465469  0.214818  1
  Y  Y3  1  0.250000  0.965469  0.285182  1
  Lu  Lu4  1  0.250000  0.825722  0.941657  1
  Lu  Lu5  1  0.250000  0.325722  0.558343  1
  Lu  Lu6  1  0.750000  0.174351  0.058360  1
  Lu  Lu7  1  0.750000  0.674351  0.441640  1
  Re  Re8  1  0.250000  0.279371  0.867548  1
  Re  Re9  1  0.250000  0.779371  0.632452  1
  Re  Re10  1  0.750000  0.720711  0.132246  1
  Re  Re11  1  0.750000  0.220711  0.367754  1
  C  C12  1  0.250000  0.048221  0.739816  1
  C  C13  1  0.250000  0.548221  0.760184  1
  C  C14  1  0.750000  0.951748  0.260170  1
  C  C15  1  0.750000  0.451748  0.239830  1
  C  C16  1  0.250000  0.670150  0.449041  1
  C  C17  1  0.250000  0.170150  0.050959  1
  C  C18  1  0.750000  0.329742  0.551298  1
  C  C19  1  0.750000  0.829742  0.948702  1
