# generated using pymatgen
data_La8Yb9Y3Sn16
_symmetry_space_group_name_H-M   'P 1'
_cell_length_a   7.98209514
_cell_length_b   8.46950508
_cell_length_c   15.99518000
_cell_angle_alpha   90.05419402
_cell_angle_beta   89.91819188
_cell_angle_gamma   90.01516320
_symmetry_Int_Tables_number   1
_chemical_formula_structural   La8Yb9Y3Sn16
_chemical_formula_sum   'La8 Yb9 Y3 Sn16'
_cell_volume   1081.34284856
_cell_formula_units_Z   1
loop_
 _symmetry_equiv_pos_site_id
 _symmetry_equiv_pos_as_xyz
  1  'x, y, z'
loop_
 _atom_site_type_symbol
 _atom_site_label
 _atom_site_symmetry_multiplicity
 _atom_site_fract_x
 _atom_site_fract_y
 _atom_site_fract_z
 _atom_site_occupancy
  La  La0  1  0.494256  0.317383  0.903447  1
  La  La1  1  0.995107  0.183036  0.595929  1
  La  La2  1  0.504411  0.682882  0.404375  1
  La  La3  1  0.005597  0.815477  0.095940  1
  La  La4  1  0.506689  0.682541  0.096371  1
  La  La5  1  0.007373  0.816657  0.404931  1
  La  La6  1  0.493190  0.317106  0.595980  1
  La  La7  1  0.993625  0.183876  0.904762  1
  Yb  Yb8  1  0.168822  0.329910  0.123358  1
  Yb  Yb9  1  0.669890  0.169757  0.123491  1
  Yb  Yb10  1  0.169512  0.329038  0.377542  1
  Yb  Yb11  1  0.329795  0.830426  0.623026  1
  Yb  Yb12  1  0.829886  0.669658  0.876731  1
  Yb  Yb13  1  0.162918  0.501972  0.750563  1
  Yb  Yb14  1  0.662876  0.998441  0.749325  1
  Yb  Yb15  1  0.840400  0.496625  0.249732  1
  Yb  Yb16  1  0.336899  0.003976  0.248227  1
  Y  Y17  1  0.331176  0.829013  0.875233  1
  Y  Y18  1  0.831794  0.671838  0.624157  1
  Y  Y19  1  0.666403  0.172497  0.375467  1
  Sn  Sn20  1  0.329107  0.035094  0.037325  1
  Sn  Sn21  1  0.825331  0.461927  0.462195  1
  Sn  Sn22  1  0.674949  0.962330  0.537472  1
  Sn  Sn23  1  0.172036  0.538788  0.960512  1
  Sn  Sn24  1  0.665350  0.962002  0.959553  1
  Sn  Sn25  1  0.166128  0.537703  0.540380  1
  Sn  Sn26  1  0.334236  0.037739  0.460126  1
  Sn  Sn27  1  0.830726  0.462858  0.039073  1
  Sn  Sn28  1  0.532785  0.613361  0.747753  1
  Sn  Sn29  1  0.032451  0.885666  0.752127  1
  Sn  Sn30  1  0.468762  0.388994  0.250163  1
  Sn  Sn31  1  0.965476  0.109626  0.252943  1
  Sn  Sn32  1  0.288122  0.136479  0.750616  1
  Sn  Sn33  1  0.788461  0.363938  0.748789  1
  Sn  Sn34  1  0.711611  0.863047  0.251727  1
  Sn  Sn35  1  0.213848  0.638340  0.250657  1
