# generated using pymatgen
data_Ta3Be2Fe3P
_symmetry_space_group_name_H-M   'P 1'
_cell_length_a   6.24722200
_cell_length_b   6.24722117
_cell_length_c   3.27440500
_cell_angle_alpha   90.00000000
_cell_angle_beta   90.00000000
_cell_angle_gamma   120.00000438
_symmetry_Int_Tables_number   1
_chemical_formula_structural   Ta3Be2Fe3P
_chemical_formula_sum   'Ta3 Be2 Fe3 P1'
_cell_volume   110.67176299
_cell_formula_units_Z   1
loop_
 _symmetry_equiv_pos_site_id
 _symmetry_equiv_pos_as_xyz
  1  'x, y, z'
loop_
 _atom_site_type_symbol
 _atom_site_label
 _atom_site_symmetry_multiplicity
 _atom_site_fract_x
 _atom_site_fract_y
 _atom_site_fract_z
 _atom_site_occupancy
  Ta  Ta0  1  0.398283  0.988253  0.500000  1
  Ta  Ta1  1  0.011747  0.410030  0.500000  1
  Ta  Ta2  1  0.589970  0.601717  0.500000  1
  Be  Be3  1  0.333333  0.666667  0.000000  1
  Be  Be4  1  0.000000  0.000000  0.500000  1
  Fe  Fe5  1  0.753109  0.999261  0.000000  1
  Fe  Fe6  1  0.000739  0.753848  0.000000  1
  Fe  Fe7  1  0.246152  0.246891  0.000000  1
  P  P8  1  0.666667  0.333333  0.000000  1
