# generated using pymatgen
data_Nd12Ir2OsPd
_symmetry_space_group_name_H-M   'P 1'
_cell_length_a   6.53173182
_cell_length_b   7.41961016
_cell_length_c   9.88242700
_cell_angle_alpha   90.00000000
_cell_angle_beta   90.00000000
_cell_angle_gamma   90.25561903
_symmetry_Int_Tables_number   1
_chemical_formula_structural   Nd12Ir2OsPd
_chemical_formula_sum   'Nd12 Ir2 Os1 Pd1'
_cell_volume   478.92634249
_cell_formula_units_Z   1
loop_
 _symmetry_equiv_pos_site_id
 _symmetry_equiv_pos_as_xyz
  1  'x, y, z'
loop_
 _atom_site_type_symbol
 _atom_site_label
 _atom_site_symmetry_multiplicity
 _atom_site_fract_x
 _atom_site_fract_y
 _atom_site_fract_z
 _atom_site_occupancy
  Nd  Nd0  1  0.335494  0.670720  0.063789  1
  Nd  Nd1  1  0.173118  0.181881  0.437218  1
  Nd  Nd2  1  0.671733  0.324141  0.563925  1
  Nd  Nd3  1  0.829201  0.824895  0.932096  1
  Nd  Nd4  1  0.671733  0.324141  0.936075  1
  Nd  Nd5  1  0.829201  0.824895  0.567904  1
  Nd  Nd6  1  0.335494  0.670720  0.436211  1
  Nd  Nd7  1  0.173118  0.181881  0.062782  1
  Nd  Nd8  1  0.855019  0.524110  0.250000  1
  Nd  Nd9  1  0.629467  0.038490  0.250000  1
  Nd  Nd10  1  0.138412  0.465781  0.750000  1
  Nd  Nd11  1  0.359989  0.965434  0.750000  1
  Ir  Ir12  1  0.936778  0.118191  0.750000  1
  Ir  Ir13  1  0.560537  0.618071  0.750000  1
  Os  Os14  1  0.435190  0.382428  0.250000  1
  Pd  Pd15  1  0.065515  0.884220  0.250000  1
