# generated using pymatgen
data_Tb2Fe9Re3P7
_symmetry_space_group_name_H-M   'P 1'
_cell_length_a   9.04630100
_cell_length_b   9.04630120
_cell_length_c   3.73520200
_cell_angle_alpha   90.00000000
_cell_angle_beta   90.00000000
_cell_angle_gamma   119.99999560
_symmetry_Int_Tables_number   1
_chemical_formula_structural   Tb2Fe9Re3P7
_chemical_formula_sum   'Tb2 Fe9 Re3 P7'
_cell_volume   264.72004153
_cell_formula_units_Z   1
loop_
 _symmetry_equiv_pos_site_id
 _symmetry_equiv_pos_as_xyz
  1  'x, y, z'
loop_
 _atom_site_type_symbol
 _atom_site_label
 _atom_site_symmetry_multiplicity
 _atom_site_fract_x
 _atom_site_fract_y
 _atom_site_fract_z
 _atom_site_occupancy
  Tb  Tb0  1  0.666667  0.333333  0.000000  1
  Tb  Tb1  1  0.333333  0.666667  0.500000  1
  Fe  Fe2  1  0.055530  0.627530  0.000000  1
  Fe  Fe3  1  0.572000  0.944470  0.000000  1
  Fe  Fe4  1  0.372470  0.428000  0.000000  1
  Fe  Fe5  1  0.274149  0.118953  0.000000  1
  Fe  Fe6  1  0.844804  0.725851  0.000000  1
  Fe  Fe7  1  0.881047  0.155196  0.000000  1
  Fe  Fe8  1  0.435629  0.049277  0.500000  1
  Fe  Fe9  1  0.613648  0.564371  0.500000  1
  Fe  Fe10  1  0.950723  0.386352  0.500000  1
  Re  Re11  1  0.098993  0.880362  0.500000  1
  Re  Re12  1  0.781368  0.901007  0.500000  1
  Re  Re13  1  0.119638  0.218632  0.500000  1
  P  P14  1  0.301093  0.889399  0.000000  1
  P  P15  1  0.588307  0.698907  0.000000  1
  P  P16  1  0.110601  0.411693  0.000000  1
  P  P17  1  0.407622  0.289434  0.500000  1
  P  P18  1  0.881812  0.592378  0.500000  1
  P  P19  1  0.710566  0.118188  0.500000  1
  P  P20  1  0.000000  0.000000  0.000000  1
