# generated using pymatgen
data_Ti8Al15CrPt6
_symmetry_space_group_name_H-M   'P 1'
_cell_length_a   8.68610652
_cell_length_b   8.68610721
_cell_length_c   8.68610707
_cell_angle_alpha   120.25351505
_cell_angle_beta   119.66799332
_cell_angle_gamma   90.06874402
_symmetry_Int_Tables_number   1
_chemical_formula_structural   Ti8Al15CrPt6
_chemical_formula_sum   'Ti8 Al15 Cr1 Pt6'
_cell_volume   463.66417728
_cell_formula_units_Z   1
loop_
 _symmetry_equiv_pos_site_id
 _symmetry_equiv_pos_as_xyz
  1  'x, y, z'
loop_
 _atom_site_type_symbol
 _atom_site_label
 _atom_site_symmetry_multiplicity
 _atom_site_fract_x
 _atom_site_fract_y
 _atom_site_fract_z
 _atom_site_occupancy
  Ti  Ti0  1  0.789259  0.289593  0.075645  1
  Ti  Ti1  1  0.213949  0.289593  0.500335  1
  Ti  Ti2  1  0.210748  0.710748  0.500000  1
  Ti  Ti3  1  0.213949  0.713614  0.924355  1
  Ti  Ti4  1  0.789259  0.713614  0.499665  1
  Ti  Ti5  1  0.786134  0.286134  0.500000  1
  Ti  Ti6  1  0.383958  0.117269  0.733311  1
  Ti  Ti7  1  0.383958  0.650648  0.266689  1
  Al  Al8  1  0.998426  0.498426  0.500000  1
  Al  Al9  1  0.157593  0.345540  0.187946  1
  Al  Al10  1  0.157593  0.969647  0.812054  1
  Al  Al11  1  0.157066  0.343640  0.813426  1
  Al  Al12  1  0.530214  0.343640  0.186574  1
  Al  Al13  1  0.844355  0.654691  0.810338  1
  Al  Al14  1  0.844355  0.034017  0.189662  1
  Al  Al15  1  0.843115  0.656082  0.187032  1
  Al  Al16  1  0.469050  0.656082  0.812968  1
  Al  Al17  1  0.383292  0.117864  0.265429  1
  Al  Al18  1  0.852436  0.117864  0.734571  1
  Al  Al19  1  0.617577  0.882715  0.265139  1
  Al  Al20  1  0.617577  0.352438  0.734861  1
  Al  Al21  1  0.619133  0.881736  0.737399  1
  Al  Al22  1  0.144336  0.881736  0.262601  1
  Cr  Cr23  1  0.495589  0.995589  0.500000  1
  Pt  Pt24  1  0.997852  0.999009  0.498858  1
  Pt  Pt25  1  0.500151  0.999009  0.001157  1
  Pt  Pt26  1  0.500431  0.500431  0.000000  1
  Pt  Pt27  1  0.500151  0.498994  0.501142  1
  Pt  Pt28  1  0.997852  0.498994  0.998843  1
  Pt  Pt29  1  0.000643  0.000643  0.000000  1
