# generated using pymatgen
data_Th3Al3CuPt2
_symmetry_space_group_name_H-M   'P 1'
_cell_length_a   7.20517500
_cell_length_b   7.20517511
_cell_length_c   4.24176800
_cell_angle_alpha   90.00000000
_cell_angle_beta   90.00000000
_cell_angle_gamma   119.99999492
_symmetry_Int_Tables_number   1
_chemical_formula_structural   Th3Al3CuPt2
_chemical_formula_sum   'Th3 Al3 Cu1 Pt2'
_cell_volume   190.70700191
_cell_formula_units_Z   1
loop_
 _symmetry_equiv_pos_site_id
 _symmetry_equiv_pos_as_xyz
  1  'x, y, z'
loop_
 _atom_site_type_symbol
 _atom_site_label
 _atom_site_symmetry_multiplicity
 _atom_site_fract_x
 _atom_site_fract_y
 _atom_site_fract_z
 _atom_site_occupancy
  Th  Th0  1  0.421735  0.420691  0.500000  1
  Th  Th1  1  0.579309  0.001044  0.500000  1
  Th  Th2  1  0.998956  0.578265  0.500000  1
  Al  Al3  1  0.766216  0.766563  0.000000  1
  Al  Al4  1  0.233437  0.999653  0.000000  1
  Al  Al5  1  0.000347  0.233784  0.000000  1
  Cu  Cu6  1  0.666667  0.333333  0.000000  1
  Pt  Pt7  1  0.333333  0.666667  0.000000  1
  Pt  Pt8  1  0.000000  0.000000  0.500000  1
