# generated using pymatgen
data_Ta6Cu5SnRh12
_symmetry_space_group_name_H-M   'P 1'
_cell_length_a   4.08970300
_cell_length_b   7.05851500
_cell_length_c   12.35176800
_cell_angle_alpha   90.00000000
_cell_angle_beta   90.00004657
_cell_angle_gamma   90.00000000
_symmetry_Int_Tables_number   1
_chemical_formula_structural   Ta6Cu5SnRh12
_chemical_formula_sum   'Ta6 Cu5 Sn1 Rh12'
_cell_volume   356.56132740
_cell_formula_units_Z   1
loop_
 _symmetry_equiv_pos_site_id
 _symmetry_equiv_pos_as_xyz
  1  'x, y, z'
loop_
 _atom_site_type_symbol
 _atom_site_label
 _atom_site_symmetry_multiplicity
 _atom_site_fract_x
 _atom_site_fract_y
 _atom_site_fract_z
 _atom_site_occupancy
  Ta  Ta0  1  0.000000  0.499999  0.000000  1
  Ta  Ta1  1  0.499951  0.000000  0.182102  1
  Ta  Ta2  1  0.999943  0.499999  0.337869  1
  Ta  Ta3  1  0.499999  0.000000  0.500000  1
  Ta  Ta4  1  0.000057  0.499999  0.662130  1
  Ta  Ta5  1  0.500048  0.000000  0.817899  1
  Cu  Cu6  1  0.499957  0.499999  0.167142  1
  Cu  Cu7  1  0.999951  0.000000  0.334988  1
  Cu  Cu8  1  0.499999  0.499999  0.500000  1
  Cu  Cu9  1  0.000050  0.000000  0.665012  1
  Cu  Cu10  1  0.500044  0.499999  0.832859  1
  Sn  Sn11  1  0.000000  0.000000  0.000000  1
  Rh  Rh12  1  0.500000  0.252570  0.000000  1
  Rh  Rh13  1  0.500000  0.747430  0.000000  1
  Rh  Rh14  1  0.999952  0.253630  0.170333  1
  Rh  Rh15  1  0.999952  0.746370  0.170333  1
  Rh  Rh16  1  0.499948  0.252035  0.335647  1
  Rh  Rh17  1  0.499948  0.747965  0.335647  1
  Rh  Rh18  1  0.000000  0.249565  0.500000  1
  Rh  Rh19  1  0.000000  0.750435  0.500000  1
  Rh  Rh20  1  0.500051  0.252035  0.664353  1
  Rh  Rh21  1  0.500051  0.747965  0.664353  1
  Rh  Rh22  1  0.000046  0.253630  0.829667  1
  Rh  Rh23  1  0.000046  0.746370  0.829667  1
