# generated using pymatgen
data_Hf9Re3BMo
_symmetry_space_group_name_H-M   'P 1'
_cell_length_a   8.50155600
_cell_length_b   8.50081068
_cell_length_c   8.49180100
_cell_angle_alpha   90.00000000
_cell_angle_beta   90.00000000
_cell_angle_gamma   120.00357201
_symmetry_Int_Tables_number   1
_chemical_formula_structural   Hf9Re3BMo
_chemical_formula_sum   'Hf18 Re6 B2 Mo2'
_cell_volume   531.46365590
_cell_formula_units_Z   2
loop_
 _symmetry_equiv_pos_site_id
 _symmetry_equiv_pos_as_xyz
  1  'x, y, z'
loop_
 _atom_site_type_symbol
 _atom_site_label
 _atom_site_symmetry_multiplicity
 _atom_site_fract_x
 _atom_site_fract_y
 _atom_site_fract_z
 _atom_site_occupancy
  Hf  Hf0  1  0.201734  0.798288  0.444042  1
  Hf  Hf1  1  0.201716  0.403432  0.443990  1
  Hf  Hf2  1  0.596558  0.798289  0.444036  1
  Hf  Hf3  1  0.798266  0.201712  0.555958  1
  Hf  Hf4  1  0.798284  0.596568  0.556010  1
  Hf  Hf5  1  0.403442  0.201711  0.555964  1
  Hf  Hf6  1  0.798266  0.201712  0.944042  1
  Hf  Hf7  1  0.798284  0.596568  0.943990  1
  Hf  Hf8  1  0.403442  0.201711  0.944036  1
  Hf  Hf9  1  0.201734  0.798288  0.055958  1
  Hf  Hf10  1  0.201716  0.403432  0.056010  1
  Hf  Hf11  1  0.596558  0.798289  0.055964  1
  Hf  Hf12  1  0.540143  0.459778  0.250000  1
  Hf  Hf13  1  0.540186  0.080363  0.250000  1
  Hf  Hf14  1  0.919636  0.459774  0.250000  1
  Hf  Hf15  1  0.459857  0.540222  0.750000  1
  Hf  Hf16  1  0.459814  0.919637  0.750000  1
  Hf  Hf17  1  0.080364  0.540226  0.750000  1
  Re  Re18  1  0.888312  0.111755  0.250000  1
  Re  Re19  1  0.888295  0.776605  0.250000  1
  Re  Re20  1  0.223439  0.111760  0.250000  1
  Re  Re21  1  0.111688  0.888245  0.750000  1
  Re  Re22  1  0.111705  0.223395  0.750000  1
  Re  Re23  1  0.776561  0.888240  0.750000  1
  B  B24  1  0.333334  0.666667  0.250000  1
  B  B25  1  0.666666  0.333333  0.750000  1
  Mo  Mo26  1  0.000000  0.000000  0.500000  1
  Mo  Mo27  1  0.000000  0.000000  0.000000  1
