# generated using pymatgen
data_Sc8Al15Ir6Rh
_symmetry_space_group_name_H-M   'P 1'
_cell_length_a   8.89033622
_cell_length_b   8.89033557
_cell_length_c   8.89033471
_cell_angle_alpha   120.17711875
_cell_angle_beta   119.92429572
_cell_angle_gamma   89.91233430
_symmetry_Int_Tables_number   1
_chemical_formula_structural   Sc8Al15Ir6Rh
_chemical_formula_sum   'Sc8 Al15 Ir6 Rh1'
_cell_volume   496.48172631
_cell_formula_units_Z   1
loop_
 _symmetry_equiv_pos_site_id
 _symmetry_equiv_pos_as_xyz
  1  'x, y, z'
loop_
 _atom_site_type_symbol
 _atom_site_label
 _atom_site_symmetry_multiplicity
 _atom_site_fract_x
 _atom_site_fract_y
 _atom_site_fract_z
 _atom_site_occupancy
  Sc  Sc0  1  0.790213  0.283626  0.063785  1
  Sc  Sc1  1  0.219841  0.283626  0.493413  1
  Sc  Sc2  1  0.208924  0.708924  0.500000  1
  Sc  Sc3  1  0.219841  0.726428  0.936215  1
  Sc  Sc4  1  0.790213  0.726428  0.506587  1
  Sc  Sc5  1  0.772590  0.272590  0.500000  1
  Sc  Sc6  1  0.378944  0.119655  0.740711  1
  Sc  Sc7  1  0.378944  0.638232  0.259289  1
  Al  Al8  1  0.990576  0.490576  0.500000  1
  Al  Al9  1  0.160051  0.337463  0.177412  1
  Al  Al10  1  0.160051  0.982639  0.822588  1
  Al  Al11  1  0.154051  0.343233  0.810818  1
  Al  Al12  1  0.532415  0.343233  0.189182  1
  Al  Al13  1  0.841381  0.656083  0.814701  1
  Al  Al14  1  0.841381  0.026680  0.185299  1
  Al  Al15  1  0.837931  0.659238  0.178693  1
  Al  Al16  1  0.480545  0.659238  0.821307  1
  Al  Al17  1  0.378829  0.123017  0.255813  1
  Al  Al18  1  0.867205  0.123017  0.744187  1
  Al  Al19  1  0.621511  0.874111  0.252601  1
  Al  Al20  1  0.621511  0.368910  0.747399  1
  Al  Al21  1  0.621881  0.876773  0.745107  1
  Al  Al22  1  0.131665  0.876773  0.254893  1
  Ir  Ir23  1  0.994921  0.998167  0.498035  1
  Ir  Ir24  1  0.500132  0.998167  0.003246  1
  Ir  Ir25  1  0.501492  0.501492  0.000000  1
  Ir  Ir26  1  0.500132  0.496886  0.501965  1
  Ir  Ir27  1  0.994921  0.496886  0.996754  1
  Ir  Ir28  1  0.000065  0.000065  0.000000  1
  Rh  Rh29  1  0.507843  0.007843  0.500000  1
