# generated using pymatgen
data_Nb8Co7Si14Os
_symmetry_space_group_name_H-M   'P 1'
_cell_length_a   9.28538405
_cell_length_b   9.28709652
_cell_length_c   9.28482370
_cell_angle_alpha   94.26027476
_cell_angle_beta   94.25046171
_cell_angle_gamma   148.38818854
_symmetry_Int_Tables_number   1
_chemical_formula_structural   Nb8Co7Si14Os
_chemical_formula_sum   'Nb8 Co7 Si14 Os1'
_cell_volume   403.80719998
_cell_formula_units_Z   1
loop_
 _symmetry_equiv_pos_site_id
 _symmetry_equiv_pos_as_xyz
  1  'x, y, z'
loop_
 _atom_site_type_symbol
 _atom_site_label
 _atom_site_symmetry_multiplicity
 _atom_site_fract_x
 _atom_site_fract_y
 _atom_site_fract_z
 _atom_site_occupancy
  Nb  Nb0  1  0.310454  0.499970  0.809809  1
  Nb  Nb1  1  0.690190  0.501192  0.192413  1
  Nb  Nb2  1  0.502222  0.691220  0.192413  1
  Nb  Nb3  1  0.499356  0.309839  0.809809  1
  Nb  Nb4  1  0.133479  0.133479  0.266956  1
  Nb  Nb5  1  0.865820  0.865820  0.731641  1
  Nb  Nb6  1  0.134705  0.867790  0.000529  1
  Nb  Nb7  1  0.865824  0.132739  0.000529  1
  Co  Co8  1  0.103580  0.603580  0.207161  1
  Co  Co9  1  0.899830  0.100823  0.497923  1
  Co  Co10  1  0.598093  0.397100  0.497923  1
  Co  Co11  1  0.600104  0.100104  0.200210  1
  Co  Co12  1  0.899426  0.399426  0.798852  1
  Co  Co13  1  0.099877  0.898409  0.498983  1
  Co  Co14  1  0.399106  0.600574  0.498983  1
  Si  Si15  1  0.291759  0.291759  0.583517  1
  Si  Si16  1  0.708498  0.708498  0.416995  1
  Si  Si17  1  0.282428  0.695472  0.006642  1
  Si  Si18  1  0.724214  0.311170  0.006642  1
  Si  Si19  1  0.081004  0.485776  0.588830  1
  Si  Si20  1  0.901042  0.496603  0.404857  1
  Si  Si21  1  0.503815  0.908254  0.404857  1
  Si  Si22  1  0.507826  0.103054  0.588830  1
  Si  Si23  1  0.249205  0.248792  0.000179  1
  Si  Si24  1  0.750975  0.751387  0.000179  1
  Si  Si25  1  0.296289  0.999813  0.295692  1
  Si  Si26  1  0.714414  0.004525  0.702325  1
  Si  Si27  1  0.987911  0.697800  0.702325  1
  Si  Si28  1  0.999403  0.295879  0.295692  1
  Os  Os29  1  0.399153  0.899153  0.798306  1
