# generated using pymatgen
data_Tb8Ho3Er9Sn16
_symmetry_space_group_name_H-M   'P 1'
_cell_length_a   8.01814117
_cell_length_b   8.15883509
_cell_length_c   15.42051216
_cell_angle_alpha   89.99621016
_cell_angle_beta   90.01621751
_cell_angle_gamma   89.98327587
_symmetry_Int_Tables_number   1
_chemical_formula_structural   Tb8Ho3Er9Sn16
_chemical_formula_sum   'Tb8 Ho3 Er9 Sn16'
_cell_volume   1008.78964251
_cell_formula_units_Z   1
loop_
 _symmetry_equiv_pos_site_id
 _symmetry_equiv_pos_as_xyz
  1  'x, y, z'
loop_
 _atom_site_type_symbol
 _atom_site_label
 _atom_site_symmetry_multiplicity
 _atom_site_fract_x
 _atom_site_fract_y
 _atom_site_fract_z
 _atom_site_occupancy
  Tb  Tb0  1  0.519718  0.320678  0.902987  1
  Tb  Tb1  1  0.019611  0.179265  0.597001  1
  Tb  Tb2  1  0.480395  0.679055  0.403020  1
  Tb  Tb3  1  0.980486  0.820810  0.096909  1
  Tb  Tb4  1  0.480261  0.679130  0.097037  1
  Tb  Tb5  1  0.980245  0.820724  0.402927  1
  Tb  Tb6  1  0.519868  0.320655  0.597085  1
  Tb  Tb7  1  0.019843  0.179422  0.903135  1
  Ho  Ho8  1  0.366411  0.836911  0.877681  1
  Ho  Ho9  1  0.866557  0.663069  0.622597  1
  Ho  Ho10  1  0.633544  0.163015  0.377266  1
  Er  Er11  1  0.133528  0.337134  0.122815  1
  Er  Er12  1  0.633728  0.162777  0.122697  1
  Er  Er13  1  0.133782  0.337140  0.377246  1
  Er  Er14  1  0.366023  0.837180  0.622671  1
  Er  Er15  1  0.866093  0.662830  0.877248  1
  Er  Er16  1  0.197561  0.503594  0.749909  1
  Er  Er17  1  0.697454  0.996484  0.750101  1
  Er  Er18  1  0.802271  0.496236  0.249806  1
  Er  Er19  1  0.302288  0.003659  0.250028  1
  Sn  Sn20  1  0.295187  0.038668  0.041849  1
  Sn  Sn21  1  0.795565  0.461833  0.458239  1
  Sn  Sn22  1  0.704477  0.962107  0.541763  1
  Sn  Sn23  1  0.204404  0.537641  0.958450  1
  Sn  Sn24  1  0.705830  0.962114  0.958421  1
  Sn  Sn25  1  0.205759  0.538022  0.541447  1
  Sn  Sn26  1  0.294500  0.038039  0.458473  1
  Sn  Sn27  1  0.795310  0.461548  0.041448  1
  Sn  Sn28  1  0.563602  0.619830  0.750009  1
  Sn  Sn29  1  0.063609  0.880530  0.750099  1
  Sn  Sn30  1  0.435833  0.380521  0.249873  1
  Sn  Sn31  1  0.936502  0.119690  0.249840  1
  Sn  Sn32  1  0.328960  0.147772  0.749857  1
  Sn  Sn33  1  0.829044  0.352176  0.750085  1
  Sn  Sn34  1  0.671054  0.852061  0.249986  1
  Sn  Sn35  1  0.170695  0.647681  0.249994  1
