# generated using pymatgen
data_Nd3CuNi2Ir
_symmetry_space_group_name_H-M   'P 1'
_cell_length_a   5.59121027
_cell_length_b   5.59121007
_cell_length_c   13.27056300
_cell_angle_alpha   90.00000000
_cell_angle_beta   90.00000000
_cell_angle_gamma   135.61723077
_symmetry_Int_Tables_number   1
_chemical_formula_structural   Nd3CuNi2Ir
_chemical_formula_sum   'Nd6 Cu2 Ni4 Ir2'
_cell_volume   290.17279315
_cell_formula_units_Z   2
loop_
 _symmetry_equiv_pos_site_id
 _symmetry_equiv_pos_as_xyz
  1  'x, y, z'
loop_
 _atom_site_type_symbol
 _atom_site_label
 _atom_site_symmetry_multiplicity
 _atom_site_fract_x
 _atom_site_fract_y
 _atom_site_fract_z
 _atom_site_occupancy
  Nd  Nd0  1  0.289245  0.710755  0.396962  1
  Nd  Nd1  1  0.710755  0.289245  0.603038  1
  Nd  Nd2  1  0.993736  0.006264  0.750000  1
  Nd  Nd3  1  0.006264  0.993736  0.250000  1
  Nd  Nd4  1  0.710755  0.289245  0.896962  1
  Nd  Nd5  1  0.289245  0.710755  0.103038  1
  Cu  Cu6  1  0.000000  0.000000  0.500000  1
  Cu  Cu7  1  0.000000  0.000000  0.000000  1
  Ni  Ni8  1  0.429255  0.570745  0.915148  1
  Ni  Ni9  1  0.570745  0.429255  0.084852  1
  Ni  Ni10  1  0.570745  0.429255  0.415148  1
  Ni  Ni11  1  0.429255  0.570745  0.584852  1
  Ir  Ir12  1  0.717326  0.282674  0.250000  1
  Ir  Ir13  1  0.282674  0.717326  0.750000  1
