# generated using pymatgen
data_Rb3Ho3(PS4)4
_symmetry_space_group_name_H-M   'P 1'
_cell_length_a   9.94350591
_cell_length_b   9.94350593
_cell_length_c   14.68240600
_cell_angle_alpha   90.87553219
_cell_angle_beta   90.87553219
_cell_angle_gamma   71.99305827
_symmetry_Int_Tables_number   1
_chemical_formula_structural   Rb3Ho3(PS4)4
_chemical_formula_sum   'Rb6 Ho6 P8 S32'
_cell_volume   1380.34630253
_cell_formula_units_Z   2
loop_
 _symmetry_equiv_pos_site_id
 _symmetry_equiv_pos_as_xyz
  1  'x, y, z'
loop_
 _atom_site_type_symbol
 _atom_site_label
 _atom_site_symmetry_multiplicity
 _atom_site_fract_x
 _atom_site_fract_y
 _atom_site_fract_z
 _atom_site_occupancy
  Rb  Rb0  1  0.000000  0.000000  0.000000  1
  Rb  Rb1  1  0.972537  0.615193  0.164971  1
  Rb  Rb2  1  0.384807  0.027463  0.335029  1
  Rb  Rb3  1  0.000000  0.000000  0.500000  1
  Rb  Rb4  1  0.615193  0.972537  0.664971  1
  Rb  Rb5  1  0.027463  0.384807  0.835029  1
  Ho  Ho6  1  0.513101  0.747441  0.011164  1
  Ho  Ho7  1  0.747824  0.252175  0.250000  1
  Ho  Ho8  1  0.252559  0.486899  0.488836  1
  Ho  Ho9  1  0.747441  0.513101  0.511164  1
  Ho  Ho10  1  0.252176  0.747825  0.750000  1
  Ho  Ho11  1  0.486899  0.252559  0.988836  1
  P  P12  1  0.757663  0.400071  0.025130  1
  P  P13  1  0.665939  0.964186  0.137672  1
  P  P14  1  0.035814  0.334061  0.362327  1
  P  P15  1  0.599929  0.242337  0.474870  1
  P  P16  1  0.400072  0.757664  0.525130  1
  P  P17  1  0.964186  0.665939  0.637673  1
  P  P18  1  0.334061  0.035814  0.862327  1
  P  P19  1  0.242337  0.599929  0.974871  1
  S  S20  1  0.322802  0.053771  0.001565  1
  S  S21  1  0.217736  0.418262  0.025094  1
  S  S22  1  0.264258  0.729451  0.080636  1
  S  S23  1  0.577378  0.457101  0.104652  1
  S  S24  1  0.919352  0.298692  0.110475  1
  S  S25  1  0.527088  0.163404  0.168868  1
  S  S26  1  0.596291  0.805054  0.183682  1
  S  S27  1  0.852761  0.964411  0.197355  1
  S  S28  1  0.035589  0.147239  0.302644  1
  S  S29  1  0.194945  0.403708  0.316318  1
  S  S30  1  0.836596  0.472912  0.331132  1
  S  S31  1  0.701308  0.080648  0.389525  1
  S  S32  1  0.542899  0.422622  0.395349  1
  S  S33  1  0.270548  0.735741  0.419363  1
  S  S34  1  0.581738  0.782264  0.474906  1
  S  S35  1  0.946229  0.677198  0.498434  1
  S  S36  1  0.053771  0.322803  0.501565  1
  S  S37  1  0.418262  0.217736  0.525094  1
  S  S38  1  0.729451  0.264259  0.580636  1
  S  S39  1  0.457102  0.577379  0.604651  1
  S  S40  1  0.298692  0.919352  0.610474  1
  S  S41  1  0.163404  0.527087  0.668868  1
  S  S42  1  0.805055  0.596292  0.683682  1
  S  S43  1  0.964410  0.852760  0.697356  1
  S  S44  1  0.147239  0.035589  0.802644  1
  S  S45  1  0.403708  0.194945  0.816318  1
  S  S46  1  0.472913  0.836596  0.831131  1
  S  S47  1  0.080647  0.701308  0.889525  1
  S  S48  1  0.422622  0.542899  0.895349  1
  S  S49  1  0.735742  0.270549  0.919364  1
  S  S50  1  0.782264  0.581738  0.974906  1
  S  S51  1  0.677198  0.946229  0.998434  1
