# generated using pymatgen
data_MgNb(Ni7B2)3
_symmetry_space_group_name_H-M   'P 1'
_cell_length_a   7.43657673
_cell_length_b   7.43657672
_cell_length_c   7.43657700
_cell_angle_alpha   59.99999431
_cell_angle_beta   59.99999436
_cell_angle_gamma   59.99999363
_symmetry_Int_Tables_number   1
_chemical_formula_structural   MgNb(Ni7B2)3
_chemical_formula_sum   'Mg1 Nb1 Ni21 B6'
_cell_volume   290.80652669
_cell_formula_units_Z   1
loop_
 _symmetry_equiv_pos_site_id
 _symmetry_equiv_pos_as_xyz
  1  'x, y, z'
loop_
 _atom_site_type_symbol
 _atom_site_label
 _atom_site_symmetry_multiplicity
 _atom_site_fract_x
 _atom_site_fract_y
 _atom_site_fract_z
 _atom_site_occupancy
  Mg  Mg0  1  0.250000  0.250000  0.250000  1
  Nb  Nb1  1  0.750000  0.750000  0.750000  1
  Ni  Ni2  1  0.340381  0.998474  0.998474  1
  Ni  Ni3  1  0.662671  0.998474  0.998474  1
  Ni  Ni4  1  0.998474  0.340381  0.662671  1
  Ni  Ni5  1  0.998474  0.662671  0.340381  1
  Ni  Ni6  1  0.998474  0.340381  0.998474  1
  Ni  Ni7  1  0.662671  0.998474  0.340381  1
  Ni  Ni8  1  0.998474  0.662671  0.998474  1
  Ni  Ni9  1  0.340381  0.998474  0.662671  1
  Ni  Ni10  1  0.998474  0.998474  0.340381  1
  Ni  Ni11  1  0.998474  0.998474  0.662671  1
  Ni  Ni12  1  0.662671  0.340381  0.998474  1
  Ni  Ni13  1  0.340381  0.662671  0.998474  1
  Ni  Ni14  1  0.385651  0.385651  0.385651  1
  Ni  Ni15  1  0.616035  0.616035  0.616035  1
  Ni  Ni16  1  0.385651  0.385651  0.843047  1
  Ni  Ni17  1  0.385651  0.843047  0.385651  1
  Ni  Ni18  1  0.616035  0.616035  0.151895  1
  Ni  Ni19  1  0.616035  0.151895  0.616035  1
  Ni  Ni20  1  0.843047  0.385651  0.385651  1
  Ni  Ni21  1  0.151895  0.616035  0.616035  1
  Ni  Ni22  1  0.000000  0.000000  0.000000  1
  B  B23  1  0.729907  0.270093  0.270093  1
  B  B24  1  0.270093  0.729907  0.729907  1
  B  B25  1  0.270093  0.729907  0.270093  1
  B  B26  1  0.729907  0.270093  0.729907  1
  B  B27  1  0.270093  0.270093  0.729907  1
  B  B28  1  0.729907  0.729907  0.270093  1
