# generated using pymatgen
data_CsNa3CoO4
_symmetry_space_group_name_H-M   'P 1'
_cell_length_a   6.55507499
_cell_length_b   8.59398948
_cell_length_c   11.38823653
_cell_angle_alpha   82.39519020
_cell_angle_beta   75.98312693
_cell_angle_gamma   79.57233237
_symmetry_Int_Tables_number   1
_chemical_formula_structural   CsNa3CoO4
_chemical_formula_sum   'Cs4 Na12 Co4 O16'
_cell_volume   609.52633628
_cell_formula_units_Z   4
loop_
 _symmetry_equiv_pos_site_id
 _symmetry_equiv_pos_as_xyz
  1  'x, y, z'
loop_
 _atom_site_type_symbol
 _atom_site_label
 _atom_site_symmetry_multiplicity
 _atom_site_fract_x
 _atom_site_fract_y
 _atom_site_fract_z
 _atom_site_occupancy
  Cs  Cs0  1  0.033341  0.131771  0.626188  1
  Cs  Cs1  1  0.966659  0.868229  0.373812  1
  Cs  Cs2  1  0.035770  0.380019  0.870657  1
  Cs  Cs3  1  0.964230  0.619981  0.129343  1
  Na  Na4  1  0.204883  0.164395  0.145550  1
  Na  Na5  1  0.795117  0.835605  0.854450  1
  Na  Na6  1  0.501711  0.664674  0.392582  1
  Na  Na7  1  0.498289  0.335326  0.607418  1
  Na  Na8  1  0.179377  0.444765  0.395773  1
  Na  Na9  1  0.539677  0.432845  0.125853  1
  Na  Na10  1  0.210977  0.941655  0.896521  1
  Na  Na11  1  0.789023  0.058345  0.103479  1
  Na  Na12  1  0.569326  0.955536  0.625938  1
  Na  Na13  1  0.430674  0.044464  0.374062  1
  Na  Na14  1  0.460323  0.567155  0.874147  1
  Na  Na15  1  0.820623  0.555235  0.604227  1
  Co  Co16  1  0.164209  0.715674  0.645134  1
  Co  Co17  1  0.835791  0.284326  0.354866  1
  Co  Co18  1  0.581690  0.214275  0.861768  1
  Co  Co19  1  0.418310  0.785725  0.138232  1
  O  O20  1  0.345669  0.837348  0.542922  1
  O  O21  1  0.654331  0.162652  0.457078  1
  O  O22  1  0.432814  0.116331  0.784985  1
  O  O23  1  0.567186  0.883669  0.215015  1
  O  O24  1  0.181075  0.715693  0.802185  1
  O  O25  1  0.818925  0.284307  0.197815  1
  O  O26  1  0.816420  0.086099  0.896823  1
  O  O27  1  0.183580  0.913901  0.103177  1
  O  O28  1  0.671715  0.377851  0.752710  1
  O  O29  1  0.328285  0.622149  0.247290  1
  O  O30  1  0.583821  0.690780  0.006069  1
  O  O31  1  0.416179  0.309220  0.993931  1
  O  O32  1  0.885791  0.798603  0.645648  1
  O  O33  1  0.798253  0.479245  0.412575  1
  O  O34  1  0.114209  0.201397  0.354352  1
  O  O35  1  0.201747  0.520755  0.587425  1
