# generated using pymatgen
data_HfZr5CoSi7Ni15
_symmetry_space_group_name_H-M   'P 1'
_cell_length_a   8.10728498
_cell_length_b   8.10242427
_cell_length_c   8.10948342
_cell_angle_alpha   59.95737586
_cell_angle_beta   59.92780894
_cell_angle_gamma   59.95177720
_symmetry_Int_Tables_number   1
_chemical_formula_structural   HfZr5CoSi7Ni15
_chemical_formula_sum   'Hf1 Zr5 Co1 Si7 Ni15'
_cell_volume   376.21223373
_cell_formula_units_Z   1
loop_
 _symmetry_equiv_pos_site_id
 _symmetry_equiv_pos_as_xyz
  1  'x, y, z'
loop_
 _atom_site_type_symbol
 _atom_site_label
 _atom_site_symmetry_multiplicity
 _atom_site_fract_x
 _atom_site_fract_y
 _atom_site_fract_z
 _atom_site_occupancy
  Hf  Hf0  1  0.206535  0.797014  0.206568  1
  Zr  Zr1  1  0.793450  0.206680  0.793426  1
  Zr  Zr2  1  0.794269  0.793834  0.206279  1
  Zr  Zr3  1  0.206273  0.793836  0.794265  1
  Zr  Zr4  1  0.205779  0.205252  0.798125  1
  Zr  Zr5  1  0.798129  0.205232  0.205802  1
  Co  Co6  1  0.167139  0.165466  0.167153  1
  Si  Si7  1  0.000159  0.499304  0.000179  1
  Si  Si8  1  0.499599  0.499681  0.499573  1
  Si  Si9  1  0.499368  0.500051  0.002209  1
  Si  Si10  1  0.499773  0.001827  0.499776  1
  Si  Si11  1  0.002196  0.500052  0.499387  1
  Si  Si12  1  0.000685  0.999711  0.498851  1
  Si  Si13  1  0.498879  0.999690  0.000688  1
  Ni  Ni14  1  0.617098  0.618869  0.145084  1
  Ni  Ni15  1  0.381427  0.383086  0.381558  1
  Ni  Ni16  1  0.169116  0.493545  0.169112  1
  Ni  Ni17  1  0.168976  0.169079  0.492172  1
  Ni  Ni18  1  0.145131  0.618859  0.617049  1
  Ni  Ni19  1  0.618342  0.144889  0.618291  1
  Ni  Ni20  1  0.831230  0.831154  0.831189  1
  Ni  Ni21  1  0.855817  0.381891  0.381962  1
  Ni  Ni22  1  0.381894  0.381895  0.855844  1
  Ni  Ni23  1  0.381312  0.855464  0.381388  1
  Ni  Ni24  1  0.507184  0.829470  0.831050  1
  Ni  Ni25  1  0.617348  0.617305  0.617241  1
  Ni  Ni26  1  0.831035  0.829447  0.507260  1
  Ni  Ni27  1  0.492261  0.169054  0.168941  1
  Ni  Ni28  1  0.829598  0.508364  0.829582  1
