# generated using pymatgen
data_LiNb(NiP)2
_symmetry_space_group_name_H-M   'P 1'
_cell_length_a   3.61466000
_cell_length_b   6.08373200
_cell_length_c   6.93006700
_cell_angle_alpha   90.00000000
_cell_angle_beta   90.00000000
_cell_angle_gamma   90.00000000
_symmetry_Int_Tables_number   1
_chemical_formula_structural   LiNb(NiP)2
_chemical_formula_sum   'Li2 Nb2 Ni4 P4'
_cell_volume   152.39648876
_cell_formula_units_Z   2
loop_
 _symmetry_equiv_pos_site_id
 _symmetry_equiv_pos_as_xyz
  1  'x, y, z'
loop_
 _atom_site_type_symbol
 _atom_site_label
 _atom_site_symmetry_multiplicity
 _atom_site_fract_x
 _atom_site_fract_y
 _atom_site_fract_z
 _atom_site_occupancy
  Li  Li0  1  0.250000  0.526512  0.678957  1
  Li  Li1  1  0.250000  0.026512  0.821043  1
  Nb  Nb2  1  0.750000  0.968994  0.174665  1
  Nb  Nb3  1  0.750000  0.468994  0.325335  1
  Ni  Ni4  1  0.750000  0.356933  0.933766  1
  Ni  Ni5  1  0.250000  0.140372  0.446907  1
  Ni  Ni6  1  0.750000  0.856933  0.566234  1
  Ni  Ni7  1  0.250000  0.640372  0.053093  1
  P  P8  1  0.250000  0.769268  0.378907  1
  P  P9  1  0.250000  0.269268  0.121093  1
  P  P10  1  0.750000  0.237920  0.623598  1
  P  P11  1  0.750000  0.737920  0.876402  1
