# generated using pymatgen
data_ErTm2GaSn3Rh2
_symmetry_space_group_name_H-M   'P 1'
_cell_length_a   7.43010917
_cell_length_b   7.43242251
_cell_length_c   4.03941100
_cell_angle_alpha   90.00000000
_cell_angle_beta   90.00000000
_cell_angle_gamma   119.96486978
_symmetry_Int_Tables_number   1
_chemical_formula_structural   ErTm2GaSn3Rh2
_chemical_formula_sum   'Er1 Tm2 Ga1 Sn3 Rh2'
_cell_volume   193.25373225
_cell_formula_units_Z   1
loop_
 _symmetry_equiv_pos_site_id
 _symmetry_equiv_pos_as_xyz
  1  'x, y, z'
loop_
 _atom_site_type_symbol
 _atom_site_label
 _atom_site_symmetry_multiplicity
 _atom_site_fract_x
 _atom_site_fract_y
 _atom_site_fract_z
 _atom_site_occupancy
  Er  Er0  1  0.013723  0.409246  0.000000  1
  Tm  Tm1  1  0.590725  0.604871  0.000000  1
  Tm  Tm2  1  0.395190  0.985962  0.000000  1
  Ga  Ga3  1  0.666492  0.333294  0.500000  1
  Sn  Sn4  1  0.254512  0.258201  0.500000  1
  Sn  Sn5  1  0.003798  0.745679  0.500000  1
  Sn  Sn6  1  0.741659  0.996052  0.500000  1
  Rh  Rh7  1  0.333842  0.666977  0.500000  1
  Rh  Rh8  1  0.000059  0.999718  0.000000  1
