# generated using pymatgen
data_Pr7Nd10Er3Sn16
_symmetry_space_group_name_H-M   'P 1'
_cell_length_a   8.27162048
_cell_length_b   8.42718414
_cell_length_c   15.98355806
_cell_angle_alpha   90.00272094
_cell_angle_beta   90.00928714
_cell_angle_gamma   90.03769478
_symmetry_Int_Tables_number   1
_chemical_formula_structural   Pr7Nd10Er3Sn16
_chemical_formula_sum   'Pr7 Nd10 Er3 Sn16'
_cell_volume   1114.15713623
_cell_formula_units_Z   1
loop_
 _symmetry_equiv_pos_site_id
 _symmetry_equiv_pos_as_xyz
  1  'x, y, z'
loop_
 _atom_site_type_symbol
 _atom_site_label
 _atom_site_symmetry_multiplicity
 _atom_site_fract_x
 _atom_site_fract_y
 _atom_site_fract_z
 _atom_site_occupancy
  Pr  Pr0  1  0.018379  0.181174  0.599702  1
  Pr  Pr1  1  0.481721  0.680631  0.401747  1
  Pr  Pr2  1  0.981455  0.818323  0.098095  1
  Pr  Pr3  1  0.481716  0.680589  0.098224  1
  Pr  Pr4  1  0.981451  0.818321  0.401894  1
  Pr  Pr5  1  0.518264  0.318578  0.598751  1
  Pr  Pr6  1  0.018354  0.181207  0.900324  1
  Nd  Nd7  1  0.366586  0.837610  0.877829  1
  Nd  Nd8  1  0.866782  0.661844  0.620553  1
  Nd  Nd9  1  0.633938  0.163028  0.379517  1
  Nd  Nd10  1  0.132477  0.337824  0.119808  1
  Nd  Nd11  1  0.633916  0.163053  0.120442  1
  Nd  Nd12  1  0.132483  0.337825  0.380163  1
  Nd  Nd13  1  0.366542  0.837596  0.622191  1
  Nd  Nd14  1  0.866757  0.661798  0.879474  1
  Nd  Nd15  1  0.518259  0.318606  0.901104  1
  Nd  Nd16  1  0.303617  0.002138  0.249997  1
  Er  Er17  1  0.199150  0.501872  0.750052  1
  Er  Er18  1  0.698523  0.997614  0.750042  1
  Er  Er19  1  0.801895  0.497045  0.249979  1
  Sn  Sn20  1  0.293034  0.036807  0.041344  1
  Sn  Sn21  1  0.792559  0.465899  0.455279  1
  Sn  Sn22  1  0.706888  0.965700  0.545039  1
  Sn  Sn23  1  0.208320  0.534228  0.954559  1
  Sn  Sn24  1  0.706698  0.966009  0.954902  1
  Sn  Sn25  1  0.207797  0.534620  0.545307  1
  Sn  Sn26  1  0.292929  0.036687  0.458622  1
  Sn  Sn27  1  0.792229  0.465697  0.044570  1
  Sn  Sn28  1  0.564007  0.617156  0.750094  1
  Sn  Sn29  1  0.062405  0.882090  0.750006  1
  Sn  Sn30  1  0.437727  0.385397  0.249998  1
  Sn  Sn31  1  0.932711  0.118307  0.249995  1
  Sn  Sn32  1  0.324540  0.147162  0.750284  1
  Sn  Sn33  1  0.822616  0.354121  0.750128  1
  Sn  Sn34  1  0.678647  0.852263  0.249995  1
  Sn  Sn35  1  0.174629  0.641182  0.249991  1
