# generated using pymatgen
data_Cs5Mg2Tl11
_symmetry_space_group_name_H-M   'P 1'
_cell_length_a   11.51842100
_cell_length_b   11.51842069
_cell_length_c   5.89596100
_cell_angle_alpha   90.00000000
_cell_angle_beta   90.00000000
_cell_angle_gamma   107.55031784
_symmetry_Int_Tables_number   1
_chemical_formula_structural   Cs5Mg2Tl11
_chemical_formula_sum   'Cs5 Mg2 Tl11'
_cell_volume   745.82948462
_cell_formula_units_Z   1
loop_
 _symmetry_equiv_pos_site_id
 _symmetry_equiv_pos_as_xyz
  1  'x, y, z'
loop_
 _atom_site_type_symbol
 _atom_site_label
 _atom_site_symmetry_multiplicity
 _atom_site_fract_x
 _atom_site_fract_y
 _atom_site_fract_z
 _atom_site_occupancy
  Cs  Cs0  1  0.224740  0.607675  0.500000  1
  Cs  Cs1  1  0.513851  0.897133  0.000000  1
  Cs  Cs2  1  0.607675  0.224740  0.500000  1
  Cs  Cs3  1  0.632100  0.632100  0.500000  1
  Cs  Cs4  1  0.897133  0.513851  0.000000  1
  Mg  Mg5  1  0.063125  0.063125  0.251049  1
  Mg  Mg6  1  0.063125  0.063125  0.748951  1
  Tl  Tl7  1  0.137443  0.336272  0.000000  1
  Tl  Tl8  1  0.149468  0.846286  0.000000  1
  Tl  Tl9  1  0.279870  0.279870  0.500000  1
  Tl  Tl10  1  0.282122  0.975749  0.500000  1
  Tl  Tl11  1  0.336272  0.137443  0.000000  1
  Tl  Tl12  1  0.429657  0.429657  0.000000  1
  Tl  Tl13  1  0.795807  0.985928  0.500000  1
  Tl  Tl14  1  0.842550  0.842550  0.000000  1
  Tl  Tl15  1  0.846286  0.149468  0.000000  1
  Tl  Tl16  1  0.975749  0.282122  0.500000  1
  Tl  Tl17  1  0.985928  0.795807  0.500000  1
