# generated using pymatgen
data_Tb15ErZn3InRh4
_symmetry_space_group_name_H-M   'P 1'
_cell_length_a   9.58798056
_cell_length_b   9.58287482
_cell_length_c   9.58797823
_cell_angle_alpha   59.94345450
_cell_angle_beta   59.89561493
_cell_angle_gamma   59.94345657
_symmetry_Int_Tables_number   1
_chemical_formula_structural   Tb15ErZn3InRh4
_chemical_formula_sum   'Tb15 Er1 Zn3 In1 Rh4'
_cell_volume   621.89934253
_cell_formula_units_Z   1
loop_
 _symmetry_equiv_pos_site_id
 _symmetry_equiv_pos_as_xyz
  1  'x, y, z'
loop_
 _atom_site_type_symbol
 _atom_site_label
 _atom_site_symmetry_multiplicity
 _atom_site_fract_x
 _atom_site_fract_y
 _atom_site_fract_z
 _atom_site_occupancy
  Tb  Tb0  1  0.191265  0.190667  0.810302  1
  Tb  Tb1  1  0.436322  0.062574  0.063212  1
  Tb  Tb2  1  0.434940  0.058784  0.434940  1
  Tb  Tb3  1  0.062666  0.437024  0.062666  1
  Tb  Tb4  1  0.646813  0.057239  0.646813  1
  Tb  Tb5  1  0.191735  0.808785  0.809629  1
  Tb  Tb6  1  0.063212  0.062574  0.436322  1
  Tb  Tb7  1  0.810302  0.190667  0.191265  1
  Tb  Tb8  1  0.809629  0.808785  0.191735  1
  Tb  Tb9  1  0.645957  0.647135  0.057774  1
  Tb  Tb10  1  0.648298  0.648578  0.648298  1
  Tb  Tb11  1  0.059067  0.435512  0.434649  1
  Tb  Tb12  1  0.057774  0.647135  0.645957  1
  Tb  Tb13  1  0.808874  0.191989  0.808874  1
  Tb  Tb14  1  0.434649  0.435512  0.059067  1
  Er  Er15  1  0.191164  0.809419  0.191164  1
  Zn  Zn16  1  0.420971  0.743632  0.420971  1
  Zn  Zn17  1  0.421128  0.421056  0.743615  1
  Zn  Zn18  1  0.743615  0.421056  0.421128  1
  In  In19  1  0.422203  0.422824  0.422203  1
  Rh  Rh20  1  0.856335  0.429145  0.856335  1
  Rh  Rh21  1  0.857942  0.856330  0.427955  1
  Rh  Rh22  1  0.427955  0.856330  0.857942  1
  Rh  Rh23  1  0.857184  0.857245  0.857184  1
