# generated using pymatgen
data_Ho4NiAg
_symmetry_space_group_name_H-M   'P 1'
_cell_length_a   9.38019461
_cell_length_b   9.38019462
_cell_length_c   9.38019500
_cell_angle_alpha   60.00000217
_cell_angle_beta   60.00000215
_cell_angle_gamma   60.00000145
_symmetry_Int_Tables_number   1
_chemical_formula_structural   Ho4NiAg
_chemical_formula_sum   'Ho16 Ni4 Ag4'
_cell_volume   583.60712531
_cell_formula_units_Z   4
loop_
 _symmetry_equiv_pos_site_id
 _symmetry_equiv_pos_as_xyz
  1  'x, y, z'
loop_
 _atom_site_type_symbol
 _atom_site_label
 _atom_site_symmetry_multiplicity
 _atom_site_fract_x
 _atom_site_fract_y
 _atom_site_fract_z
 _atom_site_occupancy
  Ho  Ho0  1  0.350074  0.350074  0.350074  1
  Ho  Ho1  1  0.350074  0.350074  0.949776  1
  Ho  Ho2  1  0.350074  0.949776  0.350074  1
  Ho  Ho3  1  0.949776  0.350074  0.350074  1
  Ho  Ho4  1  0.811312  0.188688  0.188688  1
  Ho  Ho5  1  0.188688  0.811312  0.811312  1
  Ho  Ho6  1  0.188688  0.811312  0.188688  1
  Ho  Ho7  1  0.811312  0.188688  0.811312  1
  Ho  Ho8  1  0.188688  0.188688  0.811312  1
  Ho  Ho9  1  0.811312  0.811312  0.188688  1
  Ho  Ho10  1  0.935508  0.564492  0.564492  1
  Ho  Ho11  1  0.564492  0.935508  0.935508  1
  Ho  Ho12  1  0.564492  0.935508  0.564492  1
  Ho  Ho13  1  0.935508  0.564492  0.935508  1
  Ho  Ho14  1  0.564492  0.564492  0.935508  1
  Ho  Ho15  1  0.935508  0.935508  0.564492  1
  Ni  Ni16  1  0.143080  0.143080  0.143080  1
  Ni  Ni17  1  0.143080  0.143080  0.570760  1
  Ni  Ni18  1  0.143080  0.570760  0.143080  1
  Ni  Ni19  1  0.570760  0.143080  0.143080  1
  Ag  Ag20  1  0.581853  0.581853  0.581853  1
  Ag  Ag21  1  0.581853  0.581853  0.254443  1
  Ag  Ag22  1  0.581853  0.254443  0.581853  1
  Ag  Ag23  1  0.254443  0.581853  0.581853  1
