# generated using pymatgen
data_Ba6Ni2OsO12
_symmetry_space_group_name_H-M   'P 1'
_cell_length_a   9.18037064
_cell_length_b   9.18037061
_cell_length_c   7.31926125
_cell_angle_alpha   68.12118934
_cell_angle_beta   68.12118942
_cell_angle_gamma   36.79024446
_symmetry_Int_Tables_number   1
_chemical_formula_structural   Ba6Ni2OsO12
_chemical_formula_sum   'Ba6 Ni2 Os1 O12'
_cell_volume   339.75116371
_cell_formula_units_Z   1
loop_
 _symmetry_equiv_pos_site_id
 _symmetry_equiv_pos_as_xyz
  1  'x, y, z'
loop_
 _atom_site_type_symbol
 _atom_site_label
 _atom_site_symmetry_multiplicity
 _atom_site_fract_x
 _atom_site_fract_y
 _atom_site_fract_z
 _atom_site_occupancy
  Ba  Ba0  1  0.869245  0.869245  0.722544  1
  Ba  Ba1  1  0.222923  0.222923  0.714043  1
  Ba  Ba2  1  0.548535  0.548535  0.703819  1
  Ba  Ba3  1  0.451465  0.451465  0.296181  1
  Ba  Ba4  1  0.777077  0.777077  0.285957  1
  Ba  Ba5  1  0.130755  0.130755  0.277456  1
  Ni  Ni6  1  0.668843  0.668843  0.999384  1
  Ni  Ni7  1  0.331157  0.331157  0.000616  1
  Os  Os8  1  0.000000  0.000000  0.000000  1
  O  O9  1  0.952365  0.952365  0.287911  1
  O  O10  1  0.285217  0.285217  0.314524  1
  O  O11  1  0.609861  0.609861  0.317396  1
  O  O12  1  0.390139  0.390139  0.682604  1
  O  O13  1  0.714783  0.714783  0.685476  1
  O  O14  1  0.047635  0.047635  0.712089  1
  O  O15  1  0.500000  0.000000  0.000000  1
  O  O16  1  0.844049  0.309249  0.000811  1
  O  O17  1  0.155951  0.690751  0.999189  1
  O  O18  1  0.000000  0.500000  0.000000  1
  O  O19  1  0.309249  0.844049  0.000811  1
  O  O20  1  0.690751  0.155951  0.999189  1
