# generated using pymatgen
data_BaMnFe2Sb12Au
_symmetry_space_group_name_H-M   'P 1'
_cell_length_a   8.13824307
_cell_length_b   8.12143148
_cell_length_c   8.08776570
_cell_angle_alpha   109.29285094
_cell_angle_beta   109.37516887
_cell_angle_gamma   109.56638726
_symmetry_Int_Tables_number   1
_chemical_formula_structural   BaMnFe2Sb12Au
_chemical_formula_sum   'Ba1 Mn1 Fe2 Sb12 Au1'
_cell_volume   412.40603837
_cell_formula_units_Z   1
loop_
 _symmetry_equiv_pos_site_id
 _symmetry_equiv_pos_as_xyz
  1  'x, y, z'
loop_
 _atom_site_type_symbol
 _atom_site_label
 _atom_site_symmetry_multiplicity
 _atom_site_fract_x
 _atom_site_fract_y
 _atom_site_fract_z
 _atom_site_occupancy
  Ba  Ba0  1  0.000000  0.000000  0.000000  1
  Mn  Mn1  1  0.000000  0.500000  0.000000  1
  Fe  Fe2  1  0.500000  0.500000  0.500000  1
  Fe  Fe3  1  0.500000  0.000000  0.000000  1
  Sb  Sb4  1  0.172223  0.808935  0.669245  1
  Sb  Sb5  1  0.164144  0.498511  0.332573  1
  Sb  Sb6  1  0.500424  0.663936  0.834082  1
  Sb  Sb7  1  0.334407  0.836154  0.168489  1
  Sb  Sb8  1  0.809415  0.637646  0.139739  1
  Sb  Sb9  1  0.637411  0.828619  0.497362  1
  Sb  Sb10  1  0.190585  0.362354  0.860261  1
  Sb  Sb11  1  0.665593  0.163846  0.831511  1
  Sb  Sb12  1  0.362589  0.171381  0.502638  1
  Sb  Sb13  1  0.499576  0.336064  0.165918  1
  Sb  Sb14  1  0.835856  0.501489  0.667427  1
  Sb  Sb15  1  0.827777  0.191065  0.330755  1
  Au  Au16  1  0.000000  0.000000  0.500000  1
