# generated using pymatgen
data_Ti8VTc3Os4
_symmetry_space_group_name_H-M   'P 1'
_cell_length_a   6.21136600
_cell_length_b   4.38079900
_cell_length_c   8.81921400
_cell_angle_alpha   90.00000000
_cell_angle_beta   90.00009160
_cell_angle_gamma   90.00000000
_symmetry_Int_Tables_number   1
_chemical_formula_structural   Ti8VTc3Os4
_chemical_formula_sum   'Ti8 V1 Tc3 Os4'
_cell_volume   239.97739173
_cell_formula_units_Z   1
loop_
 _symmetry_equiv_pos_site_id
 _symmetry_equiv_pos_as_xyz
  1  'x, y, z'
loop_
 _atom_site_type_symbol
 _atom_site_label
 _atom_site_symmetry_multiplicity
 _atom_site_fract_x
 _atom_site_fract_y
 _atom_site_fract_z
 _atom_site_occupancy
  Ti  Ti0  1  0.005820  0.749999  0.125005  1
  Ti  Ti1  1  0.494202  0.749999  0.125005  1
  Ti  Ti2  1  0.002409  0.249999  0.378815  1
  Ti  Ti3  1  0.497610  0.249999  0.378816  1
  Ti  Ti4  1  0.500597  0.749999  0.625004  1
  Ti  Ti5  1  0.999379  0.749999  0.625004  1
  Ti  Ti6  1  0.497596  0.249999  0.871189  1
  Ti  Ti7  1  0.002386  0.249999  0.871187  1
  V  V8  1  0.750007  0.249999  0.124994  1
  Tc  Tc9  1  0.250010  0.749999  0.375871  1
  Tc  Tc10  1  0.749991  0.249999  0.625018  1
  Tc  Tc11  1  0.249990  0.749999  0.874112  1
  Os  Os12  1  0.250010  0.249999  0.125005  1
  Os  Os13  1  0.750009  0.749999  0.370129  1
  Os  Os14  1  0.249991  0.249999  0.625004  1
  Os  Os15  1  0.749992  0.749999  0.879844  1
