# generated using pymatgen
data_GdHoAsSe
_symmetry_space_group_name_H-M   'P 1'
_cell_length_a   7.09928690
_cell_length_b   7.09928681
_cell_length_c   7.09928664
_cell_angle_alpha   33.50784158
_cell_angle_beta   33.50784375
_cell_angle_gamma   33.50784341
_symmetry_Int_Tables_number   1
_chemical_formula_structural   GdHoAsSe
_chemical_formula_sum   'Gd1 Ho1 As1 Se1'
_cell_volume   97.12038326
_cell_formula_units_Z   1
loop_
 _symmetry_equiv_pos_site_id
 _symmetry_equiv_pos_as_xyz
  1  'x, y, z'
loop_
 _atom_site_type_symbol
 _atom_site_label
 _atom_site_symmetry_multiplicity
 _atom_site_fract_x
 _atom_site_fract_y
 _atom_site_fract_z
 _atom_site_occupancy
  Gd  Gd0  1  0.996689  0.996689  0.996689  1
  Ho  Ho1  1  0.503343  0.503343  0.503343  1
  As  As2  1  0.248404  0.248404  0.248404  1
  Se  Se3  1  0.751564  0.751564  0.751564  1
