# generated using pymatgen
data_MnZn3(PtRh)2
_symmetry_space_group_name_H-M   'P 1'
_cell_length_a   6.14584600
_cell_length_b   4.31702500
_cell_length_c   8.64017700
_cell_angle_alpha   90.00000000
_cell_angle_beta   90.00027910
_cell_angle_gamma   90.00000000
_symmetry_Int_Tables_number   1
_chemical_formula_structural   MnZn3(PtRh)2
_chemical_formula_sum   'Mn2 Zn6 Pt4 Rh4'
_cell_volume   229.23919608
_cell_formula_units_Z   2
loop_
 _symmetry_equiv_pos_site_id
 _symmetry_equiv_pos_as_xyz
  1  'x, y, z'
loop_
 _atom_site_type_symbol
 _atom_site_label
 _atom_site_symmetry_multiplicity
 _atom_site_fract_x
 _atom_site_fract_y
 _atom_site_fract_z
 _atom_site_occupancy
  Mn  Mn0  1  0.500521  0.749999  0.125210  1
  Mn  Mn1  1  0.999520  0.749999  0.125218  1
  Zn  Zn2  1  0.500029  0.250000  0.374220  1
  Zn  Zn3  1  0.000004  0.250000  0.374232  1
  Zn  Zn4  1  0.999827  0.749999  0.625355  1
  Zn  Zn5  1  0.500137  0.749999  0.625367  1
  Zn  Zn6  1  0.999968  0.250000  0.875124  1
  Zn  Zn7  1  0.499997  0.250000  0.875137  1
  Pt  Pt8  1  0.750023  0.250000  0.124699  1
  Pt  Pt9  1  0.250018  0.749999  0.374841  1
  Pt  Pt10  1  0.749978  0.250000  0.624664  1
  Pt  Pt11  1  0.249982  0.749999  0.875842  1
  Rh  Rh12  1  0.250013  0.250000  0.124778  1
  Rh  Rh13  1  0.750009  0.749999  0.373698  1
  Rh  Rh14  1  0.249985  0.250000  0.624712  1
  Rh  Rh15  1  0.749990  0.749999  0.876903  1
