# generated using pymatgen
data_BaEuNp2N4
_symmetry_space_group_name_H-M   'P 1'
_cell_length_a   3.51594200
_cell_length_b   3.51594315
_cell_length_c   12.21826000
_cell_angle_alpha   90.00000000
_cell_angle_beta   90.00000000
_cell_angle_gamma   119.99997033
_symmetry_Int_Tables_number   1
_chemical_formula_structural   BaEuNp2N4
_chemical_formula_sum   'Ba1 Eu1 Np2 N4'
_cell_volume   130.80479696
_cell_formula_units_Z   1
loop_
 _symmetry_equiv_pos_site_id
 _symmetry_equiv_pos_as_xyz
  1  'x, y, z'
loop_
 _atom_site_type_symbol
 _atom_site_label
 _atom_site_symmetry_multiplicity
 _atom_site_fract_x
 _atom_site_fract_y
 _atom_site_fract_z
 _atom_site_occupancy
  Ba  Ba0  1  0.666667  0.333333  0.250000  1
  Eu  Eu1  1  0.333333  0.666667  0.750000  1
  Np  Np2  1  0.000000  0.000000  0.987270  1
  Np  Np3  1  0.000000  0.000000  0.512730  1
  N  N4  1  0.333333  0.666667  0.425904  1
  N  N5  1  0.666667  0.333333  0.892575  1
  N  N6  1  0.333333  0.666667  0.074096  1
  N  N7  1  0.666667  0.333333  0.607425  1
