# generated using pymatgen
data_Hf15ZrCo4(PdN)4
_symmetry_space_group_name_H-M   'P 1'
_cell_length_a   8.64794741
_cell_length_b   8.62387647
_cell_length_c   8.62387663
_cell_angle_alpha   59.99815611
_cell_angle_beta   59.90693709
_cell_angle_gamma   59.90695115
_symmetry_Int_Tables_number   1
_chemical_formula_structural   Hf15ZrCo4(PdN)4
_chemical_formula_sum   'Hf15 Zr1 Co4 Pd4 N4'
_cell_volume   454.13479939
_cell_formula_units_Z   1
loop_
 _symmetry_equiv_pos_site_id
 _symmetry_equiv_pos_as_xyz
  1  'x, y, z'
loop_
 _atom_site_type_symbol
 _atom_site_label
 _atom_site_symmetry_multiplicity
 _atom_site_fract_x
 _atom_site_fract_y
 _atom_site_fract_z
 _atom_site_occupancy
  Hf  Hf0  1  0.083416  0.638832  0.638832  1
  Hf  Hf1  1  0.639079  0.083017  0.638865  1
  Hf  Hf2  1  0.639079  0.638865  0.083017  1
  Hf  Hf3  1  0.638916  0.638788  0.638788  1
  Hf  Hf4  1  0.817619  0.817379  0.182905  1
  Hf  Hf5  1  0.182092  0.182915  0.817382  1
  Hf  Hf6  1  0.817619  0.182905  0.817379  1
  Hf  Hf7  1  0.182092  0.817382  0.182915  1
  Hf  Hf8  1  0.182920  0.817076  0.817076  1
  Hf  Hf9  1  0.816700  0.183306  0.183306  1
  Hf  Hf10  1  0.434631  0.434728  0.065303  1
  Hf  Hf11  1  0.065368  0.065302  0.434722  1
  Hf  Hf12  1  0.434631  0.065303  0.434728  1
  Hf  Hf13  1  0.065368  0.434722  0.065302  1
  Hf  Hf14  1  0.065708  0.434305  0.434305  1
  Zr  Zr15  1  0.434949  0.065058  0.065058  1
  Co  Co16  1  0.449303  0.849591  0.849591  1
  Co  Co17  1  0.850171  0.450351  0.849255  1
  Co  Co18  1  0.850171  0.849255  0.450351  1
  Co  Co19  1  0.851494  0.849610  0.849610  1
  Pd  Pd20  1  0.755934  0.414691  0.414691  1
  Pd  Pd21  1  0.414299  0.753503  0.417867  1
  Pd  Pd22  1  0.414299  0.417867  0.753503  1
  Pd  Pd23  1  0.414670  0.414711  0.414711  1
  N  N24  1  0.626212  0.126002  0.126002  1
  N  N25  1  0.125734  0.623174  0.125365  1
  N  N26  1  0.125734  0.125365  0.623174  1
  N  N27  1  0.121792  0.125999  0.125999  1
