# generated using pymatgen
data_Ho4B16IrOs2Rh
_symmetry_space_group_name_H-M   'P 1'
_cell_length_a   3.56286300
_cell_length_b   5.95324920
_cell_length_c   11.53623161
_cell_angle_alpha   90.08672682
_cell_angle_beta   90.00000000
_cell_angle_gamma   90.00000000
_symmetry_Int_Tables_number   1
_chemical_formula_structural   Ho4B16IrOs2Rh
_chemical_formula_sum   'Ho4 B16 Ir1 Os2 Rh1'
_cell_volume   244.69024442
_cell_formula_units_Z   1
loop_
 _symmetry_equiv_pos_site_id
 _symmetry_equiv_pos_as_xyz
  1  'x, y, z'
loop_
 _atom_site_type_symbol
 _atom_site_label
 _atom_site_symmetry_multiplicity
 _atom_site_fract_x
 _atom_site_fract_y
 _atom_site_fract_z
 _atom_site_occupancy
  Ho  Ho0  1  0.500000  0.370331  0.149784  1
  Ho  Ho1  1  0.500000  0.629906  0.850425  1
  Ho  Ho2  1  0.500000  0.129861  0.648622  1
  Ho  Ho3  1  0.500000  0.870251  0.350976  1
  B  B4  1  0.000000  0.112234  0.047262  1
  B  B5  1  0.000000  0.887691  0.952229  1
  B  B6  1  0.000000  0.387732  0.546510  1
  B  B7  1  0.000000  0.612295  0.453356  1
  B  B8  1  0.000000  0.136326  0.469856  1
  B  B9  1  0.000000  0.863699  0.529917  1
  B  B10  1  0.000000  0.363236  0.970777  1
  B  B11  1  0.000000  0.637222  0.029342  1
  B  B12  1  0.000000  0.022023  0.193473  1
  B  B13  1  0.000000  0.977418  0.806592  1
  B  B14  1  0.000000  0.474576  0.691695  1
  B  B15  1  0.000000  0.525665  0.308056  1
  B  B16  1  0.000000  0.210396  0.313378  1
  B  B17  1  0.000000  0.789644  0.686573  1
  B  B18  1  0.000000  0.289414  0.812343  1
  B  B19  1  0.000000  0.711273  0.187774  1
  Ir  Ir20  1  0.500000  0.142254  0.904467  1
  Os  Os21  1  0.500000  0.358003  0.406872  1
  Os  Os22  1  0.500000  0.642245  0.593735  1
  Rh  Rh23  1  0.500000  0.856307  0.095987  1
