# generated using pymatgen
data_Ba(NaSn2)2
_symmetry_space_group_name_H-M   'P 1'
_cell_length_a   6.75394089
_cell_length_b   6.95374783
_cell_length_c   10.29551244
_cell_angle_alpha   109.73727366
_cell_angle_beta   93.50875355
_cell_angle_gamma   90.00000321
_symmetry_Int_Tables_number   1
_chemical_formula_structural   Ba(NaSn2)2
_chemical_formula_sum   'Ba2 Na4 Sn8'
_cell_volume   454.16080278
_cell_formula_units_Z   2
loop_
 _symmetry_equiv_pos_site_id
 _symmetry_equiv_pos_as_xyz
  1  'x, y, z'
loop_
 _atom_site_type_symbol
 _atom_site_label
 _atom_site_symmetry_multiplicity
 _atom_site_fract_x
 _atom_site_fract_y
 _atom_site_fract_z
 _atom_site_occupancy
  Ba  Ba0  1  0.750000  0.771459  0.000000  1
  Ba  Ba1  1  0.250001  0.228542  0.000000  1
  Na  Na2  1  0.700178  0.801533  0.403757  1
  Na  Na3  1  0.200178  0.602224  0.403758  1
  Na  Na4  1  0.799823  0.397775  0.596242  1
  Na  Na5  1  0.299823  0.198468  0.596243  1
  Sn  Sn6  1  0.771441  0.365927  0.158360  1
  Sn  Sn7  1  0.271441  0.792433  0.158360  1
  Sn  Sn8  1  0.515671  0.172266  0.309717  1
  Sn  Sn9  1  0.015671  0.137451  0.309718  1
  Sn  Sn10  1  0.984330  0.862548  0.690282  1
  Sn  Sn11  1  0.484330  0.827734  0.690283  1
  Sn  Sn12  1  0.728558  0.207566  0.841640  1
  Sn  Sn13  1  0.228558  0.634073  0.841640  1
