# generated using pymatgen
data_La2ZnCu5Pd4
_symmetry_space_group_name_H-M   'P 1'
_cell_length_a   4.16715000
_cell_length_b   5.57950600
_cell_length_c   8.84388400
_cell_angle_alpha   90.00000000
_cell_angle_beta   90.00000000
_cell_angle_gamma   90.00000000
_symmetry_Int_Tables_number   1
_chemical_formula_structural   La2ZnCu5Pd4
_chemical_formula_sum   'La2 Zn1 Cu5 Pd4'
_cell_volume   205.62594918
_cell_formula_units_Z   1
loop_
 _symmetry_equiv_pos_site_id
 _symmetry_equiv_pos_as_xyz
  1  'x, y, z'
loop_
 _atom_site_type_symbol
 _atom_site_label
 _atom_site_symmetry_multiplicity
 _atom_site_fract_x
 _atom_site_fract_y
 _atom_site_fract_z
 _atom_site_occupancy
  La  La0  1  0.000000  0.500000  0.000000  1
  La  La1  1  0.000000  0.000000  0.500000  1
  Zn  Zn2  1  0.500000  0.000000  0.000000  1
  Cu  Cu3  1  0.000000  0.500000  0.346129  1
  Cu  Cu4  1  0.000000  0.000000  0.844505  1
  Cu  Cu5  1  0.000000  0.000000  0.155495  1
  Cu  Cu6  1  0.000000  0.500000  0.653871  1
  Cu  Cu7  1  0.500000  0.500000  0.500000  1
  Pd  Pd8  1  0.500000  0.749171  0.250020  1
  Pd  Pd9  1  0.500000  0.250829  0.749980  1
  Pd  Pd10  1  0.500000  0.250829  0.250020  1
  Pd  Pd11  1  0.500000  0.749171  0.749980  1
