# generated using pymatgen
data_BaTi(NbS2)8
_symmetry_space_group_name_H-M   'P 1'
_cell_length_a   6.71101802
_cell_length_b   6.71102201
_cell_length_c   14.27406500
_cell_angle_alpha   89.98485436
_cell_angle_beta   90.00392728
_cell_angle_gamma   120.00354025
_symmetry_Int_Tables_number   1
_chemical_formula_structural   BaTi(NbS2)8
_chemical_formula_sum   'Ba1 Ti1 Nb8 S16'
_cell_volume   556.72389184
_cell_formula_units_Z   1
loop_
 _symmetry_equiv_pos_site_id
 _symmetry_equiv_pos_as_xyz
  1  'x, y, z'
loop_
 _atom_site_type_symbol
 _atom_site_label
 _atom_site_symmetry_multiplicity
 _atom_site_fract_x
 _atom_site_fract_y
 _atom_site_fract_z
 _atom_site_occupancy
  Ba  Ba0  1  0.000000  0.000000  0.500000  1
  Ti  Ti1  1  0.000000  0.000000  0.000000  1
  Nb  Nb2  1  0.503777  0.496364  0.783964  1
  Nb  Nb3  1  0.007524  0.503644  0.216035  1
  Nb  Nb4  1  0.496200  0.992307  0.216028  1
  Nb  Nb5  1  0.503800  0.007693  0.783972  1
  Nb  Nb6  1  0.992476  0.496356  0.783965  1
  Nb  Nb7  1  0.496223  0.503636  0.216036  1
  Nb  Nb8  1  0.000021  0.000136  0.782181  1
  Nb  Nb9  1  0.999979  0.999864  0.217819  1
  S  S10  1  0.831472  0.168273  0.326671  1
  S  S11  1  0.831494  0.662845  0.326696  1
  S  S12  1  0.336929  0.168268  0.326681  1
  S  S13  1  0.667411  0.833768  0.894340  1
  S  S14  1  0.168506  0.337155  0.673304  1
  S  S15  1  0.166290  0.833768  0.894335  1
  S  S16  1  0.166297  0.332661  0.894340  1
  S  S17  1  0.833710  0.166232  0.105665  1
  S  S18  1  0.332589  0.166232  0.105660  1
  S  S19  1  0.663071  0.831732  0.673319  1
  S  S20  1  0.333331  0.666600  0.105623  1
  S  S21  1  0.666696  0.333531  0.671582  1
  S  S22  1  0.666669  0.333400  0.894377  1
  S  S23  1  0.333304  0.666469  0.328418  1
  S  S24  1  0.833703  0.667339  0.105660  1
  S  S25  1  0.168528  0.831727  0.673329  1
