# generated using pymatgen
data_Pr3In3GeIr2
_symmetry_space_group_name_H-M   'P 1'
_cell_length_a   7.64524100
_cell_length_b   7.64524082
_cell_length_c   4.23146800
_cell_angle_alpha   90.00000000
_cell_angle_beta   90.00000000
_cell_angle_gamma   119.99999647
_symmetry_Int_Tables_number   1
_chemical_formula_structural   Pr3In3GeIr2
_chemical_formula_sum   'Pr3 In3 Ge1 Ir2'
_cell_volume   214.19240043
_cell_formula_units_Z   1
loop_
 _symmetry_equiv_pos_site_id
 _symmetry_equiv_pos_as_xyz
  1  'x, y, z'
loop_
 _atom_site_type_symbol
 _atom_site_label
 _atom_site_symmetry_multiplicity
 _atom_site_fract_x
 _atom_site_fract_y
 _atom_site_fract_z
 _atom_site_occupancy
  Pr  Pr0  1  0.989516  0.585220  0.500000  1
  Pr  Pr1  1  0.414780  0.404296  0.500000  1
  Pr  Pr2  1  0.595704  0.010484  0.500000  1
  In  In3  1  0.759631  0.747325  0.000000  1
  In  In4  1  0.987695  0.240369  0.000000  1
  In  In5  1  0.252675  0.012305  0.000000  1
  Ge  Ge6  1  0.333333  0.666667  0.000000  1
  Ir  Ir7  1  0.000000  0.000000  0.500000  1
  Ir  Ir8  1  0.666667  0.333333  0.000000  1
