# generated using pymatgen
data_Cd2HgIr4PbO14
_symmetry_space_group_name_H-M   'P 1'
_cell_length_a   7.29245259
_cell_length_b   7.33289394
_cell_length_c   7.25169822
_cell_angle_alpha   59.89378493
_cell_angle_beta   59.81392645
_cell_angle_gamma   60.18228318
_symmetry_Int_Tables_number   1
_chemical_formula_structural   Cd2HgIr4PbO14
_chemical_formula_sum   'Cd2 Hg1 Ir4 Pb1 O14'
_cell_volume   273.96967052
_cell_formula_units_Z   1
loop_
 _symmetry_equiv_pos_site_id
 _symmetry_equiv_pos_as_xyz
  1  'x, y, z'
loop_
 _atom_site_type_symbol
 _atom_site_label
 _atom_site_symmetry_multiplicity
 _atom_site_fract_x
 _atom_site_fract_y
 _atom_site_fract_z
 _atom_site_occupancy
  Cd  Cd0  1  0.625000  0.125000  0.125000  1
  Cd  Cd1  1  0.125000  0.125000  0.125000  1
  Hg  Hg2  1  0.125000  0.125000  0.625000  1
  Ir  Ir3  1  0.125000  0.625000  0.625000  1
  Ir  Ir4  1  0.625000  0.125000  0.625000  1
  Ir  Ir5  1  0.625000  0.625000  0.125000  1
  Ir  Ir6  1  0.625000  0.625000  0.625000  1
  Pb  Pb7  1  0.125000  0.625000  0.125000  1
  O  O8  1  0.709312  0.695415  0.296793  1
  O  O9  1  0.303215  0.306111  0.701439  1
  O  O10  1  0.689233  0.306111  0.701439  1
  O  O11  1  0.298479  0.695415  0.296793  1
  O  O12  1  0.299748  0.690026  0.710477  1
  O  O13  1  0.697666  0.304662  0.300005  1
  O  O14  1  0.540688  0.554585  0.953207  1
  O  O15  1  0.946785  0.943889  0.548561  1
  O  O16  1  0.560767  0.943889  0.548561  1
  O  O17  1  0.951521  0.554585  0.953207  1
  O  O18  1  0.950252  0.559974  0.539523  1
  O  O19  1  0.552334  0.945338  0.949995  1
  O  O20  1  0.252485  0.234356  0.260673  1
  O  O21  1  0.997515  0.015644  0.989327  1
