# generated using pymatgen
data_Li10CrOsN8
_symmetry_space_group_name_H-M   'P 1'
_cell_length_a   4.86881300
_cell_length_b   6.54950700
_cell_length_c   6.63122200
_cell_angle_alpha   90.00000000
_cell_angle_beta   90.00000000
_cell_angle_gamma   90.00000000
_symmetry_Int_Tables_number   1
_chemical_formula_structural   Li10CrOsN8
_chemical_formula_sum   'Li10 Cr1 Os1 N8'
_cell_volume   211.45856112
_cell_formula_units_Z   1
loop_
 _symmetry_equiv_pos_site_id
 _symmetry_equiv_pos_as_xyz
  1  'x, y, z'
loop_
 _atom_site_type_symbol
 _atom_site_label
 _atom_site_symmetry_multiplicity
 _atom_site_fract_x
 _atom_site_fract_y
 _atom_site_fract_z
 _atom_site_occupancy
  Li  Li0  1  0.758853  0.224464  0.310919  1
  Li  Li1  1  0.758853  0.224464  0.689081  1
  Li  Li2  1  0.758853  0.775536  0.310919  1
  Li  Li3  1  0.758853  0.775536  0.689081  1
  Li  Li4  1  0.246727  0.246427  0.211339  1
  Li  Li5  1  0.246727  0.246427  0.788661  1
  Li  Li6  1  0.246727  0.753573  0.211339  1
  Li  Li7  1  0.246727  0.753573  0.788661  1
  Li  Li8  1  0.286440  0.500000  0.500000  1
  Li  Li9  1  0.667383  0.000000  0.000000  1
  Cr  Cr10  1  0.282061  0.000000  0.500000  1
  Os  Os11  1  0.723589  0.500000  0.000000  1
  N  N12  1  0.084301  0.776437  0.500000  1
  N  N13  1  0.084301  0.223563  0.500000  1
  N  N14  1  0.928260  0.729618  0.000000  1
  N  N15  1  0.928260  0.270382  0.000000  1
  N  N16  1  0.519085  0.500000  0.227090  1
  N  N17  1  0.519085  0.500000  0.772910  1
  N  N18  1  0.477459  0.000000  0.275581  1
  N  N19  1  0.477459  0.000000  0.724419  1
