# generated using pymatgen
data_YbZn3CdPd
_symmetry_space_group_name_H-M   'P 1'
_cell_length_a   5.25529167
_cell_length_b   5.32073692
_cell_length_c   5.25529300
_cell_angle_alpha   60.40605249
_cell_angle_beta   59.99999795
_cell_angle_gamma   60.40604244
_symmetry_Int_Tables_number   1
_chemical_formula_structural   YbZn3CdPd
_chemical_formula_sum   'Yb1 Zn3 Cd1 Pd1'
_cell_volume   104.54154000
_cell_formula_units_Z   1
loop_
 _symmetry_equiv_pos_site_id
 _symmetry_equiv_pos_as_xyz
  1  'x, y, z'
loop_
 _atom_site_type_symbol
 _atom_site_label
 _atom_site_symmetry_multiplicity
 _atom_site_fract_x
 _atom_site_fract_y
 _atom_site_fract_z
 _atom_site_occupancy
  Yb  Yb0  1  0.748420  0.754741  0.748420  1
  Zn  Zn1  1  0.374053  0.373881  0.374053  1
  Zn  Zn2  1  0.878013  0.373881  0.374053  1
  Zn  Zn3  1  0.374053  0.373881  0.878013  1
  Cd  Cd4  1  0.999809  0.000572  0.999809  1
  Pd  Pd5  1  0.375652  0.873045  0.375652  1
