# generated using pymatgen
data_Sc2TiBe2Ir2Rh3
_symmetry_space_group_name_H-M   'P 1'
_cell_length_a   9.47676989
_cell_length_b   9.51748188
_cell_length_c   3.14925000
_cell_angle_alpha   90.00000000
_cell_angle_beta   90.00000000
_cell_angle_gamma   89.91071779
_symmetry_Int_Tables_number   1
_chemical_formula_structural   Sc2TiBe2Ir2Rh3
_chemical_formula_sum   'Sc4 Ti2 Be4 Ir4 Rh6'
_cell_volume   284.04621374
_cell_formula_units_Z   2
loop_
 _symmetry_equiv_pos_site_id
 _symmetry_equiv_pos_as_xyz
  1  'x, y, z'
loop_
 _atom_site_type_symbol
 _atom_site_label
 _atom_site_symmetry_multiplicity
 _atom_site_fract_x
 _atom_site_fract_y
 _atom_site_fract_z
 _atom_site_occupancy
  Sc  Sc0  1  0.672938  0.175508  0.000000  1
  Sc  Sc1  1  0.327062  0.824492  0.000000  1
  Sc  Sc2  1  0.176035  0.325939  0.000000  1
  Sc  Sc3  1  0.823965  0.674061  0.000000  1
  Ti  Ti4  1  0.000000  0.000000  0.000000  1
  Ti  Ti5  1  0.500000  0.500000  0.000000  1
  Be  Be6  1  0.123066  0.623895  0.000000  1
  Be  Be7  1  0.876934  0.376105  0.000000  1
  Be  Be8  1  0.624070  0.877143  0.000000  1
  Be  Be9  1  0.375930  0.122857  0.000000  1
  Ir  Ir10  1  0.570098  0.710462  0.500000  1
  Ir  Ir11  1  0.429902  0.289538  0.500000  1
  Ir  Ir12  1  0.500000  0.000000  0.500000  1
  Ir  Ir13  1  0.000000  0.500000  0.500000  1
  Rh  Rh14  1  0.209097  0.069317  0.500000  1
  Rh  Rh15  1  0.790903  0.930683  0.500000  1
  Rh  Rh16  1  0.070123  0.790294  0.500000  1
  Rh  Rh17  1  0.710210  0.429782  0.500000  1
  Rh  Rh18  1  0.929877  0.209706  0.500000  1
  Rh  Rh19  1  0.289790  0.570218  0.500000  1
