# generated using pymatgen
data_DyHoSn(AsRh2)6
_symmetry_space_group_name_H-M   'P 1'
_cell_length_a   10.06247300
_cell_length_b   10.06247304
_cell_length_c   3.94757500
_cell_angle_alpha   90.00000000
_cell_angle_beta   90.00000000
_cell_angle_gamma   120.00000316
_symmetry_Int_Tables_number   1
_chemical_formula_structural   DyHoSn(AsRh2)6
_chemical_formula_sum   'Dy1 Ho1 Sn1 As6 Rh12'
_cell_volume   346.15488564
_cell_formula_units_Z   1
loop_
 _symmetry_equiv_pos_site_id
 _symmetry_equiv_pos_as_xyz
  1  'x, y, z'
loop_
 _atom_site_type_symbol
 _atom_site_label
 _atom_site_symmetry_multiplicity
 _atom_site_fract_x
 _atom_site_fract_y
 _atom_site_fract_z
 _atom_site_occupancy
  Dy  Dy0  1  0.666667  0.333333  0.249307  1
  Ho  Ho1  1  0.333333  0.666667  0.751460  1
  Sn  Sn2  1  0.000000  0.000000  0.589552  1
  As  As3  1  0.881830  0.593501  0.747864  1
  As  As4  1  0.406499  0.288329  0.747864  1
  As  As5  1  0.711671  0.118170  0.747864  1
  As  As6  1  0.116422  0.405576  0.253556  1
  As  As7  1  0.594424  0.710846  0.253556  1
  As  As8  1  0.289154  0.883578  0.253556  1
  Rh  Rh9  1  0.617724  0.550459  0.749990  1
  Rh  Rh10  1  0.449541  0.067265  0.749990  1
  Rh  Rh11  1  0.932735  0.382276  0.749990  1
  Rh  Rh12  1  0.385368  0.450347  0.252335  1
  Rh  Rh13  1  0.549653  0.935021  0.252335  1
  Rh  Rh14  1  0.064979  0.614632  0.252335  1
  Rh  Rh15  1  0.126014  0.838209  0.756667  1
  Rh  Rh16  1  0.161791  0.287806  0.756667  1
  Rh  Rh17  1  0.712194  0.873986  0.756667  1
  Rh  Rh18  1  0.878870  0.151888  0.244242  1
  Rh  Rh19  1  0.848112  0.726982  0.244242  1
  Rh  Rh20  1  0.273018  0.121130  0.244242  1
