# generated using pymatgen
data_Dy2Ho2ErPt4
_symmetry_space_group_name_H-M   'P 1'
_cell_length_a   7.44674800
_cell_length_b   7.54739200
_cell_length_c   14.72395800
_cell_angle_alpha   90.00000000
_cell_angle_beta   90.00000000
_cell_angle_gamma   90.00000000
_symmetry_Int_Tables_number   1
_chemical_formula_structural   Dy2Ho2ErPt4
_chemical_formula_sum   'Dy8 Ho8 Er4 Pt16'
_cell_volume   827.53836042
_cell_formula_units_Z   4
loop_
 _symmetry_equiv_pos_site_id
 _symmetry_equiv_pos_as_xyz
  1  'x, y, z'
loop_
 _atom_site_type_symbol
 _atom_site_label
 _atom_site_symmetry_multiplicity
 _atom_site_fract_x
 _atom_site_fract_y
 _atom_site_fract_z
 _atom_site_occupancy
  Dy  Dy0  1  0.501780  0.679860  0.593056  1
  Dy  Dy1  1  0.001780  0.820140  0.906944  1
  Dy  Dy2  1  0.498220  0.320140  0.093056  1
  Dy  Dy3  1  0.998220  0.179860  0.406944  1
  Dy  Dy4  1  0.498220  0.320140  0.406944  1
  Dy  Dy5  1  0.998220  0.179860  0.093056  1
  Dy  Dy6  1  0.501780  0.679860  0.906944  1
  Dy  Dy7  1  0.001780  0.820140  0.593056  1
  Ho  Ho8  1  0.656859  0.167957  0.622525  1
  Ho  Ho9  1  0.156859  0.332043  0.877475  1
  Ho  Ho10  1  0.343141  0.832043  0.122525  1
  Ho  Ho11  1  0.843141  0.667957  0.377475  1
  Ho  Ho12  1  0.343141  0.832043  0.377475  1
  Ho  Ho13  1  0.843141  0.667957  0.122525  1
  Ho  Ho14  1  0.656859  0.167957  0.877475  1
  Ho  Ho15  1  0.156859  0.332043  0.622525  1
  Er  Er16  1  0.819179  0.512386  0.750000  1
  Er  Er17  1  0.319179  0.987614  0.750000  1
  Er  Er18  1  0.180821  0.487614  0.250000  1
  Er  Er19  1  0.680821  0.012386  0.250000  1
  Pt  Pt20  1  0.683435  0.967673  0.458105  1
  Pt  Pt21  1  0.183435  0.532327  0.041895  1
  Pt  Pt22  1  0.316565  0.032327  0.958105  1
  Pt  Pt23  1  0.816565  0.467673  0.541895  1
  Pt  Pt24  1  0.316565  0.032327  0.541895  1
  Pt  Pt25  1  0.816565  0.467673  0.958105  1
  Pt  Pt26  1  0.683435  0.967673  0.041895  1
  Pt  Pt27  1  0.183435  0.532327  0.458105  1
  Pt  Pt28  1  0.454198  0.387925  0.750000  1
  Pt  Pt29  1  0.954198  0.112075  0.750000  1
  Pt  Pt30  1  0.545802  0.612075  0.250000  1
  Pt  Pt31  1  0.045802  0.887925  0.250000  1
  Pt  Pt32  1  0.682448  0.856057  0.750000  1
  Pt  Pt33  1  0.182448  0.643943  0.750000  1
  Pt  Pt34  1  0.317552  0.143943  0.250000  1
  Pt  Pt35  1  0.817552  0.356057  0.250000  1
