# generated using pymatgen
data_PuFe3P3Ir2
_symmetry_space_group_name_H-M   'P 1'
_cell_length_a   3.78861200
_cell_length_b   10.29613600
_cell_length_c   12.16919100
_cell_angle_alpha   90.00000000
_cell_angle_beta   90.00000000
_cell_angle_gamma   90.00000000
_symmetry_Int_Tables_number   1
_chemical_formula_structural   PuFe3P3Ir2
_chemical_formula_sum   'Pu4 Fe12 P12 Ir8'
_cell_volume   474.69658626
_cell_formula_units_Z   4
loop_
 _symmetry_equiv_pos_site_id
 _symmetry_equiv_pos_as_xyz
  1  'x, y, z'
loop_
 _atom_site_type_symbol
 _atom_site_label
 _atom_site_symmetry_multiplicity
 _atom_site_fract_x
 _atom_site_fract_y
 _atom_site_fract_z
 _atom_site_occupancy
  Pu  Pu0  1  0.250000  0.583434  0.714649  1
  Pu  Pu1  1  0.250000  0.916566  0.214649  1
  Pu  Pu2  1  0.750000  0.416566  0.285351  1
  Pu  Pu3  1  0.750000  0.083434  0.785351  1
  Fe  Fe4  1  0.250000  0.220813  0.169630  1
  Fe  Fe5  1  0.250000  0.279187  0.669630  1
  Fe  Fe6  1  0.750000  0.779187  0.830370  1
  Fe  Fe7  1  0.750000  0.720813  0.330370  1
  Fe  Fe8  1  0.250000  0.877211  0.695618  1
  Fe  Fe9  1  0.250000  0.622789  0.195618  1
  Fe  Fe10  1  0.750000  0.122789  0.304382  1
  Fe  Fe11  1  0.750000  0.377211  0.804382  1
  Fe  Fe12  1  0.250000  0.458949  0.934986  1
  Fe  Fe13  1  0.250000  0.041051  0.434986  1
  Fe  Fe14  1  0.750000  0.541051  0.065014  1
  Fe  Fe15  1  0.750000  0.958949  0.565014  1
  P  P16  1  0.250000  0.427625  0.112708  1
  P  P17  1  0.250000  0.072375  0.612708  1
  P  P18  1  0.750000  0.572375  0.887292  1
  P  P19  1  0.750000  0.927625  0.387292  1
  P  P20  1  0.250000  0.273970  0.852169  1
  P  P21  1  0.250000  0.226030  0.352169  1
  P  P22  1  0.750000  0.726030  0.147831  1
  P  P23  1  0.750000  0.773970  0.647831  1
  P  P24  1  0.250000  0.603683  0.374730  1
  P  P25  1  0.250000  0.896317  0.874730  1
  P  P26  1  0.750000  0.396317  0.625270  1
  P  P27  1  0.750000  0.103683  0.125270  1
  Ir  Ir28  1  0.250000  0.711451  0.983980  1
  Ir  Ir29  1  0.250000  0.788549  0.483980  1
  Ir  Ir30  1  0.750000  0.288549  0.016020  1
  Ir  Ir31  1  0.750000  0.211451  0.516020  1
  Ir  Ir32  1  0.250000  0.405989  0.475974  1
  Ir  Ir33  1  0.250000  0.094011  0.975974  1
  Ir  Ir34  1  0.750000  0.594011  0.524026  1
  Ir  Ir35  1  0.750000  0.905989  0.024026  1
