# generated using pymatgen
data_Y6Ho4Si5Pb
_symmetry_space_group_name_H-M   'P 1'
_cell_length_a   8.51235800
_cell_length_b   8.54608563
_cell_length_c   6.39360500
_cell_angle_alpha   90.00000000
_cell_angle_beta   90.00000000
_cell_angle_gamma   119.86953454
_symmetry_Int_Tables_number   1
_chemical_formula_structural   Y6Ho4Si5Pb
_chemical_formula_sum   'Y6 Ho4 Si5 Pb1'
_cell_volume   403.33229897
_cell_formula_units_Z   1
loop_
 _symmetry_equiv_pos_site_id
 _symmetry_equiv_pos_as_xyz
  1  'x, y, z'
loop_
 _atom_site_type_symbol
 _atom_site_label
 _atom_site_symmetry_multiplicity
 _atom_site_fract_x
 _atom_site_fract_y
 _atom_site_fract_z
 _atom_site_occupancy
  Y  Y0  1  0.988018  0.747205  0.750000  1
  Y  Y1  1  0.998317  0.242987  0.250000  1
  Y  Y2  1  0.755330  0.757013  0.250000  1
  Y  Y3  1  0.766261  0.000000  0.750000  1
  Y  Y4  1  0.240813  0.252795  0.750000  1
  Y  Y5  1  0.240835  0.000000  0.250000  1
  Ho  Ho6  1  0.331181  0.656306  0.496195  1
  Ho  Ho7  1  0.674875  0.343694  0.003805  1
  Ho  Ho8  1  0.674875  0.343694  0.496195  1
  Ho  Ho9  1  0.331181  0.656306  0.003805  1
  Si  Si10  1  0.393958  0.392463  0.250000  1
  Si  Si11  1  0.001494  0.607537  0.250000  1
  Si  Si12  1  0.998291  0.394867  0.750000  1
  Si  Si13  1  0.603424  0.605133  0.750000  1
  Si  Si14  1  0.605432  0.000000  0.250000  1
  Pb  Pb15  1  0.395716  0.000000  0.750000  1
