# generated using pymatgen
data_La7Er(Tm3Pt4)4
_symmetry_space_group_name_H-M   'P 1'
_cell_length_a   7.63630205
_cell_length_b   7.69543379
_cell_length_c   14.63307798
_cell_angle_alpha   90.03946527
_cell_angle_beta   89.88676818
_cell_angle_gamma   90.08917712
_symmetry_Int_Tables_number   1
_chemical_formula_structural   La7Er(Tm3Pt4)4
_chemical_formula_sum   'La7 Er1 Tm12 Pt16'
_cell_volume   859.90488260
_cell_formula_units_Z   1
loop_
 _symmetry_equiv_pos_site_id
 _symmetry_equiv_pos_as_xyz
  1  'x, y, z'
loop_
 _atom_site_type_symbol
 _atom_site_label
 _atom_site_symmetry_multiplicity
 _atom_site_fract_x
 _atom_site_fract_y
 _atom_site_fract_z
 _atom_site_occupancy
  La  La0  1  0.502100  0.678534  0.594264  1
  La  La1  1  0.001527  0.823350  0.904267  1
  La  La2  1  0.498209  0.323849  0.095775  1
  La  La3  1  0.998330  0.173012  0.406651  1
  La  La4  1  0.497482  0.323607  0.404299  1
  La  La5  1  0.998158  0.176985  0.095117  1
  La  La6  1  0.501936  0.676118  0.903363  1
  Er  Er7  1  0.003392  0.821839  0.598213  1
  Tm  Tm8  1  0.661098  0.164322  0.622717  1
  Tm  Tm9  1  0.156860  0.332978  0.874347  1
  Tm  Tm10  1  0.343002  0.833741  0.124178  1
  Tm  Tm11  1  0.845273  0.668855  0.378515  1
  Tm  Tm12  1  0.341214  0.834413  0.376670  1
  Tm  Tm13  1  0.841830  0.665493  0.124691  1
  Tm  Tm14  1  0.658339  0.165940  0.874201  1
  Tm  Tm15  1  0.157989  0.333808  0.623741  1
  Tm  Tm16  1  0.822406  0.506108  0.748054  1
  Tm  Tm17  1  0.319970  0.995239  0.747694  1
  Tm  Tm18  1  0.177278  0.495696  0.250862  1
  Tm  Tm19  1  0.678583  0.003856  0.250703  1
  Pt  Pt20  1  0.678889  0.959608  0.458047  1
  Pt  Pt21  1  0.177440  0.537532  0.044271  1
  Pt  Pt22  1  0.323350  0.038448  0.955551  1
  Pt  Pt23  1  0.827025  0.468939  0.546774  1
  Pt  Pt24  1  0.312923  0.032046  0.545681  1
  Pt  Pt25  1  0.822991  0.461547  0.955601  1
  Pt  Pt26  1  0.677573  0.961602  0.044152  1
  Pt  Pt27  1  0.175649  0.542389  0.457942  1
  Pt  Pt28  1  0.453751  0.373894  0.749311  1
  Pt  Pt29  1  0.955857  0.122741  0.747890  1
  Pt  Pt30  1  0.545935  0.627845  0.250926  1
  Pt  Pt31  1  0.046075  0.872358  0.249861  1
  Pt  Pt32  1  0.688763  0.863221  0.747850  1
  Pt  Pt33  1  0.182705  0.639904  0.746763  1
  Pt  Pt34  1  0.313005  0.136370  0.250316  1
  Pt  Pt35  1  0.813093  0.363812  0.250743  1
