# generated using pymatgen
data_Tb7HoAlPd24
_symmetry_space_group_name_H-M   'P 1'
_cell_length_a   8.36412232
_cell_length_b   8.36412299
_cell_length_c   8.36412264
_cell_angle_alpha   89.98108568
_cell_angle_beta   90.01891773
_cell_angle_gamma   90.01891333
_symmetry_Int_Tables_number   1
_chemical_formula_structural   Tb7HoAlPd24
_chemical_formula_sum   'Tb7 Ho1 Al1 Pd24'
_cell_volume   585.14177761
_cell_formula_units_Z   1
loop_
 _symmetry_equiv_pos_site_id
 _symmetry_equiv_pos_as_xyz
  1  'x, y, z'
loop_
 _atom_site_type_symbol
 _atom_site_label
 _atom_site_symmetry_multiplicity
 _atom_site_fract_x
 _atom_site_fract_y
 _atom_site_fract_z
 _atom_site_occupancy
  Tb  Tb0  1  0.251255  0.251638  0.251638  1
  Tb  Tb1  1  0.748310  0.748157  0.748157  1
  Tb  Tb2  1  0.748362  0.748745  0.251638  1
  Tb  Tb3  1  0.748362  0.251638  0.748745  1
  Tb  Tb4  1  0.251843  0.251690  0.748157  1
  Tb  Tb5  1  0.251843  0.748157  0.251690  1
  Tb  Tb6  1  0.251774  0.748226  0.748226  1
  Ho  Ho7  1  0.747446  0.252554  0.252554  1
  Al  Al8  1  0.000190  0.999810  0.999810  1
  Pd  Pd9  1  0.259953  0.499759  0.999921  1
  Pd  Pd10  1  0.740166  0.499419  0.001137  1
  Pd  Pd11  1  0.998863  0.259834  0.499419  1
  Pd  Pd12  1  0.500581  0.259834  0.001137  1
  Pd  Pd13  1  0.000079  0.740047  0.499759  1
  Pd  Pd14  1  0.500241  0.740047  0.999921  1
  Pd  Pd15  1  0.500581  0.001137  0.259834  1
  Pd  Pd16  1  0.259953  0.999921  0.499759  1
  Pd  Pd17  1  0.500241  0.999921  0.740047  1
  Pd  Pd18  1  0.740166  0.001137  0.499419  1
  Pd  Pd19  1  0.998863  0.499419  0.259834  1
  Pd  Pd20  1  0.000079  0.499759  0.740047  1
  Pd  Pd21  1  0.252928  0.499816  0.499816  1
  Pd  Pd22  1  0.746929  0.499486  0.499486  1
  Pd  Pd23  1  0.500514  0.253071  0.499486  1
  Pd  Pd24  1  0.500184  0.747072  0.499816  1
  Pd  Pd25  1  0.500514  0.499486  0.253071  1
  Pd  Pd26  1  0.500184  0.499816  0.747072  1
  Pd  Pd27  1  0.289843  0.999919  0.999919  1
  Pd  Pd28  1  0.710793  0.000600  0.000600  1
  Pd  Pd29  1  0.999400  0.289207  0.000600  1
  Pd  Pd30  1  0.000081  0.710157  0.999919  1
  Pd  Pd31  1  0.999400  0.000600  0.289207  1
  Pd  Pd32  1  0.000081  0.999919  0.710157  1
