# generated using pymatgen
data_Ac3(AlSn)2
_symmetry_space_group_name_H-M   'P 1'
_cell_length_a   4.55060482
_cell_length_b   4.87340472
_cell_length_c   10.69140464
_cell_angle_alpha   103.17418244
_cell_angle_beta   102.28743598
_cell_angle_gamma   90.00000013
_symmetry_Int_Tables_number   1
_chemical_formula_structural   Ac3(AlSn)2
_chemical_formula_sum   'Ac3 Al2 Sn2'
_cell_volume   225.28060725
_cell_formula_units_Z   1
loop_
 _symmetry_equiv_pos_site_id
 _symmetry_equiv_pos_as_xyz
  1  'x, y, z'
loop_
 _atom_site_type_symbol
 _atom_site_label
 _atom_site_symmetry_multiplicity
 _atom_site_fract_x
 _atom_site_fract_y
 _atom_site_fract_z
 _atom_site_occupancy
  Ac  Ac0  1  0.500000  0.000000  0.000000  1
  Ac  Ac1  1  0.182404  0.182404  0.364808  1
  Ac  Ac2  1  0.817596  0.817596  0.635191  1
  Al  Al3  1  0.062734  0.562734  0.125468  1
  Al  Al4  1  0.937266  0.437266  0.874533  1
  Sn  Sn5  1  0.641543  0.641543  0.283085  1
  Sn  Sn6  1  0.358456  0.358456  0.716914  1
