# generated using pymatgen
data_CaY5(CoSn6)2
_symmetry_space_group_name_H-M   'P 1'
_cell_length_a   8.49756003
_cell_length_b   8.49755996
_cell_length_c   13.15189022
_cell_angle_alpha   90.01382550
_cell_angle_beta   89.98617517
_cell_angle_gamma   148.57644671
_symmetry_Int_Tables_number   1
_chemical_formula_structural   CaY5(CoSn6)2
_chemical_formula_sum   'Ca1 Y5 Co2 Sn12'
_cell_volume   495.12486577
_cell_formula_units_Z   1
loop_
 _symmetry_equiv_pos_site_id
 _symmetry_equiv_pos_as_xyz
  1  'x, y, z'
loop_
 _atom_site_type_symbol
 _atom_site_label
 _atom_site_symmetry_multiplicity
 _atom_site_fract_x
 _atom_site_fract_y
 _atom_site_fract_z
 _atom_site_occupancy
  Ca  Ca0  1  0.899522  0.100478  0.403922  1
  Y  Y1  1  0.898567  0.101433  0.093826  1
  Y  Y2  1  0.101135  0.898865  0.594180  1
  Y  Y3  1  0.901090  0.098910  0.751876  1
  Y  Y4  1  0.100603  0.899397  0.906702  1
  Y  Y5  1  0.099480  0.900520  0.249390  1
  Co  Co6  1  0.298718  0.701282  0.249925  1
  Co  Co7  1  0.700387  0.299613  0.749735  1
  Sn  Sn8  1  0.757283  0.242717  0.572365  1
  Sn  Sn9  1  0.428550  0.571450  0.577136  1
  Sn  Sn10  1  0.572718  0.427282  0.423865  1
  Sn  Sn11  1  0.734185  0.265815  0.248976  1
  Sn  Sn12  1  0.265184  0.734816  0.750374  1
  Sn  Sn13  1  0.243383  0.756617  0.071385  1
  Sn  Sn14  1  0.243729  0.756271  0.428854  1
  Sn  Sn15  1  0.571666  0.428334  0.075561  1
  Sn  Sn16  1  0.453915  0.546085  0.248178  1
  Sn  Sn17  1  0.546391  0.453609  0.750466  1
  Sn  Sn18  1  0.756273  0.243727  0.928158  1
  Sn  Sn19  1  0.427222  0.572778  0.925126  1
