# generated using pymatgen
data_NdDy3Sc2(Cu2Sb3)2
_symmetry_space_group_name_H-M   'P 1'
_cell_length_a   4.32901500
_cell_length_b   4.32901528
_cell_length_c   22.96156700
_cell_angle_alpha   90.00000000
_cell_angle_beta   90.00000000
_cell_angle_gamma   120.00000549
_symmetry_Int_Tables_number   1
_chemical_formula_structural   NdDy3Sc2(Cu2Sb3)2
_chemical_formula_sum   'Nd1 Dy3 Sc2 Cu4 Sb6'
_cell_volume   372.65790674
_cell_formula_units_Z   1
loop_
 _symmetry_equiv_pos_site_id
 _symmetry_equiv_pos_as_xyz
  1  'x, y, z'
loop_
 _atom_site_type_symbol
 _atom_site_label
 _atom_site_symmetry_multiplicity
 _atom_site_fract_x
 _atom_site_fract_y
 _atom_site_fract_z
 _atom_site_occupancy
  Nd  Nd0  1  0.666667  0.333333  0.578386  1
  Dy  Dy1  1  0.666667  0.333333  0.922403  1
  Dy  Dy2  1  0.333333  0.666667  0.078560  1
  Dy  Dy3  1  0.333333  0.666667  0.418499  1
  Sc  Sc4  1  0.333333  0.666667  0.248859  1
  Sc  Sc5  1  0.666667  0.333333  0.752458  1
  Cu  Cu6  1  0.000000  0.000000  0.807051  1
  Cu  Cu7  1  0.000000  0.000000  0.193926  1
  Cu  Cu8  1  0.000000  0.000000  0.304074  1
  Cu  Cu9  1  0.000000  0.000000  0.696840  1
  Sb  Sb10  1  0.333333  0.666667  0.665182  1
  Sb  Sb11  1  0.000000  0.000000  0.495374  1
  Sb  Sb12  1  0.666667  0.333333  0.336865  1
  Sb  Sb13  1  0.333333  0.666667  0.840615  1
  Sb  Sb14  1  0.666667  0.333333  0.160470  1
  Sb  Sb15  1  0.000000  0.000000  0.000440  1
