# generated using pymatgen
data_Ta6Mn3Si6RuW2
_symmetry_space_group_name_H-M   'P 1'
_cell_length_a   7.41769062
_cell_length_b   7.39947648
_cell_length_c   7.41382893
_cell_angle_alpha   126.49855715
_cell_angle_beta   124.02795754
_cell_angle_gamma   81.21326092
_symmetry_Int_Tables_number   1
_chemical_formula_structural   Ta6Mn3Si6RuW2
_chemical_formula_sum   'Ta6 Mn3 Si6 Ru1 W2'
_cell_volume   261.00754231
_cell_formula_units_Z   1
loop_
 _symmetry_equiv_pos_site_id
 _symmetry_equiv_pos_as_xyz
  1  'x, y, z'
loop_
 _atom_site_type_symbol
 _atom_site_label
 _atom_site_symmetry_multiplicity
 _atom_site_fract_x
 _atom_site_fract_y
 _atom_site_fract_z
 _atom_site_occupancy
  Ta  Ta0  1  0.951131  0.913991  0.468546  1
  Ta  Ta1  1  0.059858  0.512154  0.958893  1
  Ta  Ta2  1  0.532403  0.513246  0.471872  1
  Ta  Ta3  1  0.464594  0.945893  0.977462  1
  Ta  Ta4  1  0.748809  0.086073  0.839742  1
  Ta  Ta5  1  0.250790  0.092063  0.340064  1
  Mn  Mn6  1  0.908946  0.248004  0.410332  1
  Mn  Mn7  1  0.091253  0.502669  0.342203  1
  Mn  Mn8  1  0.338185  0.250061  0.842140  1
  Si  Si9  1  0.721491  0.441035  0.227220  1
  Si  Si10  1  0.271329  0.503516  0.723348  1
  Si  Si11  1  0.677212  0.181391  0.514030  1
  Si  Si12  1  0.322003  0.841086  0.505341  1
  Si  Si13  1  0.164877  0.184274  0.009153  1
  Si  Si14  1  0.836887  0.842782  0.018588  1
  Ru  Ru15  1  0.659413  0.503643  0.912364  1
  W  W16  1  0.501337  0.748108  0.249798  1
  W  W17  1  0.999481  0.747812  0.746701  1
