# generated using pymatgen
data_CaAcAu4
_symmetry_space_group_name_H-M   'P 1'
_cell_length_a   6.10525367
_cell_length_b   6.10525366
_cell_length_c   6.10525289
_cell_angle_alpha   134.39733879
_cell_angle_beta   105.28773847
_cell_angle_gamma   92.10340665
_symmetry_Int_Tables_number   1
_chemical_formula_structural   CaAcAu4
_chemical_formula_sum   'Ca1 Ac1 Au4'
_cell_volume   148.54962709
_cell_formula_units_Z   1
loop_
 _symmetry_equiv_pos_site_id
 _symmetry_equiv_pos_as_xyz
  1  'x, y, z'
loop_
 _atom_site_type_symbol
 _atom_site_label
 _atom_site_symmetry_multiplicity
 _atom_site_fract_x
 _atom_site_fract_y
 _atom_site_fract_z
 _atom_site_occupancy
  Ca  Ca0  1  0.285839  0.535839  0.750000  1
  Ac  Ac1  1  0.713307  0.463307  0.250000  1
  Au  Au2  1  0.294544  0.838526  0.456018  1
  Au  Au3  1  0.695639  0.161901  0.533738  1
  Au  Au4  1  0.882508  0.838526  0.043982  1
  Au  Au5  1  0.128163  0.161901  0.966262  1
