# generated using pymatgen
data_Ti3CuRhS8
_symmetry_space_group_name_H-M   'P 1'
_cell_length_a   6.95008708
_cell_length_b   6.95008636
_cell_length_c   6.95008683
_cell_angle_alpha   60.06787168
_cell_angle_beta   60.06787631
_cell_angle_gamma   60.06786555
_symmetry_Int_Tables_number   1
_chemical_formula_structural   Ti3CuRhS8
_chemical_formula_sum   'Ti3 Cu1 Rh1 S8'
_cell_volume   237.75145123
_cell_formula_units_Z   1
loop_
 _symmetry_equiv_pos_site_id
 _symmetry_equiv_pos_as_xyz
  1  'x, y, z'
loop_
 _atom_site_type_symbol
 _atom_site_label
 _atom_site_symmetry_multiplicity
 _atom_site_fract_x
 _atom_site_fract_y
 _atom_site_fract_z
 _atom_site_occupancy
  Ti  Ti0  1  0.124204  0.648651  0.124204  1
  Ti  Ti1  1  0.648651  0.124204  0.124204  1
  Ti  Ti2  1  0.124204  0.124204  0.648651  1
  Cu  Cu3  1  0.504608  0.504608  0.504608  1
  Rh  Rh4  1  0.110152  0.110152  0.110152  1
  S  S5  1  0.355762  0.906279  0.355762  1
  S  S6  1  0.355762  0.355762  0.906279  1
  S  S7  1  0.906279  0.355762  0.355762  1
  S  S8  1  0.880898  0.880898  0.880898  1
  S  S9  1  0.373391  0.373391  0.373391  1
  S  S10  1  0.864780  0.386529  0.864780  1
  S  S11  1  0.386529  0.864780  0.864780  1
  S  S12  1  0.864780  0.864780  0.386529  1
