# generated using pymatgen
data_Er3Zr2Co19(SiP)6
_symmetry_space_group_name_H-M   'P 1'
_cell_length_a   12.00316100
_cell_length_b   12.00316268
_cell_length_c   3.65779000
_cell_angle_alpha   90.00000000
_cell_angle_beta   90.00000000
_cell_angle_gamma   119.99999813
_symmetry_Int_Tables_number   1
_chemical_formula_structural   Er3Zr2Co19(SiP)6
_chemical_formula_sum   'Er3 Zr2 Co19 Si6 P6'
_cell_volume   456.39484626
_cell_formula_units_Z   1
loop_
 _symmetry_equiv_pos_site_id
 _symmetry_equiv_pos_as_xyz
  1  'x, y, z'
loop_
 _atom_site_type_symbol
 _atom_site_label
 _atom_site_symmetry_multiplicity
 _atom_site_fract_x
 _atom_site_fract_y
 _atom_site_fract_z
 _atom_site_occupancy
  Er  Er0  1  0.813782  0.813782  0.500000  1
  Er  Er1  1  0.186218  0.000000  0.500000  1
  Er  Er2  1  0.000000  0.186218  0.500000  1
  Zr  Zr3  1  0.666667  0.333333  0.000000  1
  Zr  Zr4  1  0.333333  0.666667  0.000000  1
  Co  Co5  1  0.876802  0.355241  0.500000  1
  Co  Co6  1  0.644759  0.521562  0.500000  1
  Co  Co7  1  0.478438  0.123198  0.500000  1
  Co  Co8  1  0.355241  0.876802  0.500000  1
  Co  Co9  1  0.521562  0.644759  0.500000  1
  Co  Co10  1  0.123198  0.478438  0.500000  1
  Co  Co11  1  0.445899  0.445899  0.000000  1
  Co  Co12  1  0.554101  0.000000  0.000000  1
  Co  Co13  1  0.000000  0.554101  0.000000  1
  Co  Co14  1  0.804005  0.179167  0.000000  1
  Co  Co15  1  0.820833  0.624838  0.000000  1
  Co  Co16  1  0.375162  0.195995  0.000000  1
  Co  Co17  1  0.179167  0.804005  0.000000  1
  Co  Co18  1  0.624838  0.820833  0.000000  1
  Co  Co19  1  0.195995  0.375162  0.000000  1
  Co  Co20  1  0.279205  0.279205  0.500000  1
  Co  Co21  1  0.720795  0.000000  0.500000  1
  Co  Co22  1  0.000000  0.720795  0.500000  1
  Co  Co23  1  0.000000  0.000000  0.000000  1
  Si  Si24  1  0.681550  0.163104  0.500000  1
  Si  Si25  1  0.836896  0.518446  0.500000  1
  Si  Si26  1  0.481554  0.318450  0.500000  1
  Si  Si27  1  0.163104  0.681550  0.500000  1
  Si  Si28  1  0.518446  0.836896  0.500000  1
  Si  Si29  1  0.318450  0.481554  0.500000  1
  P  P30  1  0.180835  0.180835  0.000000  1
  P  P31  1  0.819165  0.000000  0.000000  1
  P  P32  1  0.000000  0.819165  0.000000  1
  P  P33  1  0.632053  0.632053  0.000000  1
  P  P34  1  0.367947  0.000000  0.000000  1
  P  P35  1  0.000000  0.367947  0.000000  1
