# generated using pymatgen
data_Nd8Y2B2Br15
_symmetry_space_group_name_H-M   'P 1'
_cell_length_a   9.35014715
_cell_length_b   10.09352026
_cell_length_c   11.01436632
_cell_angle_alpha   91.35827703
_cell_angle_beta   114.53508178
_cell_angle_gamma   110.67442514
_symmetry_Int_Tables_number   1
_chemical_formula_structural   Nd8Y2B2Br15
_chemical_formula_sum   'Nd8 Y2 B2 Br15'
_cell_volume   866.84143841
_cell_formula_units_Z   1
loop_
 _symmetry_equiv_pos_site_id
 _symmetry_equiv_pos_as_xyz
  1  'x, y, z'
loop_
 _atom_site_type_symbol
 _atom_site_label
 _atom_site_symmetry_multiplicity
 _atom_site_fract_x
 _atom_site_fract_y
 _atom_site_fract_z
 _atom_site_occupancy
  Nd  Nd0  1  0.800628  0.409816  0.275941  1
  Nd  Nd1  1  0.199372  0.590184  0.724059  1
  Nd  Nd2  1  0.674817  0.746171  0.821383  1
  Nd  Nd3  1  0.325183  0.253829  0.178617  1
  Nd  Nd4  1  0.526144  0.702297  0.096371  1
  Nd  Nd5  1  0.473856  0.297703  0.903629  1
  Nd  Nd6  1  0.586441  0.036749  0.324811  1
  Nd  Nd7  1  0.413559  0.963251  0.675189  1
  Y  Y8  1  0.717621  0.073167  0.047199  1
  Y  Y9  1  0.282379  0.926833  0.952801  1
  B  B10  1  0.467886  0.822985  0.878564  1
  B  B11  1  0.532114  0.177015  0.121436  1
  Br  Br12  1  0.000000  0.000000  0.000000  1
  Br  Br13  1  0.637003  0.882357  0.583483  1
  Br  Br14  1  0.362997  0.117643  0.416517  1
  Br  Br15  1  0.883569  0.298474  0.529111  1
  Br  Br16  1  0.116431  0.701526  0.470889  1
  Br  Br17  1  0.281698  0.763933  0.170303  1
  Br  Br18  1  0.718302  0.236067  0.829697  1
  Br  Br19  1  0.044427  0.332597  0.219145  1
  Br  Br20  1  0.159475  0.051199  0.709885  1
  Br  Br21  1  0.840525  0.948801  0.290115  1
  Br  Br22  1  0.225632  0.408228  0.942629  1
  Br  Br23  1  0.774368  0.591772  0.057371  1
  Br  Br24  1  0.407361  0.460854  0.655741  1
  Br  Br25  1  0.592639  0.539146  0.344259  1
  Br  Br26  1  0.955573  0.667403  0.780855  1
