# generated using pymatgen
data_Lu12Co8Te
_symmetry_space_group_name_H-M   'P 1'
_cell_length_a   3.90022234
_cell_length_b   11.34159488
_cell_length_c   11.34550308
_cell_angle_alpha   59.98145052
_cell_angle_beta   89.99950267
_cell_angle_gamma   90.00403181
_symmetry_Int_Tables_number   1
_chemical_formula_structural   Lu12Co8Te
_chemical_formula_sum   'Lu12 Co8 Te1'
_cell_volume   434.54692028
_cell_formula_units_Z   1
loop_
 _symmetry_equiv_pos_site_id
 _symmetry_equiv_pos_as_xyz
  1  'x, y, z'
loop_
 _atom_site_type_symbol
 _atom_site_label
 _atom_site_symmetry_multiplicity
 _atom_site_fract_x
 _atom_site_fract_y
 _atom_site_fract_z
 _atom_site_occupancy
  Lu  Lu0  1  0.750045  0.618453  0.861643  1
  Lu  Lu1  1  0.750039  0.519856  0.618471  1
  Lu  Lu2  1  0.750024  0.861751  0.519798  1
  Lu  Lu3  1  0.249955  0.381547  0.138357  1
  Lu  Lu4  1  0.249961  0.480144  0.381529  1
  Lu  Lu5  1  0.249976  0.138249  0.480202  1
  Lu  Lu6  1  0.750785  0.757319  0.267765  1
  Lu  Lu7  1  0.750676  0.974707  0.757364  1
  Lu  Lu8  1  0.750721  0.267978  0.974785  1
  Lu  Lu9  1  0.249215  0.242681  0.732235  1
  Lu  Lu10  1  0.249324  0.025293  0.242636  1
  Lu  Lu11  1  0.249279  0.732022  0.025215  1
  Co  Co12  1  0.749928  0.333278  0.333409  1
  Co  Co13  1  0.250072  0.666722  0.666591  1
  Co  Co14  1  0.747272  0.281355  0.558660  1
  Co  Co15  1  0.747184  0.160053  0.281357  1
  Co  Co16  1  0.747146  0.558637  0.159986  1
  Co  Co17  1  0.252728  0.718645  0.441340  1
  Co  Co18  1  0.252816  0.839947  0.718643  1
  Co  Co19  1  0.252854  0.441363  0.840014  1
  Te  Te20  1  0.500000  0.000000  0.000000  1
