# generated using pymatgen
data_Tb11TmCo4SnRu
_symmetry_space_group_name_H-M   'P 1'
_cell_length_a   8.32775478
_cell_length_b   8.33398382
_cell_length_c   8.32775467
_cell_angle_alpha   111.25142457
_cell_angle_beta   110.51124612
_cell_angle_gamma   106.65822136
_symmetry_Int_Tables_number   1
_chemical_formula_structural   Tb11TmCo4SnRu
_chemical_formula_sum   'Tb11 Tm1 Co4 Sn1 Ru1'
_cell_volume   444.27342446
_cell_formula_units_Z   1
loop_
 _symmetry_equiv_pos_site_id
 _symmetry_equiv_pos_as_xyz
  1  'x, y, z'
loop_
 _atom_site_type_symbol
 _atom_site_label
 _atom_site_symmetry_multiplicity
 _atom_site_fract_x
 _atom_site_fract_y
 _atom_site_fract_z
 _atom_site_occupancy
  Tb  Tb0  1  0.407022  0.212841  0.192896  1
  Tb  Tb1  1  0.593797  0.786927  0.808286  1
  Tb  Tb2  1  0.019945  0.212841  0.805819  1
  Tb  Tb3  1  0.978641  0.786927  0.193130  1
  Tb  Tb4  1  0.182632  0.287591  0.472222  1
  Tb  Tb5  1  0.815591  0.712447  0.526846  1
  Tb  Tb6  1  0.185601  0.712447  0.896856  1
  Tb  Tb7  1  0.815368  0.287591  0.104959  1
  Tb  Tb8  1  0.314281  0.621101  0.306819  1
  Tb  Tb9  1  0.686749  0.379142  0.692394  1
  Tb  Tb10  1  0.313378  0.005814  0.692435  1
  Tm  Tm11  1  0.685509  0.994220  0.308712  1
  Co  Co12  1  0.380059  0.999922  0.377550  1
  Co  Co13  1  0.622373  0.999922  0.619863  1
  Co  Co14  1  0.110576  0.611528  0.500952  1
  Co  Co15  1  0.887907  0.387152  0.499245  1
  Sn  Sn16  1  0.500521  0.501249  0.000728  1
  Ru  Ru17  1  0.000052  0.000339  0.000287  1
