# generated using pymatgen
data_Er4NbIO12
_symmetry_space_group_name_H-M   'P 1'
_cell_length_a   5.40967500
_cell_length_b   7.66385681
_cell_length_c   11.45115500
_cell_angle_alpha   76.25602367
_cell_angle_beta   90.00000000
_cell_angle_gamma   90.00000000
_symmetry_Int_Tables_number   1
_chemical_formula_structural   Er4NbIO12
_chemical_formula_sum   'Er8 Nb2 I2 O24'
_cell_volume   461.15956228
_cell_formula_units_Z   2
loop_
 _symmetry_equiv_pos_site_id
 _symmetry_equiv_pos_as_xyz
  1  'x, y, z'
loop_
 _atom_site_type_symbol
 _atom_site_label
 _atom_site_symmetry_multiplicity
 _atom_site_fract_x
 _atom_site_fract_y
 _atom_site_fract_z
 _atom_site_occupancy
  Er  Er0  1  0.742340  0.981646  0.758224  1
  Er  Er1  1  0.257660  0.981646  0.258224  1
  Er  Er2  1  0.192224  0.792544  0.577481  1
  Er  Er3  1  0.807776  0.792544  0.077481  1
  Er  Er4  1  0.690368  0.522549  0.745935  1
  Er  Er5  1  0.309632  0.522549  0.245935  1
  Er  Er6  1  0.190446  0.205181  0.921980  1
  Er  Er7  1  0.809554  0.205181  0.421980  1
  Nb  Nb8  1  0.254596  0.716377  0.890743  1
  Nb  Nb9  1  0.745404  0.716377  0.390743  1
  I  I10  1  0.256022  0.273190  0.617281  1
  I  I11  1  0.743978  0.273190  0.117281  1
  O  O12  1  0.024849  0.948436  0.904010  1
  O  O13  1  0.534015  0.853712  0.928862  1
  O  O14  1  0.975151  0.948436  0.404010  1
  O  O15  1  0.480175  0.785452  0.717074  1
  O  O16  1  0.465985  0.853712  0.428862  1
  O  O17  1  0.982235  0.721140  0.766610  1
  O  O18  1  0.519825  0.785452  0.217074  1
  O  O19  1  0.858763  0.632758  0.553190  1
  O  O20  1  0.368284  0.483490  0.878910  1
  O  O21  1  0.017765  0.721140  0.266610  1
  O  O22  1  0.379840  0.502199  0.611857  1
  O  O23  1  0.862103  0.361345  0.958015  1
  O  O24  1  0.141237  0.632758  0.053190  1
  O  O25  1  0.631716  0.483490  0.378910  1
  O  O26  1  0.985004  0.303760  0.724359  1
  O  O27  1  0.620160  0.502199  0.111857  1
  O  O28  1  0.137897  0.361345  0.458015  1
  O  O29  1  0.436970  0.194058  0.767318  1
  O  O30  1  0.014996  0.303760  0.224359  1
  O  O31  1  0.532496  0.160045  0.564931  1
  O  O32  1  0.563030  0.194058  0.267318  1
  O  O33  1  0.061542  0.062114  0.613219  1
  O  O34  1  0.467504  0.160045  0.064931  1
  O  O35  1  0.938458  0.062114  0.113219  1
