# generated using pymatgen
data_Tm2Fe2O7
_symmetry_space_group_name_H-M   'P 1'
_cell_length_a   7.08724593
_cell_length_b   7.08724651
_cell_length_c   7.08724600
_cell_angle_alpha   60.00000239
_cell_angle_beta   59.99999968
_cell_angle_gamma   60.00000789
_symmetry_Int_Tables_number   1
_chemical_formula_structural   Tm2Fe2O7
_chemical_formula_sum   'Tm4 Fe4 O14'
_cell_volume   251.71991971
_cell_formula_units_Z   2
loop_
 _symmetry_equiv_pos_site_id
 _symmetry_equiv_pos_as_xyz
  1  'x, y, z'
loop_
 _atom_site_type_symbol
 _atom_site_label
 _atom_site_symmetry_multiplicity
 _atom_site_fract_x
 _atom_site_fract_y
 _atom_site_fract_z
 _atom_site_occupancy
  Tm  Tm0  1  0.125000  0.125000  0.625000  1
  Tm  Tm1  1  0.125000  0.125000  0.125000  1
  Tm  Tm2  1  0.625000  0.125000  0.125000  1
  Tm  Tm3  1  0.125000  0.625000  0.125000  1
  Fe  Fe4  1  0.625000  0.625000  0.625000  1
  Fe  Fe5  1  0.125000  0.625000  0.625000  1
  Fe  Fe6  1  0.625000  0.125000  0.625000  1
  Fe  Fe7  1  0.625000  0.625000  0.125000  1
  O  O8  1  0.539328  0.539328  0.960672  1
  O  O9  1  0.960672  0.539328  0.960672  1
  O  O10  1  0.289328  0.289328  0.710672  1
  O  O11  1  0.000000  0.000000  0.000000  1
  O  O12  1  0.289328  0.710672  0.710672  1
  O  O13  1  0.710672  0.710672  0.289328  1
  O  O14  1  0.710672  0.289328  0.289328  1
  O  O15  1  0.539328  0.960672  0.539328  1
  O  O16  1  0.710672  0.289328  0.710672  1
  O  O17  1  0.539328  0.960672  0.960672  1
  O  O18  1  0.960672  0.960672  0.539328  1
  O  O19  1  0.250000  0.250000  0.250000  1
  O  O20  1  0.289328  0.710672  0.289328  1
  O  O21  1  0.960672  0.539328  0.539328  1
