# generated using pymatgen
data_Tm6Lu6InCo4Rh
_symmetry_space_group_name_H-M   'P 1'
_cell_length_a   8.14717074
_cell_length_b   8.14717224
_cell_length_c   8.14042000
_cell_angle_alpha   111.13925552
_cell_angle_beta   110.89614283
_cell_angle_gamma   106.45625844
_symmetry_Int_Tables_number   1
_chemical_formula_structural   Tm6Lu6InCo4Rh
_chemical_formula_sum   'Tm6 Lu6 In1 Co4 Rh1'
_cell_volume   414.89524833
_cell_formula_units_Z   1
loop_
 _symmetry_equiv_pos_site_id
 _symmetry_equiv_pos_as_xyz
  1  'x, y, z'
loop_
 _atom_site_type_symbol
 _atom_site_label
 _atom_site_symmetry_multiplicity
 _atom_site_fract_x
 _atom_site_fract_y
 _atom_site_fract_z
 _atom_site_occupancy
  Tm  Tm0  1  0.413298  0.217433  0.194651  1
  Tm  Tm1  1  0.586702  0.782567  0.805349  1
  Tm  Tm2  1  0.022782  0.218646  0.805349  1
  Tm  Tm3  1  0.977218  0.781354  0.194651  1
  Tm  Tm4  1  0.185292  0.287331  0.472624  1
  Tm  Tm5  1  0.814708  0.712669  0.527376  1
  Lu  Lu6  1  0.185488  0.712868  0.898355  1
  Lu  Lu7  1  0.814512  0.287132  0.101645  1
  Lu  Lu8  1  0.314641  0.620898  0.305405  1
  Lu  Lu9  1  0.685359  0.379102  0.694595  1
  Lu  Lu10  1  0.315494  0.009236  0.694595  1
  Lu  Lu11  1  0.684506  0.990764  0.305405  1
  In  In12  1  0.500000  0.500000  0.000000  1
  Co  Co13  1  0.376408  0.999562  0.375970  1
  Co  Co14  1  0.623592  0.000438  0.624030  1
  Co  Co15  1  0.113059  0.613059  0.500000  1
  Co  Co16  1  0.886941  0.386941  0.500000  1
  Rh  Rh17  1  0.000000  0.000000  0.000000  1
