# generated using pymatgen
data_Cs2HoP2S7
_symmetry_space_group_name_H-M   'P 1'
_cell_length_a   9.69083501
_cell_length_b   9.69083593
_cell_length_c   9.39065667
_cell_angle_alpha   72.49075340
_cell_angle_beta   72.49075489
_cell_angle_gamma   70.46115137
_symmetry_Int_Tables_number   1
_chemical_formula_structural   Cs2HoP2S7
_chemical_formula_sum   'Cs4 Ho2 P4 S14'
_cell_volume   772.68496414
_cell_formula_units_Z   2
loop_
 _symmetry_equiv_pos_site_id
 _symmetry_equiv_pos_as_xyz
  1  'x, y, z'
loop_
 _atom_site_type_symbol
 _atom_site_label
 _atom_site_symmetry_multiplicity
 _atom_site_fract_x
 _atom_site_fract_y
 _atom_site_fract_z
 _atom_site_occupancy
  Cs  Cs0  1  0.608007  0.053221  0.166358  1
  Cs  Cs1  1  0.946779  0.391993  0.833642  1
  Cs  Cs2  1  0.391993  0.946779  0.833642  1
  Cs  Cs3  1  0.053221  0.608007  0.166358  1
  Ho  Ho4  1  0.684645  0.315355  0.500000  1
  Ho  Ho5  1  0.315355  0.684645  0.500000  1
  P  P6  1  0.946753  0.946753  0.441863  1
  P  P7  1  0.053247  0.053247  0.558137  1
  P  P8  1  0.394039  0.394039  0.812656  1
  P  P9  1  0.605961  0.605961  0.187344  1
  S  S10  1  0.682400  0.378490  0.199305  1
  S  S11  1  0.621510  0.317600  0.800695  1
  S  S12  1  0.317600  0.621510  0.800695  1
  S  S13  1  0.378490  0.682400  0.199305  1
  S  S14  1  0.002828  0.002828  0.214859  1
  S  S15  1  0.997172  0.997172  0.785141  1
  S  S16  1  0.718396  0.019191  0.530763  1
  S  S17  1  0.980809  0.281604  0.469237  1
  S  S18  1  0.281604  0.980809  0.469237  1
  S  S19  1  0.019191  0.718396  0.530763  1
  S  S20  1  0.277721  0.277721  0.994733  1
  S  S21  1  0.722279  0.722279  0.005267  1
  S  S22  1  0.370204  0.370204  0.603941  1
  S  S23  1  0.629796  0.629796  0.396059  1
