# generated using pymatgen
data_Ho4MgSc(B2Rh5)2
_symmetry_space_group_name_H-M   'P 1'
_cell_length_a   9.65612300
_cell_length_b   9.65612300
_cell_length_c   3.19146100
_cell_angle_alpha   90.00000000
_cell_angle_beta   90.00000000
_cell_angle_gamma   90.00000000
_symmetry_Int_Tables_number   1
_chemical_formula_structural   Ho4MgSc(B2Rh5)2
_chemical_formula_sum   'Ho4 Mg1 Sc1 B4 Rh10'
_cell_volume   297.57409402
_cell_formula_units_Z   1
loop_
 _symmetry_equiv_pos_site_id
 _symmetry_equiv_pos_as_xyz
  1  'x, y, z'
loop_
 _atom_site_type_symbol
 _atom_site_label
 _atom_site_symmetry_multiplicity
 _atom_site_fract_x
 _atom_site_fract_y
 _atom_site_fract_z
 _atom_site_occupancy
  Ho  Ho0  1  0.673781  0.177077  0.000000  1
  Ho  Ho1  1  0.326219  0.822923  0.000000  1
  Ho  Ho2  1  0.177077  0.326219  0.000000  1
  Ho  Ho3  1  0.822923  0.673781  0.000000  1
  Mg  Mg4  1  0.500000  0.500000  0.000000  1
  Sc  Sc5  1  0.000000  0.000000  0.000000  1
  B  B6  1  0.123727  0.618761  0.000000  1
  B  B7  1  0.876273  0.381239  0.000000  1
  B  B8  1  0.618761  0.876273  0.000000  1
  B  B9  1  0.381239  0.123727  0.000000  1
  Rh  Rh10  1  0.500000  0.000000  0.500000  1
  Rh  Rh11  1  0.000000  0.500000  0.500000  1
  Rh  Rh12  1  0.225079  0.070646  0.500000  1
  Rh  Rh13  1  0.774921  0.929354  0.500000  1
  Rh  Rh14  1  0.070646  0.774921  0.500000  1
  Rh  Rh15  1  0.724175  0.428898  0.500000  1
  Rh  Rh16  1  0.929354  0.225079  0.500000  1
  Rh  Rh17  1  0.275825  0.571102  0.500000  1
  Rh  Rh18  1  0.571102  0.724175  0.500000  1
  Rh  Rh19  1  0.428898  0.275825  0.500000  1
