# generated using pymatgen
data_Tm3LuGa2(B2Ir5)2
_symmetry_space_group_name_H-M   'P 1'
_cell_length_a   9.54011004
_cell_length_b   9.54022804
_cell_length_c   3.14712700
_cell_angle_alpha   90.00000000
_cell_angle_beta   90.00000000
_cell_angle_gamma   89.92501232
_symmetry_Int_Tables_number   1
_chemical_formula_structural   Tm3LuGa2(B2Ir5)2
_chemical_formula_sum   'Tm3 Lu1 Ga2 B4 Ir10'
_cell_volume   286.43496897
_cell_formula_units_Z   1
loop_
 _symmetry_equiv_pos_site_id
 _symmetry_equiv_pos_as_xyz
  1  'x, y, z'
loop_
 _atom_site_type_symbol
 _atom_site_label
 _atom_site_symmetry_multiplicity
 _atom_site_fract_x
 _atom_site_fract_y
 _atom_site_fract_z
 _atom_site_occupancy
  Tm  Tm0  1  0.676446  0.176352  0.000000  1
  Tm  Tm1  1  0.323650  0.823554  0.000000  1
  Tm  Tm2  1  0.176011  0.323986  0.000000  1
  Lu  Lu3  1  0.823759  0.676241  0.000000  1
  Ga  Ga4  1  0.000018  0.000036  0.000000  1
  Ga  Ga5  1  0.499958  0.499984  0.000000  1
  B  B6  1  0.122820  0.623394  0.000000  1
  B  B7  1  0.876604  0.377183  0.000000  1
  B  B8  1  0.623496  0.876505  0.000000  1
  B  B9  1  0.377041  0.122965  0.000000  1
  Ir  Ir10  1  0.218469  0.069176  0.500000  1
  Ir  Ir11  1  0.782000  0.929812  0.500000  1
  Ir  Ir12  1  0.068554  0.781340  0.500000  1
  Ir  Ir13  1  0.718658  0.431444  0.500000  1
  Ir  Ir14  1  0.930678  0.218749  0.500000  1
  Ir  Ir15  1  0.281255  0.569321  0.500000  1
  Ir  Ir16  1  0.570190  0.718003  0.500000  1
  Ir  Ir17  1  0.430823  0.281530  0.500000  1
  Ir  Ir18  1  0.500162  0.999840  0.500000  1
  Ir  Ir19  1  0.999409  0.500588  0.500000  1
