# generated using pymatgen
data_Sb14Mo5Pd
_symmetry_space_group_name_H-M   'P 1'
_cell_length_a   8.37417854
_cell_length_b   8.37417843
_cell_length_c   8.37417822
_cell_angle_alpha   109.78292008
_cell_angle_beta   109.78292459
_cell_angle_gamma   108.84960182
_symmetry_Int_Tables_number   1
_chemical_formula_structural   Sb14Mo5Pd
_chemical_formula_sum   'Sb14 Mo5 Pd1'
_cell_volume   452.02913970
_cell_formula_units_Z   1
loop_
 _symmetry_equiv_pos_site_id
 _symmetry_equiv_pos_as_xyz
  1  'x, y, z'
loop_
 _atom_site_type_symbol
 _atom_site_label
 _atom_site_symmetry_multiplicity
 _atom_site_fract_x
 _atom_site_fract_y
 _atom_site_fract_z
 _atom_site_occupancy
  Sb  Sb0  1  0.747925  0.247925  0.500000  1
  Sb  Sb1  1  0.508956  0.253678  0.744722  1
  Sb  Sb2  1  0.508956  0.764234  0.255278  1
  Sb  Sb3  1  0.253678  0.508956  0.744722  1
  Sb  Sb4  1  0.764234  0.508956  0.255278  1
  Sb  Sb5  1  0.247925  0.747925  0.500000  1
  Sb  Sb6  1  0.325265  0.325265  0.332583  1
  Sb  Sb7  1  0.998854  0.998854  0.323929  1
  Sb  Sb8  1  0.325265  0.992682  0.000000  1
  Sb  Sb9  1  0.992682  0.325265  0.000000  1
  Sb  Sb10  1  0.674925  0.998854  0.000000  1
  Sb  Sb11  1  0.998854  0.674925  0.000000  1
  Sb  Sb12  1  0.992682  0.992682  0.667417  1
  Sb  Sb13  1  0.674925  0.674925  0.676071  1
  Mo  Mo14  1  0.998558  0.339335  0.340777  1
  Mo  Mo15  1  0.998558  0.657781  0.659223  1
  Mo  Mo16  1  0.657781  0.998558  0.659223  1
  Mo  Mo17  1  0.339335  0.998558  0.340777  1
  Mo  Mo18  1  0.650876  0.650876  0.000000  1
  Pd  Pd19  1  0.339768  0.339768  0.000000  1
