# generated using pymatgen
data_Tb5Dy(Er2Pb3)2
_symmetry_space_group_name_H-M   'P 1'
_cell_length_a   9.05355321
_cell_length_b   9.05691348
_cell_length_c   6.62115000
_cell_angle_alpha   90.00086692
_cell_angle_beta   89.99956209
_cell_angle_gamma   120.01227928
_symmetry_Int_Tables_number   1
_chemical_formula_structural   Tb5Dy(Er2Pb3)2
_chemical_formula_sum   'Tb5 Dy1 Er4 Pb6'
_cell_volume   470.12092851
_cell_formula_units_Z   1
loop_
 _symmetry_equiv_pos_site_id
 _symmetry_equiv_pos_as_xyz
  1  'x, y, z'
loop_
 _atom_site_type_symbol
 _atom_site_label
 _atom_site_symmetry_multiplicity
 _atom_site_fract_x
 _atom_site_fract_y
 _atom_site_fract_z
 _atom_site_occupancy
  Tb  Tb0  1  0.760970  0.760907  0.749994  1
  Tb  Tb1  1  0.239030  0.999937  0.749994  1
  Tb  Tb2  1  0.000000  0.239191  0.750004  1
  Tb  Tb3  1  0.239075  0.239022  0.250004  1
  Tb  Tb4  1  0.760925  0.999947  0.250004  1
  Dy  Dy5  1  0.000000  0.760875  0.250007  1
  Er  Er6  1  0.666701  0.333377  0.000023  1
  Er  Er7  1  0.333299  0.666677  0.000023  1
  Er  Er8  1  0.333287  0.666656  0.499975  1
  Er  Er9  1  0.666713  0.333368  0.499975  1
  Pb  Pb10  1  0.394604  0.394606  0.750001  1
  Pb  Pb11  1  0.605396  0.000002  0.750001  1
  Pb  Pb12  1  0.000000  0.605371  0.749997  1
  Pb  Pb13  1  0.605660  0.605478  0.249994  1
  Pb  Pb14  1  0.394340  0.999818  0.249994  1
  Pb  Pb15  1  0.000000  0.394769  0.250009  1
