# generated using pymatgen
data_Th2Pa2Ga20Pt11
_symmetry_space_group_name_H-M   'P 1'
_cell_length_a   4.31467194
_cell_length_b   10.93437659
_cell_length_c   13.74380076
_cell_angle_alpha   81.84009993
_cell_angle_beta   80.94022896
_cell_angle_gamma   78.38336292
_symmetry_Int_Tables_number   1
_chemical_formula_structural   Th2Pa2Ga20Pt11
_chemical_formula_sum   'Th2 Pa2 Ga20 Pt11'
_cell_volume   623.11782912
_cell_formula_units_Z   1
loop_
 _symmetry_equiv_pos_site_id
 _symmetry_equiv_pos_as_xyz
  1  'x, y, z'
loop_
 _atom_site_type_symbol
 _atom_site_label
 _atom_site_symmetry_multiplicity
 _atom_site_fract_x
 _atom_site_fract_y
 _atom_site_fract_z
 _atom_site_occupancy
  Th  Th0  1  0.123470  0.086456  0.666847  1
  Th  Th1  1  0.876530  0.913544  0.333153  1
  Pa  Pa2  1  0.774123  0.627197  0.822980  1
  Pa  Pa3  1  0.225877  0.372803  0.177020  1
  Ga  Ga4  1  0.012769  0.066541  0.911238  1
  Ga  Ga5  1  0.987231  0.933459  0.088762  1
  Ga  Ga6  1  0.065874  0.677641  0.192633  1
  Ga  Ga7  1  0.934126  0.322359  0.807367  1
  Ga  Ga8  1  0.102010  0.343381  0.454098  1
  Ga  Ga9  1  0.897990  0.656619  0.545902  1
  Ga  Ga10  1  0.197568  0.607796  0.995586  1
  Ga  Ga11  1  0.802432  0.392204  0.004414  1
  Ga  Ga12  1  0.263103  0.775058  0.696640  1
  Ga  Ga13  1  0.736897  0.224942  0.303360  1
  Ga  Ga14  1  0.301826  0.898793  0.496561  1
  Ga  Ga15  1  0.698174  0.101207  0.503439  1
  Ga  Ga16  1  0.388961  0.521997  0.698982  1
  Ga  Ga17  1  0.611039  0.478003  0.301018  1
  Ga  Ga18  1  0.394257  0.203078  0.002414  1
  Ga  Ga19  1  0.605743  0.796922  0.997586  1
  Ga  Ga20  1  0.542530  0.287583  0.628918  1
  Ga  Ga21  1  0.457470  0.712417  0.371082  1
  Ga  Ga22  1  0.639220  0.928483  0.798338  1
  Ga  Ga23  1  0.360780  0.071517  0.201662  1
  Pt  Pt24  1  0.500000  0.500000  0.500000  1
  Pt  Pt25  1  0.027276  0.575314  0.370301  1
  Pt  Pt26  1  0.972724  0.424686  0.629699  1
  Pt  Pt27  1  0.149272  0.826203  0.884198  1
  Pt  Pt28  1  0.850728  0.173797  0.115802  1
  Pt  Pt29  1  0.240086  0.130556  0.390913  1
  Pt  Pt30  1  0.759914  0.869444  0.609087  1
  Pt  Pt31  1  0.343404  0.424289  0.890747  1
  Pt  Pt32  1  0.656596  0.575711  0.109253  1
  Pt  Pt33  1  0.506210  0.166995  0.819432  1
  Pt  Pt34  1  0.493790  0.833005  0.180568  1
