# generated using pymatgen
data_YbTm(CuO2)4
_symmetry_space_group_name_H-M   'P 1'
_cell_length_a   6.21892220
_cell_length_b   6.21892239
_cell_length_c   6.21892302
_cell_angle_alpha   126.01598334
_cell_angle_beta   126.01597915
_cell_angle_gamma   79.86187827
_symmetry_Int_Tables_number   1
_chemical_formula_structural   YbTm(CuO2)4
_chemical_formula_sum   'Yb1 Tm1 Cu4 O8'
_cell_volume   151.96859702
_cell_formula_units_Z   1
loop_
 _symmetry_equiv_pos_site_id
 _symmetry_equiv_pos_as_xyz
  1  'x, y, z'
loop_
 _atom_site_type_symbol
 _atom_site_label
 _atom_site_symmetry_multiplicity
 _atom_site_fract_x
 _atom_site_fract_y
 _atom_site_fract_z
 _atom_site_occupancy
  Yb  Yb0  1  0.750000  0.250000  0.500000  1
  Tm  Tm1  1  0.000000  0.000000  0.000000  1
  Cu  Cu2  1  0.377957  0.624360  0.253495  1
  Cu  Cu3  1  0.375640  0.629135  0.753597  1
  Cu  Cu4  1  0.875537  0.622043  0.246403  1
  Cu  Cu5  1  0.370865  0.124463  0.746505  1
  O  O6  1  0.163615  0.604935  0.868082  1
  O  O7  1  0.736853  0.295534  0.131918  1
  O  O8  1  0.336954  0.987254  0.930173  1
  O  O9  1  0.704466  0.836385  0.441319  1
  O  O10  1  0.057082  0.406780  0.069827  1
  O  O11  1  0.395065  0.263147  0.558681  1
  O  O12  1  0.012746  0.942918  0.349700  1
  O  O13  1  0.593220  0.663046  0.650300  1
