# generated using pymatgen
data_Pa3Al12FeRe3
_symmetry_space_group_name_H-M   'P 1'
_cell_length_a   8.88241800
_cell_length_b   8.88241832
_cell_length_c   9.39495800
_cell_angle_alpha   90.00000000
_cell_angle_beta   90.00000000
_cell_angle_gamma   119.99999882
_symmetry_Int_Tables_number   1
_chemical_formula_structural   Pa3Al12FeRe3
_chemical_formula_sum   'Pa6 Al24 Fe2 Re6'
_cell_volume   641.93034960
_cell_formula_units_Z   2
loop_
 _symmetry_equiv_pos_site_id
 _symmetry_equiv_pos_as_xyz
  1  'x, y, z'
loop_
 _atom_site_type_symbol
 _atom_site_label
 _atom_site_symmetry_multiplicity
 _atom_site_fract_x
 _atom_site_fract_y
 _atom_site_fract_z
 _atom_site_occupancy
  Pa  Pa0  1  0.799531  0.200469  0.750000  1
  Pa  Pa1  1  0.200469  0.799531  0.250000  1
  Pa  Pa2  1  0.400938  0.200469  0.750000  1
  Pa  Pa3  1  0.599062  0.799531  0.250000  1
  Pa  Pa4  1  0.799531  0.599062  0.750000  1
  Pa  Pa5  1  0.200469  0.400938  0.250000  1
  Al  Al6  1  0.666667  0.333333  0.991345  1
  Al  Al7  1  0.333333  0.666667  0.008655  1
  Al  Al8  1  0.333333  0.666667  0.491345  1
  Al  Al9  1  0.666667  0.333333  0.508655  1
  Al  Al10  1  0.842283  0.157717  0.420935  1
  Al  Al11  1  0.157717  0.842283  0.579065  1
  Al  Al12  1  0.315436  0.157717  0.420935  1
  Al  Al13  1  0.157717  0.842283  0.920935  1
  Al  Al14  1  0.684564  0.842283  0.579065  1
  Al  Al15  1  0.842283  0.157717  0.079065  1
  Al  Al16  1  0.842283  0.684564  0.420935  1
  Al  Al17  1  0.684564  0.842283  0.920935  1
  Al  Al18  1  0.157717  0.315436  0.579065  1
  Al  Al19  1  0.315436  0.157717  0.079065  1
  Al  Al20  1  0.157717  0.315436  0.920935  1
  Al  Al21  1  0.842283  0.684564  0.079065  1
  Al  Al22  1  0.437189  0.562811  0.750000  1
  Al  Al23  1  0.562811  0.437189  0.250000  1
  Al  Al24  1  0.125622  0.562811  0.750000  1
  Al  Al25  1  0.874378  0.437189  0.250000  1
  Al  Al26  1  0.437189  0.874378  0.750000  1
  Al  Al27  1  0.562811  0.125622  0.250000  1
  Al  Al28  1  0.000000  0.000000  0.750000  1
  Al  Al29  1  0.000000  0.000000  0.250000  1
  Fe  Fe30  1  0.000000  0.000000  0.000000  1
  Fe  Fe31  1  0.000000  0.000000  0.500000  1
  Re  Re32  1  0.500000  0.500000  0.000000  1
  Re  Re33  1  0.000000  0.500000  0.000000  1
  Re  Re34  1  0.500000  0.500000  0.500000  1
  Re  Re35  1  0.500000  0.000000  0.000000  1
  Re  Re36  1  0.000000  0.500000  0.500000  1
  Re  Re37  1  0.500000  0.000000  0.500000  1
