# generated using pymatgen
data_Nd8Zn7GaIr3Rh5
_symmetry_space_group_name_H-M   'P 1'
_cell_length_a   4.02367100
_cell_length_b   7.33315785
_cell_length_c   16.62823599
_cell_angle_alpha   90.14718442
_cell_angle_beta   90.00000000
_cell_angle_gamma   90.00000000
_symmetry_Int_Tables_number   1
_chemical_formula_structural   Nd8Zn7GaIr3Rh5
_chemical_formula_sum   'Nd8 Zn7 Ga1 Ir3 Rh5'
_cell_volume   490.63468060
_cell_formula_units_Z   1
loop_
 _symmetry_equiv_pos_site_id
 _symmetry_equiv_pos_as_xyz
  1  'x, y, z'
loop_
 _atom_site_type_symbol
 _atom_site_label
 _atom_site_symmetry_multiplicity
 _atom_site_fract_x
 _atom_site_fract_y
 _atom_site_fract_z
 _atom_site_occupancy
  Nd  Nd0  1  0.250000  0.167824  0.939361  1
  Nd  Nd1  1  0.250000  0.667730  0.560311  1
  Nd  Nd2  1  0.750000  0.333412  0.438031  1
  Nd  Nd3  1  0.750000  0.952163  0.283780  1
  Nd  Nd4  1  0.750000  0.831676  0.060946  1
  Nd  Nd5  1  0.750000  0.451382  0.216703  1
  Nd  Nd6  1  0.250000  0.049238  0.717309  1
  Nd  Nd7  1  0.250000  0.546231  0.784410  1
  Zn  Zn8  1  0.250000  0.622971  0.349440  1
  Zn  Zn9  1  0.750000  0.378663  0.652389  1
  Zn  Zn10  1  0.250000  0.498742  0.060181  1
  Zn  Zn11  1  0.750000  0.500884  0.940031  1
  Zn  Zn12  1  0.250000  0.998201  0.437221  1
  Zn  Zn13  1  0.250000  0.124555  0.151240  1
  Zn  Zn14  1  0.750000  0.876733  0.849018  1
  Ga  Ga15  1  0.750000  0.000622  0.561079  1
  Ir  Ir16  1  0.750000  0.758177  0.435996  1
  Ir  Ir17  1  0.250000  0.245669  0.313355  1
  Ir  Ir18  1  0.750000  0.255889  0.813620  1
  Rh  Rh19  1  0.750000  0.758561  0.684284  1
  Rh  Rh20  1  0.250000  0.234418  0.565207  1
  Rh  Rh21  1  0.250000  0.745593  0.185797  1
  Rh  Rh22  1  0.750000  0.255599  0.065387  1
  Rh  Rh23  1  0.250000  0.745063  0.934906  1
