# generated using pymatgen
data_Pr10Si4SnAu
_symmetry_space_group_name_H-M   'P 1'
_cell_length_a   7.83781044
_cell_length_b   7.83781070
_cell_length_c   9.28443820
_cell_angle_alpha   114.96686399
_cell_angle_beta   114.96686147
_cell_angle_gamma   89.99999536
_symmetry_Int_Tables_number   1
_chemical_formula_structural   Pr10Si4SnAu
_chemical_formula_sum   'Pr10 Si4 Sn1 Au1'
_cell_volume   457.59145147
_cell_formula_units_Z   1
loop_
 _symmetry_equiv_pos_site_id
 _symmetry_equiv_pos_as_xyz
  1  'x, y, z'
loop_
 _atom_site_type_symbol
 _atom_site_label
 _atom_site_symmetry_multiplicity
 _atom_site_fract_x
 _atom_site_fract_y
 _atom_site_fract_z
 _atom_site_occupancy
  Pr  Pr0  1  0.478584  0.478584  0.957167  1
  Pr  Pr1  1  0.021416  0.021416  0.042833  1
  Pr  Pr2  1  0.952283  0.806567  0.279400  1
  Pr  Pr3  1  0.327116  0.472832  0.279400  1
  Pr  Pr4  1  0.806567  0.327116  0.279400  1
  Pr  Pr5  1  0.472832  0.952283  0.279400  1
  Pr  Pr6  1  0.027168  0.172884  0.720600  1
  Pr  Pr7  1  0.693433  0.547717  0.720600  1
  Pr  Pr8  1  0.172884  0.693433  0.720600  1
  Pr  Pr9  1  0.547717  0.027168  0.720600  1
  Si  Si10  1  0.614465  0.885535  0.000000  1
  Si  Si11  1  0.385535  0.114465  0.000000  1
  Si  Si12  1  0.885535  0.385535  0.000000  1
  Si  Si13  1  0.114465  0.614465  0.000000  1
  Sn  Sn14  1  0.250000  0.250000  0.500000  1
  Au  Au15  1  0.750000  0.750000  0.500000  1
