# generated using pymatgen
data_Ti6Zn17Cu6S
_symmetry_space_group_name_H-M   'P 1'
_cell_length_a   8.45699158
_cell_length_b   8.45699002
_cell_length_c   8.45699000
_cell_angle_alpha   60.00000010
_cell_angle_beta   60.00000617
_cell_angle_gamma   59.99999352
_symmetry_Int_Tables_number   1
_chemical_formula_structural   Ti6Zn17Cu6S
_chemical_formula_sum   'Ti6 Zn17 Cu6 S1'
_cell_volume   427.69338664
_cell_formula_units_Z   1
loop_
 _symmetry_equiv_pos_site_id
 _symmetry_equiv_pos_as_xyz
  1  'x, y, z'
loop_
 _atom_site_type_symbol
 _atom_site_label
 _atom_site_symmetry_multiplicity
 _atom_site_fract_x
 _atom_site_fract_y
 _atom_site_fract_z
 _atom_site_occupancy
  Ti  Ti0  1  0.700391  0.299609  0.299609  1
  Ti  Ti1  1  0.299609  0.700391  0.700391  1
  Ti  Ti2  1  0.299609  0.700391  0.299609  1
  Ti  Ti3  1  0.700391  0.299609  0.700391  1
  Ti  Ti4  1  0.299609  0.299609  0.700391  1
  Ti  Ti5  1  0.700391  0.700391  0.299609  1
  Zn  Zn6  1  0.122091  0.122091  0.122091  1
  Zn  Zn7  1  0.877909  0.877909  0.877909  1
  Zn  Zn8  1  0.122091  0.122091  0.633728  1
  Zn  Zn9  1  0.122091  0.633728  0.122091  1
  Zn  Zn10  1  0.877909  0.877909  0.366272  1
  Zn  Zn11  1  0.877909  0.366272  0.877909  1
  Zn  Zn12  1  0.633728  0.122091  0.122091  1
  Zn  Zn13  1  0.366272  0.877909  0.877909  1
  Zn  Zn14  1  0.337570  0.337570  0.337570  1
  Zn  Zn15  1  0.662430  0.662430  0.662430  1
  Zn  Zn16  1  0.337570  0.337570  0.987291  1
  Zn  Zn17  1  0.337570  0.987291  0.337570  1
  Zn  Zn18  1  0.662430  0.662430  0.012709  1
  Zn  Zn19  1  0.662430  0.012709  0.662430  1
  Zn  Zn20  1  0.987291  0.337570  0.337570  1
  Zn  Zn21  1  0.012709  0.662430  0.662430  1
  Zn  Zn22  1  0.000000  0.000000  0.000000  1
  Cu  Cu23  1  0.500000  0.000000  0.000000  1
  Cu  Cu24  1  0.000000  0.500000  0.500000  1
  Cu  Cu25  1  0.000000  0.500000  0.000000  1
  Cu  Cu26  1  0.500000  0.000000  0.500000  1
  Cu  Cu27  1  0.000000  0.000000  0.500000  1
  Cu  Cu28  1  0.500000  0.500000  0.000000  1
  S  S29  1  0.500000  0.500000  0.500000  1
