# generated using pymatgen
data_Hf5MnRh9Au
_symmetry_space_group_name_H-M   'P 1'
_cell_length_a   4.21331800
_cell_length_b   5.61894128
_cell_length_c   11.03007010
_cell_angle_alpha   87.41960737
_cell_angle_beta   90.00000000
_cell_angle_gamma   90.00000000
_symmetry_Int_Tables_number   1
_chemical_formula_structural   Hf5MnRh9Au
_chemical_formula_sum   'Hf5 Mn1 Rh9 Au1'
_cell_volume   260.86536512
_cell_formula_units_Z   1
loop_
 _symmetry_equiv_pos_site_id
 _symmetry_equiv_pos_as_xyz
  1  'x, y, z'
loop_
 _atom_site_type_symbol
 _atom_site_label
 _atom_site_symmetry_multiplicity
 _atom_site_fract_x
 _atom_site_fract_y
 _atom_site_fract_z
 _atom_site_occupancy
  Hf  Hf0  1  0.500000  0.199115  0.646267  1
  Hf  Hf1  1  0.500000  0.800885  0.353733  1
  Hf  Hf2  1  0.500000  0.670169  0.852443  1
  Hf  Hf3  1  0.500000  0.329831  0.147557  1
  Hf  Hf4  1  0.000000  0.000000  0.000000  1
  Mn  Mn5  1  0.000000  0.500000  0.500000  1
  Rh  Rh6  1  0.500000  0.191883  0.891286  1
  Rh  Rh7  1  0.500000  0.808117  0.108714  1
  Rh  Rh8  1  0.500000  0.702138  0.606593  1
  Rh  Rh9  1  0.500000  0.297862  0.393407  1
  Rh  Rh10  1  0.000000  0.431776  0.742155  1
  Rh  Rh11  1  0.000000  0.568224  0.257845  1
  Rh  Rh12  1  0.000000  0.500000  0.000000  1
  Rh  Rh13  1  0.000000  0.073211  0.243704  1
  Rh  Rh14  1  0.000000  0.926789  0.756296  1
  Au  Au15  1  0.000000  0.000000  0.500000  1
