# generated using pymatgen
data_Yb2Ho3CuPb3
_symmetry_space_group_name_H-M   'P 1'
_cell_length_a   9.16500900
_cell_length_b   9.16500821
_cell_length_c   6.76510100
_cell_angle_alpha   90.00000000
_cell_angle_beta   90.00000000
_cell_angle_gamma   119.99999923
_symmetry_Int_Tables_number   1
_chemical_formula_structural   Yb2Ho3CuPb3
_chemical_formula_sum   'Yb4 Ho6 Cu2 Pb6'
_cell_volume   492.11961337
_cell_formula_units_Z   2
loop_
 _symmetry_equiv_pos_site_id
 _symmetry_equiv_pos_as_xyz
  1  'x, y, z'
loop_
 _atom_site_type_symbol
 _atom_site_label
 _atom_site_symmetry_multiplicity
 _atom_site_fract_x
 _atom_site_fract_y
 _atom_site_fract_z
 _atom_site_occupancy
  Yb  Yb0  1  0.333333  0.666667  0.500000  1
  Yb  Yb1  1  0.666667  0.333333  0.500000  1
  Yb  Yb2  1  0.666667  0.333333  0.000000  1
  Yb  Yb3  1  0.333333  0.666667  0.000000  1
  Ho  Ho4  1  0.257676  0.000000  0.750000  1
  Ho  Ho5  1  0.742324  0.000000  0.250000  1
  Ho  Ho6  1  0.000000  0.257676  0.750000  1
  Ho  Ho7  1  0.000000  0.742324  0.250000  1
  Ho  Ho8  1  0.742324  0.742324  0.750000  1
  Ho  Ho9  1  0.257676  0.257676  0.250000  1
  Cu  Cu10  1  0.000000  0.000000  0.500000  1
  Cu  Cu11  1  0.000000  0.000000  0.000000  1
  Pb  Pb12  1  0.613509  0.000000  0.750000  1
  Pb  Pb13  1  0.386491  0.000000  0.250000  1
  Pb  Pb14  1  0.000000  0.613509  0.750000  1
  Pb  Pb15  1  0.000000  0.386491  0.250000  1
  Pb  Pb16  1  0.386491  0.386491  0.750000  1
  Pb  Pb17  1  0.613509  0.613509  0.250000  1
