# generated using pymatgen
data_Li2Ca3AgP3
_symmetry_space_group_name_H-M   'P 1'
_cell_length_a   7.00327802
_cell_length_b   7.02753093
_cell_length_c   4.16776800
_cell_angle_alpha   90.00000000
_cell_angle_beta   90.00000000
_cell_angle_gamma   120.11463304
_symmetry_Int_Tables_number   1
_chemical_formula_structural   Li2Ca3AgP3
_chemical_formula_sum   'Li2 Ca3 Ag1 P3'
_cell_volume   177.43344262
_cell_formula_units_Z   1
loop_
 _symmetry_equiv_pos_site_id
 _symmetry_equiv_pos_as_xyz
  1  'x, y, z'
loop_
 _atom_site_type_symbol
 _atom_site_label
 _atom_site_symmetry_multiplicity
 _atom_site_fract_x
 _atom_site_fract_y
 _atom_site_fract_z
 _atom_site_occupancy
  Li  Li0  1  0.240932  0.003931  0.000000  1
  Li  Li1  1  0.759068  0.762998  0.000000  1
  Ca  Ca2  1  0.585818  0.001770  0.500000  1
  Ca  Ca3  1  0.414182  0.415952  0.500000  1
  Ca  Ca4  1  0.000000  0.579726  0.500000  1
  Ag  Ag5  1  0.000000  0.241162  0.000000  1
  P  P6  1  0.000000  0.991172  0.500000  1
  P  P7  1  0.336819  0.670055  0.000000  1
  P  P8  1  0.663181  0.333235  0.000000  1
