# generated using pymatgen
data_ErCoNi4P3
_symmetry_space_group_name_H-M   'P 1'
_cell_length_a   3.69057000
_cell_length_b   10.31480600
_cell_length_c   11.80609000
_cell_angle_alpha   90.00000000
_cell_angle_beta   90.00000000
_cell_angle_gamma   90.00000000
_symmetry_Int_Tables_number   1
_chemical_formula_structural   ErCoNi4P3
_chemical_formula_sum   'Er4 Co4 Ni16 P12'
_cell_volume   449.42849139
_cell_formula_units_Z   4
loop_
 _symmetry_equiv_pos_site_id
 _symmetry_equiv_pos_as_xyz
  1  'x, y, z'
loop_
 _atom_site_type_symbol
 _atom_site_label
 _atom_site_symmetry_multiplicity
 _atom_site_fract_x
 _atom_site_fract_y
 _atom_site_fract_z
 _atom_site_occupancy
  Er  Er0  1  0.250000  0.581514  0.702914  1
  Er  Er1  1  0.250000  0.918486  0.202914  1
  Er  Er2  1  0.750000  0.418486  0.297086  1
  Er  Er3  1  0.750000  0.081514  0.797086  1
  Co  Co4  1  0.250000  0.468417  0.931792  1
  Co  Co5  1  0.250000  0.031583  0.431792  1
  Co  Co6  1  0.750000  0.531583  0.068208  1
  Co  Co7  1  0.750000  0.968417  0.568208  1
  Ni  Ni8  1  0.250000  0.713721  0.992617  1
  Ni  Ni9  1  0.250000  0.786279  0.492617  1
  Ni  Ni10  1  0.750000  0.286279  0.007383  1
  Ni  Ni11  1  0.750000  0.213721  0.507383  1
  Ni  Ni12  1  0.250000  0.404734  0.487088  1
  Ni  Ni13  1  0.250000  0.095266  0.987088  1
  Ni  Ni14  1  0.750000  0.595266  0.512912  1
  Ni  Ni15  1  0.750000  0.904734  0.012912  1
  Ni  Ni16  1  0.250000  0.224036  0.178730  1
  Ni  Ni17  1  0.250000  0.275964  0.678730  1
  Ni  Ni18  1  0.750000  0.775964  0.821270  1
  Ni  Ni19  1  0.750000  0.724036  0.321270  1
  Ni  Ni20  1  0.250000  0.882507  0.700483  1
  Ni  Ni21  1  0.250000  0.617493  0.200483  1
  Ni  Ni22  1  0.750000  0.117493  0.299517  1
  Ni  Ni23  1  0.750000  0.382507  0.799517  1
  P  P24  1  0.250000  0.421226  0.112526  1
  P  P25  1  0.250000  0.078774  0.612526  1
  P  P26  1  0.750000  0.578774  0.887474  1
  P  P27  1  0.750000  0.921226  0.387474  1
  P  P28  1  0.250000  0.270409  0.869769  1
  P  P29  1  0.250000  0.229591  0.369769  1
  P  P30  1  0.750000  0.729591  0.130231  1
  P  P31  1  0.750000  0.770409  0.630231  1
  P  P32  1  0.250000  0.601149  0.392994  1
  P  P33  1  0.250000  0.898851  0.892994  1
  P  P34  1  0.750000  0.398851  0.607006  1
  P  P35  1  0.750000  0.101149  0.107006  1
