# generated using pymatgen
data_Y5PuCdO12
_symmetry_space_group_name_H-M   'P 1'
_cell_length_a   6.62830255
_cell_length_b   6.63733372
_cell_length_c   6.52718700
_cell_angle_alpha   97.96641132
_cell_angle_beta   98.90222895
_cell_angle_gamma   99.27279814
_symmetry_Int_Tables_number   1
_chemical_formula_structural   Y5PuCdO12
_chemical_formula_sum   'Y5 Pu1 Cd1 O12'
_cell_volume   276.02640850
_cell_formula_units_Z   1
loop_
 _symmetry_equiv_pos_site_id
 _symmetry_equiv_pos_as_xyz
  1  'x, y, z'
loop_
 _atom_site_type_symbol
 _atom_site_label
 _atom_site_symmetry_multiplicity
 _atom_site_fract_x
 _atom_site_fract_y
 _atom_site_fract_z
 _atom_site_occupancy
  Y  Y0  1  0.860882  0.389214  0.677915  1
  Y  Y1  1  0.673105  0.852851  0.392069  1
  Y  Y2  1  0.610891  0.327722  0.148386  1
  Y  Y3  1  0.146979  0.610902  0.319342  1
  Y  Y4  1  0.326469  0.144577  0.614558  1
  Pu  Pu5  1  0.997557  0.004758  0.004128  1
  Cd  Cd6  1  0.403472  0.661820  0.845015  1
  O  O7  1  0.170713  0.411431  0.570637  1
  O  O8  1  0.595246  0.174469  0.428512  1
  O  O9  1  0.430107  0.594552  0.174248  1
  O  O10  1  0.822734  0.574106  0.408061  1
  O  O11  1  0.405607  0.821248  0.571227  1
  O  O12  1  0.580726  0.385685  0.820351  1
  O  O13  1  0.918847  0.040486  0.697332  1
  O  O14  1  0.961383  0.306546  0.076596  1
  O  O15  1  0.292226  0.097575  0.969268  1
  O  O16  1  0.080656  0.958951  0.306716  1
  O  O17  1  0.018800  0.706083  0.926619  1
  O  O18  1  0.703599  0.937026  0.049024  1
