# generated using pymatgen
data_Dy2Co7Cu(NiP3)2
_symmetry_space_group_name_H-M   'P 1'
_cell_length_a   3.68822800
_cell_length_b   10.25583200
_cell_length_c   11.83596300
_cell_angle_alpha   90.00000000
_cell_angle_beta   90.00000000
_cell_angle_gamma   90.00000000
_symmetry_Int_Tables_number   1
_chemical_formula_structural   Dy2Co7Cu(NiP3)2
_chemical_formula_sum   'Dy4 Co14 Cu2 Ni4 P12'
_cell_volume   447.70532253
_cell_formula_units_Z   2
loop_
 _symmetry_equiv_pos_site_id
 _symmetry_equiv_pos_as_xyz
  1  'x, y, z'
loop_
 _atom_site_type_symbol
 _atom_site_label
 _atom_site_symmetry_multiplicity
 _atom_site_fract_x
 _atom_site_fract_y
 _atom_site_fract_z
 _atom_site_occupancy
  Dy  Dy0  1  0.250000  0.580269  0.702391  1
  Dy  Dy1  1  0.250000  0.919731  0.202391  1
  Dy  Dy2  1  0.750000  0.418238  0.296939  1
  Dy  Dy3  1  0.750000  0.081762  0.796939  1
  Co  Co4  1  0.250000  0.406580  0.485723  1
  Co  Co5  1  0.250000  0.093420  0.985723  1
  Co  Co6  1  0.250000  0.223610  0.176046  1
  Co  Co7  1  0.250000  0.276390  0.676046  1
  Co  Co8  1  0.750000  0.778651  0.826975  1
  Co  Co9  1  0.750000  0.721349  0.326975  1
  Co  Co10  1  0.250000  0.880853  0.697461  1
  Co  Co11  1  0.250000  0.619147  0.197461  1
  Co  Co12  1  0.750000  0.119537  0.300506  1
  Co  Co13  1  0.750000  0.380463  0.800506  1
  Co  Co14  1  0.250000  0.466440  0.932150  1
  Co  Co15  1  0.250000  0.033560  0.432150  1
  Co  Co16  1  0.750000  0.533328  0.066068  1
  Co  Co17  1  0.750000  0.966672  0.566068  1
  Cu  Cu18  1  0.250000  0.711496  0.989650  1
  Cu  Cu19  1  0.250000  0.788504  0.489650  1
  Ni  Ni20  1  0.750000  0.287737  0.009359  1
  Ni  Ni21  1  0.750000  0.212263  0.509359  1
  Ni  Ni22  1  0.750000  0.592302  0.515271  1
  Ni  Ni23  1  0.750000  0.907698  0.015271  1
  P  P24  1  0.250000  0.420853  0.112626  1
  P  P25  1  0.250000  0.079147  0.612626  1
  P  P26  1  0.750000  0.576479  0.884020  1
  P  P27  1  0.750000  0.923521  0.384020  1
  P  P28  1  0.250000  0.269629  0.866358  1
  P  P29  1  0.250000  0.230371  0.366358  1
  P  P30  1  0.750000  0.727122  0.140758  1
  P  P31  1  0.750000  0.772878  0.640758  1
  P  P32  1  0.250000  0.599122  0.388428  1
  P  P33  1  0.250000  0.900878  0.888428  1
  P  P34  1  0.750000  0.394329  0.609273  1
  P  P35  1  0.750000  0.105671  0.109273  1
