# generated using pymatgen
data_Tb3Y7(IrPb3)2
_symmetry_space_group_name_H-M   'P 1'
_cell_length_a   9.24823200
_cell_length_b   9.24827889
_cell_length_c   6.89070900
_cell_angle_alpha   90.00000000
_cell_angle_beta   90.00000000
_cell_angle_gamma   119.99983227
_symmetry_Int_Tables_number   1
_chemical_formula_structural   Tb3Y7(IrPb3)2
_chemical_formula_sum   'Tb3 Y7 Ir2 Pb6'
_cell_volume   510.40498723
_cell_formula_units_Z   1
loop_
 _symmetry_equiv_pos_site_id
 _symmetry_equiv_pos_as_xyz
  1  'x, y, z'
loop_
 _atom_site_type_symbol
 _atom_site_label
 _atom_site_symmetry_multiplicity
 _atom_site_fract_x
 _atom_site_fract_y
 _atom_site_fract_z
 _atom_site_occupancy
  Tb  Tb0  1  0.764141  0.000000  0.750000  1
  Tb  Tb1  1  0.764016  0.764137  0.250000  1
  Tb  Tb2  1  0.999878  0.235863  0.250000  1
  Y  Y3  1  0.236596  0.236682  0.750000  1
  Y  Y4  1  0.999914  0.763318  0.750000  1
  Y  Y5  1  0.236665  0.000000  0.250000  1
  Y  Y6  1  0.333215  0.666670  0.500018  1
  Y  Y7  1  0.666546  0.333330  0.500018  1
  Y  Y8  1  0.333215  0.666670  0.999982  1
  Y  Y9  1  0.666546  0.333330  0.999982  1
  Ir  Ir10  1  0.999767  0.000000  0.000124  1
  Ir  Ir11  1  0.999767  0.000000  0.499876  1
  Pb  Pb12  1  0.594007  0.000000  0.250000  1
  Pb  Pb13  1  0.000161  0.594457  0.250000  1
  Pb  Pb14  1  0.594262  0.594117  0.750000  1
  Pb  Pb15  1  0.405704  0.405543  0.250000  1
  Pb  Pb16  1  0.000144  0.405883  0.750000  1
  Pb  Pb17  1  0.405453  0.000000  0.750000  1
