# generated using pymatgen
data_CaNd2(H6Ru)2
_symmetry_space_group_name_H-M   'P 1'
_cell_length_a   5.00303800
_cell_length_b   5.00303750
_cell_length_c   8.30645900
_cell_angle_alpha   90.00000000
_cell_angle_beta   90.00000000
_cell_angle_gamma   119.99999011
_symmetry_Int_Tables_number   1
_chemical_formula_structural   CaNd2(H6Ru)2
_chemical_formula_sum   'Ca1 Nd2 H12 Ru2'
_cell_volume   180.05872066
_cell_formula_units_Z   1
loop_
 _symmetry_equiv_pos_site_id
 _symmetry_equiv_pos_as_xyz
  1  'x, y, z'
loop_
 _atom_site_type_symbol
 _atom_site_label
 _atom_site_symmetry_multiplicity
 _atom_site_fract_x
 _atom_site_fract_y
 _atom_site_fract_z
 _atom_site_occupancy
  Ca  Ca0  1  0.000000  0.000000  0.000000  1
  Nd  Nd1  1  0.666667  0.333333  0.355082  1
  Nd  Nd2  1  0.333333  0.666667  0.644918  1
  H  H3  1  0.169799  0.830201  0.376850  1
  H  H4  1  0.660401  0.830201  0.376850  1
  H  H5  1  0.169799  0.339599  0.376850  1
  H  H6  1  0.830201  0.169799  0.623150  1
  H  H7  1  0.339599  0.169799  0.623150  1
  H  H8  1  0.830201  0.660401  0.623150  1
  H  H9  1  0.511150  0.022300  0.867025  1
  H  H10  1  0.511150  0.488850  0.867025  1
  H  H11  1  0.977700  0.488850  0.867025  1
  H  H12  1  0.488850  0.977700  0.132975  1
  H  H13  1  0.488850  0.511150  0.132975  1
  H  H14  1  0.022300  0.511150  0.132975  1
  Ru  Ru15  1  0.666667  0.333333  0.739916  1
  Ru  Ru16  1  0.333333  0.666667  0.260084  1
