# generated using pymatgen
data_Tb3Y7(Sn3Sb)2
_symmetry_space_group_name_H-M   'P 1'
_cell_length_a   8.16481900
_cell_length_b   8.21040011
_cell_length_c   15.48886000
_cell_angle_alpha   90.05733487
_cell_angle_beta   90.00000000
_cell_angle_gamma   90.00000000
_symmetry_Int_Tables_number   1
_chemical_formula_structural   Tb3Y7(Sn3Sb)2
_chemical_formula_sum   'Tb6 Y14 Sn12 Sb4'
_cell_volume   1038.31737204
_cell_formula_units_Z   2
loop_
 _symmetry_equiv_pos_site_id
 _symmetry_equiv_pos_as_xyz
  1  'x, y, z'
loop_
 _atom_site_type_symbol
 _atom_site_label
 _atom_site_symmetry_multiplicity
 _atom_site_fract_x
 _atom_site_fract_y
 _atom_site_fract_z
 _atom_site_occupancy
  Tb  Tb0  1  0.444209  0.669531  0.392282  1
  Tb  Tb1  1  0.944209  0.830469  0.107718  1
  Tb  Tb2  1  0.455310  0.672065  0.105640  1
  Tb  Tb3  1  0.955310  0.827935  0.394360  1
  Tb  Tb4  1  0.544974  0.327862  0.605487  1
  Tb  Tb5  1  0.044974  0.172138  0.894513  1
  Y  Y6  1  0.389784  0.839323  0.880056  1
  Y  Y7  1  0.889784  0.660677  0.619944  1
  Y  Y8  1  0.610877  0.160805  0.380487  1
  Y  Y9  1  0.110877  0.339195  0.119513  1
  Y  Y10  1  0.613207  0.161101  0.119829  1
  Y  Y11  1  0.113207  0.338899  0.380171  1
  Y  Y12  1  0.386355  0.838889  0.619548  1
  Y  Y13  1  0.886355  0.661111  0.880452  1
  Y  Y14  1  0.554983  0.330920  0.892319  1
  Y  Y15  1  0.054983  0.169080  0.607681  1
  Y  Y16  1  0.220841  0.500967  0.748310  1
  Y  Y17  1  0.720841  0.999033  0.751690  1
  Y  Y18  1  0.779416  0.499427  0.248449  1
  Y  Y19  1  0.279416  0.000573  0.251551  1
  Sn  Sn20  1  0.726354  0.975603  0.955655  1
  Sn  Sn21  1  0.226354  0.524397  0.544345  1
  Sn  Sn22  1  0.273529  0.024982  0.455490  1
  Sn  Sn23  1  0.773529  0.475018  0.044510  1
  Sn  Sn24  1  0.585714  0.627045  0.748636  1
  Sn  Sn25  1  0.085714  0.872955  0.751364  1
  Sn  Sn26  1  0.414604  0.372673  0.249059  1
  Sn  Sn27  1  0.914604  0.127327  0.250941  1
  Sn  Sn28  1  0.355457  0.143868  0.751030  1
  Sn  Sn29  1  0.855457  0.356132  0.748970  1
  Sn  Sn30  1  0.644660  0.856426  0.251157  1
  Sn  Sn31  1  0.144660  0.643574  0.248843  1
  Sb  Sb32  1  0.269396  0.020277  0.045973  1
  Sb  Sb33  1  0.769396  0.479723  0.454027  1
  Sb  Sb34  1  0.730333  0.978745  0.546081  1
  Sb  Sb35  1  0.230333  0.521255  0.953919  1
