# generated using pymatgen
data_Ce(ErRu)2
_symmetry_space_group_name_H-M   'P 1'
_cell_length_a   5.79377394
_cell_length_b   5.79377438
_cell_length_c   5.79377427
_cell_angle_alpha   137.61795382
_cell_angle_beta   118.41934155
_cell_angle_gamma   77.60865987
_symmetry_Int_Tables_number   1
_chemical_formula_structural   Ce(ErRu)2
_chemical_formula_sum   'Ce1 Er2 Ru2'
_cell_volume   112.17857522
_cell_formula_units_Z   1
loop_
 _symmetry_equiv_pos_site_id
 _symmetry_equiv_pos_as_xyz
  1  'x, y, z'
loop_
 _atom_site_type_symbol
 _atom_site_label
 _atom_site_symmetry_multiplicity
 _atom_site_fract_x
 _atom_site_fract_y
 _atom_site_fract_z
 _atom_site_occupancy
  Ce  Ce0  1  0.000000  0.000000  0.000000  1
  Er  Er1  1  0.692069  0.192070  0.500000  1
  Er  Er2  1  0.307930  0.807930  0.500000  1
  Ru  Ru3  1  0.739860  0.500000  0.239860  1
  Ru  Ru4  1  0.260139  0.500000  0.760139  1
