# generated using pymatgen
data_Nb2CrReSi2
_symmetry_space_group_name_H-M   'P 1'
_cell_length_a   7.55998962
_cell_length_b   7.54107031
_cell_length_c   7.56004381
_cell_angle_alpha   126.82737621
_cell_angle_beta   127.97774123
_cell_angle_gamma   77.65052840
_symmetry_Int_Tables_number   1
_chemical_formula_structural   Nb2CrReSi2
_chemical_formula_sum   'Nb6 Cr3 Re3 Si6'
_cell_volume   263.60999106
_cell_formula_units_Z   3
loop_
 _symmetry_equiv_pos_site_id
 _symmetry_equiv_pos_as_xyz
  1  'x, y, z'
loop_
 _atom_site_type_symbol
 _atom_site_label
 _atom_site_symmetry_multiplicity
 _atom_site_fract_x
 _atom_site_fract_y
 _atom_site_fract_z
 _atom_site_occupancy
  Nb  Nb0  1  0.548327  0.091933  0.040093  1
  Nb  Nb1  1  0.444908  0.493943  0.544426  1
  Nb  Nb2  1  0.949461  0.493895  0.048958  1
  Nb  Nb3  1  0.051844  0.092041  0.543600  1
  Nb  Nb4  1  0.751871  0.906785  0.656096  1
  Nb  Nb5  1  0.250680  0.906802  0.154888  1
  Cr  Cr6  1  0.499923  0.242469  0.742718  1
  Cr  Cr7  1  0.000060  0.240301  0.240714  1
  Cr  Cr8  1  0.127072  0.752504  0.624882  1
  Re  Re9  1  0.872712  0.498129  0.625528  1
  Re  Re10  1  0.626779  0.752176  0.125542  1
  Re  Re11  1  0.373367  0.497646  0.124244  1
  Si  Si12  1  0.756682  0.491587  0.244643  1
  Si  Si13  1  0.247080  0.491879  0.735087  1
  Si  Si14  1  0.332890  0.831027  0.498073  1
  Si  Si15  1  0.666427  0.166583  0.500143  1
  Si  Si16  1  0.833994  0.831698  0.997726  1
  Si  Si17  1  0.165922  0.160800  0.994838  1
