# generated using pymatgen
data_CsBaCrS4
_symmetry_space_group_name_H-M   'P 1'
_cell_length_a   6.83955700
_cell_length_b   10.26371400
_cell_length_c   12.01847400
_cell_angle_alpha   90.00000000
_cell_angle_beta   90.00000000
_cell_angle_gamma   90.00000000
_symmetry_Int_Tables_number   1
_chemical_formula_structural   CsBaCrS4
_chemical_formula_sum   'Cs4 Ba4 Cr4 S16'
_cell_volume   843.68794429
_cell_formula_units_Z   4
loop_
 _symmetry_equiv_pos_site_id
 _symmetry_equiv_pos_as_xyz
  1  'x, y, z'
loop_
 _atom_site_type_symbol
 _atom_site_label
 _atom_site_symmetry_multiplicity
 _atom_site_fract_x
 _atom_site_fract_y
 _atom_site_fract_z
 _atom_site_occupancy
  Cs  Cs0  1  0.250000  0.858893  0.928756  1
  Cs  Cs1  1  0.250000  0.641107  0.428756  1
  Cs  Cs2  1  0.750000  0.141107  0.071244  1
  Cs  Cs3  1  0.750000  0.358893  0.571244  1
  Ba  Ba4  1  0.250000  0.401570  0.851824  1
  Ba  Ba5  1  0.250000  0.098430  0.351824  1
  Ba  Ba6  1  0.750000  0.598430  0.148176  1
  Ba  Ba7  1  0.750000  0.901570  0.648176  1
  Cr  Cr8  1  0.250000  0.115630  0.674244  1
  Cr  Cr9  1  0.250000  0.384370  0.174244  1
  Cr  Cr10  1  0.750000  0.884370  0.325756  1
  Cr  Cr11  1  0.750000  0.615630  0.825756  1
  S  S12  1  0.000445  0.127308  0.778288  1
  S  S13  1  0.499555  0.372692  0.278288  1
  S  S14  1  0.500445  0.872692  0.221712  1
  S  S15  1  0.999555  0.627308  0.721712  1
  S  S16  1  0.999555  0.872692  0.221712  1
  S  S17  1  0.500445  0.627308  0.721712  1
  S  S18  1  0.499555  0.127308  0.778288  1
  S  S19  1  0.000445  0.372692  0.278288  1
  S  S20  1  0.250000  0.281367  0.566981  1
  S  S21  1  0.250000  0.218633  0.066981  1
  S  S22  1  0.750000  0.718633  0.433019  1
  S  S23  1  0.750000  0.781367  0.933019  1
  S  S24  1  0.250000  0.937321  0.583100  1
  S  S25  1  0.250000  0.562679  0.083100  1
  S  S26  1  0.750000  0.062679  0.416900  1
  S  S27  1  0.750000  0.437321  0.916900  1
