# generated using pymatgen
data_Dy5Y3(Ti3Si4)4
_symmetry_space_group_name_H-M   'P 1'
_cell_length_a   7.06233815
_cell_length_b   7.06228913
_cell_length_c   12.97364903
_cell_angle_alpha   89.99970751
_cell_angle_beta   90.00743426
_cell_angle_gamma   90.02227801
_symmetry_Int_Tables_number   1
_chemical_formula_structural   Dy5Y3(Ti3Si4)4
_chemical_formula_sum   'Dy5 Y3 Ti12 Si16'
_cell_volume   647.07721880
_cell_formula_units_Z   1
loop_
 _symmetry_equiv_pos_site_id
 _symmetry_equiv_pos_as_xyz
  1  'x, y, z'
loop_
 _atom_site_type_symbol
 _atom_site_label
 _atom_site_symmetry_multiplicity
 _atom_site_fract_x
 _atom_site_fract_y
 _atom_site_fract_z
 _atom_site_occupancy
  Dy  Dy0  1  0.159815  0.502573  0.783419  1
  Dy  Dy1  1  0.840173  0.497395  0.283400  1
  Dy  Dy2  1  0.502592  0.159824  0.216636  1
  Dy  Dy3  1  0.497367  0.840207  0.716551  1
  Dy  Dy4  1  0.340420  0.002450  0.466584  1
  Y  Y5  1  0.997405  0.659684  0.033345  1
  Y  Y6  1  0.002703  0.340239  0.533324  1
  Y  Y7  1  0.659700  0.997410  0.966650  1
  Ti  Ti8  1  0.347923  0.508602  0.373393  1
  Ti  Ti9  1  0.847737  0.991375  0.376465  1
  Ti  Ti10  1  0.008607  0.152213  0.123516  1
  Ti  Ti11  1  0.991484  0.847824  0.623480  1
  Ti  Ti12  1  0.508608  0.347803  0.626543  1
  Ti  Ti13  1  0.152204  0.008664  0.876474  1
  Ti  Ti14  1  0.672960  0.673176  0.499969  1
  Ti  Ti15  1  0.826979  0.173071  0.750012  1
  Ti  Ti16  1  0.173121  0.827010  0.250083  1
  Ti  Ti17  1  0.326816  0.326845  0.000019  1
  Ti  Ti18  1  0.491424  0.652055  0.126570  1
  Ti  Ti19  1  0.652121  0.491412  0.873410  1
  Si  Si20  1  0.047157  0.709306  0.435034  1
  Si  Si21  1  0.953052  0.290764  0.935024  1
  Si  Si22  1  0.708984  0.046973  0.564961  1
  Si  Si23  1  0.209396  0.452667  0.185205  1
  Si  Si24  1  0.790578  0.547272  0.685177  1
  Si  Si25  1  0.452639  0.209385  0.814800  1
  Si  Si26  1  0.547115  0.790732  0.314959  1
  Si  Si27  1  0.290762  0.953062  0.064971  1
  Si  Si28  1  0.797445  0.870068  0.184857  1
  Si  Si29  1  0.297662  0.630258  0.565273  1
  Si  Si30  1  0.702439  0.369899  0.065360  1
  Si  Si31  1  0.629874  0.297480  0.434680  1
  Si  Si32  1  0.369881  0.702455  0.934657  1
  Si  Si33  1  0.130154  0.202506  0.315199  1
  Si  Si34  1  0.202626  0.129881  0.684858  1
  Si  Si35  1  0.870074  0.797456  0.815141  1
