# generated using pymatgen
data_NdTh3(Ga5Rh3)2
_symmetry_space_group_name_H-M   'P 1'
_cell_length_a   8.66749060
_cell_length_b   8.71335945
_cell_length_c   5.77237983
_cell_angle_alpha   70.62430155
_cell_angle_beta   70.53289196
_cell_angle_gamma   95.16235975
_symmetry_Int_Tables_number   1
_chemical_formula_structural   NdTh3(Ga5Rh3)2
_chemical_formula_sum   'Nd1 Th3 Ga10 Rh6'
_cell_volume   377.76170602
_cell_formula_units_Z   1
loop_
 _symmetry_equiv_pos_site_id
 _symmetry_equiv_pos_as_xyz
  1  'x, y, z'
loop_
 _atom_site_type_symbol
 _atom_site_label
 _atom_site_symmetry_multiplicity
 _atom_site_fract_x
 _atom_site_fract_y
 _atom_site_fract_z
 _atom_site_occupancy
  Nd  Nd0  1  0.588762  0.861846  0.274528  1
  Th  Th1  1  0.862113  0.585006  0.776565  1
  Th  Th2  1  0.416516  0.137673  0.722694  1
  Th  Th3  1  0.137872  0.414934  0.223443  1
  Ga  Ga4  1  0.075952  0.257806  0.832373  1
  Ga  Ga5  1  0.738876  0.922475  0.670362  1
  Ga  Ga6  1  0.923511  0.742841  0.167204  1
  Ga  Ga7  1  0.259637  0.076859  0.331073  1
  Ga  Ga8  1  0.207340  0.794480  0.748126  1
  Ga  Ga9  1  0.793013  0.204467  0.249738  1
  Ga  Ga10  1  0.500820  0.501396  0.745837  1
  Ga  Ga11  1  0.499873  0.502210  0.252038  1
  Ga  Ga12  1  0.792005  0.205234  0.752789  1
  Ga  Ga13  1  0.207788  0.793839  0.250099  1
  Rh  Rh14  1  0.251633  0.549850  0.601259  1
  Rh  Rh15  1  0.445451  0.740656  0.905278  1
  Rh  Rh16  1  0.747506  0.449250  0.399947  1
  Rh  Rh17  1  0.549845  0.258850  0.097461  1
  Rh  Rh18  1  0.000981  0.000213  0.749233  1
  Rh  Rh19  1  0.000506  0.000116  0.249951  1
