# generated using pymatgen
data_Sr3Sm(Al3Pd)6
_symmetry_space_group_name_H-M   'P 1'
_cell_length_a   7.72819100
_cell_length_b   7.73474420
_cell_length_c   9.67230500
_cell_angle_alpha   90.00000000
_cell_angle_beta   90.00000000
_cell_angle_gamma   119.46174797
_symmetry_Int_Tables_number   1
_chemical_formula_structural   Sr3Sm(Al3Pd)6
_chemical_formula_sum   'Sr3 Sm1 Al18 Pd6'
_cell_volume   503.40146701
_cell_formula_units_Z   1
loop_
 _symmetry_equiv_pos_site_id
 _symmetry_equiv_pos_as_xyz
  1  'x, y, z'
loop_
 _atom_site_type_symbol
 _atom_site_label
 _atom_site_symmetry_multiplicity
 _atom_site_fract_x
 _atom_site_fract_y
 _atom_site_fract_z
 _atom_site_occupancy
  Sr  Sr0  1  0.994477  0.669110  0.250000  1
  Sr  Sr1  1  0.002990  0.330584  0.750000  1
  Sr  Sr2  1  0.670899  0.995882  0.250000  1
  Sm  Sm3  1  0.330014  0.002765  0.750000  1
  Al  Al4  1  0.137520  0.135510  0.250000  1
  Al  Al5  1  0.870457  0.866917  0.750000  1
  Al  Al6  1  0.005862  0.335025  0.072023  1
  Al  Al7  1  0.998905  0.667531  0.921986  1
  Al  Al8  1  0.998905  0.667531  0.578014  1
  Al  Al9  1  0.334613  0.003988  0.430851  1
  Al  Al10  1  0.005862  0.335025  0.427977  1
  Al  Al11  1  0.662943  0.996892  0.577862  1
  Al  Al12  1  0.662943  0.996892  0.922138  1
  Al  Al13  1  0.334613  0.003988  0.069149  1
  Al  Al14  1  0.334612  0.332345  0.557094  1
  Al  Al15  1  0.663471  0.663535  0.454467  1
  Al  Al16  1  0.663471  0.663535  0.045533  1
  Al  Al17  1  0.334612  0.332345  0.942906  1
  Al  Al18  1  0.341167  0.542876  0.250000  1
  Al  Al19  1  0.653013  0.452688  0.750000  1
  Al  Al20  1  0.540445  0.339339  0.250000  1
  Al  Al21  1  0.458391  0.665779  0.750000  1
  Pd  Pd22  1  0.670456  0.328668  0.998105  1
  Pd  Pd23  1  0.328792  0.670857  0.997870  1
  Pd  Pd24  1  0.328792  0.670857  0.502130  1
  Pd  Pd25  1  0.670456  0.328668  0.501895  1
  Pd  Pd26  1  0.000657  0.000433  0.997805  1
  Pd  Pd27  1  0.000657  0.000433  0.502195  1
