# generated using pymatgen
data_TbY3ThRu2
_symmetry_space_group_name_H-M   'P 1'
_cell_length_a   6.46055649
_cell_length_b   7.24594318
_cell_length_c   8.71579216
_cell_angle_alpha   96.37537990
_cell_angle_beta   111.75407192
_cell_angle_gamma   90.00000044
_symmetry_Int_Tables_number   1
_chemical_formula_structural   TbY3ThRu2
_chemical_formula_sum   'Tb2 Y6 Th2 Ru4'
_cell_volume   376.23555948
_cell_formula_units_Z   2
loop_
 _symmetry_equiv_pos_site_id
 _symmetry_equiv_pos_as_xyz
  1  'x, y, z'
loop_
 _atom_site_type_symbol
 _atom_site_label
 _atom_site_symmetry_multiplicity
 _atom_site_fract_x
 _atom_site_fract_y
 _atom_site_fract_z
 _atom_site_occupancy
  Tb  Tb0  1  0.021924  0.086041  0.814387  1
  Tb  Tb1  1  0.207538  0.413959  0.185613  1
  Y  Y2  1  0.642631  0.816891  0.431992  1
  Y  Y3  1  0.210639  0.683109  0.568008  1
  Y  Y4  1  0.354744  0.187613  0.568029  1
  Y  Y5  1  0.786715  0.312387  0.431971  1
  Y  Y6  1  0.425886  0.750000  0.000000  1
  Y  Y7  1  0.579162  0.250000  0.000000  1
  Th  Th8  1  0.992243  0.906293  0.192620  1
  Th  Th9  1  0.799623  0.593707  0.807380  1
  Ru  Ru10  1  0.833787  0.587580  0.218466  1
  Ru  Ru11  1  0.615319  0.912420  0.781534  1
  Ru  Ru12  1  0.153939  0.428762  0.778089  1
  Ru  Ru13  1  0.375850  0.071238  0.221911  1
