# generated using pymatgen
data_Tb20HgIrRu10
_symmetry_space_group_name_H-M   'P 1'
_cell_length_a   10.92342121
_cell_length_b   10.92342128
_cell_length_c   6.43075514
_cell_angle_alpha   89.93402549
_cell_angle_beta   89.93402442
_cell_angle_gamma   89.54435270
_symmetry_Int_Tables_number   1
_chemical_formula_structural   Tb20HgIrRu10
_chemical_formula_sum   'Tb20 Hg1 Ir1 Ru10'
_cell_volume   767.29970784
_cell_formula_units_Z   1
loop_
 _symmetry_equiv_pos_site_id
 _symmetry_equiv_pos_as_xyz
  1  'x, y, z'
loop_
 _atom_site_type_symbol
 _atom_site_label
 _atom_site_symmetry_multiplicity
 _atom_site_fract_x
 _atom_site_fract_y
 _atom_site_fract_z
 _atom_site_occupancy
  Tb  Tb0  1  0.288984  0.086088  0.377312  1
  Tb  Tb1  1  0.295732  0.912799  0.877681  1
  Tb  Tb2  1  0.700767  0.081195  0.856154  1
  Tb  Tb3  1  0.702798  0.903078  0.381676  1
  Tb  Tb4  1  0.587142  0.791002  0.879603  1
  Tb  Tb5  1  0.572552  0.209012  0.375758  1
  Tb  Tb6  1  0.411596  0.791679  0.378162  1
  Tb  Tb7  1  0.411592  0.208495  0.880015  1
  Tb  Tb8  1  0.208998  0.412858  0.620397  1
  Tb  Tb9  1  0.208321  0.588404  0.121838  1
  Tb  Tb10  1  0.790988  0.427448  0.124242  1
  Tb  Tb11  1  0.791505  0.588408  0.619985  1
  Tb  Tb12  1  0.913912  0.711016  0.122688  1
  Tb  Tb13  1  0.918805  0.299233  0.643846  1
  Tb  Tb14  1  0.087201  0.704268  0.622319  1
  Tb  Tb15  1  0.096922  0.297202  0.118324  1
  Tb  Tb16  1  0.005560  0.991897  0.504997  1
  Tb  Tb17  1  0.008103  0.994440  0.995003  1
  Tb  Tb18  1  0.500813  0.499577  0.999035  1
  Tb  Tb19  1  0.500423  0.499187  0.500965  1
  Hg  Hg20  1  0.842107  0.157893  0.250000  1
  Ir  Ir21  1  0.346453  0.653547  0.750000  1
  Ru  Ru22  1  0.849150  0.847971  0.750717  1
  Ru  Ru23  1  0.152029  0.150850  0.749283  1
  Ru  Ru24  1  0.154787  0.845213  0.250000  1
  Ru  Ru25  1  0.654199  0.345801  0.750000  1
  Ru  Ru26  1  0.650455  0.652427  0.251116  1
  Ru  Ru27  1  0.347573  0.349545  0.248884  1
  Ru  Ru28  1  0.499689  0.998760  0.125268  1
  Ru  Ru29  1  0.498685  0.999079  0.622020  1
  Ru  Ru30  1  0.000921  0.501315  0.877980  1
  Ru  Ru31  1  0.001240  0.500311  0.374732  1
