# generated using pymatgen
data_Lu4Sc6Si5As
_symmetry_space_group_name_H-M   'P 1'
_cell_length_a   8.04875600
_cell_length_b   8.08501396
_cell_length_c   5.88811700
_cell_angle_alpha   90.00000000
_cell_angle_beta   90.00000000
_cell_angle_gamma   119.85176158
_symmetry_Int_Tables_number   1
_chemical_formula_structural   Lu4Sc6Si5As
_chemical_formula_sum   'Lu4 Sc6 Si5 As1'
_cell_volume   332.32528753
_cell_formula_units_Z   1
loop_
 _symmetry_equiv_pos_site_id
 _symmetry_equiv_pos_as_xyz
  1  'x, y, z'
loop_
 _atom_site_type_symbol
 _atom_site_label
 _atom_site_symmetry_multiplicity
 _atom_site_fract_x
 _atom_site_fract_y
 _atom_site_fract_z
 _atom_site_occupancy
  Lu  Lu0  1  0.759145  0.000000  0.750000  1
  Lu  Lu1  1  0.995393  0.752826  0.750000  1
  Lu  Lu2  1  0.242568  0.247174  0.750000  1
  Lu  Lu3  1  0.241836  0.000000  0.250000  1
  Sc  Sc4  1  0.669814  0.336664  0.002904  1
  Sc  Sc5  1  0.333150  0.663336  0.497096  1
  Sc  Sc6  1  0.333150  0.663336  0.002904  1
  Sc  Sc7  1  0.669814  0.336664  0.497096  1
  Sc  Sc8  1  0.755177  0.755046  0.250000  1
  Sc  Sc9  1  0.000131  0.244954  0.250000  1
  Si  Si10  1  0.395605  0.397492  0.250000  1
  Si  Si11  1  0.998112  0.602508  0.250000  1
  Si  Si12  1  0.999039  0.398185  0.750000  1
  Si  Si13  1  0.600855  0.601815  0.750000  1
  Si  Si14  1  0.611394  0.000000  0.250000  1
  As  As15  1  0.394816  0.000000  0.750000  1
