# generated using pymatgen
data_Ca2BBrO3
_symmetry_space_group_name_H-M   'P 1'
_cell_length_a   8.91572000
_cell_length_b   4.09343883
_cell_length_c   12.54423826
_cell_angle_alpha   79.46117326
_cell_angle_beta   90.00000000
_cell_angle_gamma   90.00000000
_symmetry_Int_Tables_number   1
_chemical_formula_structural   Ca2BBrO3
_chemical_formula_sum   'Ca8 B4 Br4 O12'
_cell_volume   450.09117064
_cell_formula_units_Z   4
loop_
 _symmetry_equiv_pos_site_id
 _symmetry_equiv_pos_as_xyz
  1  'x, y, z'
loop_
 _atom_site_type_symbol
 _atom_site_label
 _atom_site_symmetry_multiplicity
 _atom_site_fract_x
 _atom_site_fract_y
 _atom_site_fract_z
 _atom_site_occupancy
  Ca  Ca0  1  0.613761  0.672470  0.883010  1
  Ca  Ca1  1  0.386239  0.327530  0.116990  1
  Ca  Ca2  1  0.126551  0.706702  0.856112  1
  Ca  Ca3  1  0.886239  0.672470  0.383010  1
  Ca  Ca4  1  0.626551  0.293298  0.643888  1
  Ca  Ca5  1  0.373449  0.706702  0.356112  1
  Ca  Ca6  1  0.873449  0.293298  0.143888  1
  Ca  Ca7  1  0.113761  0.327530  0.616990  1
  B  B8  1  0.633090  0.711974  0.156017  1
  B  B9  1  0.866910  0.711974  0.656017  1
  B  B10  1  0.366910  0.288026  0.843983  1
  B  B11  1  0.133090  0.288026  0.343983  1
  Br  Br12  1  0.871204  0.196766  0.909311  1
  Br  Br13  1  0.128796  0.803234  0.090689  1
  Br  Br14  1  0.371204  0.803234  0.590689  1
  Br  Br15  1  0.628796  0.196766  0.409311  1
  O  O16  1  0.491487  0.803398  0.187003  1
  O  O17  1  0.991487  0.196602  0.312997  1
  O  O18  1  0.767784  0.775789  0.204370  1
  O  O19  1  0.638727  0.521812  0.073883  1
  O  O20  1  0.008513  0.803398  0.687003  1
  O  O21  1  0.732216  0.775789  0.704370  1
  O  O22  1  0.508513  0.196602  0.812997  1
  O  O23  1  0.267784  0.224211  0.295630  1
  O  O24  1  0.361273  0.478188  0.926117  1
  O  O25  1  0.138727  0.478188  0.426117  1
  O  O26  1  0.861273  0.521812  0.573883  1
  O  O27  1  0.232216  0.224211  0.795630  1
