# generated using pymatgen
data_YbMnO2
_symmetry_space_group_name_H-M   'P 1'
_cell_length_a   5.70565494
_cell_length_b   6.45014005
_cell_length_c   5.70264188
_cell_angle_alpha   90.00259870
_cell_angle_beta   69.93662456
_cell_angle_gamma   89.99729883
_symmetry_Int_Tables_number   1
_chemical_formula_structural   YbMnO2
_chemical_formula_sum   'Yb4 Mn4 O8'
_cell_volume   197.13394729
_cell_formula_units_Z   4
loop_
 _symmetry_equiv_pos_site_id
 _symmetry_equiv_pos_as_xyz
  1  'x, y, z'
loop_
 _atom_site_type_symbol
 _atom_site_label
 _atom_site_symmetry_multiplicity
 _atom_site_fract_x
 _atom_site_fract_y
 _atom_site_fract_z
 _atom_site_occupancy
  Yb  Yb0  1  0.969119  0.884406  0.531503  1
  Yb  Yb1  1  0.469120  0.884389  0.031503  1
  Yb  Yb2  1  0.969110  0.615601  0.031514  1
  Yb  Yb3  1  0.469110  0.615615  0.531514  1
  Mn  Mn4  1  0.469786  0.375470  0.032350  1
  Mn  Mn5  1  0.469809  0.124516  0.532330  1
  Mn  Mn6  1  0.969789  0.375502  0.532353  1
  Mn  Mn7  1  0.969815  0.124497  0.032326  1
  O  O8  1  0.217363  0.137023  0.279803  1
  O  O9  1  0.717364  0.137023  0.779802  1
  O  O10  1  0.217394  0.362984  0.779773  1
  O  O11  1  0.717396  0.362984  0.279773  1
  O  O12  1  0.218809  0.879666  0.781263  1
  O  O13  1  0.718811  0.879668  0.281260  1
  O  O14  1  0.218877  0.620343  0.281197  1
  O  O15  1  0.718879  0.620344  0.781195  1
