# generated using pymatgen
data_HoEr3Mg2(Ni7B2)2
_symmetry_space_group_name_H-M   'P 1'
_cell_length_a   4.98111900
_cell_length_b   4.98111824
_cell_length_c   14.17890200
_cell_angle_alpha   90.00000000
_cell_angle_beta   90.00000000
_cell_angle_gamma   119.99999843
_symmetry_Int_Tables_number   1
_chemical_formula_structural   HoEr3Mg2(Ni7B2)2
_chemical_formula_sum   'Ho1 Er3 Mg2 Ni14 B4'
_cell_volume   304.66811620
_cell_formula_units_Z   1
loop_
 _symmetry_equiv_pos_site_id
 _symmetry_equiv_pos_as_xyz
  1  'x, y, z'
loop_
 _atom_site_type_symbol
 _atom_site_label
 _atom_site_symmetry_multiplicity
 _atom_site_fract_x
 _atom_site_fract_y
 _atom_site_fract_z
 _atom_site_occupancy
  Ho  Ho0  1  0.666667  0.333333  0.530134  1
  Er  Er1  1  0.333333  0.666667  0.029881  1
  Er  Er2  1  0.666667  0.333333  0.755832  1
  Er  Er3  1  0.333333  0.666667  0.255224  1
  Mg  Mg4  1  0.333333  0.666667  0.467418  1
  Mg  Mg5  1  0.666667  0.333333  0.967947  1
  Ni  Ni6  1  0.834454  0.165546  0.352638  1
  Ni  Ni7  1  0.834454  0.668909  0.352638  1
  Ni  Ni8  1  0.000000  0.000000  0.998794  1
  Ni  Ni9  1  0.000000  0.000000  0.498654  1
  Ni  Ni10  1  0.833702  0.667403  0.147118  1
  Ni  Ni11  1  0.166390  0.833610  0.647529  1
  Ni  Ni12  1  0.667220  0.833610  0.647529  1
  Ni  Ni13  1  0.332597  0.166298  0.147118  1
  Ni  Ni14  1  0.833702  0.166298  0.147118  1
  Ni  Ni15  1  0.165502  0.331005  0.853081  1
  Ni  Ni16  1  0.165502  0.834498  0.853081  1
  Ni  Ni17  1  0.166390  0.332780  0.647529  1
  Ni  Ni18  1  0.668995  0.834498  0.853081  1
  Ni  Ni19  1  0.331091  0.165546  0.352638  1
  B  B20  1  0.666667  0.333333  0.249576  1
  B  B21  1  0.333333  0.666667  0.750018  1
  B  B22  1  0.000000  0.000000  0.747839  1
  B  B23  1  0.000000  0.000000  0.247587  1
