# generated using pymatgen
data_TbThCo2(Ni3B)2
_symmetry_space_group_name_H-M   'P 1'
_cell_length_a   4.98616699
_cell_length_b   4.98616821
_cell_length_c   6.97932200
_cell_angle_alpha   90.00000000
_cell_angle_beta   90.00000000
_cell_angle_gamma   119.75938666
_symmetry_Int_Tables_number   1
_chemical_formula_structural   TbThCo2(Ni3B)2
_chemical_formula_sum   'Tb1 Th1 Co2 Ni6 B2'
_cell_volume   150.63486251
_cell_formula_units_Z   1
loop_
 _symmetry_equiv_pos_site_id
 _symmetry_equiv_pos_as_xyz
  1  'x, y, z'
loop_
 _atom_site_type_symbol
 _atom_site_label
 _atom_site_symmetry_multiplicity
 _atom_site_fract_x
 _atom_site_fract_y
 _atom_site_fract_z
 _atom_site_occupancy
  Tb  Tb0  1  0.000000  0.000000  0.499172  1
  Th  Th1  1  0.000000  0.000000  0.008492  1
  Co  Co2  1  0.500000  0.000000  0.295654  1
  Co  Co3  1  0.000000  0.500000  0.295654  1
  Ni  Ni4  1  0.329968  0.670032  0.999731  1
  Ni  Ni5  1  0.670032  0.329968  0.999731  1
  Ni  Ni6  1  0.500000  0.500000  0.291694  1
  Ni  Ni7  1  0.500000  0.000000  0.705239  1
  Ni  Ni8  1  0.500000  0.500000  0.706524  1
  Ni  Ni9  1  0.000000  0.500000  0.705239  1
  B  B10  1  0.668625  0.331375  0.496435  1
  B  B11  1  0.331375  0.668625  0.496435  1
