# generated using pymatgen
data_BaCr2NiO8
_symmetry_space_group_name_H-M   'P 1'
_cell_length_a   5.55691603
_cell_length_b   9.09055942
_cell_length_c   8.78614763
_cell_angle_alpha   64.81082243
_cell_angle_beta   89.99948435
_cell_angle_gamma   107.80139999
_symmetry_Int_Tables_number   1
_chemical_formula_structural   BaCr2NiO8
_chemical_formula_sum   'Ba2 Cr4 Ni2 O16'
_cell_volume   378.01507453
_cell_formula_units_Z   2
loop_
 _symmetry_equiv_pos_site_id
 _symmetry_equiv_pos_as_xyz
  1  'x, y, z'
loop_
 _atom_site_type_symbol
 _atom_site_label
 _atom_site_symmetry_multiplicity
 _atom_site_fract_x
 _atom_site_fract_y
 _atom_site_fract_z
 _atom_site_occupancy
  Ba  Ba0  1  0.499960  0.000018  0.500010  1
  Ba  Ba1  1  0.000028  0.000034  0.999928  1
  Cr  Cr2  1  0.643817  0.287664  0.987161  1
  Cr  Cr3  1  0.143751  0.287543  0.487038  1
  Cr  Cr4  1  0.856153  0.712412  0.512871  1
  Cr  Cr5  1  0.356265  0.712322  0.012969  1
  Ni  Ni6  1  0.750400  0.500081  0.250163  1
  Ni  Ni7  1  0.249858  0.500041  0.749847  1
  O  O8  1  0.544660  0.089367  0.147483  1
  O  O9  1  0.044491  0.089220  0.647365  1
  O  O10  1  0.955325  0.910644  0.352407  1
  O  O11  1  0.455335  0.910632  0.852667  1
  O  O12  1  0.717986  0.435982  0.054333  1
  O  O13  1  0.217767  0.435852  0.554184  1
  O  O14  1  0.781991  0.563944  0.445949  1
  O  O15  1  0.282104  0.564139  0.945671  1
  O  O16  1  0.902451  0.306981  0.870768  1
  O  O17  1  0.402531  0.307038  0.370664  1
  O  O18  1  0.597405  0.693070  0.629190  1
  O  O19  1  0.097604  0.693024  0.129338  1
  O  O20  1  0.404657  0.307054  0.870678  1
  O  O21  1  0.904434  0.306905  0.370645  1
  O  O22  1  0.095505  0.693104  0.629250  1
  O  O23  1  0.595523  0.692931  0.129418  1
