# generated using pymatgen
data_Dy2HoLu2Pb3
_symmetry_space_group_name_H-M   'P 1'
_cell_length_a   6.52438200
_cell_length_b   9.00043421
_cell_length_c   9.00265610
_cell_angle_alpha   119.99293803
_cell_angle_beta   90.00006729
_cell_angle_gamma   90.00037902
_symmetry_Int_Tables_number   1
_chemical_formula_structural   Dy2HoLu2Pb3
_chemical_formula_sum   'Dy4 Ho2 Lu4 Pb6'
_cell_volume   457.86245755
_cell_formula_units_Z   2
loop_
 _symmetry_equiv_pos_site_id
 _symmetry_equiv_pos_as_xyz
  1  'x, y, z'
loop_
 _atom_site_type_symbol
 _atom_site_label
 _atom_site_symmetry_multiplicity
 _atom_site_fract_x
 _atom_site_fract_y
 _atom_site_fract_z
 _atom_site_occupancy
  Dy  Dy0  1  0.750009  0.237639  0.999998  1
  Dy  Dy1  1  0.749994  0.762325  0.762248  1
  Dy  Dy2  1  0.749999  0.000085  0.237762  1
  Dy  Dy3  1  0.250003  0.762392  0.999994  1
  Ho  Ho4  1  0.249996  0.237669  0.237635  1
  Ho  Ho5  1  0.249997  0.000035  0.762381  1
  Lu  Lu6  1  0.499949  0.333298  0.666672  1
  Lu  Lu7  1  0.499965  0.666632  0.333333  1
  Lu  Lu8  1  0.000028  0.666649  0.333318  1
  Lu  Lu9  1  0.000030  0.333334  0.666670  1
  Pb  Pb10  1  0.749993  0.604026  0.999988  1
  Pb  Pb11  1  0.750012  0.396030  0.396039  1
  Pb  Pb12  1  0.750007  0.999985  0.603945  1
  Pb  Pb13  1  0.250022  0.395691  0.000015  1
  Pb  Pb14  1  0.249991  0.604052  0.603913  1
  Pb  Pb15  1  0.250005  0.000159  0.396091  1
