# generated using pymatgen
data_SrNd6SCl12
_symmetry_space_group_name_H-M   'P 1'
_cell_length_a   8.91452083
_cell_length_b   8.91721809
_cell_length_c   8.91631500
_cell_angle_alpha   106.08554032
_cell_angle_beta   106.02412580
_cell_angle_gamma   106.04637294
_symmetry_Int_Tables_number   1
_chemical_formula_structural   SrNd6SCl12
_chemical_formula_sum   'Sr1 Nd6 S1 Cl12'
_cell_volume   604.89645881
_cell_formula_units_Z   1
loop_
 _symmetry_equiv_pos_site_id
 _symmetry_equiv_pos_as_xyz
  1  'x, y, z'
loop_
 _atom_site_type_symbol
 _atom_site_label
 _atom_site_symmetry_multiplicity
 _atom_site_fract_x
 _atom_site_fract_y
 _atom_site_fract_z
 _atom_site_occupancy
  Sr  Sr0  1  0.500000  0.500000  0.500000  1
  Nd  Nd1  1  0.103484  0.320359  0.020214  1
  Nd  Nd2  1  0.320349  0.020213  0.103550  1
  Nd  Nd3  1  0.020169  0.103704  0.320361  1
  Nd  Nd4  1  0.979830  0.896296  0.679639  1
  Nd  Nd5  1  0.679651  0.979786  0.896449  1
  Nd  Nd6  1  0.896516  0.679641  0.979786  1
  S  S7  1  0.000000  0.000000  0.000000  1
  Cl  Cl8  1  0.226727  0.679234  0.073901  1
  Cl  Cl9  1  0.449893  0.365689  0.144794  1
  Cl  Cl10  1  0.679177  0.073861  0.226622  1
  Cl  Cl11  1  0.926056  0.773476  0.320737  1
  Cl  Cl12  1  0.144847  0.450227  0.365799  1
  Cl  Cl13  1  0.365691  0.145021  0.450068  1
  Cl  Cl14  1  0.634309  0.854979  0.549932  1
  Cl  Cl15  1  0.855152  0.549773  0.634201  1
  Cl  Cl16  1  0.073945  0.226525  0.679264  1
  Cl  Cl17  1  0.320824  0.926140  0.773378  1
  Cl  Cl18  1  0.550106  0.634310  0.855206  1
  Cl  Cl19  1  0.773273  0.320767  0.926099  1
