# generated using pymatgen
data_Cs14Nb2Tl5InSb10
_symmetry_space_group_name_H-M   'P 1'
_cell_length_a   9.47765864
_cell_length_b   10.41463409
_cell_length_c   15.88874100
_cell_angle_alpha   85.65106267
_cell_angle_beta   84.82196608
_cell_angle_gamma   85.55585226
_symmetry_Int_Tables_number   1
_chemical_formula_structural   Cs14Nb2Tl5InSb10
_chemical_formula_sum   'Cs14 Nb2 Tl5 In1 Sb10'
_cell_volume   1553.47645692
_cell_formula_units_Z   1
loop_
 _symmetry_equiv_pos_site_id
 _symmetry_equiv_pos_as_xyz
  1  'x, y, z'
loop_
 _atom_site_type_symbol
 _atom_site_label
 _atom_site_symmetry_multiplicity
 _atom_site_fract_x
 _atom_site_fract_y
 _atom_site_fract_z
 _atom_site_occupancy
  Cs  Cs0  1  0.832478  0.363297  0.646093  1
  Cs  Cs1  1  0.811632  0.817540  0.133368  1
  Cs  Cs2  1  0.243646  0.005263  0.472258  1
  Cs  Cs3  1  0.269289  0.248789  0.255360  1
  Cs  Cs4  1  0.737153  0.503201  0.976440  1
  Cs  Cs5  1  0.259638  0.496383  0.023491  1
  Cs  Cs6  1  0.688209  0.075242  0.885892  1
  Cs  Cs7  1  0.755902  0.992597  0.526276  1
  Cs  Cs8  1  0.732096  0.749488  0.744776  1
  Cs  Cs9  1  0.319343  0.339277  0.605914  1
  Cs  Cs10  1  0.167026  0.636794  0.353934  1
  Cs  Cs11  1  0.184436  0.182414  0.867853  1
  Cs  Cs12  1  0.315277  0.923575  0.115912  1
  Cs  Cs13  1  0.676966  0.663905  0.392607  1
  Nb  Nb14  1  0.355607  0.606144  0.772724  1
  Nb  Nb15  1  0.646334  0.393348  0.227127  1
  Tl  Tl16  1  0.055230  0.818075  0.869613  1
  Tl  Tl17  1  0.946700  0.182144  0.129892  1
  Tl  Tl18  1  0.366545  0.955458  0.702615  1
  Tl  Tl19  1  0.090693  0.725123  0.620479  1
  Tl  Tl20  1  0.910320  0.276923  0.380457  1
  In  In21  1  0.638940  0.052448  0.296114  1
  Sb  Sb22  1  0.921405  0.454654  0.210129  1
  Sb  Sb23  1  0.618357  0.198022  0.123039  1
  Sb  Sb24  1  0.080235  0.546010  0.789795  1
  Sb  Sb25  1  0.579394  0.297767  0.390946  1
  Sb  Sb26  1  0.421675  0.698500  0.608344  1
  Sb  Sb27  1  0.023249  0.011948  0.697689  1
  Sb  Sb28  1  0.514267  0.393975  0.809633  1
  Sb  Sb29  1  0.483879  0.602640  0.189937  1
  Sb  Sb30  1  0.383315  0.798613  0.878829  1
  Sb  Sb31  1  0.970765  0.990442  0.302467  1
