# generated using pymatgen
data_TbTm2Lu17Bi12
_symmetry_space_group_name_H-M   'P 1'
_cell_length_a   8.14360809
_cell_length_b   9.38958700
_cell_length_c   11.82025195
_cell_angle_alpha   90.00000000
_cell_angle_beta   89.98557814
_cell_angle_gamma   90.00000000
_symmetry_Int_Tables_number   1
_chemical_formula_structural   TbTm2Lu17Bi12
_chemical_formula_sum   'Tb1 Tm2 Lu17 Bi12'
_cell_volume   903.83691543
_cell_formula_units_Z   1
loop_
 _symmetry_equiv_pos_site_id
 _symmetry_equiv_pos_as_xyz
  1  'x, y, z'
loop_
 _atom_site_type_symbol
 _atom_site_label
 _atom_site_symmetry_multiplicity
 _atom_site_fract_x
 _atom_site_fract_y
 _atom_site_fract_z
 _atom_site_occupancy
  Tb  Tb0  1  0.812815  0.750000  0.217832  1
  Tm  Tm1  1  0.312650  0.750000  0.282702  1
  Tm  Tm2  1  0.687816  0.250000  0.717097  1
  Lu  Lu3  1  0.024306  0.250000  0.511396  1
  Lu  Lu4  1  0.976094  0.750000  0.489341  1
  Lu  Lu5  1  0.475703  0.750000  0.010607  1
  Lu  Lu6  1  0.523978  0.250000  0.988606  1
  Lu  Lu7  1  0.354994  0.250000  0.281867  1
  Lu  Lu8  1  0.644664  0.750000  0.718191  1
  Lu  Lu9  1  0.144908  0.750000  0.781728  1
  Lu  Lu10  1  0.855190  0.250000  0.217999  1
  Lu  Lu11  1  0.188034  0.250000  0.783234  1
  Lu  Lu12  1  0.193112  0.067043  0.060105  1
  Lu  Lu13  1  0.806597  0.932891  0.939676  1
  Lu  Lu14  1  0.306612  0.932860  0.560294  1
  Lu  Lu15  1  0.806597  0.567109  0.939676  1
  Lu  Lu16  1  0.693297  0.067123  0.439937  1
  Lu  Lu17  1  0.193112  0.432957  0.060105  1
  Lu  Lu18  1  0.693297  0.432877  0.439937  1
  Lu  Lu19  1  0.306612  0.567140  0.560294  1
  Bi  Bi20  1  0.404033  0.250000  0.542188  1
  Bi  Bi21  1  0.595134  0.750000  0.458513  1
  Bi  Bi22  1  0.096784  0.750000  0.040917  1
  Bi  Bi23  1  0.904501  0.250000  0.957441  1
  Bi  Bi24  1  0.067853  0.004920  0.326206  1
  Bi  Bi25  1  0.933364  0.995972  0.674455  1
  Bi  Bi26  1  0.432572  0.996124  0.825517  1
  Bi  Bi27  1  0.933364  0.504028  0.674455  1
  Bi  Bi28  1  0.565788  0.005197  0.173980  1
  Bi  Bi29  1  0.067853  0.495080  0.326206  1
  Bi  Bi30  1  0.565788  0.494803  0.173980  1
  Bi  Bi31  1  0.432572  0.503876  0.825517  1
