# generated using pymatgen
data_Sc3In3IrAu2
_symmetry_space_group_name_H-M   'P 1'
_cell_length_a   7.82198500
_cell_length_b   7.82198449
_cell_length_c   3.45758200
_cell_angle_alpha   90.00000000
_cell_angle_beta   90.00000000
_cell_angle_gamma   119.99998945
_symmetry_Int_Tables_number   1
_chemical_formula_structural   Sc3In3IrAu2
_chemical_formula_sum   'Sc3 In3 Ir1 Au2'
_cell_volume   183.20490457
_cell_formula_units_Z   1
loop_
 _symmetry_equiv_pos_site_id
 _symmetry_equiv_pos_as_xyz
  1  'x, y, z'
loop_
 _atom_site_type_symbol
 _atom_site_label
 _atom_site_symmetry_multiplicity
 _atom_site_fract_x
 _atom_site_fract_y
 _atom_site_fract_z
 _atom_site_occupancy
  Sc  Sc0  1  0.592048  0.624307  0.000000  1
  Sc  Sc1  1  0.375693  0.967740  0.000000  1
  Sc  Sc2  1  0.032260  0.407952  0.000000  1
  In  In3  1  0.990297  0.711895  0.500000  1
  In  In4  1  0.288105  0.278402  0.500000  1
  In  In5  1  0.721598  0.009703  0.500000  1
  Ir  Ir6  1  0.333333  0.666667  0.500000  1
  Au  Au7  1  0.000000  0.000000  0.000000  1
  Au  Au8  1  0.666667  0.333333  0.500000  1
