# generated using pymatgen
data_TbY4Pa(Al3Os)8
_symmetry_space_group_name_H-M   'P 1'
_cell_length_a   8.80689400
_cell_length_b   8.85274061
_cell_length_c   9.58220100
_cell_angle_alpha   90.00000000
_cell_angle_beta   90.00000000
_cell_angle_gamma   119.82882642
_symmetry_Int_Tables_number   1
_chemical_formula_structural   TbY4Pa(Al3Os)8
_chemical_formula_sum   'Tb1 Y4 Pa1 Al24 Os8'
_cell_volume   648.10135922
_cell_formula_units_Z   1
loop_
 _symmetry_equiv_pos_site_id
 _symmetry_equiv_pos_as_xyz
  1  'x, y, z'
loop_
 _atom_site_type_symbol
 _atom_site_label
 _atom_site_symmetry_multiplicity
 _atom_site_fract_x
 _atom_site_fract_y
 _atom_site_fract_z
 _atom_site_occupancy
  Tb  Tb0  1  0.808226  0.616451  0.750000  1
  Y  Y1  1  0.611271  0.803722  0.250000  1
  Y  Y2  1  0.387156  0.192010  0.750000  1
  Y  Y3  1  0.192451  0.803722  0.250000  1
  Y  Y4  1  0.804854  0.192010  0.750000  1
  Pa  Pa5  1  0.196800  0.393601  0.250000  1
  Al  Al6  1  0.336243  0.672487  0.018157  1
  Al  Al7  1  0.667459  0.334917  0.981358  1
  Al  Al8  1  0.667459  0.334917  0.518642  1
  Al  Al9  1  0.336243  0.672487  0.481843  1
  Al  Al10  1  0.163078  0.326157  0.576553  1
  Al  Al11  1  0.836487  0.672974  0.425301  1
  Al  Al12  1  0.672284  0.835293  0.574640  1
  Al  Al13  1  0.836487  0.672974  0.074699  1
  Al  Al14  1  0.326290  0.162311  0.423740  1
  Al  Al15  1  0.163078  0.326157  0.923447  1
  Al  Al16  1  0.163009  0.835293  0.574640  1
  Al  Al17  1  0.326290  0.162311  0.076260  1
  Al  Al18  1  0.836022  0.162311  0.423740  1
  Al  Al19  1  0.672284  0.835293  0.925360  1
  Al  Al20  1  0.836022  0.162311  0.076260  1
  Al  Al21  1  0.163009  0.835293  0.925360  1
  Al  Al22  1  0.560084  0.120168  0.250000  1
  Al  Al23  1  0.438001  0.876001  0.750000  1
  Al  Al24  1  0.873184  0.437601  0.250000  1
  Al  Al25  1  0.120762  0.559724  0.750000  1
  Al  Al26  1  0.564417  0.437601  0.250000  1
  Al  Al27  1  0.438962  0.559724  0.750000  1
  Al  Al28  1  0.002165  0.004330  0.250000  1
  Al  Al29  1  0.000281  0.000562  0.750000  1
  Os  Os30  1  0.501490  0.002981  0.998356  1
  Os  Os31  1  0.003367  0.499124  0.004963  1
  Os  Os32  1  0.501490  0.002981  0.501644  1
  Os  Os33  1  0.495757  0.499124  0.004963  1
  Os  Os34  1  0.003367  0.499124  0.495037  1
  Os  Os35  1  0.495757  0.499124  0.495037  1
  Os  Os36  1  0.999208  0.998416  0.999381  1
  Os  Os37  1  0.999208  0.998416  0.500619  1
