# generated using pymatgen
data_Dy2Nb4C5
_symmetry_space_group_name_H-M   'P 1'
_cell_length_a   5.76401243
_cell_length_b   5.76401304
_cell_length_c   5.62071953
_cell_angle_alpha   81.86421821
_cell_angle_beta   81.86420754
_cell_angle_gamma   121.67278572
_symmetry_Int_Tables_number   1
_chemical_formula_structural   Dy2Nb4C5
_chemical_formula_sum   'Dy2 Nb4 C5'
_cell_volume   152.07908794
_cell_formula_units_Z   1
loop_
 _symmetry_equiv_pos_site_id
 _symmetry_equiv_pos_as_xyz
  1  'x, y, z'
loop_
 _atom_site_type_symbol
 _atom_site_label
 _atom_site_symmetry_multiplicity
 _atom_site_fract_x
 _atom_site_fract_y
 _atom_site_fract_z
 _atom_site_occupancy
  Dy  Dy0  1  0.761531  0.761531  0.758363  1
  Dy  Dy1  1  0.238469  0.238469  0.241637  1
  Nb  Nb2  1  0.101324  0.454994  0.740820  1
  Nb  Nb3  1  0.545006  0.898676  0.259180  1
  Nb  Nb4  1  0.898676  0.545006  0.259180  1
  Nb  Nb5  1  0.454994  0.101324  0.740820  1
  C  C6  1  0.500000  0.500000  0.500000  1
  C  C7  1  0.679814  0.320186  0.000000  1
  C  C8  1  0.320186  0.679814  0.000000  1
  C  C9  1  0.819922  0.180078  0.500000  1
  C  C10  1  0.180078  0.819922  0.500000  1
