# generated using pymatgen
data_Lu5Pa3(ReB6)4
_symmetry_space_group_name_H-M   'P 1'
_cell_length_a   3.67357700
_cell_length_b   9.09280652
_cell_length_c   11.45151074
_cell_angle_alpha   90.12526452
_cell_angle_beta   90.00000000
_cell_angle_gamma   90.00000000
_symmetry_Int_Tables_number   1
_chemical_formula_structural   Lu5Pa3(ReB6)4
_chemical_formula_sum   'Lu5 Pa3 Re4 B24'
_cell_volume   382.51532910
_cell_formula_units_Z   1
loop_
 _symmetry_equiv_pos_site_id
 _symmetry_equiv_pos_as_xyz
  1  'x, y, z'
loop_
 _atom_site_type_symbol
 _atom_site_label
 _atom_site_symmetry_multiplicity
 _atom_site_fract_x
 _atom_site_fract_y
 _atom_site_fract_z
 _atom_site_occupancy
  Lu  Lu0  1  0.000000  0.180480  0.913125  1
  Lu  Lu1  1  0.000000  0.945559  0.374459  1
  Lu  Lu2  1  0.000000  0.055715  0.627619  1
  Lu  Lu3  1  0.000000  0.443251  0.124529  1
  Lu  Lu4  1  0.000000  0.553426  0.874245  1
  Pa  Pa5  1  0.000000  0.320676  0.413454  1
  Pa  Pa6  1  0.000000  0.678659  0.587167  1
  Pa  Pa7  1  0.000000  0.822666  0.085719  1
  Re  Re8  1  0.000000  0.638766  0.320970  1
  Re  Re9  1  0.000000  0.362980  0.676786  1
  Re  Re10  1  0.000000  0.138443  0.180776  1
  Re  Re11  1  0.000000  0.859853  0.821018  1
  B  B12  1  0.500000  0.553950  0.432394  1
  B  B13  1  0.500000  0.446308  0.566917  1
  B  B14  1  0.500000  0.053493  0.067083  1
  B  B15  1  0.500000  0.946189  0.933233  1
  B  B16  1  0.500000  0.750541  0.420018  1
  B  B17  1  0.500000  0.250039  0.581098  1
  B  B18  1  0.500000  0.249277  0.078746  1
  B  B19  1  0.500000  0.750631  0.920100  1
  B  B20  1  0.500000  0.793285  0.265188  1
  B  B21  1  0.500000  0.206889  0.735260  1
  B  B22  1  0.500000  0.292990  0.233197  1
  B  B23  1  0.500000  0.706859  0.765914  1
  B  B24  1  0.500000  0.631555  0.183727  1
  B  B25  1  0.500000  0.367811  0.815854  1
  B  B26  1  0.500000  0.131840  0.315663  1
  B  B27  1  0.500000  0.868920  0.685508  1
  B  B28  1  0.500000  0.982305  0.213175  1
  B  B29  1  0.500000  0.019156  0.787087  1
  B  B30  1  0.500000  0.482306  0.285260  1
  B  B31  1  0.500000  0.516913  0.714730  1
  B  B32  1  0.500000  0.605388  0.029042  1
  B  B33  1  0.500000  0.392494  0.970064  1
  B  B34  1  0.500000  0.106044  0.471208  1
  B  B35  1  0.500000  0.894347  0.529666  1
