# generated using pymatgen
data_Dy5Co10Ni6(P4W)3
_symmetry_space_group_name_H-M   'P 1'
_cell_length_a   12.14814800
_cell_length_b   12.14814719
_cell_length_c   3.73322200
_cell_angle_alpha   90.00000000
_cell_angle_beta   90.00000000
_cell_angle_gamma   119.99999130
_symmetry_Int_Tables_number   1
_chemical_formula_structural   Dy5Co10Ni6(P4W)3
_chemical_formula_sum   'Dy5 Co10 Ni6 P12 W3'
_cell_volume   477.12767288
_cell_formula_units_Z   1
loop_
 _symmetry_equiv_pos_site_id
 _symmetry_equiv_pos_as_xyz
  1  'x, y, z'
loop_
 _atom_site_type_symbol
 _atom_site_label
 _atom_site_symmetry_multiplicity
 _atom_site_fract_x
 _atom_site_fract_y
 _atom_site_fract_z
 _atom_site_occupancy
  Dy  Dy0  1  0.666667  0.333333  0.000000  1
  Dy  Dy1  1  0.333333  0.666667  0.000000  1
  Dy  Dy2  1  0.184067  0.184067  0.500000  1
  Dy  Dy3  1  0.815933  0.000000  0.500000  1
  Dy  Dy4  1  0.000000  0.815933  0.500000  1
  Co  Co5  1  0.820218  0.197607  0.000000  1
  Co  Co6  1  0.802393  0.622611  0.000000  1
  Co  Co7  1  0.377389  0.179782  0.000000  1
  Co  Co8  1  0.197607  0.820218  0.000000  1
  Co  Co9  1  0.622611  0.802393  0.000000  1
  Co  Co10  1  0.179782  0.377389  0.000000  1
  Co  Co11  1  0.719145  0.719145  0.500000  1
  Co  Co12  1  0.280855  0.000000  0.500000  1
  Co  Co13  1  0.000000  0.280855  0.500000  1
  Co  Co14  1  0.000000  0.000000  0.000000  1
  Ni  Ni15  1  0.641817  0.126256  0.500000  1
  Ni  Ni16  1  0.873744  0.515561  0.500000  1
  Ni  Ni17  1  0.484439  0.358183  0.500000  1
  Ni  Ni18  1  0.126256  0.641817  0.500000  1
  Ni  Ni19  1  0.515561  0.873744  0.500000  1
  Ni  Ni20  1  0.358183  0.484439  0.500000  1
  P  P21  1  0.359721  0.359721  0.000000  1
  P  P22  1  0.640279  0.000000  0.000000  1
  P  P23  1  0.000000  0.640279  0.000000  1
  P  P24  1  0.835759  0.311877  0.500000  1
  P  P25  1  0.688123  0.523881  0.500000  1
  P  P26  1  0.476119  0.164241  0.500000  1
  P  P27  1  0.311877  0.835759  0.500000  1
  P  P28  1  0.523881  0.688123  0.500000  1
  P  P29  1  0.164241  0.476119  0.500000  1
  P  P30  1  0.821082  0.821082  0.000000  1
  P  P31  1  0.178918  0.000000  0.000000  1
  P  P32  1  0.000000  0.178918  0.000000  1
  W  W33  1  0.555636  0.555636  0.000000  1
  W  W34  1  0.444364  0.000000  0.000000  1
  W  W35  1  0.000000  0.444364  0.000000  1
