# generated using pymatgen
data_Ho2Er2Mg3ZnIr4
_symmetry_space_group_name_H-M   'P 1'
_cell_length_a   4.06196100
_cell_length_b   7.01918775
_cell_length_c   8.44270577
_cell_angle_alpha   89.92369366
_cell_angle_beta   90.00000000
_cell_angle_gamma   90.00000000
_symmetry_Int_Tables_number   1
_chemical_formula_structural   Ho2Er2Mg3ZnIr4
_chemical_formula_sum   'Ho2 Er2 Mg3 Zn1 Ir4'
_cell_volume   240.71540125
_cell_formula_units_Z   1
loop_
 _symmetry_equiv_pos_site_id
 _symmetry_equiv_pos_as_xyz
  1  'x, y, z'
loop_
 _atom_site_type_symbol
 _atom_site_label
 _atom_site_symmetry_multiplicity
 _atom_site_fract_x
 _atom_site_fract_y
 _atom_site_fract_z
 _atom_site_occupancy
  Ho  Ho0  1  0.250000  0.537060  0.178989  1
  Ho  Ho1  1  0.250000  0.047881  0.329778  1
  Er  Er2  1  0.750000  0.457437  0.822755  1
  Er  Er3  1  0.750000  0.961545  0.673228  1
  Mg  Mg4  1  0.250000  0.135449  0.939700  1
  Mg  Mg5  1  0.750000  0.864905  0.059716  1
  Mg  Mg6  1  0.250000  0.629898  0.556353  1
  Zn  Zn7  1  0.750000  0.366376  0.439122  1
  Ir  Ir8  1  0.750000  0.747866  0.371096  1
  Ir  Ir9  1  0.250000  0.253584  0.628111  1
  Ir  Ir10  1  0.750000  0.249384  0.133229  1
  Ir  Ir11  1  0.250000  0.748615  0.867924  1
