# generated using pymatgen
data_NdSmFe3Tc14C3
_symmetry_space_group_name_H-M   'P 1'
_cell_length_a   6.91347636
_cell_length_b   6.91347601
_cell_length_c   6.91347537
_cell_angle_alpha   82.59564192
_cell_angle_beta   82.59564311
_cell_angle_gamma   82.59564528
_symmetry_Int_Tables_number   1
_chemical_formula_structural   NdSmFe3Tc14C3
_chemical_formula_sum   'Nd1 Sm1 Fe3 Tc14 C3'
_cell_volume   322.82533936
_cell_formula_units_Z   1
loop_
 _symmetry_equiv_pos_site_id
 _symmetry_equiv_pos_as_xyz
  1  'x, y, z'
loop_
 _atom_site_type_symbol
 _atom_site_label
 _atom_site_symmetry_multiplicity
 _atom_site_fract_x
 _atom_site_fract_y
 _atom_site_fract_z
 _atom_site_occupancy
  Nd  Nd0  1  0.350086  0.350086  0.350086  1
  Sm  Sm1  1  0.650483  0.650483  0.650483  1
  Fe  Fe2  1  0.999952  0.999952  0.500044  1
  Fe  Fe3  1  0.500044  0.999952  0.999952  1
  Fe  Fe4  1  0.999952  0.500044  0.999952  1
  Tc  Tc5  1  0.724245  0.275988  0.999661  1
  Tc  Tc6  1  0.999661  0.724245  0.275988  1
  Tc  Tc7  1  0.275988  0.999661  0.724245  1
  Tc  Tc8  1  0.999661  0.275988  0.724245  1
  Tc  Tc9  1  0.724245  0.999661  0.275988  1
  Tc  Tc10  1  0.275988  0.724245  0.999661  1
  Tc  Tc11  1  0.347027  0.862621  0.347027  1
  Tc  Tc12  1  0.347027  0.347027  0.862621  1
  Tc  Tc13  1  0.862621  0.347027  0.347027  1
  Tc  Tc14  1  0.653456  0.136533  0.653456  1
  Tc  Tc15  1  0.653456  0.653456  0.136533  1
  Tc  Tc16  1  0.136533  0.653456  0.653456  1
  Tc  Tc17  1  0.899378  0.899378  0.899378  1
  Tc  Tc18  1  0.100282  0.100282  0.100282  1
  C  C19  1  0.500943  0.500943  0.998030  1
  C  C20  1  0.998030  0.500943  0.500943  1
  C  C21  1  0.500943  0.998030  0.500943  1
