# generated using pymatgen
data_Pr2NdCd3Ge2Au
_symmetry_space_group_name_H-M   'P 1'
_cell_length_a   7.51367855
_cell_length_b   7.51367924
_cell_length_c   4.48246100
_cell_angle_alpha   90.00000000
_cell_angle_beta   90.00000000
_cell_angle_gamma   119.95613218
_symmetry_Int_Tables_number   1
_chemical_formula_structural   Pr2NdCd3Ge2Au
_chemical_formula_sum   'Pr2 Nd1 Cd3 Ge2 Au1'
_cell_volume   219.25233134
_cell_formula_units_Z   1
loop_
 _symmetry_equiv_pos_site_id
 _symmetry_equiv_pos_as_xyz
  1  'x, y, z'
loop_
 _atom_site_type_symbol
 _atom_site_label
 _atom_site_symmetry_multiplicity
 _atom_site_fract_x
 _atom_site_fract_y
 _atom_site_fract_z
 _atom_site_occupancy
  Pr  Pr0  1  0.586041  0.999647  0.000000  1
  Pr  Pr1  1  0.999647  0.586041  0.000000  1
  Nd  Nd2  1  0.413213  0.413213  0.000000  1
  Cd  Cd3  1  0.247340  0.000626  0.500000  1
  Cd  Cd4  1  0.000626  0.247340  0.500000  1
  Cd  Cd5  1  0.752172  0.752172  0.500000  1
  Ge  Ge6  1  0.333868  0.665660  0.500000  1
  Ge  Ge7  1  0.665660  0.333868  0.500000  1
  Au  Au8  1  0.001432  0.001432  0.000000  1
