# generated using pymatgen
data_NaTb5YPtI12
_symmetry_space_group_name_H-M   'P 1'
_cell_length_a   9.87507498
_cell_length_b   9.79474572
_cell_length_c   9.85065264
_cell_angle_alpha   107.07728759
_cell_angle_beta   106.75321301
_cell_angle_gamma   107.14580357
_symmetry_Int_Tables_number   1
_chemical_formula_structural   NaTb5YPtI12
_chemical_formula_sum   'Na1 Tb5 Y1 Pt1 I12'
_cell_volume   793.65784665
_cell_formula_units_Z   1
loop_
 _symmetry_equiv_pos_site_id
 _symmetry_equiv_pos_as_xyz
  1  'x, y, z'
loop_
 _atom_site_type_symbol
 _atom_site_label
 _atom_site_symmetry_multiplicity
 _atom_site_fract_x
 _atom_site_fract_y
 _atom_site_fract_z
 _atom_site_occupancy
  Na  Na0  1  0.499998  0.500001  0.500009  1
  Tb  Tb1  1  0.308737  0.100550  0.028837  1
  Tb  Tb2  1  0.026457  0.300883  0.098303  1
  Tb  Tb3  1  0.898170  0.972352  0.690839  1
  Tb  Tb4  1  0.691409  0.899443  0.971545  1
  Tb  Tb5  1  0.973616  0.699230  0.902029  1
  Y  Y6  1  0.101781  0.027728  0.309270  1
  Pt  Pt7  1  0.000014  0.000081  0.999841  1
  I  I8  1  0.075438  0.679322  0.223076  1
  I  I9  1  0.224015  0.075804  0.678731  1
  I  I10  1  0.680045  0.225025  0.076280  1
  I  I11  1  0.924647  0.321144  0.777179  1
  I  I12  1  0.776407  0.924201  0.320381  1
  I  I13  1  0.319917  0.774982  0.923737  1
  I  I14  1  0.450612  0.142159  0.372286  1
  I  I15  1  0.371453  0.451067  0.142276  1
  I  I16  1  0.142010  0.372270  0.450095  1
  I  I17  1  0.548796  0.857540  0.627725  1
  I  I18  1  0.628511  0.548854  0.857675  1
  I  I19  1  0.857967  0.627364  0.549886  1
