# generated using pymatgen
data_KLa2CuS4
_symmetry_space_group_name_H-M   'P 1'
_cell_length_a   4.16369500
_cell_length_b   7.40488019
_cell_length_c   14.14188400
_cell_angle_alpha   90.00000000
_cell_angle_beta   90.00000000
_cell_angle_gamma   73.67143044
_symmetry_Int_Tables_number   1
_chemical_formula_structural   KLa2CuS4
_chemical_formula_sum   'K2 La4 Cu2 S8'
_cell_volume   418.43111582
_cell_formula_units_Z   2
loop_
 _symmetry_equiv_pos_site_id
 _symmetry_equiv_pos_as_xyz
  1  'x, y, z'
loop_
 _atom_site_type_symbol
 _atom_site_label
 _atom_site_symmetry_multiplicity
 _atom_site_fract_x
 _atom_site_fract_y
 _atom_site_fract_z
 _atom_site_occupancy
  K  K0  1  0.894149  0.211702  0.250000  1
  K  K1  1  0.105852  0.788297  0.750000  1
  La  La2  1  0.634146  0.731710  0.061469  1
  La  La3  1  0.634146  0.731710  0.438530  1
  La  La4  1  0.365855  0.268289  0.561469  1
  La  La5  1  0.365855  0.268289  0.938530  1
  Cu  Cu6  1  0.163815  0.672371  0.250000  1
  Cu  Cu7  1  0.836186  0.327628  0.750000  1
  S  S8  1  0.000000  0.000000  0.000000  1
  S  S9  1  0.260592  0.478818  0.115620  1
  S  S10  1  0.572474  0.855051  0.250000  1
  S  S11  1  0.260592  0.478818  0.384380  1
  S  S12  1  0.000000  0.000000  0.500000  1
  S  S13  1  0.739409  0.521181  0.615620  1
  S  S14  1  0.427526  0.144950  0.750000  1
  S  S15  1  0.739409  0.521181  0.884380  1
