# generated using pymatgen
data_Tb6Zn18PPt5
_symmetry_space_group_name_H-M   'P 1'
_cell_length_a   8.99502631
_cell_length_b   8.99517521
_cell_length_c   9.00251300
_cell_angle_alpha   59.97293436
_cell_angle_beta   59.97292328
_cell_angle_gamma   60.45609374
_symmetry_Int_Tables_number   1
_chemical_formula_structural   Tb6Zn18PPt5
_chemical_formula_sum   'Tb6 Zn18 P1 Pt5'
_cell_volume   516.60239228
_cell_formula_units_Z   1
loop_
 _symmetry_equiv_pos_site_id
 _symmetry_equiv_pos_as_xyz
  1  'x, y, z'
loop_
 _atom_site_type_symbol
 _atom_site_label
 _atom_site_symmetry_multiplicity
 _atom_site_fract_x
 _atom_site_fract_y
 _atom_site_fract_z
 _atom_site_occupancy
  Tb  Tb0  1  0.719825  0.280162  0.285311  1
  Tb  Tb1  1  0.719826  0.280161  0.714704  1
  Tb  Tb2  1  0.716904  0.716931  0.283081  1
  Tb  Tb3  1  0.280175  0.719838  0.714689  1
  Tb  Tb4  1  0.280174  0.719839  0.285296  1
  Tb  Tb5  1  0.283096  0.283069  0.716919  1
  Zn  Zn6  1  0.627927  0.122864  0.124605  1
  Zn  Zn7  1  0.122852  0.627932  0.124608  1
  Zn  Zn8  1  0.124397  0.124407  0.627305  1
  Zn  Zn9  1  0.124395  0.124409  0.123891  1
  Zn  Zn10  1  0.372073  0.877136  0.875395  1
  Zn  Zn11  1  0.877148  0.372068  0.875392  1
  Zn  Zn12  1  0.875603  0.875593  0.372695  1
  Zn  Zn13  1  0.875605  0.875591  0.876109  1
  Zn  Zn14  1  0.500000  0.500000  0.000000  1
  Zn  Zn15  1  0.000000  0.000000  0.000000  1
  Zn  Zn16  1  0.007416  0.331444  0.330570  1
  Zn  Zn17  1  0.331436  0.007430  0.330567  1
  Zn  Zn18  1  0.332239  0.332247  0.004236  1
  Zn  Zn19  1  0.332238  0.332247  0.331279  1
  Zn  Zn20  1  0.992584  0.668556  0.669430  1
  Zn  Zn21  1  0.668564  0.992570  0.669433  1
  Zn  Zn22  1  0.667761  0.667753  0.995764  1
  Zn  Zn23  1  0.667762  0.667753  0.668721  1
  P  P24  1  0.500000  0.500000  0.500000  1
  Pt  Pt25  1  0.500000  0.000000  0.000000  1
  Pt  Pt26  1  0.500000  0.000000  0.500000  1
  Pt  Pt27  1  0.000000  0.500000  0.500000  1
  Pt  Pt28  1  0.000000  0.500000  0.000000  1
  Pt  Pt29  1  0.000000  0.000000  0.500000  1
