# generated using pymatgen
data_Nb3PtRh8
_symmetry_space_group_name_H-M   'P 1'
_cell_length_a   5.57038612
_cell_length_b   5.55519081
_cell_length_c   13.49721844
_cell_angle_alpha   89.89696330
_cell_angle_beta   89.98560949
_cell_angle_gamma   119.93555947
_symmetry_Int_Tables_number   1
_chemical_formula_structural   Nb3PtRh8
_chemical_formula_sum   'Nb6 Pt2 Rh16'
_cell_volume   361.94263724
_cell_formula_units_Z   2
loop_
 _symmetry_equiv_pos_site_id
 _symmetry_equiv_pos_as_xyz
  1  'x, y, z'
loop_
 _atom_site_type_symbol
 _atom_site_label
 _atom_site_symmetry_multiplicity
 _atom_site_fract_x
 _atom_site_fract_y
 _atom_site_fract_z
 _atom_site_occupancy
  Nb  Nb0  1  0.001560  0.999590  0.250684  1
  Nb  Nb1  1  0.997028  0.995684  0.747535  1
  Nb  Nb2  1  0.330832  0.668480  0.413269  1
  Nb  Nb3  1  0.666639  0.333027  0.589580  1
  Nb  Nb4  1  0.666279  0.332574  0.910156  1
  Nb  Nb5  1  0.333188  0.673981  0.088715  1
  Pt  Pt6  1  0.504771  0.496393  0.250163  1
  Pt  Pt7  1  0.165944  0.332474  0.917223  1
  Rh  Rh8  1  0.506206  0.008900  0.250139  1
  Rh  Rh9  1  0.994550  0.496069  0.250250  1
  Rh  Rh10  1  0.495772  0.503751  0.749264  1
  Rh  Rh11  1  0.494551  0.990505  0.749636  1
  Rh  Rh12  1  0.007117  0.504002  0.749300  1
  Rh  Rh13  1  0.669489  0.835030  0.916874  1
  Rh  Rh14  1  0.165096  0.834936  0.917198  1
  Rh  Rh15  1  0.835865  0.669410  0.082443  1
  Rh  Rh16  1  0.331484  0.164066  0.082882  1
  Rh  Rh17  1  0.834082  0.164758  0.083327  1
  Rh  Rh18  1  0.835446  0.668592  0.417778  1
  Rh  Rh19  1  0.331169  0.163940  0.417852  1
  Rh  Rh20  1  0.834150  0.164721  0.417499  1
  Rh  Rh21  1  0.165297  0.330946  0.582928  1
  Rh  Rh22  1  0.668171  0.834050  0.582797  1
  Rh  Rh23  1  0.165313  0.834122  0.582507  1
