# generated using pymatgen
data_Tm2Hf4Sn5
_symmetry_space_group_name_H-M   'P 1'
_cell_length_a   11.06908879
_cell_length_b   11.06912030
_cell_length_c   11.06911930
_cell_angle_alpha   148.97725244
_cell_angle_beta   132.01860307
_cell_angle_gamma   58.24189445
_symmetry_Int_Tables_number   1
_chemical_formula_structural   Tm2Hf4Sn5
_chemical_formula_sum   'Tm4 Hf8 Sn10'
_cell_volume   515.31447758
_cell_formula_units_Z   2
loop_
 _symmetry_equiv_pos_site_id
 _symmetry_equiv_pos_as_xyz
  1  'x, y, z'
loop_
 _atom_site_type_symbol
 _atom_site_label
 _atom_site_symmetry_multiplicity
 _atom_site_fract_x
 _atom_site_fract_y
 _atom_site_fract_z
 _atom_site_occupancy
  Tm  Tm0  1  0.255880  0.143258  0.112621  1
  Tm  Tm1  1  0.744120  0.856742  0.887379  1
  Tm  Tm2  1  0.030631  0.643257  0.387373  1
  Tm  Tm3  1  0.969369  0.356743  0.612627  1
  Hf  Hf4  1  0.311104  0.561103  0.250002  1
  Hf  Hf5  1  0.688896  0.438897  0.749998  1
  Hf  Hf6  1  0.688896  0.938898  0.249999  1
  Hf  Hf7  1  0.311104  0.061102  0.750001  1
  Hf  Hf8  1  0.674659  0.435304  0.239356  1
  Hf  Hf9  1  0.325341  0.564696  0.760644  1
  Hf  Hf10  1  0.195950  0.935302  0.260647  1
  Hf  Hf11  1  0.804050  0.064698  0.739353  1
  Sn  Sn12  1  0.587688  0.288575  0.299113  1
  Sn  Sn13  1  0.412312  0.711425  0.700887  1
  Sn  Sn14  1  0.989464  0.788573  0.200892  1
  Sn  Sn15  1  0.010536  0.211427  0.799108  1
  Sn  Sn16  1  0.000000  0.249924  0.249924  1
  Sn  Sn17  1  0.000000  0.750076  0.750076  1
  Sn  Sn18  1  0.467119  0.066791  0.400327  1
  Sn  Sn19  1  0.532881  0.933209  0.599673  1
  Sn  Sn20  1  0.666451  0.566793  0.099657  1
  Sn  Sn21  1  0.333549  0.433207  0.900343  1
