# generated using pymatgen
data_Ce3TiIn2Ir3
_symmetry_space_group_name_H-M   'P 1'
_cell_length_a   7.34426900
_cell_length_b   7.14839561
_cell_length_c   4.21439600
_cell_angle_alpha   90.00000000
_cell_angle_beta   90.00000000
_cell_angle_gamma   119.12160766
_symmetry_Int_Tables_number   1
_chemical_formula_structural   Ce3TiIn2Ir3
_chemical_formula_sum   'Ce3 Ti1 In2 Ir3'
_cell_volume   193.28561326
_cell_formula_units_Z   1
loop_
 _symmetry_equiv_pos_site_id
 _symmetry_equiv_pos_as_xyz
  1  'x, y, z'
loop_
 _atom_site_type_symbol
 _atom_site_label
 _atom_site_symmetry_multiplicity
 _atom_site_fract_x
 _atom_site_fract_y
 _atom_site_fract_z
 _atom_site_occupancy
  Ce  Ce0  1  0.583015  0.582320  0.000000  1
  Ce  Ce1  1  0.416985  0.999305  0.000000  1
  Ce  Ce2  1  0.000000  0.415851  0.000000  1
  Ti  Ti3  1  0.000000  0.758645  0.500000  1
  In  In4  1  0.244410  0.243572  0.500000  1
  In  In5  1  0.755590  0.999161  0.500000  1
  Ir  Ir6  1  0.000000  0.955736  0.000000  1
  Ir  Ir7  1  0.688761  0.367083  0.500000  1
  Ir  Ir8  1  0.311239  0.678323  0.500000  1
