# generated using pymatgen
data_HoTmPa2(Al8Pt3)3
_symmetry_space_group_name_H-M   'P 1'
_cell_length_a   7.56745713
_cell_length_b   7.57697274
_cell_length_c   13.10964203
_cell_angle_alpha   84.49909112
_cell_angle_beta   78.91890920
_cell_angle_gamma   59.92638616
_symmetry_Int_Tables_number   1
_chemical_formula_structural   HoTmPa2(Al8Pt3)3
_chemical_formula_sum   'Ho1 Tm1 Pa2 Al24 Pt9'
_cell_volume   638.36800975
_cell_formula_units_Z   1
loop_
 _symmetry_equiv_pos_site_id
 _symmetry_equiv_pos_as_xyz
  1  'x, y, z'
loop_
 _atom_site_type_symbol
 _atom_site_label
 _atom_site_symmetry_multiplicity
 _atom_site_fract_x
 _atom_site_fract_y
 _atom_site_fract_z
 _atom_site_occupancy
  Ho  Ho0  1  0.266056  0.501558  0.192167  1
  Tm  Tm1  1  0.734071  0.498455  0.807561  1
  Pa  Pa2  1  0.394973  0.168231  0.805216  1
  Pa  Pa3  1  0.604998  0.831764  0.194855  1
  Al  Al4  1  0.684277  0.833282  0.944264  1
  Al  Al5  1  0.315737  0.166548  0.055563  1
  Al  Al6  1  0.145629  0.832724  0.561328  1
  Al  Al7  1  0.854362  0.167299  0.438685  1
  Al  Al8  1  0.480188  0.167525  0.558218  1
  Al  Al9  1  0.519813  0.832465  0.441836  1
  Al  Al10  1  0.214989  0.167758  0.330542  1
  Al  Al11  1  0.784881  0.832142  0.669604  1
  Al  Al12  1  0.437605  0.508854  0.670313  1
  Al  Al13  1  0.562544  0.491092  0.329815  1
  Al  Al14  1  0.107476  0.160039  0.668631  1
  Al  Al15  1  0.892331  0.840149  0.331508  1
  Al  Al16  1  0.353675  0.499514  0.943365  1
  Al  Al17  1  0.646617  0.500466  0.056364  1
  Al  Al18  1  0.015538  0.168083  0.951966  1
  Al  Al19  1  0.984378  0.832080  0.047867  1
  Al  Al20  1  0.185874  0.500084  0.441253  1
  Al  Al21  1  0.814088  0.499916  0.558831  1
  Al  Al22  1  0.735936  0.162616  0.182817  1
  Al  Al23  1  0.264309  0.837303  0.817183  1
  Al  Al24  1  0.062527  0.630893  0.815975  1
  Al  Al25  1  0.937367  0.368958  0.184029  1
  Al  Al26  1  0.854875  0.040851  0.816774  1
  Al  Al27  1  0.144979  0.959422  0.183222  1
  Pt  Pt28  1  0.119539  0.491044  0.640137  1
  Pt  Pt29  1  0.880134  0.508955  0.359975  1
  Pt  Pt30  1  0.656701  0.172787  0.999858  1
  Pt  Pt31  1  0.343410  0.827179  0.000058  1
  Pt  Pt32  1  0.537371  0.166300  0.360353  1
  Pt  Pt33  1  0.462838  0.833426  0.639785  1
  Pt  Pt34  1  0.777653  0.175793  0.638744  1
  Pt  Pt35  1  0.222284  0.824514  0.361384  1
  Pt  Pt36  1  0.999975  0.499928  0.999951  1
