# generated using pymatgen
data_BiNF10
_symmetry_space_group_name_H-M   'P 1'
_cell_length_a   5.57874919
_cell_length_b   5.57874861
_cell_length_c   6.70624159
_cell_angle_alpha   89.94428604
_cell_angle_beta   90.05571168
_cell_angle_gamma   100.47174135
_symmetry_Int_Tables_number   1
_chemical_formula_structural   BiNF10
_chemical_formula_sum   'Bi1 N1 F10'
_cell_volume   205.23822155
_cell_formula_units_Z   1
loop_
 _symmetry_equiv_pos_site_id
 _symmetry_equiv_pos_as_xyz
  1  'x, y, z'
loop_
 _atom_site_type_symbol
 _atom_site_label
 _atom_site_symmetry_multiplicity
 _atom_site_fract_x
 _atom_site_fract_y
 _atom_site_fract_z
 _atom_site_occupancy
  Bi  Bi0  1  0.318756  0.681245  0.237778  1
  N  N1  1  0.750183  0.249818  0.743245  1
  F  F2  1  0.146387  0.853614  0.025057  1
  F  F3  1  0.034260  0.394213  0.242086  1
  F  F4  1  0.605788  0.965741  0.242086  1
  F  F5  1  0.164416  0.835585  0.471996  1
  F  F6  1  0.498618  0.501383  0.438985  1
  F  F7  1  0.853046  0.146955  0.592059  1
  F  F8  1  0.508271  0.182895  0.731538  1
  F  F9  1  0.817106  0.491730  0.731538  1
  F  F10  1  0.827585  0.172416  0.917088  1
  F  F11  1  0.475592  0.524409  0.006541  1
