# generated using pymatgen
data_Ho2Tm8In8PtAu3
_symmetry_space_group_name_H-M   'P 1'
_cell_length_a   3.61353900
_cell_length_b   8.15483603
_cell_length_c   18.27404048
_cell_angle_alpha   90.03468267
_cell_angle_beta   90.00000000
_cell_angle_gamma   90.00000000
_symmetry_Int_Tables_number   1
_chemical_formula_structural   Ho2Tm8In8PtAu3
_chemical_formula_sum   'Ho2 Tm8 In8 Pt1 Au3'
_cell_volume   538.49600098
_cell_formula_units_Z   1
loop_
 _symmetry_equiv_pos_site_id
 _symmetry_equiv_pos_as_xyz
  1  'x, y, z'
loop_
 _atom_site_type_symbol
 _atom_site_label
 _atom_site_symmetry_multiplicity
 _atom_site_fract_x
 _atom_site_fract_y
 _atom_site_fract_z
 _atom_site_occupancy
  Ho  Ho0  1  0.000000  0.000099  0.000700  1
  Ho  Ho1  1  0.000000  0.500772  0.499309  1
  Tm  Tm2  1  0.000000  0.119823  0.418907  1
  Tm  Tm3  1  0.000000  0.878888  0.579662  1
  Tm  Tm4  1  0.000000  0.379342  0.920488  1
  Tm  Tm5  1  0.000000  0.616498  0.084546  1
  Tm  Tm6  1  0.000000  0.253052  0.217622  1
  Tm  Tm7  1  0.000000  0.761166  0.782581  1
  Tm  Tm8  1  0.000000  0.260670  0.718118  1
  Tm  Tm9  1  0.000000  0.730844  0.279056  1
  In  In10  1  0.500000  0.422213  0.352181  1
  In  In11  1  0.500000  0.578689  0.646670  1
  In  In12  1  0.500000  0.078706  0.853384  1
  In  In13  1  0.500000  0.922169  0.147789  1
  In  In14  1  0.500000  0.292275  0.066861  1
  In  In15  1  0.500000  0.708292  0.935133  1
  In  In16  1  0.500000  0.208945  0.566351  1
  In  In17  1  0.500000  0.790655  0.432166  1
  Pt  Pt18  1  0.500000  0.527335  0.196180  1
  Au  Au19  1  0.500000  0.028215  0.302245  1
  Au  Au20  1  0.500000  0.970404  0.696440  1
  Au  Au21  1  0.500000  0.470951  0.803609  1
