# generated using pymatgen
data_Tb3Y(Zr3Sn4)2
_symmetry_space_group_name_H-M   'P 1'
_cell_length_a   7.78259000
_cell_length_b   7.83495900
_cell_length_c   14.75790801
_cell_angle_alpha   89.99619630
_cell_angle_beta   90.00000000
_cell_angle_gamma   90.00000000
_symmetry_Int_Tables_number   1
_chemical_formula_structural   Tb3Y(Zr3Sn4)2
_chemical_formula_sum   'Tb6 Y2 Zr12 Sn16'
_cell_volume   899.88223445
_cell_formula_units_Z   2
loop_
 _symmetry_equiv_pos_site_id
 _symmetry_equiv_pos_as_xyz
  1  'x, y, z'
loop_
 _atom_site_type_symbol
 _atom_site_label
 _atom_site_symmetry_multiplicity
 _atom_site_fract_x
 _atom_site_fract_y
 _atom_site_fract_z
 _atom_site_occupancy
  Tb  Tb0  1  0.487036  0.677598  0.407130  1
  Tb  Tb1  1  0.987036  0.822402  0.092870  1
  Tb  Tb2  1  0.487038  0.677609  0.092870  1
  Tb  Tb3  1  0.987038  0.822391  0.407130  1
  Tb  Tb4  1  0.512960  0.322393  0.592865  1
  Tb  Tb5  1  0.012960  0.177607  0.907135  1
  Y  Y6  1  0.512984  0.322395  0.907126  1
  Y  Y7  1  0.012984  0.177605  0.592874  1
  Zr  Zr8  1  0.349700  0.837116  0.870850  1
  Zr  Zr9  1  0.849700  0.662884  0.629150  1
  Zr  Zr10  1  0.650283  0.162885  0.370840  1
  Zr  Zr11  1  0.150283  0.337115  0.129160  1
  Zr  Zr12  1  0.650287  0.162880  0.129159  1
  Zr  Zr13  1  0.150287  0.337120  0.370841  1
  Zr  Zr14  1  0.349704  0.837125  0.629162  1
  Zr  Zr15  1  0.849704  0.662875  0.870838  1
  Zr  Zr16  1  0.171729  0.509947  0.750002  1
  Zr  Zr17  1  0.671729  0.990053  0.749998  1
  Zr  Zr18  1  0.828288  0.490069  0.250002  1
  Zr  Zr19  1  0.328288  0.009931  0.249998  1
  Sn  Sn20  1  0.311364  0.040530  0.042385  1
  Sn  Sn21  1  0.811364  0.459470  0.457615  1
  Sn  Sn22  1  0.688659  0.959463  0.542386  1
  Sn  Sn23  1  0.188659  0.540537  0.957614  1
  Sn  Sn24  1  0.688613  0.959475  0.957614  1
  Sn  Sn25  1  0.188613  0.540525  0.542386  1
  Sn  Sn26  1  0.311340  0.040542  0.457620  1
  Sn  Sn27  1  0.811340  0.459458  0.042380  1
  Sn  Sn28  1  0.544826  0.615757  0.749995  1
  Sn  Sn29  1  0.044826  0.884243  0.750005  1
  Sn  Sn30  1  0.455174  0.384232  0.249998  1
  Sn  Sn31  1  0.955174  0.115768  0.250002  1
  Sn  Sn32  1  0.318064  0.154024  0.750013  1
  Sn  Sn33  1  0.818064  0.345976  0.749987  1
  Sn  Sn34  1  0.681949  0.846003  0.250000  1
  Sn  Sn35  1  0.181949  0.653997  0.250000  1
