# generated using pymatgen
data_La4SmSc15(BO3)20
_symmetry_space_group_name_H-M   'P 1'
_cell_length_a   7.83281122
_cell_length_b   7.83281185
_cell_length_c   18.92456021
_cell_angle_alpha   87.75957003
_cell_angle_beta   87.75956849
_cell_angle_gamma   78.30112800
_symmetry_Int_Tables_number   1
_chemical_formula_structural   La4SmSc15(BO3)20
_chemical_formula_sum   'La4 Sm1 Sc15 B20 O60'
_cell_volume   1135.51249506
_cell_formula_units_Z   1
loop_
 _symmetry_equiv_pos_site_id
 _symmetry_equiv_pos_as_xyz
  1  'x, y, z'
loop_
 _atom_site_type_symbol
 _atom_site_label
 _atom_site_symmetry_multiplicity
 _atom_site_fract_x
 _atom_site_fract_y
 _atom_site_fract_z
 _atom_site_occupancy
  La  La0  1  0.399673  0.399678  0.699246  1
  La  La1  1  0.800070  0.800042  0.899907  1
  La  La2  1  0.199958  0.199930  0.100093  1
  La  La3  1  0.600322  0.600327  0.300754  1
  Sm  Sm4  1  0.999977  0.000023  0.500000  1
  Sc  Sc5  1  0.709638  0.161524  0.080751  1
  Sc  Sc6  1  0.109501  0.561840  0.280915  1
  Sc  Sc7  1  0.509427  0.962146  0.481108  1
  Sc  Sc8  1  0.909692  0.361430  0.680738  1
  Sc  Sc9  1  0.309685  0.761436  0.880711  1
  Sc  Sc10  1  0.238564  0.690315  0.119289  1
  Sc  Sc11  1  0.638570  0.090308  0.319262  1
  Sc  Sc12  1  0.037854  0.490573  0.518892  1
  Sc  Sc13  1  0.438160  0.890499  0.719085  1
  Sc  Sc14  1  0.838476  0.290362  0.919249  1
  Sc  Sc15  1  0.251911  0.348144  0.899935  1
  Sc  Sc16  1  0.651856  0.748089  0.100065  1
  Sc  Sc17  1  0.051996  0.147415  0.300722  1
  Sc  Sc18  1  0.452212  0.547788  0.500000  1
  Sc  Sc19  1  0.852585  0.948004  0.699278  1
  B  B20  1  0.500015  0.499985  0.000000  1
  B  B21  1  0.900115  0.899958  0.200019  1
  B  B22  1  0.299750  0.299782  0.400107  1
  B  B23  1  0.700218  0.700250  0.599893  1
  B  B24  1  0.100042  0.099885  0.799981  1
  B  B25  1  0.850811  0.752403  0.400726  1
  B  B26  1  0.247597  0.149189  0.599274  1
  B  B27  1  0.649860  0.549986  0.799930  1
  B  B28  1  0.050051  0.949949  0.000000  1
  B  B29  1  0.450014  0.350140  0.200070  1
  B  B30  1  0.389876  0.939947  0.220081  1
  B  B31  1  0.791366  0.337024  0.420572  1
  B  B32  1  0.188998  0.741593  0.618851  1
  B  B33  1  0.590063  0.140033  0.819821  1
  B  B34  1  0.989981  0.540027  0.020023  1
  B  B35  1  0.662976  0.208634  0.579428  1
  B  B36  1  0.060053  0.610123  0.779919  1
  B  B37  1  0.459973  0.010019  0.979977  1
  B  B38  1  0.859967  0.409937  0.180179  1
  B  B39  1  0.258407  0.811002  0.381149  1
  O  O40  1  0.640408  0.359592  0.000000  1
  O  O41  1  0.040294  0.759390  0.200018  1
  O  O42  1  0.440419  0.159695  0.400308  1
  O  O43  1  0.840305  0.559581  0.599692  1
  O  O44  1  0.240610  0.959706  0.799982  1
  O  O45  1  0.471964  0.612256  0.056171  1
  O  O46  1  0.872352  0.012018  0.256282  1
  O  O47  1  0.271404  0.412726  0.456041  1
  O  O48  1  0.672227  0.812062  0.656171  1
  O  O49  1  0.071844  0.212222  0.856114  1
  O  O50  1  0.387744  0.528036  0.943829  1
  O  O51  1  0.787778  0.928156  0.143886  1
  O  O52  1  0.187938  0.327773  0.343829  1
  O  O53  1  0.587274  0.728596  0.543959  1
  O  O54  1  0.987982  0.127648  0.743718  1
  O  O55  1  0.909753  0.090247  0.000000  1
  O  O56  1  0.309692  0.490407  0.200100  1
  O  O57  1  0.708129  0.890151  0.399828  1
  O  O58  1  0.109849  0.291871  0.600172  1
  O  O59  1  0.509593  0.690308  0.799900  1
  O  O60  1  0.417894  0.828018  0.163876  1
  O  O61  1  0.817489  0.228252  0.363393  1
  O  O62  1  0.218827  0.625611  0.564027  1
  O  O63  1  0.618335  0.027858  0.763645  1
  O  O64  1  0.018044  0.427792  0.963896  1
  O  O65  1  0.171982  0.582106  0.836124  1
  O  O66  1  0.572208  0.981956  0.036104  1
  O  O67  1  0.972142  0.381665  0.236355  1
  O  O68  1  0.374389  0.781173  0.435973  1
  O  O69  1  0.771748  0.182511  0.636607  1
  O  O70  1  0.082954  0.850599  0.940434  1
  O  O71  1  0.482860  0.250670  0.140507  1
  O  O72  1  0.884515  0.650588  0.341756  1
  O  O73  1  0.276195  0.049816  0.539364  1
  O  O74  1  0.682627  0.450691  0.740348  1
  O  O75  1  0.712932  0.117331  0.871609  1
  O  O76  1  0.113077  0.517307  0.071679  1
  O  O77  1  0.513225  0.917202  0.271637  1
  O  O78  1  0.915467  0.309749  0.472209  1
  O  O79  1  0.309972  0.719502  0.671429  1
  O  O80  1  0.731468  0.559600  0.178957  1
  O  O81  1  0.128539  0.960328  0.381959  1
  O  O82  1  0.532524  0.356775  0.577777  1
  O  O83  1  0.931739  0.759824  0.778410  1
  O  O84  1  0.331432  0.159541  0.978729  1
  O  O85  1  0.440400  0.268532  0.821043  1
  O  O86  1  0.840459  0.668568  0.021271  1
  O  O87  1  0.240176  0.068261  0.221590  1
  O  O88  1  0.643225  0.467476  0.422223  1
  O  O89  1  0.039672  0.871461  0.618041  1
  O  O90  1  0.149401  0.917046  0.059566  1
  O  O91  1  0.549309  0.317373  0.259652  1
  O  O92  1  0.950184  0.723805  0.460636  1
  O  O93  1  0.349412  0.115485  0.658244  1
  O  O94  1  0.749330  0.517140  0.859493  1
  O  O95  1  0.882669  0.287068  0.128391  1
  O  O96  1  0.280498  0.690028  0.328571  1
  O  O97  1  0.690251  0.084533  0.527791  1
  O  O98  1  0.082798  0.486775  0.728363  1
  O  O99  1  0.482693  0.886923  0.928321  1
