# generated using pymatgen
data_ScNb4Fe16Si7W
_symmetry_space_group_name_H-M   'P 1'
_cell_length_a   7.93663953
_cell_length_b   7.96060550
_cell_length_c   7.93422173
_cell_angle_alpha   59.98495270
_cell_angle_beta   60.20999798
_cell_angle_gamma   59.87994513
_symmetry_Int_Tables_number   1
_chemical_formula_structural   ScNb4Fe16Si7W
_chemical_formula_sum   'Sc1 Nb4 Fe16 Si7 W1'
_cell_volume   354.65842414
_cell_formula_units_Z   1
loop_
 _symmetry_equiv_pos_site_id
 _symmetry_equiv_pos_as_xyz
  1  'x, y, z'
loop_
 _atom_site_type_symbol
 _atom_site_label
 _atom_site_symmetry_multiplicity
 _atom_site_fract_x
 _atom_site_fract_y
 _atom_site_fract_z
 _atom_site_occupancy
  Sc  Sc0  1  0.798767  0.200180  0.799820  1
  Nb  Nb1  1  0.197036  0.801916  0.198084  1
  Nb  Nb2  1  0.207023  0.205844  0.794156  1
  Nb  Nb3  1  0.202109  0.796182  0.798475  1
  Nb  Nb4  1  0.796766  0.201525  0.203818  1
  Fe  Fe5  1  0.858717  0.388307  0.371195  1
  Fe  Fe6  1  0.617344  0.621779  0.146303  1
  Fe  Fe7  1  0.372415  0.383275  0.863218  1
  Fe  Fe8  1  0.826380  0.523428  0.827205  1
  Fe  Fe9  1  0.827420  0.822696  0.829886  1
  Fe  Fe10  1  0.828762  0.824860  0.518222  1
  Fe  Fe11  1  0.379912  0.384719  0.378004  1
  Fe  Fe12  1  0.142637  0.621996  0.615281  1
  Fe  Fe13  1  0.618221  0.628805  0.611693  1
  Fe  Fe14  1  0.173758  0.170807  0.175403  1
  Fe  Fe15  1  0.171843  0.481778  0.175140  1
  Fe  Fe16  1  0.519967  0.824597  0.829193  1
  Fe  Fe17  1  0.618910  0.136782  0.616725  1
  Fe  Fe18  1  0.177011  0.172795  0.476572  1
  Fe  Fe19  1  0.385423  0.853697  0.378221  1
  Fe  Fe20  1  0.479999  0.170114  0.177304  1
  Si  Si21  1  0.501990  0.002198  0.997802  1
  Si  Si22  1  0.001031  0.498240  0.001111  1
  Si  Si23  1  0.501463  0.497822  0.998116  1
  Si  Si24  1  0.501486  0.491965  0.508035  1
  Si  Si25  1  0.997548  0.497352  0.502648  1
  Si  Si26  1  0.997400  0.001884  0.502178  1
  Si  Si27  1  0.500383  0.998889  0.501760  1
  W  W28  1  0.798279  0.795565  0.204435  1
