# generated using pymatgen
data_Hf10CuSiSn6
_symmetry_space_group_name_H-M   'P 1'
_cell_length_a   8.61413200
_cell_length_b   8.61413274
_cell_length_c   5.80372400
_cell_angle_alpha   90.00000000
_cell_angle_beta   90.00000000
_cell_angle_gamma   119.99999715
_symmetry_Int_Tables_number   1
_chemical_formula_structural   Hf10CuSiSn6
_chemical_formula_sum   'Hf10 Cu1 Si1 Sn6'
_cell_volume   372.95847258
_cell_formula_units_Z   1
loop_
 _symmetry_equiv_pos_site_id
 _symmetry_equiv_pos_as_xyz
  1  'x, y, z'
loop_
 _atom_site_type_symbol
 _atom_site_label
 _atom_site_symmetry_multiplicity
 _atom_site_fract_x
 _atom_site_fract_y
 _atom_site_fract_z
 _atom_site_occupancy
  Hf  Hf0  1  0.333333  0.666667  0.000000  1
  Hf  Hf1  1  0.666667  0.333333  0.500000  1
  Hf  Hf2  1  0.666667  0.333333  0.000000  1
  Hf  Hf3  1  0.333333  0.666667  0.500000  1
  Hf  Hf4  1  0.262054  0.000000  0.246781  1
  Hf  Hf5  1  0.262054  0.262054  0.753219  1
  Hf  Hf6  1  0.000000  0.737946  0.753219  1
  Hf  Hf7  1  0.000000  0.262054  0.246781  1
  Hf  Hf8  1  0.737946  0.737946  0.246781  1
  Hf  Hf9  1  0.737946  0.000000  0.753219  1
  Cu  Cu10  1  0.000000  0.000000  0.500000  1
  Si  Si11  1  0.000000  0.000000  0.000000  1
  Sn  Sn12  1  0.610939  0.000000  0.251215  1
  Sn  Sn13  1  0.610939  0.610939  0.748785  1
  Sn  Sn14  1  0.000000  0.389061  0.748785  1
  Sn  Sn15  1  0.000000  0.610939  0.251215  1
  Sn  Sn16  1  0.389061  0.389061  0.251215  1
  Sn  Sn17  1  0.389061  0.000000  0.748785  1
