# generated using pymatgen
data_DyHo3PtAu3
_symmetry_space_group_name_H-M   'P 1'
_cell_length_a   4.67810100
_cell_length_b   5.61450635
_cell_length_c   7.15143321
_cell_angle_alpha   90.98568611
_cell_angle_beta   90.00000000
_cell_angle_gamma   90.00000000
_symmetry_Int_Tables_number   1
_chemical_formula_structural   DyHo3PtAu3
_chemical_formula_sum   'Dy1 Ho3 Pt1 Au3'
_cell_volume   187.80622737
_cell_formula_units_Z   1
loop_
 _symmetry_equiv_pos_site_id
 _symmetry_equiv_pos_as_xyz
  1  'x, y, z'
loop_
 _atom_site_type_symbol
 _atom_site_label
 _atom_site_symmetry_multiplicity
 _atom_site_fract_x
 _atom_site_fract_y
 _atom_site_fract_z
 _atom_site_occupancy
  Dy  Dy0  1  0.250000  0.350843  0.693351  1
  Ho  Ho1  1  0.250000  0.154110  0.176504  1
  Ho  Ho2  1  0.750000  0.641624  0.311862  1
  Ho  Ho3  1  0.750000  0.857375  0.819282  1
  Pt  Pt4  1  0.750000  0.343330  0.958729  1
  Au  Au5  1  0.250000  0.841898  0.539489  1
  Au  Au6  1  0.250000  0.657776  0.043227  1
  Au  Au7  1  0.750000  0.153043  0.457556  1
