# generated using pymatgen
data_Yb5ThU2O12
_symmetry_space_group_name_H-M   'P 1'
_cell_length_a   6.79865022
_cell_length_b   6.76936829
_cell_length_c   6.76773517
_cell_angle_alpha   92.11564493
_cell_angle_beta   90.82725337
_cell_angle_gamma   91.65407757
_symmetry_Int_Tables_number   1
_chemical_formula_structural   Yb5ThU2O12
_chemical_formula_sum   'Yb5 Th1 U2 O12'
_cell_volume   311.08906404
_cell_formula_units_Z   1
loop_
 _symmetry_equiv_pos_site_id
 _symmetry_equiv_pos_as_xyz
  1  'x, y, z'
loop_
 _atom_site_type_symbol
 _atom_site_label
 _atom_site_symmetry_multiplicity
 _atom_site_fract_x
 _atom_site_fract_y
 _atom_site_fract_z
 _atom_site_occupancy
  Yb  Yb0  1  0.747993  0.940138  0.440613  1
  Yb  Yb1  1  0.551040  0.247088  0.063529  1
  Yb  Yb2  1  0.254607  0.054676  0.555578  1
  Yb  Yb3  1  0.066652  0.564097  0.251459  1
  Yb  Yb4  1  0.446066  0.751432  0.940733  1
  Th  Th5  1  0.935071  0.439297  0.747409  1
  U  U6  1  0.001367  0.998307  0.007124  1
  U  U7  1  0.495095  0.502372  0.492780  1
  O  O8  1  0.294502  0.063413  0.923171  1
  O  O9  1  0.065100  0.918388  0.301024  1
  O  O10  1  0.917936  0.309651  0.062536  1
  O  O11  1  0.705081  0.935463  0.080605  1
  O  O12  1  0.933615  0.088524  0.701484  1
  O  O13  1  0.084952  0.689685  0.930836  1
  O  O14  1  0.188924  0.401646  0.534876  1
  O  O15  1  0.407326  0.538026  0.195996  1
  O  O16  1  0.460260  0.797420  0.589206  1
  O  O17  1  0.595708  0.462099  0.800885  1
  O  O18  1  0.809251  0.594647  0.469832  1
  O  O19  1  0.539454  0.203631  0.410326  1
