# generated using pymatgen
data_Tb4Fe7Co9(P3W)4
_symmetry_space_group_name_H-M   'P 1'
_cell_length_a   3.71187100
_cell_length_b   10.39383958
_cell_length_c   11.94451482
_cell_angle_alpha   89.93672882
_cell_angle_beta   90.00000000
_cell_angle_gamma   90.00000000
_symmetry_Int_Tables_number   1
_chemical_formula_structural   Tb4Fe7Co9(P3W)4
_chemical_formula_sum   'Tb4 Fe7 Co9 P12 W4'
_cell_volume   460.82616875
_cell_formula_units_Z   1
loop_
 _symmetry_equiv_pos_site_id
 _symmetry_equiv_pos_as_xyz
  1  'x, y, z'
loop_
 _atom_site_type_symbol
 _atom_site_label
 _atom_site_symmetry_multiplicity
 _atom_site_fract_x
 _atom_site_fract_y
 _atom_site_fract_z
 _atom_site_occupancy
  Tb  Tb0  1  0.250000  0.580285  0.705747  1
  Tb  Tb1  1  0.250000  0.919489  0.205540  1
  Tb  Tb2  1  0.750000  0.419077  0.294585  1
  Tb  Tb3  1  0.750000  0.081475  0.794588  1
  Fe  Fe4  1  0.250000  0.618520  0.201226  1
  Fe  Fe5  1  0.750000  0.118001  0.298817  1
  Fe  Fe6  1  0.750000  0.381750  0.798820  1
  Fe  Fe7  1  0.250000  0.463800  0.934804  1
  Fe  Fe8  1  0.250000  0.035539  0.435566  1
  Fe  Fe9  1  0.750000  0.536657  0.065130  1
  Fe  Fe10  1  0.750000  0.962183  0.566965  1
  Co  Co11  1  0.250000  0.405321  0.487706  1
  Co  Co12  1  0.250000  0.094969  0.987493  1
  Co  Co13  1  0.750000  0.593421  0.511647  1
  Co  Co14  1  0.750000  0.905880  0.011088  1
  Co  Co15  1  0.250000  0.222820  0.173690  1
  Co  Co16  1  0.250000  0.276897  0.673936  1
  Co  Co17  1  0.750000  0.776736  0.824514  1
  Co  Co18  1  0.750000  0.723065  0.326300  1
  Co  Co19  1  0.250000  0.884298  0.702571  1
  P  P20  1  0.250000  0.425516  0.115324  1
  P  P21  1  0.250000  0.076224  0.614448  1
  P  P22  1  0.750000  0.574820  0.884772  1
  P  P23  1  0.750000  0.925422  0.385391  1
  P  P24  1  0.250000  0.271422  0.860458  1
  P  P25  1  0.250000  0.228254  0.360375  1
  P  P26  1  0.750000  0.729403  0.139486  1
  P  P27  1  0.750000  0.768283  0.637471  1
  P  P28  1  0.250000  0.595654  0.390420  1
  P  P29  1  0.250000  0.904508  0.891723  1
  P  P30  1  0.750000  0.403787  0.609528  1
  P  P31  1  0.750000  0.096175  0.109550  1
  W  W32  1  0.250000  0.703237  0.990936  1
  W  W33  1  0.250000  0.795980  0.491590  1
  W  W34  1  0.750000  0.297746  0.008962  1
  W  W35  1  0.750000  0.203386  0.508833  1
