# generated using pymatgen
data_Er9LuIn8(CoPt)2
_symmetry_space_group_name_H-M   'P 1'
_cell_length_a   3.56853600
_cell_length_b   8.04193651
_cell_length_c   17.99484511
_cell_angle_alpha   90.06706999
_cell_angle_beta   90.00000000
_cell_angle_gamma   90.00000000
_symmetry_Int_Tables_number   1
_chemical_formula_structural   Er9LuIn8(CoPt)2
_chemical_formula_sum   'Er9 Lu1 In8 Co2 Pt2'
_cell_volume   516.41463048
_cell_formula_units_Z   1
loop_
 _symmetry_equiv_pos_site_id
 _symmetry_equiv_pos_as_xyz
  1  'x, y, z'
loop_
 _atom_site_type_symbol
 _atom_site_label
 _atom_site_symmetry_multiplicity
 _atom_site_fract_x
 _atom_site_fract_y
 _atom_site_fract_z
 _atom_site_occupancy
  Er  Er0  1  0.000000  0.111879  0.409714  1
  Er  Er1  1  0.000000  0.886635  0.589296  1
  Er  Er2  1  0.000000  0.381242  0.913395  1
  Er  Er3  1  0.000000  0.619329  0.087273  1
  Er  Er4  1  0.000000  0.234409  0.224620  1
  Er  Er5  1  0.000000  0.766300  0.775477  1
  Er  Er6  1  0.000000  0.243769  0.719955  1
  Er  Er7  1  0.000000  0.000135  0.000351  1
  Er  Er8  1  0.000000  0.499494  0.499912  1
  Lu  Lu9  1  0.000000  0.756337  0.279635  1
  In  In10  1  0.500000  0.425606  0.352303  1
  In  In11  1  0.500000  0.575439  0.647646  1
  In  In12  1  0.500000  0.069201  0.848263  1
  In  In13  1  0.500000  0.931008  0.152525  1
  In  In14  1  0.500000  0.292229  0.067690  1
  In  In15  1  0.500000  0.708060  0.932732  1
  In  In16  1  0.500000  0.204795  0.568072  1
  In  In17  1  0.500000  0.793690  0.430522  1
  Co  Co18  1  0.500000  0.016657  0.305154  1
  Co  Co19  1  0.500000  0.980652  0.694315  1
  Pt  Pt20  1  0.500000  0.478410  0.802704  1
  Pt  Pt21  1  0.500000  0.524722  0.198447  1
