# generated using pymatgen
data_V4SbAsO12
_symmetry_space_group_name_H-M   'P 1'
_cell_length_a   4.57503558
_cell_length_b   4.57502953
_cell_length_c   9.18047500
_cell_angle_alpha   90.00142704
_cell_angle_beta   89.99848620
_cell_angle_gamma   89.32218472
_symmetry_Int_Tables_number   1
_chemical_formula_structural   V4SbAsO12
_chemical_formula_sum   'V4 Sb1 As1 O12'
_cell_volume   192.14236838
_cell_formula_units_Z   1
loop_
 _symmetry_equiv_pos_site_id
 _symmetry_equiv_pos_as_xyz
  1  'x, y, z'
loop_
 _atom_site_type_symbol
 _atom_site_label
 _atom_site_symmetry_multiplicity
 _atom_site_fract_x
 _atom_site_fract_y
 _atom_site_fract_z
 _atom_site_occupancy
  V  V0  1  0.499997  0.500002  0.174162  1
  V  V1  1  0.999994  0.000005  0.339486  1
  V  V2  1  0.000014  0.999986  0.660444  1
  V  V3  1  0.500006  0.499994  0.826081  1
  Sb  Sb4  1  0.000002  0.999997  0.999936  1
  As  As5  1  0.499997  0.500002  0.500094  1
  O  O6  1  0.308101  0.308107  0.000026  1
  O  O7  1  0.211558  0.788440  0.500154  1
  O  O8  1  0.788444  0.211554  0.500140  1
  O  O9  1  0.691892  0.691898  0.000026  1
  O  O10  1  0.687424  0.687410  0.658656  1
  O  O11  1  0.312590  0.312574  0.658655  1
  O  O12  1  0.687420  0.687435  0.341246  1
  O  O13  1  0.202090  0.797908  0.166617  1
  O  O14  1  0.797886  0.202116  0.166609  1
  O  O15  1  0.797966  0.202034  0.833210  1
  O  O16  1  0.202046  0.797953  0.833212  1
  O  O17  1  0.312566  0.312578  0.341245  1
