# generated using pymatgen
data_TlFe(Sb4Ir)3
_symmetry_space_group_name_H-M   'P 1'
_cell_length_a   8.11658903
_cell_length_b   8.11658926
_cell_length_c   8.11658800
_cell_angle_alpha   109.39380727
_cell_angle_beta   109.39380785
_cell_angle_gamma   109.39380444
_symmetry_Int_Tables_number   1
_chemical_formula_structural   TlFe(Sb4Ir)3
_chemical_formula_sum   'Tl1 Fe1 Sb12 Ir3'
_cell_volume   412.79771900
_cell_formula_units_Z   1
loop_
 _symmetry_equiv_pos_site_id
 _symmetry_equiv_pos_as_xyz
  1  'x, y, z'
loop_
 _atom_site_type_symbol
 _atom_site_label
 _atom_site_symmetry_multiplicity
 _atom_site_fract_x
 _atom_site_fract_y
 _atom_site_fract_z
 _atom_site_occupancy
  Tl  Tl0  1  0.000000  0.000000  0.000000  1
  Fe  Fe1  1  0.500000  0.500000  0.500000  1
  Sb  Sb2  1  0.834337  0.657111  0.505250  1
  Sb  Sb3  1  0.165663  0.342889  0.494750  1
  Sb  Sb4  1  0.154460  0.657435  0.811684  1
  Sb  Sb5  1  0.845540  0.342565  0.188316  1
  Sb  Sb6  1  0.657111  0.505250  0.834337  1
  Sb  Sb7  1  0.342889  0.494750  0.165663  1
  Sb  Sb8  1  0.657435  0.811684  0.154460  1
  Sb  Sb9  1  0.342565  0.188316  0.845540  1
  Sb  Sb10  1  0.505250  0.834337  0.657111  1
  Sb  Sb11  1  0.494750  0.165663  0.342889  1
  Sb  Sb12  1  0.188316  0.845540  0.342565  1
  Sb  Sb13  1  0.811684  0.154460  0.657435  1
  Ir  Ir14  1  0.500000  0.000000  0.000000  1
  Ir  Ir15  1  0.000000  0.500000  0.000000  1
  Ir  Ir16  1  0.000000  0.000000  0.500000  1
