# generated using pymatgen
data_TbNd2Dy(Ir2O7)2
_symmetry_space_group_name_H-M   'P 1'
_cell_length_a   7.32658434
_cell_length_b   7.32658511
_cell_length_c   7.29654080
_cell_angle_alpha   60.17932879
_cell_angle_beta   60.17932706
_cell_angle_gamma   60.30357062
_symmetry_Int_Tables_number   1
_chemical_formula_structural   TbNd2Dy(Ir2O7)2
_chemical_formula_sum   'Tb1 Nd2 Dy1 Ir4 O14'
_cell_volume   278.33569897
_cell_formula_units_Z   1
loop_
 _symmetry_equiv_pos_site_id
 _symmetry_equiv_pos_as_xyz
  1  'x, y, z'
loop_
 _atom_site_type_symbol
 _atom_site_label
 _atom_site_symmetry_multiplicity
 _atom_site_fract_x
 _atom_site_fract_y
 _atom_site_fract_z
 _atom_site_occupancy
  Tb  Tb0  1  0.125000  0.125000  0.625000  1
  Nd  Nd1  1  0.625000  0.125000  0.125000  1
  Nd  Nd2  1  0.125000  0.625000  0.125000  1
  Dy  Dy3  1  0.125000  0.125000  0.125000  1
  Ir  Ir4  1  0.125000  0.625000  0.625000  1
  Ir  Ir5  1  0.625000  0.125000  0.625000  1
  Ir  Ir6  1  0.625000  0.625000  0.125000  1
  Ir  Ir7  1  0.625000  0.625000  0.625000  1
  O  O8  1  0.709539  0.709539  0.290473  1
  O  O9  1  0.290216  0.290216  0.710056  1
  O  O10  1  0.716803  0.289835  0.702628  1
  O  O11  1  0.289669  0.717256  0.290586  1
  O  O12  1  0.289835  0.716803  0.702628  1
  O  O13  1  0.717256  0.289669  0.290586  1
  O  O14  1  0.540461  0.540461  0.959527  1
  O  O15  1  0.959784  0.959784  0.539944  1
  O  O16  1  0.533197  0.960165  0.547372  1
  O  O17  1  0.960331  0.532744  0.959414  1
  O  O18  1  0.960165  0.533197  0.547372  1
  O  O19  1  0.532744  0.960331  0.959414  1
  O  O20  1  0.243463  0.243463  0.255773  1
  O  O21  1  0.006537  0.006537  0.994227  1
