# generated using pymatgen
data_Yb2ThAl11
_symmetry_space_group_name_H-M   'P 1'
_cell_length_a   8.38100892
_cell_length_b   8.38100791
_cell_length_c   8.38100977
_cell_angle_alpha   148.73264021
_cell_angle_beta   108.10312463
_cell_angle_gamma   80.47471696
_symmetry_Int_Tables_number   1
_chemical_formula_structural   Yb2ThAl11
_chemical_formula_sum   'Yb2 Th1 Al11'
_cell_volume   284.38270897
_cell_formula_units_Z   1
loop_
 _symmetry_equiv_pos_site_id
 _symmetry_equiv_pos_as_xyz
  1  'x, y, z'
loop_
 _atom_site_type_symbol
 _atom_site_label
 _atom_site_symmetry_multiplicity
 _atom_site_fract_x
 _atom_site_fract_y
 _atom_site_fract_z
 _atom_site_occupancy
  Yb  Yb0  1  0.311126  0.311126  0.000000  1
  Yb  Yb1  1  0.688874  0.688874  0.000000  1
  Th  Th2  1  0.000000  0.000000  0.000000  1
  Al  Al3  1  0.500000  0.000000  0.500000  1
  Al  Al4  1  0.292466  0.500000  0.792466  1
  Al  Al5  1  0.707534  0.500000  0.207534  1
  Al  Al6  1  0.968936  0.335608  0.633327  1
  Al  Al7  1  0.031064  0.664392  0.366673  1
  Al  Al8  1  0.702281  0.335608  0.366673  1
  Al  Al9  1  0.297719  0.664392  0.633327  1
  Al  Al10  1  0.860660  0.136411  0.724249  1
  Al  Al11  1  0.139340  0.863589  0.275751  1
  Al  Al12  1  0.412162  0.136411  0.275751  1
  Al  Al13  1  0.587838  0.863589  0.724249  1
