# generated using pymatgen
data_Zr8Ta12Al5Si11
_symmetry_space_group_name_H-M   'P 1'
_cell_length_a   6.93951129
_cell_length_b   6.95050987
_cell_length_c   12.82601088
_cell_angle_alpha   90.03316722
_cell_angle_beta   89.94748607
_cell_angle_gamma   89.88384877
_symmetry_Int_Tables_number   1
_chemical_formula_structural   Zr8Ta12Al5Si11
_chemical_formula_sum   'Zr8 Ta12 Al5 Si11'
_cell_volume   618.63716507
_cell_formula_units_Z   1
loop_
 _symmetry_equiv_pos_site_id
 _symmetry_equiv_pos_as_xyz
  1  'x, y, z'
loop_
 _atom_site_type_symbol
 _atom_site_label
 _atom_site_symmetry_multiplicity
 _atom_site_fract_x
 _atom_site_fract_y
 _atom_site_fract_z
 _atom_site_occupancy
  Zr  Zr0  1  0.999836  0.667359  0.028755  1
  Zr  Zr1  1  0.002846  0.335998  0.528944  1
  Zr  Zr2  1  0.656774  0.998626  0.970624  1
  Zr  Zr3  1  0.166548  0.500859  0.780221  1
  Zr  Zr4  1  0.833070  0.499311  0.279805  1
  Zr  Zr5  1  0.501095  0.156465  0.219364  1
  Zr  Zr6  1  0.496994  0.840828  0.721978  1
  Zr  Zr7  1  0.339007  0.001190  0.469202  1
  Ta  Ta8  1  0.353390  0.503148  0.377583  1
  Ta  Ta9  1  0.844177  0.999039  0.369101  1
  Ta  Ta10  1  0.003458  0.146874  0.127913  1
  Ta  Ta11  1  0.002055  0.849211  0.631188  1
  Ta  Ta12  1  0.646793  0.496726  0.878519  1
  Ta  Ta13  1  0.497500  0.349127  0.623607  1
  Ta  Ta14  1  0.498920  0.656080  0.122296  1
  Ta  Ta15  1  0.156456  0.000984  0.872894  1
  Ta  Ta16  1  0.663016  0.666892  0.497564  1
  Ta  Ta17  1  0.830609  0.165293  0.751248  1
  Ta  Ta18  1  0.171837  0.836155  0.248618  1
  Ta  Ta19  1  0.336280  0.328150  0.998731  1
  Al  Al20  1  0.041540  0.701048  0.435952  1
  Al  Al21  1  0.958022  0.301620  0.936385  1
  Al  Al22  1  0.701199  0.040998  0.563955  1
  Al  Al23  1  0.198919  0.457761  0.185383  1
  Al  Al24  1  0.800564  0.542097  0.685268  1
  Si  Si25  1  0.458607  0.201199  0.813028  1
  Si  Si26  1  0.542478  0.798507  0.313676  1
  Si  Si27  1  0.298259  0.957185  0.063316  1
  Si  Si28  1  0.863527  0.791731  0.823461  1
  Si  Si29  1  0.135756  0.209832  0.322835  1
  Si  Si30  1  0.793775  0.861763  0.177749  1
  Si  Si31  1  0.291868  0.638025  0.571812  1
  Si  Si32  1  0.708695  0.363975  0.073047  1
  Si  Si33  1  0.637312  0.291702  0.429341  1
  Si  Si34  1  0.362375  0.706450  0.929116  1
  Si  Si35  1  0.206444  0.137792  0.677518  1
