# generated using pymatgen
data_Ho4Tc3MoN8
_symmetry_space_group_name_H-M   'P 1'
_cell_length_a   3.15086600
_cell_length_b   5.64585181
_cell_length_c   10.68711377
_cell_angle_alpha   89.47762135
_cell_angle_beta   90.00000000
_cell_angle_gamma   90.00000000
_symmetry_Int_Tables_number   1
_chemical_formula_structural   Ho4Tc3MoN8
_chemical_formula_sum   'Ho4 Tc3 Mo1 N8'
_cell_volume   190.10861193
_cell_formula_units_Z   1
loop_
 _symmetry_equiv_pos_site_id
 _symmetry_equiv_pos_as_xyz
  1  'x, y, z'
loop_
 _atom_site_type_symbol
 _atom_site_label
 _atom_site_symmetry_multiplicity
 _atom_site_fract_x
 _atom_site_fract_y
 _atom_site_fract_z
 _atom_site_occupancy
  Ho  Ho0  1  0.250000  0.078326  0.853897  1
  Ho  Ho1  1  0.250000  0.577460  0.646901  1
  Ho  Ho2  1  0.750000  0.919905  0.148695  1
  Ho  Ho3  1  0.750000  0.422259  0.352982  1
  Tc  Tc4  1  0.250000  0.435010  0.098039  1
  Tc  Tc5  1  0.250000  0.937678  0.404400  1
  Tc  Tc6  1  0.750000  0.564516  0.901124  1
  Mo  Mo7  1  0.750000  0.064440  0.594715  1
  N  N8  1  0.250000  0.166560  0.246231  1
  N  N9  1  0.250000  0.666594  0.253121  1
  N  N10  1  0.750000  0.831963  0.754323  1
  N  N11  1  0.750000  0.332178  0.745321  1
  N  N12  1  0.250000  0.749490  0.997046  1
  N  N13  1  0.250000  0.257839  0.504763  1
  N  N14  1  0.750000  0.249164  0.002924  1
  N  N15  1  0.750000  0.746617  0.495519  1
