# generated using pymatgen
data_Sc6Zn22CoPd
_symmetry_space_group_name_H-M   'P 1'
_cell_length_a   8.78125570
_cell_length_b   8.78125531
_cell_length_c   8.78125600
_cell_angle_alpha   60.00000492
_cell_angle_beta   60.00000639
_cell_angle_gamma   59.99999844
_symmetry_Int_Tables_number   1
_chemical_formula_structural   Sc6Zn22CoPd
_chemical_formula_sum   'Sc6 Zn22 Co1 Pd1'
_cell_volume   478.80083576
_cell_formula_units_Z   1
loop_
 _symmetry_equiv_pos_site_id
 _symmetry_equiv_pos_as_xyz
  1  'x, y, z'
loop_
 _atom_site_type_symbol
 _atom_site_label
 _atom_site_symmetry_multiplicity
 _atom_site_fract_x
 _atom_site_fract_y
 _atom_site_fract_z
 _atom_site_occupancy
  Sc  Sc0  1  0.703914  0.296086  0.296086  1
  Sc  Sc1  1  0.296086  0.703914  0.703914  1
  Sc  Sc2  1  0.296086  0.703914  0.296086  1
  Sc  Sc3  1  0.703914  0.296086  0.703914  1
  Sc  Sc4  1  0.296086  0.296086  0.703914  1
  Sc  Sc5  1  0.703914  0.703914  0.296086  1
  Zn  Zn6  1  0.120919  0.120919  0.120919  1
  Zn  Zn7  1  0.879081  0.879081  0.879081  1
  Zn  Zn8  1  0.120919  0.120919  0.637244  1
  Zn  Zn9  1  0.120919  0.637244  0.120919  1
  Zn  Zn10  1  0.879081  0.879081  0.362756  1
  Zn  Zn11  1  0.879081  0.362756  0.879081  1
  Zn  Zn12  1  0.637244  0.120919  0.120919  1
  Zn  Zn13  1  0.362756  0.879081  0.879081  1
  Zn  Zn14  1  0.500000  0.000000  0.000000  1
  Zn  Zn15  1  0.000000  0.500000  0.500000  1
  Zn  Zn16  1  0.000000  0.500000  0.000000  1
  Zn  Zn17  1  0.500000  0.000000  0.500000  1
  Zn  Zn18  1  0.000000  0.000000  0.500000  1
  Zn  Zn19  1  0.500000  0.500000  0.000000  1
  Zn  Zn20  1  0.334406  0.334406  0.334406  1
  Zn  Zn21  1  0.665594  0.665594  0.665594  1
  Zn  Zn22  1  0.334406  0.334406  0.996782  1
  Zn  Zn23  1  0.334406  0.996782  0.334406  1
  Zn  Zn24  1  0.665594  0.665594  0.003218  1
  Zn  Zn25  1  0.665594  0.003218  0.665594  1
  Zn  Zn26  1  0.996782  0.334406  0.334406  1
  Zn  Zn27  1  0.003218  0.665594  0.665594  1
  Co  Co28  1  0.500000  0.500000  0.500000  1
  Pd  Pd29  1  0.000000  0.000000  0.000000  1
