# generated using pymatgen
data_Mg3H3N
_symmetry_space_group_name_H-M   'P 1'
_cell_length_a   4.20231526
_cell_length_b   4.22159237
_cell_length_c   5.96680344
_cell_angle_alpha   134.98693203
_cell_angle_beta   89.97150750
_cell_angle_gamma   90.00114315
_symmetry_Int_Tables_number   1
_chemical_formula_structural   Mg3H3N
_chemical_formula_sum   'Mg3 H3 N1'
_cell_volume   74.86702721
_cell_formula_units_Z   1
loop_
 _symmetry_equiv_pos_site_id
 _symmetry_equiv_pos_as_xyz
  1  'x, y, z'
loop_
 _atom_site_type_symbol
 _atom_site_label
 _atom_site_symmetry_multiplicity
 _atom_site_fract_x
 _atom_site_fract_y
 _atom_site_fract_z
 _atom_site_occupancy
  Mg  Mg0  1  0.888268  0.225045  0.127593  1
  Mg  Mg1  1  0.888889  0.224829  0.627893  1
  Mg  Mg2  1  0.388533  0.723691  0.627010  1
  H  H3  1  0.388522  0.230072  0.130256  1
  H  H4  1  0.387836  0.226712  0.628669  1
  H  H5  1  0.885789  0.722585  0.126371  1
  N  N6  1  0.888858  0.724693  0.627814  1
