# generated using pymatgen
data_Zr6Ti4In4Ga8Ir7
_symmetry_space_group_name_H-M   'P 1'
_cell_length_a   8.95745897
_cell_length_b   8.95764636
_cell_length_c   8.95743900
_cell_angle_alpha   59.99925836
_cell_angle_beta   59.99882278
_cell_angle_gamma   59.99939713
_symmetry_Int_Tables_number   1
_chemical_formula_structural   Zr6Ti4In4Ga8Ir7
_chemical_formula_sum   'Zr6 Ti4 In4 Ga8 Ir7'
_cell_volume   508.20545813
_cell_formula_units_Z   1
loop_
 _symmetry_equiv_pos_site_id
 _symmetry_equiv_pos_as_xyz
  1  'x, y, z'
loop_
 _atom_site_type_symbol
 _atom_site_label
 _atom_site_symmetry_multiplicity
 _atom_site_fract_x
 _atom_site_fract_y
 _atom_site_fract_z
 _atom_site_occupancy
  Zr  Zr0  1  0.690319  0.690303  0.309755  1
  Zr  Zr1  1  0.309631  0.690278  0.309822  1
  Zr  Zr2  1  0.690322  0.309623  0.309753  1
  Zr  Zr3  1  0.309726  0.309772  0.690228  1
  Zr  Zr4  1  0.690302  0.309730  0.690240  1
  Zr  Zr5  1  0.309733  0.690270  0.690218  1
  Ti  Ti6  1  0.876789  0.876800  0.369616  1
  Ti  Ti7  1  0.876799  0.369589  0.876789  1
  Ti  Ti8  1  0.369566  0.876812  0.876805  1
  Ti  Ti9  1  0.876798  0.876818  0.876782  1
  In  In10  1  0.121044  0.121031  0.636896  1
  In  In11  1  0.121029  0.636867  0.121108  1
  In  In12  1  0.636833  0.121024  0.121129  1
  In  In13  1  0.121025  0.120999  0.121106  1
  Ga  Ga14  1  0.657821  0.657776  0.026615  1
  Ga  Ga15  1  0.657855  0.026592  0.657734  1
  Ga  Ga16  1  0.026565  0.657831  0.657758  1
  Ga  Ga17  1  0.657862  0.657809  0.657734  1
  Ga  Ga18  1  0.344235  0.344239  0.967290  1
  Ga  Ga19  1  0.344229  0.967331  0.344210  1
  Ga  Ga20  1  0.967311  0.344236  0.344218  1
  Ga  Ga21  1  0.344231  0.344233  0.344212  1
  Ir  Ir22  1  0.999823  0.000020  0.000181  1
  Ir  Ir23  1  0.993664  0.993671  0.506240  1
  Ir  Ir24  1  0.506457  0.993696  0.506157  1
  Ir  Ir25  1  0.993656  0.506420  0.506266  1
  Ir  Ir26  1  0.506353  0.506204  0.993719  1
  Ir  Ir27  1  0.993697  0.506290  0.993693  1
  Ir  Ir28  1  0.506327  0.993738  0.993726  1
