# generated using pymatgen
data_TmZnCu3Pd
_symmetry_space_group_name_H-M   'P 1'
_cell_length_a   5.02645256
_cell_length_b   5.02645255
_cell_length_c   5.02645200
_cell_angle_alpha   60.17062434
_cell_angle_beta   60.17061124
_cell_angle_gamma   60.17063368
_symmetry_Int_Tables_number   1
_chemical_formula_structural   TmZnCu3Pd
_chemical_formula_sum   'Tm1 Zn1 Cu3 Pd1'
_cell_volume   90.14563735
_cell_formula_units_Z   1
loop_
 _symmetry_equiv_pos_site_id
 _symmetry_equiv_pos_as_xyz
  1  'x, y, z'
loop_
 _atom_site_type_symbol
 _atom_site_label
 _atom_site_symmetry_multiplicity
 _atom_site_fract_x
 _atom_site_fract_y
 _atom_site_fract_z
 _atom_site_occupancy
  Tm  Tm0  1  0.247992  0.247992  0.247992  1
  Zn  Zn1  1  0.627648  0.627648  0.627648  1
  Cu  Cu2  1  0.626049  0.626049  0.123841  1
  Cu  Cu3  1  0.626049  0.123841  0.626049  1
  Cu  Cu4  1  0.123841  0.626049  0.626049  1
  Pd  Pd5  1  0.998424  0.998424  0.998424  1
