# generated using pymatgen
data_Ca3Ni6B2Rh
_symmetry_space_group_name_H-M   'P 1'
_cell_length_a   7.88401047
_cell_length_b   7.88401034
_cell_length_c   7.88400935
_cell_angle_alpha   38.06629510
_cell_angle_beta   38.06629935
_cell_angle_gamma   38.06629228
_symmetry_Int_Tables_number   1
_chemical_formula_structural   Ca3Ni6B2Rh
_chemical_formula_sum   'Ca3 Ni6 B2 Rh1'
_cell_volume   167.25067942
_cell_formula_units_Z   1
loop_
 _symmetry_equiv_pos_site_id
 _symmetry_equiv_pos_as_xyz
  1  'x, y, z'
loop_
 _atom_site_type_symbol
 _atom_site_label
 _atom_site_symmetry_multiplicity
 _atom_site_fract_x
 _atom_site_fract_y
 _atom_site_fract_z
 _atom_site_occupancy
  Ca  Ca0  1  0.645070  0.645070  0.645070  1
  Ca  Ca1  1  0.354930  0.354930  0.354930  1
  Ca  Ca2  1  0.500000  0.500000  0.500000  1
  Ni  Ni3  1  0.569077  0.059957  0.059957  1
  Ni  Ni4  1  0.059957  0.059957  0.569077  1
  Ni  Ni5  1  0.059957  0.569077  0.059957  1
  Ni  Ni6  1  0.940043  0.430923  0.940043  1
  Ni  Ni7  1  0.940043  0.940043  0.430923  1
  Ni  Ni8  1  0.430923  0.940043  0.940043  1
  B  B9  1  0.831377  0.831377  0.831377  1
  B  B10  1  0.168623  0.168623  0.168623  1
  Rh  Rh11  1  0.000000  0.000000  0.000000  1
