# generated using pymatgen
data_Ca2Zn3Ir
_symmetry_space_group_name_H-M   'P 1'
_cell_length_a   5.46046576
_cell_length_b   5.46046540
_cell_length_c   5.44629223
_cell_angle_alpha   59.91387402
_cell_angle_beta   59.91387831
_cell_angle_gamma   59.99999335
_symmetry_Int_Tables_number   1
_chemical_formula_structural   Ca2Zn3Ir
_chemical_formula_sum   'Ca2 Zn3 Ir1'
_cell_volume   114.67762583
_cell_formula_units_Z   1
loop_
 _symmetry_equiv_pos_site_id
 _symmetry_equiv_pos_as_xyz
  1  'x, y, z'
loop_
 _atom_site_type_symbol
 _atom_site_label
 _atom_site_symmetry_multiplicity
 _atom_site_fract_x
 _atom_site_fract_y
 _atom_site_fract_z
 _atom_site_occupancy
  Ca  Ca0  1  0.253499  0.253499  0.239504  1
  Ca  Ca1  1  0.996501  0.996501  0.010496  1
  Zn  Zn2  1  0.625000  0.625000  0.625000  1
  Zn  Zn3  1  0.125000  0.625000  0.625000  1
  Zn  Zn4  1  0.625000  0.125000  0.625000  1
  Ir  Ir5  1  0.625000  0.625000  0.125000  1
