# generated using pymatgen
data_Ca9SmIr4
_symmetry_space_group_name_H-M   'P 1'
_cell_length_a   8.61720601
_cell_length_b   8.61720639
_cell_length_c   7.56810460
_cell_angle_alpha   82.81313302
_cell_angle_beta   82.81313414
_cell_angle_gamma   44.82532145
_symmetry_Int_Tables_number   1
_chemical_formula_structural   Ca9SmIr4
_chemical_formula_sum   'Ca9 Sm1 Ir4'
_cell_volume   392.52142729
_cell_formula_units_Z   1
loop_
 _symmetry_equiv_pos_site_id
 _symmetry_equiv_pos_as_xyz
  1  'x, y, z'
loop_
 _atom_site_type_symbol
 _atom_site_label
 _atom_site_symmetry_multiplicity
 _atom_site_fract_x
 _atom_site_fract_y
 _atom_site_fract_z
 _atom_site_occupancy
  Ca  Ca0  1  0.025809  0.801444  0.415786  1
  Ca  Ca1  1  0.198556  0.974191  0.084214  1
  Ca  Ca2  1  0.978847  0.195645  0.581901  1
  Ca  Ca3  1  0.804355  0.021153  0.918099  1
  Ca  Ca4  1  0.361313  0.204666  0.322330  1
  Ca  Ca5  1  0.795334  0.638687  0.177670  1
  Ca  Ca6  1  0.640433  0.799123  0.678321  1
  Ca  Ca7  1  0.200877  0.359567  0.821679  1
  Ca  Ca8  1  0.570878  0.429122  0.250000  1
  Sm  Sm9  1  0.435143  0.564857  0.750000  1
  Ir  Ir10  1  0.179431  0.604006  0.072586  1
  Ir  Ir11  1  0.395994  0.820569  0.427414  1
  Ir  Ir12  1  0.814571  0.401541  0.915267  1
  Ir  Ir13  1  0.598459  0.185429  0.584733  1
