# generated using pymatgen
data_Er2Ga3Fe14C3
_symmetry_space_group_name_H-M   'P 1'
_cell_length_a   6.51391608
_cell_length_b   6.51391635
_cell_length_c   6.51391504
_cell_angle_alpha   83.28053535
_cell_angle_beta   83.28053608
_cell_angle_gamma   83.28054469
_symmetry_Int_Tables_number   1
_chemical_formula_structural   Er2Ga3Fe14C3
_chemical_formula_sum   'Er2 Ga3 Fe14 C3'
_cell_volume   271.10877860
_cell_formula_units_Z   1
loop_
 _symmetry_equiv_pos_site_id
 _symmetry_equiv_pos_as_xyz
  1  'x, y, z'
loop_
 _atom_site_type_symbol
 _atom_site_label
 _atom_site_symmetry_multiplicity
 _atom_site_fract_x
 _atom_site_fract_y
 _atom_site_fract_z
 _atom_site_occupancy
  Er  Er0  1  0.656874  0.656874  0.656874  1
  Er  Er1  1  0.343126  0.343126  0.343126  1
  Ga  Ga2  1  0.000000  0.000000  0.500000  1
  Ga  Ga3  1  0.500000  0.000000  0.000000  1
  Ga  Ga4  1  0.000000  0.500000  0.000000  1
  Fe  Fe5  1  0.714493  0.285507  0.000000  1
  Fe  Fe6  1  0.000000  0.714493  0.285507  1
  Fe  Fe7  1  0.285507  0.000000  0.714493  1
  Fe  Fe8  1  0.000000  0.285507  0.714493  1
  Fe  Fe9  1  0.714493  0.000000  0.285507  1
  Fe  Fe10  1  0.285507  0.714493  0.000000  1
  Fe  Fe11  1  0.346070  0.851200  0.346070  1
  Fe  Fe12  1  0.346070  0.346070  0.851200  1
  Fe  Fe13  1  0.851200  0.346070  0.346070  1
  Fe  Fe14  1  0.653930  0.148800  0.653930  1
  Fe  Fe15  1  0.653930  0.653930  0.148800  1
  Fe  Fe16  1  0.148800  0.653930  0.653930  1
  Fe  Fe17  1  0.907298  0.907298  0.907298  1
  Fe  Fe18  1  0.092702  0.092702  0.092702  1
  C  C19  1  0.500000  0.500000  0.000000  1
  C  C20  1  0.000000  0.500000  0.500000  1
  C  C21  1  0.500000  0.000000  0.500000  1
