# generated using pymatgen
data_Mn3Al4Cd(PO5)4
_symmetry_space_group_name_H-M   'P 1'
_cell_length_a   5.63811000
_cell_length_b   7.32363299
_cell_length_c   10.78333469
_cell_angle_alpha   89.68529660
_cell_angle_beta   90.22151710
_cell_angle_gamma   97.58751476
_symmetry_Int_Tables_number   1
_chemical_formula_structural   Mn3Al4Cd(PO5)4
_chemical_formula_sum   'Mn3 Al4 Cd1 P4 O20'
_cell_volume   441.35209237
_cell_formula_units_Z   1
loop_
 _symmetry_equiv_pos_site_id
 _symmetry_equiv_pos_as_xyz
  1  'x, y, z'
loop_
 _atom_site_type_symbol
 _atom_site_label
 _atom_site_symmetry_multiplicity
 _atom_site_fract_x
 _atom_site_fract_y
 _atom_site_fract_z
 _atom_site_occupancy
  Mn  Mn0  1  0.879920  0.983186  0.854838  1
  Mn  Mn1  1  0.380210  0.985281  0.648588  1
  Mn  Mn2  1  0.116013  0.018126  0.142918  1
  Al  Al3  1  0.562515  0.363043  0.173304  1
  Al  Al4  1  0.937788  0.641847  0.673675  1
  Al  Al5  1  0.438489  0.638170  0.822666  1
  Al  Al6  1  0.067125  0.359352  0.326388  1
  Cd  Cd7  1  0.614842  0.015011  0.355082  1
  P  P8  1  0.076685  0.771800  0.408163  1
  P  P9  1  0.424096  0.225250  0.906201  1
  P  P10  1  0.925160  0.225855  0.596451  1
  P  P11  1  0.571858  0.774768  0.090089  1
  O  O12  1  0.781838  0.280781  0.266209  1
  O  O13  1  0.725861  0.727733  0.768825  1
  O  O14  1  0.225207  0.727731  0.729075  1
  O  O15  1  0.278165  0.272471  0.230943  1
  O  O16  1  0.125989  0.600990  0.334591  1
  O  O17  1  0.384281  0.395561  0.827725  1
  O  O18  1  0.891692  0.399400  0.671226  1
  O  O19  1  0.616038  0.605600  0.168530  1
  O  O20  1  0.587701  0.284199  0.018666  1
  O  O21  1  0.902377  0.716014  0.517052  1
  O  O22  1  0.410435  0.714224  0.977439  1
  O  O23  1  0.085503  0.276840  0.481615  1
  O  O24  1  0.964768  0.903939  0.319192  1
  O  O25  1  0.548925  0.092790  0.824358  1
  O  O26  1  0.049225  0.093506  0.680336  1
  O  O27  1  0.440453  0.904042  0.170790  1
  O  O28  1  0.677537  0.129016  0.553569  1
  O  O29  1  0.814518  0.878315  0.044548  1
  O  O30  1  0.314233  0.869829  0.463501  1
  O  O31  1  0.180555  0.125334  0.953448  1
