# generated using pymatgen
data_DyErU(SnRu)3
_symmetry_space_group_name_H-M   'P 1'
_cell_length_a   7.84377349
_cell_length_b   7.33898092
_cell_length_c   3.88410700
_cell_angle_alpha   90.00000000
_cell_angle_beta   90.00000000
_cell_angle_gamma   122.19467075
_symmetry_Int_Tables_number   1
_chemical_formula_structural   DyErU(SnRu)3
_chemical_formula_sum   'Dy1 Er1 U1 Sn3 Ru3'
_cell_volume   189.21124232
_cell_formula_units_Z   1
loop_
 _symmetry_equiv_pos_site_id
 _symmetry_equiv_pos_as_xyz
  1  'x, y, z'
loop_
 _atom_site_type_symbol
 _atom_site_label
 _atom_site_symmetry_multiplicity
 _atom_site_fract_x
 _atom_site_fract_y
 _atom_site_fract_z
 _atom_site_occupancy
  Dy  Dy0  1  0.006545  0.406380  0.500000  1
  Er  Er1  1  0.600819  0.594082  0.500000  1
  U  U2  1  0.412569  0.000228  0.500000  1
  Sn  Sn3  1  0.984326  0.724066  0.000000  1
  Sn  Sn4  1  0.261234  0.276309  0.000000  1
  Sn  Sn5  1  0.758713  0.999028  0.000000  1
  Ru  Ru6  1  0.342212  0.720868  0.000000  1
  Ru  Ru7  1  0.621139  0.280151  0.000000  1
  Ru  Ru8  1  0.012444  0.998888  0.500000  1
