# generated using pymatgen
data_Sr20CdHg2Au9
_symmetry_space_group_name_H-M   'P 1'
_cell_length_a   8.51856300
_cell_length_b   8.51856300
_cell_length_c   15.60467200
_cell_angle_alpha   90.00000000
_cell_angle_beta   90.00000000
_cell_angle_gamma   90.00000000
_symmetry_Int_Tables_number   1
_chemical_formula_structural   Sr20CdHg2Au9
_chemical_formula_sum   'Sr20 Cd1 Hg2 Au9'
_cell_volume   1132.36731108
_cell_formula_units_Z   1
loop_
 _symmetry_equiv_pos_site_id
 _symmetry_equiv_pos_as_xyz
  1  'x, y, z'
loop_
 _atom_site_type_symbol
 _atom_site_label
 _atom_site_symmetry_multiplicity
 _atom_site_fract_x
 _atom_site_fract_y
 _atom_site_fract_z
 _atom_site_occupancy
  Sr  Sr0  1  0.000000  0.000000  0.755016  1
  Sr  Sr1  1  0.500000  0.500000  0.250233  1
  Sr  Sr2  1  0.000000  0.000000  0.244984  1
  Sr  Sr3  1  0.500000  0.500000  0.749767  1
  Sr  Sr4  1  0.172630  0.657793  0.107455  1
  Sr  Sr5  1  0.665010  0.165613  0.610957  1
  Sr  Sr6  1  0.827370  0.342207  0.107455  1
  Sr  Sr7  1  0.334990  0.834387  0.610957  1
  Sr  Sr8  1  0.342207  0.172630  0.107455  1
  Sr  Sr9  1  0.834387  0.665010  0.610957  1
  Sr  Sr10  1  0.657793  0.827370  0.107455  1
  Sr  Sr11  1  0.165613  0.334990  0.610957  1
  Sr  Sr12  1  0.342207  0.827370  0.892545  1
  Sr  Sr13  1  0.834387  0.334990  0.389043  1
  Sr  Sr14  1  0.657793  0.172630  0.892545  1
  Sr  Sr15  1  0.165613  0.665010  0.389043  1
  Sr  Sr16  1  0.172630  0.342207  0.892545  1
  Sr  Sr17  1  0.665010  0.834387  0.389043  1
  Sr  Sr18  1  0.827370  0.657793  0.892545  1
  Sr  Sr19  1  0.334990  0.165613  0.389043  1
  Cd  Cd20  1  0.000000  0.000000  0.000000  1
  Hg  Hg21  1  0.000000  0.000000  0.500000  1
  Hg  Hg22  1  0.500000  0.500000  0.500000  1
  Au  Au23  1  0.629183  0.129304  0.248422  1
  Au  Au24  1  0.129304  0.629183  0.751578  1
  Au  Au25  1  0.870696  0.370817  0.751578  1
  Au  Au26  1  0.370817  0.870696  0.248422  1
  Au  Au27  1  0.370817  0.129304  0.751578  1
  Au  Au28  1  0.870696  0.629183  0.248422  1
  Au  Au29  1  0.129304  0.370817  0.248422  1
  Au  Au30  1  0.629183  0.870696  0.751578  1
  Au  Au31  1  0.500000  0.500000  0.000000  1
