# generated using pymatgen
data_Dy3Mg(GaPt)4
_symmetry_space_group_name_H-M   'P 1'
_cell_length_a   4.35362000
_cell_length_b   6.86660640
_cell_length_c   7.71979598
_cell_angle_alpha   93.67687201
_cell_angle_beta   90.00000000
_cell_angle_gamma   90.00000000
_symmetry_Int_Tables_number   1
_chemical_formula_structural   Dy3Mg(GaPt)4
_chemical_formula_sum   'Dy3 Mg1 Ga4 Pt4'
_cell_volume   230.30513263
_cell_formula_units_Z   1
loop_
 _symmetry_equiv_pos_site_id
 _symmetry_equiv_pos_as_xyz
  1  'x, y, z'
loop_
 _atom_site_type_symbol
 _atom_site_label
 _atom_site_symmetry_multiplicity
 _atom_site_fract_x
 _atom_site_fract_y
 _atom_site_fract_z
 _atom_site_occupancy
  Dy  Dy0  1  0.250000  0.477882  0.191968  1
  Dy  Dy1  1  0.750000  0.018896  0.677851  1
  Dy  Dy2  1  0.750000  0.527228  0.811851  1
  Mg  Mg3  1  0.250000  0.981972  0.315341  1
  Ga  Ga4  1  0.250000  0.334210  0.566716  1
  Ga  Ga5  1  0.250000  0.847495  0.940283  1
  Ga  Ga6  1  0.750000  0.654096  0.430045  1
  Ga  Ga7  1  0.750000  0.156964  0.066572  1
  Pt  Pt8  1  0.250000  0.226286  0.882336  1
  Pt  Pt9  1  0.250000  0.725088  0.606810  1
  Pt  Pt10  1  0.750000  0.782948  0.122513  1
  Pt  Pt11  1  0.750000  0.266934  0.387714  1
