# generated using pymatgen
data_Er4AlFeRu6
_symmetry_space_group_name_H-M   'P 1'
_cell_length_a   5.26389791
_cell_length_b   5.29745443
_cell_length_c   8.84754700
_cell_angle_alpha   90.00000000
_cell_angle_beta   90.00000000
_cell_angle_gamma   121.46508774
_symmetry_Int_Tables_number   1
_chemical_formula_structural   Er4AlFeRu6
_chemical_formula_sum   'Er4 Al1 Fe1 Ru6'
_cell_volume   210.43860183
_cell_formula_units_Z   1
loop_
 _symmetry_equiv_pos_site_id
 _symmetry_equiv_pos_as_xyz
  1  'x, y, z'
loop_
 _atom_site_type_symbol
 _atom_site_label
 _atom_site_symmetry_multiplicity
 _atom_site_fract_x
 _atom_site_fract_y
 _atom_site_fract_z
 _atom_site_occupancy
  Er  Er0  1  0.334099  0.664790  0.438537  1
  Er  Er1  1  0.666586  0.336150  0.567843  1
  Er  Er2  1  0.666586  0.336150  0.932157  1
  Er  Er3  1  0.334099  0.664790  0.061463  1
  Al  Al4  1  0.335675  0.167569  0.250000  1
  Fe  Fe5  1  0.166121  0.330745  0.750000  1
  Ru  Ru6  1  0.176819  0.828855  0.750000  1
  Ru  Ru7  1  0.833447  0.660128  0.250000  1
  Ru  Ru8  1  0.660053  0.832632  0.750000  1
  Ru  Ru9  1  0.997241  0.000875  0.998417  1
  Ru  Ru10  1  0.832030  0.176441  0.250000  1
  Ru  Ru11  1  0.997241  0.000875  0.501583  1
