# generated using pymatgen
data_K2ErTeO6
_symmetry_space_group_name_H-M   'P 1'
_cell_length_a   5.90368902
_cell_length_b   5.90368904
_cell_length_c   5.90246900
_cell_angle_alpha   60.00684152
_cell_angle_beta   60.00684142
_cell_angle_gamma   59.98633005
_symmetry_Int_Tables_number   1
_chemical_formula_structural   K2ErTeO6
_chemical_formula_sum   'K2 Er1 Te1 O6'
_cell_volume   145.46739758
_cell_formula_units_Z   1
loop_
 _symmetry_equiv_pos_site_id
 _symmetry_equiv_pos_as_xyz
  1  'x, y, z'
loop_
 _atom_site_type_symbol
 _atom_site_label
 _atom_site_symmetry_multiplicity
 _atom_site_fract_x
 _atom_site_fract_y
 _atom_site_fract_z
 _atom_site_occupancy
  K  K0  1  0.250000  0.250000  0.250000  1
  K  K1  1  0.750000  0.750000  0.750000  1
  Er  Er2  1  0.000000  0.000000  0.000000  1
  Te  Te3  1  0.500000  0.500000  0.500000  1
  O  O4  1  0.732932  0.267069  0.267069  1
  O  O5  1  0.267069  0.732932  0.267069  1
  O  O6  1  0.732954  0.732954  0.267047  1
  O  O7  1  0.267047  0.267047  0.732954  1
  O  O8  1  0.732932  0.267069  0.732932  1
  O  O9  1  0.267069  0.732932  0.732932  1
