# generated using pymatgen
data_ZrSc5(Co2Sn)6
_symmetry_space_group_name_H-M   'P 1'
_cell_length_a   4.39556200
_cell_length_b   6.23376300
_cell_length_c   13.20378000
_cell_angle_alpha   89.99952236
_cell_angle_beta   89.99934434
_cell_angle_gamma   89.99950417
_symmetry_Int_Tables_number   1
_chemical_formula_structural   ZrSc5(Co2Sn)6
_chemical_formula_sum   'Zr1 Sc5 Co12 Sn6'
_cell_volume   361.79534658
_cell_formula_units_Z   1
loop_
 _symmetry_equiv_pos_site_id
 _symmetry_equiv_pos_as_xyz
  1  'x, y, z'
loop_
 _atom_site_type_symbol
 _atom_site_label
 _atom_site_symmetry_multiplicity
 _atom_site_fract_x
 _atom_site_fract_y
 _atom_site_fract_z
 _atom_site_occupancy
  Zr  Zr0  1  0.000000  0.500001  0.000000  1
  Sc  Sc1  1  0.500245  0.999982  0.167657  1
  Sc  Sc2  1  0.000208  0.500030  0.334251  1
  Sc  Sc3  1  0.500000  0.000000  0.500000  1
  Sc  Sc4  1  0.999791  0.499972  0.665749  1
  Sc  Sc5  1  0.499755  0.000018  0.832343  1
  Co  Co6  1  0.500000  0.252792  0.999998  1
  Co  Co7  1  0.500000  0.747208  0.000002  1
  Co  Co8  1  0.000261  0.249825  0.166332  1
  Co  Co9  1  0.000264  0.750176  0.166331  1
  Co  Co10  1  0.500281  0.250052  0.333614  1
  Co  Co11  1  0.500281  0.749947  0.333611  1
  Co  Co12  1  0.000000  0.249878  0.499999  1
  Co  Co13  1  0.000000  0.750122  0.500001  1
  Co  Co14  1  0.499718  0.250052  0.666390  1
  Co  Co15  1  0.499718  0.749947  0.666387  1
  Co  Co16  1  0.999735  0.249824  0.833669  1
  Co  Co17  1  0.999738  0.750175  0.833668  1
  Sn  Sn18  1  0.000000  0.000000  0.000000  1
  Sn  Sn19  1  0.500221  0.500001  0.169338  1
  Sn  Sn20  1  0.000301  0.999998  0.333810  1
  Sn  Sn21  1  0.500000  0.500001  0.500000  1
  Sn  Sn22  1  0.999699  0.000002  0.666190  1
  Sn  Sn23  1  0.499778  0.500001  0.830662  1
