# generated using pymatgen
data_PrThIr6
_symmetry_space_group_name_H-M   'P 1'
_cell_length_a   5.38274582
_cell_length_b   5.38274389
_cell_length_c   18.09141377
_cell_angle_alpha   98.55537759
_cell_angle_beta   98.55537414
_cell_angle_gamma   60.00000612
_symmetry_Int_Tables_number   1
_chemical_formula_structural   PrThIr6
_chemical_formula_sum   'Pr3 Th3 Ir18'
_cell_volume   447.20505735
_cell_formula_units_Z   3
loop_
 _symmetry_equiv_pos_site_id
 _symmetry_equiv_pos_as_xyz
  1  'x, y, z'
loop_
 _atom_site_type_symbol
 _atom_site_label
 _atom_site_symmetry_multiplicity
 _atom_site_fract_x
 _atom_site_fract_y
 _atom_site_fract_z
 _atom_site_occupancy
  Pr  Pr0  1  0.429374  0.429374  0.288122  1
  Pr  Pr1  1  0.930629  0.930629  0.791888  1
  Pr  Pr2  1  0.070370  0.070370  0.211112  1
  Th  Th3  1  0.569531  0.569531  0.708591  1
  Th  Th4  1  0.000639  0.000639  0.001917  1
  Th  Th5  1  0.498753  0.498753  0.496259  1
  Ir  Ir6  1  0.461186  0.958559  0.378305  1
  Ir  Ir7  1  0.961191  0.458942  0.879076  1
  Ir  Ir8  1  0.958559  0.958559  0.378305  1
  Ir  Ir9  1  0.458942  0.458942  0.879076  1
  Ir  Ir10  1  0.958559  0.461186  0.378305  1
  Ir  Ir11  1  0.458942  0.961191  0.879076  1
  Ir  Ir12  1  0.038512  0.541479  0.121469  1
  Ir  Ir13  1  0.539472  0.041053  0.621578  1
  Ir  Ir14  1  0.541479  0.541479  0.121469  1
  Ir  Ir15  1  0.041053  0.041053  0.621578  1
  Ir  Ir16  1  0.541479  0.038512  0.121469  1
  Ir  Ir17  1  0.041053  0.539472  0.621578  1
  Ir  Ir18  1  0.333818  0.333818  0.001455  1
  Ir  Ir19  1  0.833641  0.833641  0.500924  1
  Ir  Ir20  1  0.166265  0.166265  0.498797  1
  Ir  Ir21  1  0.666323  0.666323  0.998968  1
  Ir  Ir22  1  0.750012  0.750012  0.250036  1
  Ir  Ir23  1  0.250215  0.250215  0.750643  1
