# generated using pymatgen
data_Y2Ho2TaPd15
_symmetry_space_group_name_H-M   'P 1'
_cell_length_a   4.08617400
_cell_length_b   4.08617400
_cell_length_c   20.50621200
_cell_angle_alpha   90.00000000
_cell_angle_beta   90.00000000
_cell_angle_gamma   90.00000000
_symmetry_Int_Tables_number   1
_chemical_formula_structural   Y2Ho2TaPd15
_chemical_formula_sum   'Y2 Ho2 Ta1 Pd15'
_cell_volume   342.38848878
_cell_formula_units_Z   1
loop_
 _symmetry_equiv_pos_site_id
 _symmetry_equiv_pos_as_xyz
  1  'x, y, z'
loop_
 _atom_site_type_symbol
 _atom_site_label
 _atom_site_symmetry_multiplicity
 _atom_site_fract_x
 _atom_site_fract_y
 _atom_site_fract_z
 _atom_site_occupancy
  Y  Y0  1  0.000000  0.000000  0.601344  1
  Y  Y1  1  0.000000  0.000000  0.801165  1
  Ho  Ho2  1  0.000000  0.000000  0.199341  1
  Ho  Ho3  1  0.000000  0.000000  0.398058  1
  Ta  Ta4  1  0.000000  0.000000  0.000185  1
  Pd  Pd5  1  0.500000  0.500000  0.000080  1
  Pd  Pd6  1  0.500000  0.500000  0.193609  1
  Pd  Pd7  1  0.500000  0.500000  0.398061  1
  Pd  Pd8  1  0.500000  0.500000  0.601924  1
  Pd  Pd9  1  0.500000  0.500000  0.806464  1
  Pd  Pd10  1  0.500000  0.000000  0.090910  1
  Pd  Pd11  1  0.500000  0.000000  0.296651  1
  Pd  Pd12  1  0.500000  0.000000  0.499523  1
  Pd  Pd13  1  0.500000  0.000000  0.703337  1
  Pd  Pd14  1  0.500000  0.000000  0.909464  1
  Pd  Pd15  1  0.000000  0.500000  0.090910  1
  Pd  Pd16  1  0.000000  0.500000  0.296651  1
  Pd  Pd17  1  0.000000  0.500000  0.499523  1
  Pd  Pd18  1  0.000000  0.500000  0.703337  1
  Pd  Pd19  1  0.000000  0.500000  0.909464  1
