# generated using pymatgen
data_LiMg2TcN4
_symmetry_space_group_name_H-M   'P 1'
_cell_length_a   6.64753000
_cell_length_b   5.59364000
_cell_length_c   5.15994200
_cell_angle_alpha   90.00000000
_cell_angle_beta   90.00000000
_cell_angle_gamma   90.00000000
_symmetry_Int_Tables_number   1
_chemical_formula_structural   LiMg2TcN4
_chemical_formula_sum   'Li2 Mg4 Tc2 N8'
_cell_volume   191.86671423
_cell_formula_units_Z   2
loop_
 _symmetry_equiv_pos_site_id
 _symmetry_equiv_pos_as_xyz
  1  'x, y, z'
loop_
 _atom_site_type_symbol
 _atom_site_label
 _atom_site_symmetry_multiplicity
 _atom_site_fract_x
 _atom_site_fract_y
 _atom_site_fract_z
 _atom_site_occupancy
  Li  Li0  1  0.000000  0.661936  0.857646  1
  Li  Li1  1  0.500000  0.338064  0.357646  1
  Mg  Mg2  1  0.252450  0.175045  0.855664  1
  Mg  Mg3  1  0.747550  0.175045  0.855664  1
  Mg  Mg4  1  0.247550  0.824955  0.355664  1
  Mg  Mg5  1  0.752450  0.824955  0.355664  1
  Tc  Tc6  1  0.000000  0.329471  0.348351  1
  Tc  Tc7  1  0.500000  0.670529  0.848351  1
  N  N8  1  0.000000  0.635623  0.461637  1
  N  N9  1  0.500000  0.364377  0.961637  1
  N  N10  1  0.000000  0.326713  0.999163  1
  N  N11  1  0.500000  0.673287  0.499163  1
  N  N12  1  0.772485  0.178660  0.455748  1
  N  N13  1  0.227515  0.178660  0.455748  1
  N  N14  1  0.727515  0.821340  0.955748  1
  N  N15  1  0.272485  0.821340  0.955748  1
