# generated using pymatgen
data_Hf16Fe4PdPt3
_symmetry_space_group_name_H-M   'P 1'
_cell_length_a   8.62739792
_cell_length_b   8.62739895
_cell_length_c   8.62739779
_cell_angle_alpha   59.90137091
_cell_angle_beta   59.90136525
_cell_angle_gamma   59.90137363
_symmetry_Int_Tables_number   1
_chemical_formula_structural   Hf16Fe4PdPt3
_chemical_formula_sum   'Hf16 Fe4 Pd1 Pt3'
_cell_volume   453.05578582
_cell_formula_units_Z   1
loop_
 _symmetry_equiv_pos_site_id
 _symmetry_equiv_pos_as_xyz
  1  'x, y, z'
loop_
 _atom_site_type_symbol
 _atom_site_label
 _atom_site_symmetry_multiplicity
 _atom_site_fract_x
 _atom_site_fract_y
 _atom_site_fract_z
 _atom_site_occupancy
  Hf  Hf0  1  0.183544  0.605336  0.605336  1
  Hf  Hf1  1  0.605336  0.183544  0.605336  1
  Hf  Hf2  1  0.605336  0.605336  0.183544  1
  Hf  Hf3  1  0.605842  0.605842  0.605842  1
  Hf  Hf4  1  0.810032  0.810032  0.190901  1
  Hf  Hf5  1  0.190207  0.190207  0.809620  1
  Hf  Hf6  1  0.810032  0.190901  0.810032  1
  Hf  Hf7  1  0.190207  0.809620  0.190207  1
  Hf  Hf8  1  0.190901  0.810032  0.810032  1
  Hf  Hf9  1  0.809620  0.190207  0.190207  1
  Hf  Hf10  1  0.441292  0.441292  0.058485  1
  Hf  Hf11  1  0.059333  0.059333  0.440414  1
  Hf  Hf12  1  0.441292  0.058485  0.441292  1
  Hf  Hf13  1  0.059333  0.440414  0.059333  1
  Hf  Hf14  1  0.058485  0.441292  0.441292  1
  Hf  Hf15  1  0.440414  0.059333  0.059333  1
  Fe  Fe16  1  0.821002  0.393192  0.393192  1
  Fe  Fe17  1  0.393192  0.821002  0.393192  1
  Fe  Fe18  1  0.393192  0.393192  0.821002  1
  Fe  Fe19  1  0.393158  0.393158  0.393158  1
  Pd  Pd20  1  0.835691  0.835691  0.835691  1
  Pt  Pt21  1  0.485249  0.838656  0.838656  1
  Pt  Pt22  1  0.838656  0.485249  0.838656  1
  Pt  Pt23  1  0.838656  0.838656  0.485249  1
