# generated using pymatgen
data_Pr2Lu8(BiSb)3
_symmetry_space_group_name_H-M   'P 1'
_cell_length_a   8.04965600
_cell_length_b   9.29300993
_cell_length_c   11.72647700
_cell_angle_alpha   90.09180390
_cell_angle_beta   90.00000000
_cell_angle_gamma   90.00000000
_symmetry_Int_Tables_number   1
_chemical_formula_structural   Pr2Lu8(BiSb)3
_chemical_formula_sum   'Pr4 Lu16 Bi6 Sb6'
_cell_volume   877.20423773
_cell_formula_units_Z   2
loop_
 _symmetry_equiv_pos_site_id
 _symmetry_equiv_pos_as_xyz
  1  'x, y, z'
loop_
 _atom_site_type_symbol
 _atom_site_label
 _atom_site_symmetry_multiplicity
 _atom_site_fract_x
 _atom_site_fract_y
 _atom_site_fract_z
 _atom_site_occupancy
  Pr  Pr0  1  0.317025  0.250994  0.219141  1
  Pr  Pr1  1  0.817025  0.249006  0.280859  1
  Pr  Pr2  1  0.682004  0.750124  0.781241  1
  Pr  Pr3  1  0.182004  0.749876  0.718759  1
  Lu  Lu4  1  0.351435  0.750646  0.217456  1
  Lu  Lu5  1  0.851435  0.749354  0.282544  1
  Lu  Lu6  1  0.648889  0.250220  0.783051  1
  Lu  Lu7  1  0.148889  0.249780  0.716949  1
  Lu  Lu8  1  0.689713  0.564732  0.060757  1
  Lu  Lu9  1  0.189713  0.935268  0.439243  1
  Lu  Lu10  1  0.311909  0.065701  0.940542  1
  Lu  Lu11  1  0.811909  0.434299  0.559458  1
  Lu  Lu12  1  0.311420  0.435152  0.942146  1
  Lu  Lu13  1  0.811420  0.064848  0.557854  1
  Lu  Lu14  1  0.686596  0.934910  0.062807  1
  Lu  Lu15  1  0.186596  0.565090  0.437193  1
  Lu  Lu16  1  0.475927  0.247505  0.486836  1
  Lu  Lu17  1  0.975927  0.252495  0.013164  1
  Lu  Lu18  1  0.525164  0.752407  0.509216  1
  Lu  Lu19  1  0.025164  0.747593  0.990784  1
  Bi  Bi20  1  0.435623  0.489376  0.671044  1
  Bi  Bi21  1  0.935623  0.010624  0.828956  1
  Bi  Bi22  1  0.435496  0.010612  0.672467  1
  Bi  Bi23  1  0.935496  0.489388  0.827533  1
  Bi  Bi24  1  0.564746  0.510528  0.327891  1
  Bi  Bi25  1  0.064746  0.989472  0.172109  1
  Sb  Sb26  1  0.401878  0.750237  0.965484  1
  Sb  Sb27  1  0.901878  0.749763  0.534516  1
  Sb  Sb28  1  0.598554  0.249937  0.034852  1
  Sb  Sb29  1  0.098554  0.250063  0.465148  1
  Sb  Sb30  1  0.563622  0.988659  0.328635  1
  Sb  Sb31  1  0.063622  0.511341  0.171365  1
