# generated using pymatgen
data_Dy4Y(In2Pt)2
_symmetry_space_group_name_H-M   'P 1'
_cell_length_a   3.63190900
_cell_length_b   8.18922500
_cell_length_c   18.28238700
_cell_angle_alpha   90.00000000
_cell_angle_beta   90.00000000
_cell_angle_gamma   90.00000000
_symmetry_Int_Tables_number   1
_chemical_formula_structural   Dy4Y(In2Pt)2
_chemical_formula_sum   'Dy8 Y2 In8 Pt4'
_cell_volume   543.76426064
_cell_formula_units_Z   2
loop_
 _symmetry_equiv_pos_site_id
 _symmetry_equiv_pos_as_xyz
  1  'x, y, z'
loop_
 _atom_site_type_symbol
 _atom_site_label
 _atom_site_symmetry_multiplicity
 _atom_site_fract_x
 _atom_site_fract_y
 _atom_site_fract_z
 _atom_site_occupancy
  Dy  Dy0  1  0.000000  0.117164  0.414893  1
  Dy  Dy1  1  0.000000  0.882836  0.585107  1
  Dy  Dy2  1  0.000000  0.382836  0.914893  1
  Dy  Dy3  1  0.000000  0.617164  0.085107  1
  Dy  Dy4  1  0.000000  0.243750  0.220638  1
  Dy  Dy5  1  0.000000  0.756250  0.779362  1
  Dy  Dy6  1  0.000000  0.256250  0.720638  1
  Dy  Dy7  1  0.000000  0.743750  0.279362  1
  Y  Y8  1  0.000000  0.000000  0.000000  1
  Y  Y9  1  0.000000  0.500000  0.500000  1
  In  In10  1  0.500000  0.424254  0.351292  1
  In  In11  1  0.500000  0.575746  0.648708  1
  In  In12  1  0.500000  0.075746  0.851292  1
  In  In13  1  0.500000  0.924254  0.148708  1
  In  In14  1  0.500000  0.292443  0.067066  1
  In  In15  1  0.500000  0.707557  0.932934  1
  In  In16  1  0.500000  0.207557  0.567066  1
  In  In17  1  0.500000  0.792443  0.432934  1
  Pt  Pt18  1  0.500000  0.025153  0.303145  1
  Pt  Pt19  1  0.500000  0.974847  0.696855  1
  Pt  Pt20  1  0.500000  0.474847  0.803145  1
  Pt  Pt21  1  0.500000  0.525153  0.196855  1
