# generated using pymatgen
data_Nb12Al15Ga(Cu3Ir)2
_symmetry_space_group_name_H-M   'P 1'
_cell_length_a   8.78597475
_cell_length_b   8.86590472
_cell_length_c   8.20910100
_cell_angle_alpha   90.00000000
_cell_angle_beta   90.00000000
_cell_angle_gamma   120.98059442
_symmetry_Int_Tables_number   1
_chemical_formula_structural   Nb12Al15Ga(Cu3Ir)2
_chemical_formula_sum   'Nb12 Al15 Ga1 Cu6 Ir2'
_cell_volume   548.22969132
_cell_formula_units_Z   1
loop_
 _symmetry_equiv_pos_site_id
 _symmetry_equiv_pos_as_xyz
  1  'x, y, z'
loop_
 _atom_site_type_symbol
 _atom_site_label
 _atom_site_symmetry_multiplicity
 _atom_site_fract_x
 _atom_site_fract_y
 _atom_site_fract_z
 _atom_site_occupancy
  Nb  Nb0  1  0.328309  0.991560  0.068254  1
  Nb  Nb1  1  0.672061  0.009221  0.932235  1
  Nb  Nb2  1  0.997158  0.331273  0.069542  1
  Nb  Nb3  1  0.672061  0.009221  0.567765  1
  Nb  Nb4  1  0.997158  0.331273  0.430458  1
  Nb  Nb5  1  0.002293  0.668268  0.930797  1
  Nb  Nb6  1  0.328309  0.991560  0.431746  1
  Nb  Nb7  1  0.002293  0.668268  0.569203  1
  Nb  Nb8  1  0.668040  0.664207  0.067345  1
  Nb  Nb9  1  0.331835  0.335591  0.932600  1
  Nb  Nb10  1  0.331835  0.335591  0.567400  1
  Nb  Nb11  1  0.668040  0.664207  0.432655  1
  Al  Al12  1  0.653611  0.505227  0.750000  1
  Al  Al13  1  0.655569  0.151801  0.250000  1
  Al  Al14  1  0.346620  0.494856  0.250000  1
  Al  Al15  1  0.845093  0.342446  0.750000  1
  Al  Al16  1  0.155206  0.657580  0.250000  1
  Al  Al17  1  0.340307  0.665487  0.506097  1
  Al  Al18  1  0.659760  0.334686  0.494610  1
  Al  Al19  1  0.659760  0.334686  0.005390  1
  Al  Al20  1  0.340307  0.665487  0.993903  1
  Al  Al21  1  0.179609  0.009700  0.750000  1
  Al  Al22  1  0.821076  0.990324  0.250000  1
  Al  Al23  1  0.008621  0.179444  0.750000  1
  Al  Al24  1  0.991316  0.820424  0.250000  1
  Al  Al25  1  0.825151  0.834371  0.750000  1
  Al  Al26  1  0.175087  0.165578  0.250000  1
  Ga  Ga27  1  0.342973  0.848181  0.750000  1
  Cu  Cu28  1  0.167953  0.499062  0.750000  1
  Cu  Cu29  1  0.831506  0.499763  0.250000  1
  Cu  Cu30  1  0.506064  0.671803  0.750000  1
  Cu  Cu31  1  0.503758  0.171995  0.750000  1
  Cu  Cu32  1  0.494317  0.327682  0.250000  1
  Cu  Cu33  1  0.496743  0.828939  0.250000  1
  Ir  Ir34  1  0.000102  0.000116  0.500254  1
  Ir  Ir35  1  0.000102  0.000116  0.999746  1
