# generated using pymatgen
data_TbPa3CoNi3Sn2
_symmetry_space_group_name_H-M   'P 1'
_cell_length_a   7.44940319
_cell_length_b   7.44940322
_cell_length_c   3.56004700
_cell_angle_alpha   90.00000000
_cell_angle_beta   90.00000000
_cell_angle_gamma   91.10891747
_symmetry_Int_Tables_number   1
_chemical_formula_structural   TbPa3CoNi3Sn2
_chemical_formula_sum   'Tb1 Pa3 Co1 Ni3 Sn2'
_cell_volume   197.52285245
_cell_formula_units_Z   1
loop_
 _symmetry_equiv_pos_site_id
 _symmetry_equiv_pos_as_xyz
  1  'x, y, z'
loop_
 _atom_site_type_symbol
 _atom_site_label
 _atom_site_symmetry_multiplicity
 _atom_site_fract_x
 _atom_site_fract_y
 _atom_site_fract_z
 _atom_site_occupancy
  Tb  Tb0  1  0.827704  0.672296  0.500000  1
  Pa  Pa1  1  0.668856  0.175041  0.500000  1
  Pa  Pa2  1  0.324959  0.831144  0.500000  1
  Pa  Pa3  1  0.177905  0.322095  0.500000  1
  Co  Co4  1  0.366112  0.133888  0.000000  1
  Ni  Ni5  1  0.882923  0.360674  0.000000  1
  Ni  Ni6  1  0.139326  0.617077  0.000000  1
  Ni  Ni7  1  0.612009  0.887991  0.000000  1
  Sn  Sn8  1  0.504974  0.504769  0.000000  1
  Sn  Sn9  1  0.995231  0.995026  0.000000  1
