# generated using pymatgen
data_Y2HoEr5(CdPt)2
_symmetry_space_group_name_H-M   'P 1'
_cell_length_a   9.63284793
_cell_length_b   9.63298017
_cell_length_c   9.63298000
_cell_angle_alpha   59.99908745
_cell_angle_beta   60.00045775
_cell_angle_gamma   60.00045323
_symmetry_Int_Tables_number   1
_chemical_formula_structural   Y2HoEr5(CdPt)2
_chemical_formula_sum   'Y4 Ho2 Er10 Cd4 Pt4'
_cell_volume   632.06395771
_cell_formula_units_Z   2
loop_
 _symmetry_equiv_pos_site_id
 _symmetry_equiv_pos_as_xyz
  1  'x, y, z'
loop_
 _atom_site_type_symbol
 _atom_site_label
 _atom_site_symmetry_multiplicity
 _atom_site_fract_x
 _atom_site_fract_y
 _atom_site_fract_z
 _atom_site_occupancy
  Y  Y0  1  0.564063  0.935937  0.564063  1
  Y  Y1  1  0.935937  0.564063  0.935937  1
  Y  Y2  1  0.564063  0.564063  0.935937  1
  Y  Y3  1  0.935937  0.935937  0.564063  1
  Ho  Ho4  1  0.936259  0.563741  0.563741  1
  Ho  Ho5  1  0.563741  0.936259  0.936259  1
  Er  Er6  1  0.352089  0.352333  0.352333  1
  Er  Er7  1  0.352333  0.352089  0.943244  1
  Er  Er8  1  0.352333  0.943244  0.352089  1
  Er  Er9  1  0.943244  0.352333  0.352333  1
  Er  Er10  1  0.810999  0.189001  0.189001  1
  Er  Er11  1  0.189001  0.810999  0.810999  1
  Er  Er12  1  0.189058  0.810942  0.189058  1
  Er  Er13  1  0.810942  0.189058  0.810942  1
  Er  Er14  1  0.189058  0.189058  0.810942  1
  Er  Er15  1  0.810942  0.810942  0.189058  1
  Cd  Cd16  1  0.581843  0.581708  0.581708  1
  Cd  Cd17  1  0.581708  0.581843  0.254742  1
  Cd  Cd18  1  0.581708  0.254742  0.581843  1
  Cd  Cd19  1  0.254742  0.581708  0.581708  1
  Pt  Pt20  1  0.143402  0.143259  0.143259  1
  Pt  Pt21  1  0.143259  0.143402  0.570079  1
  Pt  Pt22  1  0.143259  0.570079  0.143402  1
  Pt  Pt23  1  0.570079  0.143259  0.143259  1
