# generated using pymatgen
data_Co3Sb8Pt
_symmetry_space_group_name_H-M   'P 1'
_cell_length_a   6.44269645
_cell_length_b   6.57225588
_cell_length_c   6.57476455
_cell_angle_alpha   67.70824326
_cell_angle_beta   90.04019576
_cell_angle_gamma   90.03289562
_symmetry_Int_Tables_number   1
_chemical_formula_structural   Co3Sb8Pt
_chemical_formula_sum   'Co3 Sb8 Pt1'
_cell_volume   257.58941555
_cell_formula_units_Z   1
loop_
 _symmetry_equiv_pos_site_id
 _symmetry_equiv_pos_as_xyz
  1  'x, y, z'
loop_
 _atom_site_type_symbol
 _atom_site_label
 _atom_site_symmetry_multiplicity
 _atom_site_fract_x
 _atom_site_fract_y
 _atom_site_fract_z
 _atom_site_occupancy
  Co  Co0  1  0.500147  0.748361  0.756666  1
  Co  Co1  1  0.999850  0.745687  0.257856  1
  Co  Co2  1  0.499658  0.251746  0.243665  1
  Sb  Sb3  1  0.627391  0.358342  0.853616  1
  Sb  Sb4  1  0.146932  0.664757  0.642413  1
  Sb  Sb5  1  0.357104  0.645374  0.150197  1
  Sb  Sb6  1  0.852876  0.360805  0.332452  1
  Sb  Sb7  1  0.373200  0.142774  0.635608  1
  Sb  Sb8  1  0.852989  0.838731  0.868797  1
  Sb  Sb9  1  0.642309  0.853280  0.359977  1
  Sb  Sb10  1  0.146897  0.136182  0.156392  1
  Pt  Pt11  1  0.000646  0.253962  0.742360  1
