# generated using pymatgen
data_La2Yb(PrSn2)2
_symmetry_space_group_name_H-M   'P 1'
_cell_length_a   8.24967300
_cell_length_b   8.37564900
_cell_length_c   16.02280500
_cell_angle_alpha   90.00000000
_cell_angle_beta   90.00000000
_cell_angle_gamma   90.00000000
_symmetry_Int_Tables_number   1
_chemical_formula_structural   La2Yb(PrSn2)2
_chemical_formula_sum   'La8 Yb4 Pr8 Sn16'
_cell_volume   1107.11758922
_cell_formula_units_Z   4
loop_
 _symmetry_equiv_pos_site_id
 _symmetry_equiv_pos_as_xyz
  1  'x, y, z'
loop_
 _atom_site_type_symbol
 _atom_site_label
 _atom_site_symmetry_multiplicity
 _atom_site_fract_x
 _atom_site_fract_y
 _atom_site_fract_z
 _atom_site_occupancy
  La  La0  1  0.494378  0.319308  0.903468  1
  La  La1  1  0.994378  0.180692  0.596532  1
  La  La2  1  0.505622  0.680692  0.403468  1
  La  La3  1  0.005622  0.819308  0.096532  1
  La  La4  1  0.505622  0.680692  0.096532  1
  La  La5  1  0.005622  0.819308  0.403468  1
  La  La6  1  0.494378  0.319308  0.596532  1
  La  La7  1  0.994378  0.180692  0.903468  1
  Yb  Yb8  1  0.171333  0.495802  0.750000  1
  Yb  Yb9  1  0.671333  0.004198  0.750000  1
  Yb  Yb10  1  0.828667  0.504198  0.250000  1
  Yb  Yb11  1  0.328667  0.995802  0.250000  1
  Pr  Pr12  1  0.339219  0.828055  0.875385  1
  Pr  Pr13  1  0.839219  0.671945  0.624615  1
  Pr  Pr14  1  0.660781  0.171945  0.375386  1
  Pr  Pr15  1  0.160781  0.328055  0.124614  1
  Pr  Pr16  1  0.660781  0.171945  0.124614  1
  Pr  Pr17  1  0.160781  0.328055  0.375386  1
  Pr  Pr18  1  0.339219  0.828055  0.624615  1
  Pr  Pr19  1  0.839219  0.671945  0.875385  1
  Sn  Sn20  1  0.326068  0.035576  0.039156  1
  Sn  Sn21  1  0.826068  0.464424  0.460844  1
  Sn  Sn22  1  0.673932  0.964424  0.539156  1
  Sn  Sn23  1  0.173932  0.535576  0.960844  1
  Sn  Sn24  1  0.673932  0.964424  0.960844  1
  Sn  Sn25  1  0.173932  0.535576  0.539156  1
  Sn  Sn26  1  0.326068  0.035576  0.460844  1
  Sn  Sn27  1  0.826068  0.464424  0.039156  1
  Sn  Sn28  1  0.538204  0.608057  0.750000  1
  Sn  Sn29  1  0.038204  0.891943  0.750000  1
  Sn  Sn30  1  0.461796  0.391943  0.250000  1
  Sn  Sn31  1  0.961796  0.108057  0.250000  1
  Sn  Sn32  1  0.298350  0.137412  0.750000  1
  Sn  Sn33  1  0.798350  0.362588  0.750000  1
  Sn  Sn34  1  0.701650  0.862588  0.250000  1
  Sn  Sn35  1  0.201650  0.637412  0.250000  1
