# generated using pymatgen
data_SrRh2PbO7
_symmetry_space_group_name_H-M   'P 1'
_cell_length_a   7.32146552
_cell_length_b   7.35398824
_cell_length_c   7.35398861
_cell_angle_alpha   59.97533998
_cell_angle_beta   60.14618036
_cell_angle_gamma   60.14618407
_symmetry_Int_Tables_number   1
_chemical_formula_structural   SrRh2PbO7
_chemical_formula_sum   'Sr2 Rh4 Pb2 O14'
_cell_volume   280.54569900
_cell_formula_units_Z   2
loop_
 _symmetry_equiv_pos_site_id
 _symmetry_equiv_pos_as_xyz
  1  'x, y, z'
loop_
 _atom_site_type_symbol
 _atom_site_label
 _atom_site_symmetry_multiplicity
 _atom_site_fract_x
 _atom_site_fract_y
 _atom_site_fract_z
 _atom_site_occupancy
  Sr  Sr0  1  0.625000  0.125000  0.625000  1
  Sr  Sr1  1  0.625000  0.625000  0.125000  1
  Rh  Rh2  1  0.625000  0.125000  0.125000  1
  Rh  Rh3  1  0.125000  0.625000  0.125000  1
  Rh  Rh4  1  0.125000  0.125000  0.625000  1
  Rh  Rh5  1  0.125000  0.125000  0.125000  1
  Pb  Pb6  1  0.125000  0.625000  0.625000  1
  Pb  Pb7  1  0.625000  0.625000  0.625000  1
  O  O8  1  0.799874  0.797008  0.213452  1
  O  O9  1  0.189665  0.213452  0.797008  1
  O  O10  1  0.799874  0.213452  0.797008  1
  O  O11  1  0.189665  0.797008  0.213452  1
  O  O12  1  0.204650  0.795350  0.795350  1
  O  O13  1  0.800761  0.199239  0.199239  1
  O  O14  1  0.450126  0.452992  0.036548  1
  O  O15  1  0.060335  0.036548  0.452992  1
  O  O16  1  0.450126  0.036548  0.452992  1
  O  O17  1  0.060335  0.452992  0.036548  1
  O  O18  1  0.045350  0.454650  0.454650  1
  O  O19  1  0.449239  0.050761  0.050761  1
  O  O20  1  0.484570  0.515430  0.515430  1
  O  O21  1  0.765430  0.734570  0.734570  1
