# generated using pymatgen
data_ErTm9In8(HgPt)2
_symmetry_space_group_name_H-M   'P 1'
_cell_length_a   3.65181300
_cell_length_b   8.16439766
_cell_length_c   18.27073097
_cell_angle_alpha   89.68281468
_cell_angle_beta   90.00000000
_cell_angle_gamma   90.00000000
_symmetry_Int_Tables_number   1
_chemical_formula_structural   ErTm9In8(HgPt)2
_chemical_formula_sum   'Er1 Tm9 In8 Hg2 Pt2'
_cell_volume   544.73082031
_cell_formula_units_Z   1
loop_
 _symmetry_equiv_pos_site_id
 _symmetry_equiv_pos_as_xyz
  1  'x, y, z'
loop_
 _atom_site_type_symbol
 _atom_site_label
 _atom_site_symmetry_multiplicity
 _atom_site_fract_x
 _atom_site_fract_y
 _atom_site_fract_z
 _atom_site_occupancy
  Er  Er0  1  0.000000  0.000000  0.000000  1
  Tm  Tm1  1  0.000000  0.121631  0.423397  1
  Tm  Tm2  1  0.000000  0.878369  0.576603  1
  Tm  Tm3  1  0.000000  0.383618  0.916789  1
  Tm  Tm4  1  0.000000  0.616382  0.083211  1
  Tm  Tm5  1  0.000000  0.261511  0.213037  1
  Tm  Tm6  1  0.000000  0.738489  0.786963  1
  Tm  Tm7  1  0.000000  0.286306  0.721625  1
  Tm  Tm8  1  0.000000  0.713694  0.278375  1
  Tm  Tm9  1  0.000000  0.500000  0.500000  1
  In  In10  1  0.500000  0.417887  0.353054  1
  In  In11  1  0.500000  0.582113  0.646946  1
  In  In12  1  0.500000  0.081243  0.854478  1
  In  In13  1  0.500000  0.918757  0.145522  1
  In  In14  1  0.500000  0.293119  0.063811  1
  In  In15  1  0.500000  0.706881  0.936189  1
  In  In16  1  0.500000  0.212398  0.567584  1
  In  In17  1  0.500000  0.787602  0.432416  1
  Hg  Hg18  1  0.500000  0.025225  0.300589  1
  Hg  Hg19  1  0.500000  0.974775  0.699411  1
  Pt  Pt20  1  0.500000  0.473888  0.805258  1
  Pt  Pt21  1  0.500000  0.526112  0.194742  1
