# generated using pymatgen
data_Pr2NdIn3GeRh2
_symmetry_space_group_name_H-M   'P 1'
_cell_length_a   7.65155414
_cell_length_b   7.65288119
_cell_length_c   4.19243700
_cell_angle_alpha   90.00000000
_cell_angle_beta   90.00000000
_cell_angle_gamma   120.01607607
_symmetry_Int_Tables_number   1
_chemical_formula_structural   Pr2NdIn3GeRh2
_chemical_formula_sum   'Pr2 Nd1 In3 Ge1 Rh2'
_cell_volume   212.56973344
_cell_formula_units_Z   1
loop_
 _symmetry_equiv_pos_site_id
 _symmetry_equiv_pos_as_xyz
  1  'x, y, z'
loop_
 _atom_site_type_symbol
 _atom_site_label
 _atom_site_symmetry_multiplicity
 _atom_site_fract_x
 _atom_site_fract_y
 _atom_site_fract_z
 _atom_site_occupancy
  Pr  Pr0  1  0.593207  0.009399  0.500000  1
  Pr  Pr1  1  0.416251  0.406904  0.500000  1
  Nd  Nd2  1  0.990440  0.584073  0.500000  1
  In  In3  1  0.252595  0.010649  0.000000  1
  In  In4  1  0.758745  0.746846  0.000000  1
  In  In5  1  0.989107  0.242539  0.000000  1
  Ge  Ge6  1  0.332162  0.666255  0.000000  1
  Rh  Rh7  1  0.999865  0.999266  0.500000  1
  Rh  Rh8  1  0.667627  0.334069  0.000000  1
