# generated using pymatgen
data_Lu3U5(TcB6)4
_symmetry_space_group_name_H-M   'P 1'
_cell_length_a   3.61208600
_cell_length_b   9.26120083
_cell_length_c   11.36568893
_cell_angle_alpha   89.92471126
_cell_angle_beta   90.00000000
_cell_angle_gamma   90.00000000
_symmetry_Int_Tables_number   1
_chemical_formula_structural   Lu3U5(TcB6)4
_chemical_formula_sum   'Lu3 U5 Tc4 B24'
_cell_volume   380.20758324
_cell_formula_units_Z   1
loop_
 _symmetry_equiv_pos_site_id
 _symmetry_equiv_pos_as_xyz
  1  'x, y, z'
loop_
 _atom_site_type_symbol
 _atom_site_label
 _atom_site_symmetry_multiplicity
 _atom_site_fract_x
 _atom_site_fract_y
 _atom_site_fract_z
 _atom_site_occupancy
  Lu  Lu0  1  0.000000  0.337384  0.407720  1
  Lu  Lu1  1  0.000000  0.663082  0.591614  1
  Lu  Lu2  1  0.000000  0.835487  0.093269  1
  U  U3  1  0.000000  0.162799  0.907133  1
  U  U4  1  0.000000  0.956000  0.396934  1
  U  U5  1  0.000000  0.043096  0.603285  1
  U  U6  1  0.000000  0.457885  0.104115  1
  U  U7  1  0.000000  0.544350  0.897195  1
  Tc  Tc8  1  0.000000  0.644574  0.319640  1
  Tc  Tc9  1  0.000000  0.354252  0.682258  1
  Tc  Tc10  1  0.000000  0.145023  0.178340  1
  Tc  Tc11  1  0.000000  0.856979  0.819736  1
  B  B12  1  0.500000  0.550240  0.432004  1
  B  B13  1  0.500000  0.449548  0.568605  1
  B  B14  1  0.500000  0.050788  0.067824  1
  B  B15  1  0.500000  0.949717  0.931066  1
  B  B16  1  0.500000  0.741689  0.423765  1
  B  B17  1  0.500000  0.258611  0.575774  1
  B  B18  1  0.500000  0.241995  0.076061  1
  B  B19  1  0.500000  0.757359  0.923333  1
  B  B20  1  0.500000  0.801894  0.274871  1
  B  B21  1  0.500000  0.197421  0.725801  1
  B  B22  1  0.500000  0.302268  0.225617  1
  B  B23  1  0.500000  0.697785  0.774364  1
  B  B24  1  0.500000  0.644064  0.189172  1
  B  B25  1  0.500000  0.355629  0.811373  1
  B  B26  1  0.500000  0.144291  0.310833  1
  B  B27  1  0.500000  0.854576  0.688351  1
  B  B28  1  0.500000  0.987521  0.218924  1
  B  B29  1  0.500000  0.013142  0.781095  1
  B  B30  1  0.500000  0.487134  0.281771  1
  B  B31  1  0.500000  0.513054  0.718508  1
  B  B32  1  0.500000  0.643422  0.039868  1
  B  B33  1  0.500000  0.356964  0.960237  1
  B  B34  1  0.500000  0.142869  0.459952  1
  B  B35  1  0.500000  0.857104  0.539592  1
