# generated using pymatgen
data_Tb2Y3TaRuO12
_symmetry_space_group_name_H-M   'P 1'
_cell_length_a   6.85966368
_cell_length_b   6.86152454
_cell_length_c   7.48721751
_cell_angle_alpha   74.09232993
_cell_angle_beta   74.08689026
_cell_angle_gamma   50.56657921
_symmetry_Int_Tables_number   1
_chemical_formula_structural   Tb2Y3TaRuO12
_chemical_formula_sum   'Tb2 Y3 Ta1 Ru1 O12'
_cell_volume   259.37529015
_cell_formula_units_Z   1
loop_
 _symmetry_equiv_pos_site_id
 _symmetry_equiv_pos_as_xyz
  1  'x, y, z'
loop_
 _atom_site_type_symbol
 _atom_site_label
 _atom_site_symmetry_multiplicity
 _atom_site_fract_x
 _atom_site_fract_y
 _atom_site_fract_z
 _atom_site_occupancy
  Tb  Tb0  1  0.307804  0.299286  0.860901  1
  Tb  Tb1  1  0.316461  0.304918  0.326381  1
  Y  Y2  1  0.694993  0.683364  0.674046  1
  Y  Y3  1  0.700781  0.692273  0.138761  1
  Y  Y4  1  0.999566  0.000152  0.000071  1
  Ta  Ta5  1  0.215358  0.784805  0.499941  1
  Ru  Ru6  1  0.753057  0.246998  0.499971  1
  O  O7  1  0.408275  0.899411  0.924335  1
  O  O8  1  0.580100  0.091655  0.583862  1
  O  O9  1  0.907669  0.420469  0.416153  1
  O  O10  1  0.099759  0.592228  0.075697  1
  O  O11  1  0.998088  0.001645  0.301605  1
  O  O12  1  0.492773  0.507726  0.683514  1
  O  O13  1  0.906000  0.402655  0.925512  1
  O  O14  1  0.099830  0.570166  0.583193  1
  O  O15  1  0.430577  0.899462  0.416815  1
  O  O16  1  0.597855  0.093180  0.074564  1
  O  O17  1  0.492631  0.507591  0.316324  1
  O  O18  1  0.998423  0.002016  0.698355  1
