# generated using pymatgen
data_Ti8Al14GaOs4Rh3
_symmetry_space_group_name_H-M   'P 1'
_cell_length_a   8.64268644
_cell_length_b   8.64444230
_cell_length_c   8.66946364
_cell_angle_alpha   119.90226411
_cell_angle_beta   119.80151819
_cell_angle_gamma   90.10680521
_symmetry_Int_Tables_number   1
_chemical_formula_structural   Ti8Al14GaOs4Rh3
_chemical_formula_sum   'Ti8 Al14 Ga1 Os4 Rh3'
_cell_volume   459.61701723
_cell_formula_units_Z   1
loop_
 _symmetry_equiv_pos_site_id
 _symmetry_equiv_pos_as_xyz
  1  'x, y, z'
loop_
 _atom_site_type_symbol
 _atom_site_label
 _atom_site_symmetry_multiplicity
 _atom_site_fract_x
 _atom_site_fract_y
 _atom_site_fract_z
 _atom_site_occupancy
  Ti  Ti0  1  0.780379  0.285966  0.070672  1
  Ti  Ti1  1  0.224682  0.295667  0.507520  1
  Ti  Ti2  1  0.215494  0.715660  0.510196  1
  Ti  Ti3  1  0.226138  0.721264  0.928967  1
  Ti  Ti4  1  0.790622  0.719352  0.496951  1
  Ti  Ti5  1  0.774180  0.273877  0.487593  1
  Ti  Ti6  1  0.375929  0.121891  0.743894  1
  Ti  Ti7  1  0.382385  0.634375  0.258966  1
  Al  Al8  1  0.150566  0.343353  0.187172  1
  Al  Al9  1  0.155218  0.971368  0.815634  1
  Al  Al10  1  0.149224  0.345946  0.806481  1
  Al  Al11  1  0.532637  0.345079  0.190772  1
  Al  Al12  1  0.847630  0.651762  0.805222  1
  Al  Al13  1  0.849088  0.035837  0.191813  1
  Al  Al14  1  0.843429  0.654096  0.183702  1
  Al  Al15  1  0.477724  0.658984  0.818340  1
  Al  Al16  1  0.377661  0.120982  0.258317  1
  Al  Al17  1  0.860626  0.122127  0.741538  1
  Al  Al18  1  0.620595  0.874910  0.254988  1
  Al  Al19  1  0.621738  0.363716  0.744030  1
  Al  Al20  1  0.619535  0.877112  0.740891  1
  Al  Al21  1  0.137369  0.878899  0.259390  1
  Ga  Ga22  1  0.996204  0.495431  0.499963  1
  Os  Os23  1  0.999444  0.998063  0.501213  1
  Os  Os24  1  0.499600  0.000826  0.000749  1
  Os  Os25  1  0.497117  0.497273  0.999050  1
  Os  Os26  1  0.496484  0.498489  0.497578  1
  Rh  Rh27  1  0.000382  0.499949  0.000616  1
  Rh  Rh28  1  0.998638  0.998859  0.998323  1
  Rh  Rh29  1  0.499279  0.998884  0.499458  1
