# generated using pymatgen
data_BaFe2(Pd3O8)2
_symmetry_space_group_name_H-M   'P 1'
_cell_length_a   6.19762420
_cell_length_b   7.38981480
_cell_length_c   7.41231847
_cell_angle_alpha   87.35135834
_cell_angle_beta   77.91005852
_cell_angle_gamma   77.89615411
_symmetry_Int_Tables_number   1
_chemical_formula_structural   BaFe2(Pd3O8)2
_chemical_formula_sum   'Ba1 Fe2 Pd6 O16'
_cell_volume   324.56887943
_cell_formula_units_Z   1
loop_
 _symmetry_equiv_pos_site_id
 _symmetry_equiv_pos_as_xyz
  1  'x, y, z'
loop_
 _atom_site_type_symbol
 _atom_site_label
 _atom_site_symmetry_multiplicity
 _atom_site_fract_x
 _atom_site_fract_y
 _atom_site_fract_z
 _atom_site_occupancy
  Ba  Ba0  1  0.241139  0.992993  0.018199  1
  Fe  Fe1  1  0.076395  0.186600  0.491298  1
  Fe  Fe2  1  0.581866  0.183359  0.478000  1
  Pd  Pd3  1  0.322665  0.514218  0.180303  1
  Pd  Pd4  1  0.821990  0.519543  0.180518  1
  Pd  Pd5  1  0.173138  0.478844  0.816495  1
  Pd  Pd6  1  0.673137  0.475559  0.816742  1
  Pd  Pd7  1  0.414369  0.816490  0.513133  1
  Pd  Pd8  1  0.913066  0.816132  0.517767  1
  O  O9  1  0.391059  0.047009  0.352944  1
  O  O10  1  0.901735  0.045586  0.355928  1
  O  O11  1  0.080337  0.372679  0.284919  1
  O  O12  1  0.578673  0.384161  0.294558  1
  O  O13  1  0.075836  0.648853  0.046278  1
  O  O14  1  0.569839  0.648100  0.046776  1
  O  O15  1  0.271312  0.287145  0.621965  1
  O  O16  1  0.767359  0.292817  0.615546  1
  O  O17  1  0.223651  0.725432  0.359789  1
  O  O18  1  0.726450  0.728079  0.360274  1
  O  O19  1  0.419578  0.344229  0.952639  1
  O  O20  1  0.924565  0.345936  0.953036  1
  O  O21  1  0.410214  0.629214  0.723661  1
  O  O22  1  0.907506  0.626390  0.723236  1
  O  O23  1  0.594892  0.946554  0.646042  1
  O  O24  1  0.101807  0.944079  0.649953  1
