# generated using pymatgen
data_DyErFe3Os
_symmetry_space_group_name_H-M   'P 1'
_cell_length_a   5.16432214
_cell_length_b   5.16432211
_cell_length_c   5.19616057
_cell_angle_alpha   60.20247156
_cell_angle_beta   60.20247948
_cell_angle_gamma   59.99999866
_symmetry_Int_Tables_number   1
_chemical_formula_structural   DyErFe3Os
_chemical_formula_sum   'Dy1 Er1 Fe3 Os1'
_cell_volume   98.29163800
_cell_formula_units_Z   1
loop_
 _symmetry_equiv_pos_site_id
 _symmetry_equiv_pos_as_xyz
  1  'x, y, z'
loop_
 _atom_site_type_symbol
 _atom_site_label
 _atom_site_symmetry_multiplicity
 _atom_site_fract_x
 _atom_site_fract_y
 _atom_site_fract_z
 _atom_site_occupancy
  Dy  Dy0  1  0.250352  0.250352  0.248942  1
  Er  Er1  1  0.999693  0.999693  0.000922  1
  Fe  Fe2  1  0.624960  0.125062  0.625016  1
  Fe  Fe3  1  0.125062  0.624960  0.625016  1
  Fe  Fe4  1  0.624960  0.624960  0.625016  1
  Os  Os5  1  0.624971  0.624971  0.125087  1
