# generated using pymatgen
data_TbTm(ZrPt)2
_symmetry_space_group_name_H-M   'P 1'
_cell_length_a   4.69094300
_cell_length_b   7.10637792
_cell_length_c   8.23424337
_cell_angle_alpha   89.83885962
_cell_angle_beta   90.00000000
_cell_angle_gamma   90.00000000
_symmetry_Int_Tables_number   1
_chemical_formula_structural   TbTm(ZrPt)2
_chemical_formula_sum   'Tb2 Tm2 Zr4 Pt4'
_cell_volume   274.49247079
_cell_formula_units_Z   2
loop_
 _symmetry_equiv_pos_site_id
 _symmetry_equiv_pos_as_xyz
  1  'x, y, z'
loop_
 _atom_site_type_symbol
 _atom_site_label
 _atom_site_symmetry_multiplicity
 _atom_site_fract_x
 _atom_site_fract_y
 _atom_site_fract_z
 _atom_site_occupancy
  Tb  Tb0  1  0.750000  0.014462  0.679445  1
  Tb  Tb1  1  0.250000  0.985538  0.320555  1
  Tm  Tm2  1  0.750000  0.515556  0.822424  1
  Tm  Tm3  1  0.250000  0.484444  0.177576  1
  Zr  Zr4  1  0.750000  0.647928  0.418923  1
  Zr  Zr5  1  0.250000  0.352072  0.581077  1
  Zr  Zr6  1  0.750000  0.150204  0.079612  1
  Zr  Zr7  1  0.250000  0.849796  0.920388  1
  Pt  Pt8  1  0.750000  0.272472  0.405438  1
  Pt  Pt9  1  0.250000  0.727528  0.594562  1
  Pt  Pt10  1  0.750000  0.768540  0.091578  1
  Pt  Pt11  1  0.250000  0.231460  0.908422  1
