# generated using pymatgen
data_TmZn3P6N13
_symmetry_space_group_name_H-M   'P 1'
_cell_length_a   7.04911142
_cell_length_b   7.08742497
_cell_length_c   7.04911200
_cell_angle_alpha   109.58134662
_cell_angle_beta   109.36084892
_cell_angle_gamma   109.58137026
_symmetry_Int_Tables_number   1
_chemical_formula_structural   TmZn3P6N13
_chemical_formula_sum   'Tm1 Zn3 P6 N13'
_cell_volume   270.73431287
_cell_formula_units_Z   1
loop_
 _symmetry_equiv_pos_site_id
 _symmetry_equiv_pos_as_xyz
  1  'x, y, z'
loop_
 _atom_site_type_symbol
 _atom_site_label
 _atom_site_symmetry_multiplicity
 _atom_site_fract_x
 _atom_site_fract_y
 _atom_site_fract_z
 _atom_site_occupancy
  Tm  Tm0  1  0.000000  0.714797  0.000000  1
  Zn  Zn1  1  0.713865  0.010626  0.000000  1
  Zn  Zn2  1  0.000000  0.010626  0.713865  1
  Zn  Zn3  1  0.286135  0.296759  0.286135  1
  P  P4  1  0.494904  0.242494  0.747224  1
  P  P5  1  0.505096  0.747591  0.252320  1
  P  P6  1  0.747680  0.495270  0.252776  1
  P  P7  1  0.252320  0.747591  0.505096  1
  P  P8  1  0.747224  0.242494  0.494904  1
  P  P9  1  0.252776  0.495270  0.747680  1
  N  N10  1  0.000000  0.732636  0.450053  1
  N  N11  1  0.281842  0.543670  0.545918  1
  N  N12  1  0.723752  0.447545  0.000000  1
  N  N13  1  0.276248  0.723794  0.276248  1
  N  N14  1  0.454082  0.997752  0.735925  1
  N  N15  1  0.718158  0.261827  0.264075  1
  N  N16  1  0.549947  0.282582  0.549947  1
  N  N17  1  0.735925  0.997752  0.454082  1
  N  N18  1  0.264075  0.261827  0.718158  1
  N  N19  1  0.450053  0.732636  0.000000  1
  N  N20  1  0.545918  0.543670  0.281842  1
  N  N21  1  0.000000  0.447545  0.723752  1
  N  N22  1  0.000000  0.023243  0.000000  1
