# generated using pymatgen
data_CeDy2Ti(Co4P3)2
_symmetry_space_group_name_H-M   'P 1'
_cell_length_a   3.71282000
_cell_length_b   10.66096900
_cell_length_c   12.26130400
_cell_angle_alpha   90.00000000
_cell_angle_beta   90.00000000
_cell_angle_gamma   90.00000000
_symmetry_Int_Tables_number   1
_chemical_formula_structural   CeDy2Ti(Co4P3)2
_chemical_formula_sum   'Ce2 Dy4 Ti2 Co16 P12'
_cell_volume   485.33010966
_cell_formula_units_Z   2
loop_
 _symmetry_equiv_pos_site_id
 _symmetry_equiv_pos_as_xyz
  1  'x, y, z'
loop_
 _atom_site_type_symbol
 _atom_site_label
 _atom_site_symmetry_multiplicity
 _atom_site_fract_x
 _atom_site_fract_y
 _atom_site_fract_z
 _atom_site_occupancy
  Ce  Ce0  1  0.000000  0.500000  0.531107  1
  Ce  Ce1  1  0.500000  0.000000  0.468893  1
  Dy  Dy2  1  0.500000  0.818313  0.203153  1
  Dy  Dy3  1  0.500000  0.181687  0.203153  1
  Dy  Dy4  1  0.000000  0.681687  0.796847  1
  Dy  Dy5  1  0.000000  0.318313  0.796847  1
  Ti  Ti6  1  0.500000  0.500000  0.151927  1
  Ti  Ti7  1  0.000000  0.000000  0.848073  1
  Co  Co8  1  0.500000  0.500000  0.699431  1
  Co  Co9  1  0.000000  0.000000  0.300569  1
  Co  Co10  1  0.000000  0.500000  0.986488  1
  Co  Co11  1  0.500000  0.000000  0.013512  1
  Co  Co12  1  0.500000  0.332615  0.993702  1
  Co  Co13  1  0.500000  0.667385  0.993702  1
  Co  Co14  1  0.000000  0.167385  0.006298  1
  Co  Co15  1  0.000000  0.832615  0.006298  1
  Co  Co16  1  0.500000  0.297326  0.431851  1
  Co  Co17  1  0.500000  0.702674  0.431851  1
  Co  Co18  1  0.000000  0.202674  0.568149  1
  Co  Co19  1  0.000000  0.797326  0.568149  1
  Co  Co20  1  0.500000  0.879579  0.707479  1
  Co  Co21  1  0.500000  0.120421  0.707479  1
  Co  Co22  1  0.000000  0.620421  0.292521  1
  Co  Co23  1  0.000000  0.379579  0.292521  1
  P  P24  1  0.500000  0.500000  0.881550  1
  P  P25  1  0.000000  0.000000  0.118450  1
  P  P26  1  0.500000  0.500000  0.352238  1
  P  P27  1  0.000000  0.000000  0.647762  1
  P  P28  1  0.500000  0.306373  0.616885  1
  P  P29  1  0.500000  0.693627  0.616885  1
  P  P30  1  0.000000  0.193627  0.383115  1
  P  P31  1  0.000000  0.806373  0.383115  1
  P  P32  1  0.500000  0.842986  0.893319  1
  P  P33  1  0.500000  0.157014  0.893319  1
  P  P34  1  0.000000  0.657014  0.106681  1
  P  P35  1  0.000000  0.342986  0.106681  1
