# generated using pymatgen
data_Mg4GeAsPd10
_symmetry_space_group_name_H-M   'P 1'
_cell_length_a   4.17259800
_cell_length_b   5.53956402
_cell_length_c   10.75329003
_cell_angle_alpha   89.99106208
_cell_angle_beta   90.00000000
_cell_angle_gamma   90.00000000
_symmetry_Int_Tables_number   1
_chemical_formula_structural   Mg4GeAsPd10
_chemical_formula_sum   'Mg4 Ge1 As1 Pd10'
_cell_volume   248.55556170
_cell_formula_units_Z   1
loop_
 _symmetry_equiv_pos_site_id
 _symmetry_equiv_pos_as_xyz
  1  'x, y, z'
loop_
 _atom_site_type_symbol
 _atom_site_label
 _atom_site_symmetry_multiplicity
 _atom_site_fract_x
 _atom_site_fract_y
 _atom_site_fract_z
 _atom_site_occupancy
  Mg  Mg0  1  0.500000  0.160857  0.142232  1
  Mg  Mg1  1  0.500000  0.839143  0.857768  1
  Mg  Mg2  1  0.500000  0.340305  0.643077  1
  Mg  Mg3  1  0.500000  0.659695  0.356923  1
  Ge  Ge4  1  0.000000  0.500000  0.000000  1
  As  As5  1  0.000000  0.000000  0.500000  1
  Pd  Pd6  1  0.500000  0.179997  0.394675  1
  Pd  Pd7  1  0.500000  0.820003  0.605325  1
  Pd  Pd8  1  0.500000  0.320885  0.895107  1
  Pd  Pd9  1  0.500000  0.679115  0.104893  1
  Pd  Pd10  1  0.000000  0.414757  0.236788  1
  Pd  Pd11  1  0.000000  0.585243  0.763212  1
  Pd  Pd12  1  0.000000  0.084948  0.737514  1
  Pd  Pd13  1  0.000000  0.915052  0.262486  1
  Pd  Pd14  1  0.000000  0.000000  0.000000  1
  Pd  Pd15  1  0.000000  0.500000  0.500000  1
