# generated using pymatgen
data_Sr4MnFeO7F
_symmetry_space_group_name_H-M   'P 1'
_cell_length_a   6.97559524
_cell_length_b   6.97559504
_cell_length_c   5.49890700
_cell_angle_alpha   90.00000000
_cell_angle_beta   90.00000000
_cell_angle_gamma   133.49736010
_symmetry_Int_Tables_number   1
_chemical_formula_structural   Sr4MnFeO7F
_chemical_formula_sum   'Sr4 Mn1 Fe1 O7 F1'
_cell_volume   194.09757201
_cell_formula_units_Z   1
loop_
 _symmetry_equiv_pos_site_id
 _symmetry_equiv_pos_as_xyz
  1  'x, y, z'
loop_
 _atom_site_type_symbol
 _atom_site_label
 _atom_site_symmetry_multiplicity
 _atom_site_fract_x
 _atom_site_fract_y
 _atom_site_fract_z
 _atom_site_occupancy
  Sr  Sr0  1  0.645813  0.354187  0.000000  1
  Sr  Sr1  1  0.135564  0.864436  0.500000  1
  Sr  Sr2  1  0.860910  0.139090  0.500000  1
  Sr  Sr3  1  0.359315  0.640685  0.000000  1
  Mn  Mn4  1  0.998640  0.001360  0.000000  1
  Fe  Fe5  1  0.518461  0.481539  0.500000  1
  O  O6  1  0.747449  0.753625  0.751175  1
  O  O7  1  0.246375  0.252551  0.248825  1
  O  O8  1  0.246375  0.252551  0.751175  1
  O  O9  1  0.747449  0.753625  0.248825  1
  O  O10  1  0.843581  0.156419  0.000000  1
  O  O11  1  0.668770  0.331230  0.500000  1
  O  O12  1  0.155505  0.844495  0.000000  1
  F  F13  1  0.325792  0.674208  0.500000  1
