# generated using pymatgen
data_Ho12Tc2Ni2SnPt
_symmetry_space_group_name_H-M   'P 1'
_cell_length_a   8.36422106
_cell_length_b   8.36422219
_cell_length_c   8.36422194
_cell_angle_alpha   113.32258831
_cell_angle_beta   110.43477585
_cell_angle_gamma   104.77071595
_symmetry_Int_Tables_number   1
_chemical_formula_structural   Ho12Tc2Ni2SnPt
_chemical_formula_sum   'Ho12 Tc2 Ni2 Sn1 Pt1'
_cell_volume   447.89793478
_cell_formula_units_Z   1
loop_
 _symmetry_equiv_pos_site_id
 _symmetry_equiv_pos_as_xyz
  1  'x, y, z'
loop_
 _atom_site_type_symbol
 _atom_site_label
 _atom_site_symmetry_multiplicity
 _atom_site_fract_x
 _atom_site_fract_y
 _atom_site_fract_z
 _atom_site_occupancy
  Ho  Ho0  1  0.422316  0.231890  0.190425  1
  Ho  Ho1  1  0.577684  0.768110  0.809575  1
  Ho  Ho2  1  0.041464  0.231890  0.809575  1
  Ho  Ho3  1  0.958536  0.768110  0.190425  1
  Ho  Ho4  1  0.178870  0.278504  0.457375  1
  Ho  Ho5  1  0.821130  0.721496  0.542625  1
  Ho  Ho6  1  0.178870  0.721496  0.900367  1
  Ho  Ho7  1  0.821130  0.278504  0.099633  1
  Ho  Ho8  1  0.331914  0.647324  0.315410  1
  Ho  Ho9  1  0.668086  0.352676  0.684590  1
  Ho  Ho10  1  0.331914  0.016505  0.684590  1
  Ho  Ho11  1  0.668086  0.983495  0.315410  1
  Tc  Tc12  1  0.329260  0.000000  0.329260  1
  Tc  Tc13  1  0.670740  0.000000  0.670740  1
  Ni  Ni14  1  0.116382  0.616382  0.500000  1
  Ni  Ni15  1  0.883618  0.383618  0.500000  1
  Sn  Sn16  1  0.500000  0.500000  0.000000  1
  Pt  Pt17  1  0.000000  0.000000  0.000000  1
