# generated using pymatgen
data_KTl3(PtI6)2
_symmetry_space_group_name_H-M   'P 1'
_cell_length_a   7.68069300
_cell_length_b   7.68069337
_cell_length_c   11.98390000
_cell_angle_alpha   90.00000000
_cell_angle_beta   90.00000000
_cell_angle_gamma   89.75649181
_symmetry_Int_Tables_number   1
_chemical_formula_structural   KTl3(PtI6)2
_chemical_formula_sum   'K1 Tl3 Pt2 I12'
_cell_volume   706.96040042
_cell_formula_units_Z   1
loop_
 _symmetry_equiv_pos_site_id
 _symmetry_equiv_pos_as_xyz
  1  'x, y, z'
loop_
 _atom_site_type_symbol
 _atom_site_label
 _atom_site_symmetry_multiplicity
 _atom_site_fract_x
 _atom_site_fract_y
 _atom_site_fract_z
 _atom_site_occupancy
  K  K0  1  0.000000  0.500000  0.250000  1
  Tl  Tl1  1  0.500000  0.000000  0.750000  1
  Tl  Tl2  1  0.000000  0.500000  0.750000  1
  Tl  Tl3  1  0.500000  0.000000  0.250000  1
  Pt  Pt4  1  0.500000  0.500000  0.499446  1
  Pt  Pt5  1  0.000000  0.000000  0.000554  1
  I  I6  1  0.704687  0.196397  0.000008  1
  I  I7  1  0.696397  0.204687  0.499992  1
  I  I8  1  0.303603  0.795313  0.499992  1
  I  I9  1  0.295313  0.803603  0.000008  1
  I  I10  1  0.793999  0.696598  0.500162  1
  I  I11  1  0.206001  0.303402  0.500162  1
  I  I12  1  0.000000  0.000000  0.226379  1
  I  I13  1  0.500000  0.500000  0.273621  1
  I  I14  1  0.000000  0.000000  0.774506  1
  I  I15  1  0.500000  0.500000  0.725494  1
  I  I16  1  0.803402  0.706001  0.999838  1
  I  I17  1  0.196598  0.293999  0.999838  1
