# generated using pymatgen
data_Tm3NbB4(SbRu5)2
_symmetry_space_group_name_H-M   'P 1'
_cell_length_a   9.60977494
_cell_length_b   9.60977568
_cell_length_c   3.12086700
_cell_angle_alpha   90.00000000
_cell_angle_beta   90.00000000
_cell_angle_gamma   90.54861919
_symmetry_Int_Tables_number   1
_chemical_formula_structural   Tm3NbB4(SbRu5)2
_chemical_formula_sum   'Tm3 Nb1 B4 Sb2 Ru10'
_cell_volume   288.19193198
_cell_formula_units_Z   1
loop_
 _symmetry_equiv_pos_site_id
 _symmetry_equiv_pos_as_xyz
  1  'x, y, z'
loop_
 _atom_site_type_symbol
 _atom_site_label
 _atom_site_symmetry_multiplicity
 _atom_site_fract_x
 _atom_site_fract_y
 _atom_site_fract_z
 _atom_site_occupancy
  Tm  Tm0  1  0.824607  0.674715  0.000000  1
  Tm  Tm1  1  0.174715  0.324607  0.000000  1
  Tm  Tm2  1  0.324778  0.824778  0.000000  1
  Nb  Nb3  1  0.674186  0.174186  0.000000  1
  B  B4  1  0.623623  0.881859  0.000000  1
  B  B5  1  0.381859  0.123623  0.000000  1
  B  B6  1  0.118451  0.618451  0.000000  1
  B  B7  1  0.876772  0.376772  0.000000  1
  Sb  Sb8  1  0.498325  0.505118  0.000000  1
  Sb  Sb9  1  0.005118  0.998325  0.000000  1
  Ru  Ru10  1  0.571581  0.725356  0.500000  1
  Ru  Ru11  1  0.443613  0.277917  0.500000  1
  Ru  Ru12  1  0.069136  0.777359  0.500000  1
  Ru  Ru13  1  0.914462  0.214079  0.500000  1
  Ru  Ru14  1  0.277359  0.569136  0.500000  1
  Ru  Ru15  1  0.714079  0.414462  0.500000  1
  Ru  Ru16  1  0.225356  0.071581  0.500000  1
  Ru  Ru17  1  0.777917  0.943613  0.500000  1
  Ru  Ru18  1  0.508065  0.008065  0.500000  1
  Ru  Ru19  1  0.995999  0.495999  0.500000  1
