# generated using pymatgen
data_Rb2TiF5
_symmetry_space_group_name_H-M   'P 1'
_cell_length_a   5.98423500
_cell_length_b   7.76185500
_cell_length_c   12.26382900
_cell_angle_alpha   90.00000000
_cell_angle_beta   90.00000000
_cell_angle_gamma   90.00000000
_symmetry_Int_Tables_number   1
_chemical_formula_structural   Rb2TiF5
_chemical_formula_sum   'Rb8 Ti4 F20'
_cell_volume   569.63970332
_cell_formula_units_Z   4
loop_
 _symmetry_equiv_pos_site_id
 _symmetry_equiv_pos_as_xyz
  1  'x, y, z'
loop_
 _atom_site_type_symbol
 _atom_site_label
 _atom_site_symmetry_multiplicity
 _atom_site_fract_x
 _atom_site_fract_y
 _atom_site_fract_z
 _atom_site_occupancy
  Rb  Rb0  1  0.250000  0.486859  0.273176  1
  Rb  Rb1  1  0.750000  0.513141  0.726824  1
  Rb  Rb2  1  0.250000  0.986859  0.226824  1
  Rb  Rb3  1  0.750000  0.013141  0.773176  1
  Rb  Rb4  1  0.250000  0.150272  0.582594  1
  Rb  Rb5  1  0.750000  0.849728  0.417406  1
  Rb  Rb6  1  0.250000  0.650272  0.917406  1
  Rb  Rb7  1  0.750000  0.349728  0.082594  1
  Ti  Ti8  1  0.250000  0.659663  0.560898  1
  Ti  Ti9  1  0.750000  0.340337  0.439102  1
  Ti  Ti10  1  0.250000  0.159663  0.939102  1
  Ti  Ti11  1  0.750000  0.840337  0.060898  1
  F  F12  1  0.514939  0.186249  0.384639  1
  F  F13  1  0.014939  0.813751  0.615361  1
  F  F14  1  0.985061  0.686249  0.115361  1
  F  F15  1  0.485061  0.313751  0.884639  1
  F  F16  1  0.485061  0.813751  0.615361  1
  F  F17  1  0.985061  0.186249  0.384639  1
  F  F18  1  0.014939  0.313751  0.884639  1
  F  F19  1  0.514939  0.686249  0.115361  1
  F  F20  1  0.250000  0.776184  0.416182  1
  F  F21  1  0.750000  0.223816  0.583818  1
  F  F22  1  0.250000  0.276184  0.083818  1
  F  F23  1  0.750000  0.723816  0.916182  1
  F  F24  1  0.500000  0.500000  0.500000  1
  F  F25  1  0.000000  0.500000  0.500000  1
  F  F26  1  0.000000  0.000000  0.000000  1
  F  F27  1  0.500000  0.000000  0.000000  1
  F  F28  1  0.750000  0.983987  0.189848  1
  F  F29  1  0.250000  0.016013  0.810152  1
  F  F30  1  0.750000  0.483987  0.310152  1
  F  F31  1  0.250000  0.516013  0.689848  1
