# generated using pymatgen
data_Ac4RuAu3
_symmetry_space_group_name_H-M   'P 1'
_cell_length_a   4.96745100
_cell_length_b   6.01897938
_cell_length_c   7.81305200
_cell_angle_alpha   92.90492904
_cell_angle_beta   90.00000000
_cell_angle_gamma   90.00000000
_symmetry_Int_Tables_number   1
_chemical_formula_structural   Ac4RuAu3
_chemical_formula_sum   'Ac4 Ru1 Au3'
_cell_volume   233.30214699
_cell_formula_units_Z   1
loop_
 _symmetry_equiv_pos_site_id
 _symmetry_equiv_pos_as_xyz
  1  'x, y, z'
loop_
 _atom_site_type_symbol
 _atom_site_label
 _atom_site_symmetry_multiplicity
 _atom_site_fract_x
 _atom_site_fract_y
 _atom_site_fract_z
 _atom_site_occupancy
  Ac  Ac0  1  0.250000  0.627798  0.178280  1
  Ac  Ac1  1  0.750000  0.347960  0.826520  1
  Ac  Ac2  1  0.750000  0.139915  0.301242  1
  Ac  Ac3  1  0.250000  0.859581  0.696935  1
  Ru  Ru4  1  0.250000  0.184440  0.035250  1
  Au  Au5  1  0.750000  0.850533  0.958259  1
  Au  Au6  1  0.750000  0.646904  0.465706  1
  Au  Au7  1  0.250000  0.342869  0.537807  1
