# generated using pymatgen
data_Ga2Pb(SeO3)4
_symmetry_space_group_name_H-M   'P 1'
_cell_length_a   6.93056578
_cell_length_b   9.31291840
_cell_length_c   9.30328407
_cell_angle_alpha   68.61662927
_cell_angle_beta   95.48570402
_cell_angle_gamma   90.10097653
_symmetry_Int_Tables_number   1
_chemical_formula_structural   Ga2Pb(SeO3)4
_chemical_formula_sum   'Ga4 Pb2 Se8 O24'
_cell_volume   556.21831520
_cell_formula_units_Z   2
loop_
 _symmetry_equiv_pos_site_id
 _symmetry_equiv_pos_as_xyz
  1  'x, y, z'
loop_
 _atom_site_type_symbol
 _atom_site_label
 _atom_site_symmetry_multiplicity
 _atom_site_fract_x
 _atom_site_fract_y
 _atom_site_fract_z
 _atom_site_occupancy
  Ga  Ga0  1  0.000213  0.750546  0.751854  1
  Ga  Ga1  1  0.500348  0.750241  0.247977  1
  Ga  Ga2  1  0.000228  0.250547  0.251855  1
  Ga  Ga3  1  0.500352  0.250237  0.747974  1
  Pb  Pb4  1  0.007638  0.531363  0.481516  1
  Pb  Pb5  1  0.007640  0.031378  0.981508  1
  Se  Se6  1  0.553320  0.127534  0.132384  1
  Se  Se7  1  0.553311  0.627526  0.632392  1
  Se  Se8  1  0.447267  0.872424  0.868066  1
  Se  Se9  1  0.447268  0.372425  0.368048  1
  Se  Se10  1  0.798365  0.097621  0.577027  1
  Se  Se11  1  0.798379  0.597614  0.077048  1
  Se  Se12  1  0.200638  0.904301  0.421075  1
  Se  Se13  1  0.200626  0.404311  0.921067  1
  O  O14  1  0.715365  0.723794  0.712390  1
  O  O15  1  0.715377  0.223798  0.212386  1
  O  O16  1  0.285677  0.275399  0.287779  1
  O  O17  1  0.285662  0.775368  0.787850  1
  O  O18  1  0.990308  0.184775  0.477954  1
  O  O19  1  0.990296  0.684781  0.977950  1
  O  O20  1  0.010807  0.811040  0.522135  1
  O  O21  1  0.010799  0.311039  0.022128  1
  O  O22  1  0.654004  0.624637  0.466287  1
  O  O23  1  0.654011  0.124642  0.966280  1
  O  O24  1  0.347485  0.375605  0.533961  1
  O  O25  1  0.347495  0.875622  0.033977  1
  O  O26  1  0.927901  0.962601  0.741161  1
  O  O27  1  0.927968  0.462612  0.241165  1
  O  O28  1  0.071292  0.036661  0.256983  1
  O  O29  1  0.071272  0.536664  0.756970  1
  O  O30  1  0.592389  0.941416  0.268673  1
  O  O31  1  0.592394  0.441409  0.768674  1
  O  O32  1  0.401096  0.058462  0.733479  1
  O  O33  1  0.401101  0.558468  0.233477  1
  O  O34  1  0.751093  0.234069  0.658149  1
  O  O35  1  0.751094  0.734069  0.158158  1
  O  O36  1  0.250664  0.762092  0.347028  1
  O  O37  1  0.250654  0.262103  0.847016  1
