# generated using pymatgen
data_Ce6Al21Re7Si3Tc
_symmetry_space_group_name_H-M   'P 1'
_cell_length_a   8.87946600
_cell_length_b   8.87946812
_cell_length_c   9.73515900
_cell_angle_alpha   90.00000000
_cell_angle_beta   90.00000000
_cell_angle_gamma   119.99999955
_symmetry_Int_Tables_number   1
_chemical_formula_structural   Ce6Al21Re7Si3Tc
_chemical_formula_sum   'Ce6 Al21 Re7 Si3 Tc1'
_cell_volume   664.73337396
_cell_formula_units_Z   1
loop_
 _symmetry_equiv_pos_site_id
 _symmetry_equiv_pos_as_xyz
  1  'x, y, z'
loop_
 _atom_site_type_symbol
 _atom_site_label
 _atom_site_symmetry_multiplicity
 _atom_site_fract_x
 _atom_site_fract_y
 _atom_site_fract_z
 _atom_site_occupancy
  Ce  Ce0  1  0.195559  0.391117  0.247099  1
  Ce  Ce1  1  0.803692  0.607384  0.752345  1
  Ce  Ce2  1  0.608883  0.804441  0.247099  1
  Ce  Ce3  1  0.392616  0.196308  0.752345  1
  Ce  Ce4  1  0.195559  0.804441  0.247099  1
  Ce  Ce5  1  0.803692  0.196308  0.752345  1
  Al  Al6  1  0.333333  0.666667  0.489627  1
  Al  Al7  1  0.162853  0.325707  0.574465  1
  Al  Al8  1  0.836866  0.673733  0.422557  1
  Al  Al9  1  0.674293  0.837147  0.574465  1
  Al  Al10  1  0.836304  0.672608  0.076548  1
  Al  Al11  1  0.326267  0.163134  0.422557  1
  Al  Al12  1  0.163724  0.327448  0.922849  1
  Al  Al13  1  0.162853  0.837147  0.574465  1
  Al  Al14  1  0.327392  0.163696  0.076548  1
  Al  Al15  1  0.836866  0.163134  0.422557  1
  Al  Al16  1  0.672552  0.836276  0.922849  1
  Al  Al17  1  0.836304  0.163696  0.076548  1
  Al  Al18  1  0.163724  0.836276  0.922849  1
  Al  Al19  1  0.564425  0.128848  0.249139  1
  Al  Al20  1  0.436328  0.872657  0.749203  1
  Al  Al21  1  0.871152  0.435575  0.249139  1
  Al  Al22  1  0.127343  0.563672  0.749203  1
  Al  Al23  1  0.564425  0.435575  0.249139  1
  Al  Al24  1  0.436328  0.563672  0.749203  1
  Al  Al25  1  0.000000  0.000000  0.247865  1
  Al  Al26  1  0.000000  0.000000  0.750931  1
  Re  Re27  1  0.499678  0.999355  0.999714  1
  Re  Re28  1  0.000645  0.500322  0.999714  1
  Re  Re29  1  0.504030  0.008059  0.501467  1
  Re  Re30  1  0.499678  0.500322  0.999714  1
  Re  Re31  1  0.991941  0.495970  0.501467  1
  Re  Re32  1  0.504030  0.495970  0.501467  1
  Re  Re33  1  0.000000  0.000000  0.499212  1
  Si  Si34  1  0.333333  0.666667  0.028024  1
  Si  Si35  1  0.666667  0.333333  0.972092  1
  Si  Si36  1  0.666667  0.333333  0.526909  1
  Tc  Tc37  1  0.000000  0.000000  0.999186  1
