# generated using pymatgen
data_Er3TmTc3B8Os
_symmetry_space_group_name_H-M   'P 1'
_cell_length_a   5.89982824
_cell_length_b   5.26197300
_cell_length_c   6.40384118
_cell_angle_alpha   90.00000000
_cell_angle_beta   90.27975087
_cell_angle_gamma   90.00000000
_symmetry_Int_Tables_number   1
_chemical_formula_structural   Er3TmTc3B8Os
_chemical_formula_sum   'Er3 Tm1 Tc3 B8 Os1'
_cell_volume   198.80319488
_cell_formula_units_Z   1
loop_
 _symmetry_equiv_pos_site_id
 _symmetry_equiv_pos_as_xyz
  1  'x, y, z'
loop_
 _atom_site_type_symbol
 _atom_site_label
 _atom_site_symmetry_multiplicity
 _atom_site_fract_x
 _atom_site_fract_y
 _atom_site_fract_z
 _atom_site_occupancy
  Er  Er0  1  0.014257  0.250000  0.337538  1
  Er  Er1  1  0.513990  0.250000  0.161680  1
  Er  Er2  1  0.985124  0.750000  0.663906  1
  Tm  Tm3  1  0.484940  0.750000  0.835947  1
  Tc  Tc4  1  0.181403  0.250000  0.814492  1
  Tc  Tc5  1  0.678997  0.250000  0.684120  1
  Tc  Tc6  1  0.819674  0.750000  0.185749  1
  B  B7  1  0.367511  0.077895  0.535431  1
  B  B8  1  0.869052  0.421585  0.964910  1
  B  B9  1  0.632385  0.579919  0.465134  1
  B  B10  1  0.133331  0.920950  0.035664  1
  B  B11  1  0.632385  0.920081  0.465134  1
  B  B12  1  0.133331  0.579050  0.035664  1
  B  B13  1  0.367511  0.422105  0.535431  1
  B  B14  1  0.869052  0.078415  0.964910  1
  Os  Os15  1  0.317055  0.750000  0.314292  1
