# generated using pymatgen
data_ZrTi4Re17Tc7
_symmetry_space_group_name_H-M   'P 1'
_cell_length_a   8.38442813
_cell_length_b   8.38442788
_cell_length_c   8.37576805
_cell_angle_alpha   109.48344617
_cell_angle_beta   109.48344582
_cell_angle_gamma   109.54903817
_symmetry_Int_Tables_number   1
_chemical_formula_structural   ZrTi4Re17Tc7
_chemical_formula_sum   'Zr1 Ti4 Re17 Tc7'
_cell_volume   452.68920737
_cell_formula_units_Z   1
loop_
 _symmetry_equiv_pos_site_id
 _symmetry_equiv_pos_as_xyz
  1  'x, y, z'
loop_
 _atom_site_type_symbol
 _atom_site_label
 _atom_site_symmetry_multiplicity
 _atom_site_fract_x
 _atom_site_fract_y
 _atom_site_fract_z
 _atom_site_occupancy
  Zr  Zr0  1  0.999508  0.999508  0.999752  1
  Ti  Ti1  1  0.627233  0.999524  0.999727  1
  Ti  Ti2  1  0.999524  0.627233  0.999727  1
  Ti  Ti3  1  0.000940  0.000940  0.629065  1
  Ti  Ti4  1  0.370815  0.370815  0.371299  1
  Re  Re5  1  0.000913  0.681867  0.400751  1
  Re  Re6  1  0.681867  0.000913  0.400751  1
  Re  Re7  1  0.599222  0.599222  0.279936  1
  Re  Re8  1  0.280586  0.600388  0.599633  1
  Re  Re9  1  0.600388  0.280586  0.599633  1
  Re  Re10  1  0.377755  0.195062  0.000713  1
  Re  Re11  1  0.181498  0.805800  0.805104  1
  Re  Re12  1  0.376437  0.000541  0.194702  1
  Re  Re13  1  0.195062  0.377755  0.000713  1
  Re  Re14  1  0.000541  0.376437  0.194702  1
  Re  Re15  1  0.805800  0.181498  0.805104  1
  Re  Re16  1  0.805647  0.805647  0.182207  1
  Re  Re17  1  0.000879  0.194461  0.378406  1
  Re  Re18  1  0.194461  0.000879  0.378406  1
  Re  Re19  1  0.621530  0.621530  0.815441  1
  Re  Re20  1  0.815518  0.621907  0.621463  1
  Re  Re21  1  0.621907  0.815518  0.621463  1
  Tc  Tc22  1  0.400891  0.683069  0.000372  1
  Tc  Tc23  1  0.718839  0.317483  0.316958  1
  Tc  Tc24  1  0.401928  0.001739  0.683659  1
  Tc  Tc25  1  0.683069  0.400891  0.000372  1
  Tc  Tc26  1  0.001739  0.401928  0.683659  1
  Tc  Tc27  1  0.317483  0.718839  0.316958  1
  Tc  Tc28  1  0.318020  0.318020  0.719327  1
