# generated using pymatgen
data_Pa4MoW3C8
_symmetry_space_group_name_H-M   'P 1'
_cell_length_a   3.33022200
_cell_length_b   5.75669788
_cell_length_c   11.04717079
_cell_angle_alpha   90.07242928
_cell_angle_beta   90.00000000
_cell_angle_gamma   90.00000000
_symmetry_Int_Tables_number   1
_chemical_formula_structural   Pa4MoW3C8
_chemical_formula_sum   'Pa4 Mo1 W3 C8'
_cell_volume   211.78604712
_cell_formula_units_Z   1
loop_
 _symmetry_equiv_pos_site_id
 _symmetry_equiv_pos_as_xyz
  1  'x, y, z'
loop_
 _atom_site_type_symbol
 _atom_site_label
 _atom_site_symmetry_multiplicity
 _atom_site_fract_x
 _atom_site_fract_y
 _atom_site_fract_z
 _atom_site_occupancy
  Pa  Pa0  1  0.250000  0.080775  0.858668  1
  Pa  Pa1  1  0.250000  0.580596  0.641434  1
  Pa  Pa2  1  0.750000  0.920176  0.141244  1
  Pa  Pa3  1  0.750000  0.419132  0.357803  1
  Mo  Mo4  1  0.250000  0.420089  0.101381  1
  W  W5  1  0.250000  0.918174  0.398592  1
  W  W6  1  0.750000  0.580096  0.898614  1
  W  W7  1  0.750000  0.081756  0.601936  1
  C  C8  1  0.250000  0.161783  0.247643  1
  C  C9  1  0.250000  0.664396  0.254576  1
  C  C10  1  0.750000  0.836062  0.753608  1
  C  C11  1  0.750000  0.336628  0.745889  1
  C  C12  1  0.250000  0.742678  0.990119  1
  C  C13  1  0.250000  0.241588  0.509628  1
  C  C14  1  0.750000  0.258093  0.008450  1
  C  C15  1  0.750000  0.757979  0.490414  1
