# generated using pymatgen
data_Sc4Si3Mo4P
_symmetry_space_group_name_H-M   'P 1'
_cell_length_a   7.01121689
_cell_length_b   3.51176300
_cell_length_c   8.16543404
_cell_angle_alpha   90.00000000
_cell_angle_beta   90.22761914
_cell_angle_gamma   90.00000000
_symmetry_Int_Tables_number   1
_chemical_formula_structural   Sc4Si3Mo4P
_chemical_formula_sum   'Sc4 Si3 Mo4 P1'
_cell_volume   201.04554261
_cell_formula_units_Z   1
loop_
 _symmetry_equiv_pos_site_id
 _symmetry_equiv_pos_as_xyz
  1  'x, y, z'
loop_
 _atom_site_type_symbol
 _atom_site_label
 _atom_site_symmetry_multiplicity
 _atom_site_fract_x
 _atom_site_fract_y
 _atom_site_fract_z
 _atom_site_occupancy
  Sc  Sc0  1  0.038991  0.250001  0.165136  1
  Sc  Sc1  1  0.545401  0.250001  0.331141  1
  Sc  Sc2  1  0.455916  0.750001  0.664254  1
  Sc  Sc3  1  0.956835  0.750001  0.834961  1
  Si  Si4  1  0.242741  0.750001  0.362164  1
  Si  Si5  1  0.756566  0.250001  0.637544  1
  Si  Si6  1  0.259642  0.250001  0.862684  1
  Mo  Mo7  1  0.372784  0.750001  0.060923  1
  Mo  Mo8  1  0.870078  0.750001  0.438048  1
  Mo  Mo9  1  0.127107  0.250001  0.559502  1
  Mo  Mo10  1  0.631438  0.250001  0.945053  1
  P  P11  1  0.742499  0.750001  0.138592  1
