# generated using pymatgen
data_ReTc5SnAs13
_symmetry_space_group_name_H-M   'P 1'
_cell_length_a   7.68109562
_cell_length_b   7.68109595
_cell_length_c   7.68109544
_cell_angle_alpha   110.22102419
_cell_angle_beta   108.02701568
_cell_angle_gamma   110.17520839
_symmetry_Int_Tables_number   1
_chemical_formula_structural   ReTc5SnAs13
_chemical_formula_sum   'Re1 Tc5 Sn1 As13'
_cell_volume   348.69136675
_cell_formula_units_Z   1
loop_
 _symmetry_equiv_pos_site_id
 _symmetry_equiv_pos_as_xyz
  1  'x, y, z'
loop_
 _atom_site_type_symbol
 _atom_site_label
 _atom_site_symmetry_multiplicity
 _atom_site_fract_x
 _atom_site_fract_y
 _atom_site_fract_z
 _atom_site_occupancy
  Re  Re0  1  0.657349  0.000000  0.657349  1
  Tc  Tc1  1  0.343701  0.000000  0.343701  1
  Tc  Tc2  1  0.008512  0.337548  0.346060  1
  Tc  Tc3  1  0.008512  0.662452  0.670965  1
  Tc  Tc4  1  0.328630  0.337670  0.990959  1
  Tc  Tc5  1  0.653289  0.662330  0.990959  1
  Sn  Sn6  1  0.749549  0.500000  0.249549  1
  As  As7  1  0.496265  0.749169  0.245434  1
  As  As8  1  0.496265  0.250831  0.747096  1
  As  As9  1  0.755012  0.250857  0.504155  1
  As  As10  1  0.253299  0.749143  0.504155  1
  As  As11  1  0.249525  0.500000  0.749525  1
  As  As12  1  0.998435  0.995372  0.327924  1
  As  As13  1  0.671466  0.004469  0.002062  1
  As  As14  1  0.998435  0.670512  0.003063  1
  As  As15  1  0.332552  0.329488  0.327924  1
  As  As16  1  0.997593  0.330597  0.002062  1
  As  As17  1  0.671466  0.669403  0.666996  1
  As  As18  1  0.332552  0.004628  0.003063  1
  As  As19  1  0.997593  0.995531  0.666996  1
