# generated using pymatgen
data_Zr2NbMo3AsP2
_symmetry_space_group_name_H-M   'P 1'
_cell_length_a   6.98257289
_cell_length_b   6.97596175
_cell_length_c   3.43436800
_cell_angle_alpha   90.00000000
_cell_angle_beta   90.00000000
_cell_angle_gamma   119.73919065
_symmetry_Int_Tables_number   1
_chemical_formula_structural   Zr2NbMo3AsP2
_chemical_formula_sum   'Zr2 Nb1 Mo3 As1 P2'
_cell_volume   145.25543946
_cell_formula_units_Z   1
loop_
 _symmetry_equiv_pos_site_id
 _symmetry_equiv_pos_as_xyz
  1  'x, y, z'
loop_
 _atom_site_type_symbol
 _atom_site_label
 _atom_site_symmetry_multiplicity
 _atom_site_fract_x
 _atom_site_fract_y
 _atom_site_fract_z
 _atom_site_occupancy
  Zr  Zr0  1  0.592682  0.987235  0.500000  1
  Zr  Zr1  1  0.009766  0.603566  0.500000  1
  Nb  Nb2  1  0.393214  0.405842  0.500000  1
  Mo  Mo3  1  0.010390  0.255269  0.000000  1
  Mo  Mo4  1  0.249885  0.001054  0.000000  1
  Mo  Mo5  1  0.744996  0.749684  0.000000  1
  As  As6  1  0.663752  0.334071  0.000000  1
  P  P7  1  0.334210  0.662295  0.000000  1
  P  P8  1  0.001106  0.000985  0.500000  1
