# generated using pymatgen
data_Tm3AgSn3Ru2
_symmetry_space_group_name_H-M   'P 1'
_cell_length_a   7.81354500
_cell_length_b   7.81354571
_cell_length_c   3.64529300
_cell_angle_alpha   90.00000000
_cell_angle_beta   90.00000000
_cell_angle_gamma   120.00000121
_symmetry_Int_Tables_number   1
_chemical_formula_structural   Tm3AgSn3Ru2
_chemical_formula_sum   'Tm3 Ag1 Sn3 Ru2'
_cell_volume   192.73444747
_cell_formula_units_Z   1
loop_
 _symmetry_equiv_pos_site_id
 _symmetry_equiv_pos_as_xyz
  1  'x, y, z'
loop_
 _atom_site_type_symbol
 _atom_site_label
 _atom_site_symmetry_multiplicity
 _atom_site_fract_x
 _atom_site_fract_y
 _atom_site_fract_z
 _atom_site_occupancy
  Tm  Tm0  1  0.029305  0.408380  0.500000  1
  Tm  Tm1  1  0.591620  0.620924  0.500000  1
  Tm  Tm2  1  0.379076  0.970695  0.500000  1
  Ag  Ag3  1  0.666667  0.333333  0.000000  1
  Sn  Sn4  1  0.997201  0.730509  0.000000  1
  Sn  Sn5  1  0.269491  0.266691  0.000000  1
  Sn  Sn6  1  0.733309  0.002799  0.000000  1
  Ru  Ru7  1  0.333333  0.666667  0.000000  1
  Ru  Ru8  1  0.000000  0.000000  0.500000  1
