# generated using pymatgen
data_Ho5Th(SnIr)6
_symmetry_space_group_name_H-M   'P 1'
_cell_length_a   7.54805735
_cell_length_b   7.50738545
_cell_length_c   7.90877900
_cell_angle_alpha   90.00000000
_cell_angle_beta   90.00000000
_cell_angle_gamma   120.19209184
_symmetry_Int_Tables_number   1
_chemical_formula_structural   Ho5Th(SnIr)6
_chemical_formula_sum   'Ho5 Th1 Sn6 Ir6'
_cell_volume   387.36473344
_cell_formula_units_Z   1
loop_
 _symmetry_equiv_pos_site_id
 _symmetry_equiv_pos_as_xyz
  1  'x, y, z'
loop_
 _atom_site_type_symbol
 _atom_site_label
 _atom_site_symmetry_multiplicity
 _atom_site_fract_x
 _atom_site_fract_y
 _atom_site_fract_z
 _atom_site_occupancy
  Ho  Ho0  1  0.405877  0.001687  0.250000  1
  Ho  Ho1  1  0.597130  0.596325  0.750000  1
  Ho  Ho2  1  0.593018  0.595954  0.250000  1
  Ho  Ho3  1  0.995550  0.403399  0.250000  1
  Ho  Ho4  1  0.003847  0.404783  0.750000  1
  Th  Th5  1  0.410545  0.998353  0.750000  1
  Sn  Sn6  1  0.259171  0.265020  0.497432  1
  Sn  Sn7  1  0.259171  0.265020  0.002568  1
  Sn  Sn8  1  0.746668  0.000300  0.003533  1
  Sn  Sn9  1  0.993536  0.734714  0.497408  1
  Sn  Sn10  1  0.746668  0.000300  0.496467  1
  Sn  Sn11  1  0.993536  0.734714  0.002592  1
  Ir  Ir12  1  0.660950  0.326898  0.504063  1
  Ir  Ir13  1  0.660950  0.326898  0.995937  1
  Ir  Ir14  1  0.333710  0.672820  0.000652  1
  Ir  Ir15  1  0.333710  0.672820  0.499348  1
  Ir  Ir16  1  0.004776  0.999925  0.750000  1
  Ir  Ir17  1  0.001185  0.000070  0.250000  1
