# generated using pymatgen
data_CeSm9(YCo2)2
_symmetry_space_group_name_H-M   'P 1'
_cell_length_a   9.69903000
_cell_length_b   6.37271927
_cell_length_c   6.97594808
_cell_angle_alpha   92.36642833
_cell_angle_beta   90.16181483
_cell_angle_gamma   90.03198281
_symmetry_Int_Tables_number   1
_chemical_formula_structural   CeSm9(YCo2)2
_chemical_formula_sum   'Ce1 Sm9 Y2 Co4'
_cell_volume   430.80821117
_cell_formula_units_Z   1
loop_
 _symmetry_equiv_pos_site_id
 _symmetry_equiv_pos_as_xyz
  1  'x, y, z'
loop_
 _atom_site_type_symbol
 _atom_site_label
 _atom_site_symmetry_multiplicity
 _atom_site_fract_x
 _atom_site_fract_y
 _atom_site_fract_z
 _atom_site_occupancy
  Ce  Ce0  1  0.489501  0.345482  0.064511  1
  Sm  Sm1  1  0.489235  0.139206  0.548153  1
  Sm  Sm2  1  0.989284  0.645120  0.951145  1
  Sm  Sm3  1  0.987580  0.860561  0.454645  1
  Sm  Sm4  1  0.305574  0.821606  0.172724  1
  Sm  Sm5  1  0.666023  0.674104  0.674426  1
  Sm  Sm6  1  0.807885  0.182673  0.827696  1
  Sm  Sm7  1  0.168218  0.321668  0.325882  1
  Sm  Sm8  1  0.307451  0.667397  0.673610  1
  Sm  Sm9  1  0.673467  0.827541  0.169551  1
  Y  Y10  1  0.810182  0.332203  0.330377  1
  Y  Y11  1  0.171502  0.173137  0.829136  1
  Co  Co12  1  0.494594  0.524164  0.351413  1
  Co  Co13  1  0.481701  0.992287  0.902342  1
  Co  Co14  1  0.997684  0.444804  0.613196  1
  Co  Co15  1  0.982434  0.048047  0.111193  1
