# generated using pymatgen
data_V6Zn4CN
_symmetry_space_group_name_H-M   'P 1'
_cell_length_a   6.61202391
_cell_length_b   6.61202391
_cell_length_c   6.61033200
_cell_angle_alpha   90.00000000
_cell_angle_beta   90.00000000
_cell_angle_gamma   89.91291280
_symmetry_Int_Tables_number   1
_chemical_formula_structural   V6Zn4CN
_chemical_formula_sum   'V12 Zn8 C2 N2'
_cell_volume   288.99584662
_cell_formula_units_Z   2
loop_
 _symmetry_equiv_pos_site_id
 _symmetry_equiv_pos_as_xyz
  1  'x, y, z'
loop_
 _atom_site_type_symbol
 _atom_site_label
 _atom_site_symmetry_multiplicity
 _atom_site_fract_x
 _atom_site_fract_y
 _atom_site_fract_z
 _atom_site_occupancy
  V  V0  1  0.787825  0.962175  0.375000  1
  V  V1  1  0.712175  0.037825  0.875000  1
  V  V2  1  0.213105  0.463105  0.125000  1
  V  V3  1  0.286895  0.536895  0.625000  1
  V  V4  1  0.963989  0.376843  0.788176  1
  V  V5  1  0.038533  0.873158  0.713342  1
  V  V6  1  0.461467  0.126842  0.213342  1
  V  V7  1  0.536011  0.623157  0.288176  1
  V  V8  1  0.373157  0.786011  0.961824  1
  V  V9  1  0.876842  0.711467  0.036658  1
  V  V10  1  0.126843  0.213989  0.461824  1
  V  V11  1  0.623158  0.288533  0.536658  1
  Zn  Zn12  1  0.177581  0.822826  0.322613  1
  Zn  Zn13  1  0.322419  0.177174  0.822613  1
  Zn  Zn14  1  0.822562  0.322098  0.177647  1
  Zn  Zn15  1  0.677438  0.677902  0.677647  1
  Zn  Zn16  1  0.572826  0.427581  0.927387  1
  Zn  Zn17  1  0.427902  0.927438  0.572353  1
  Zn  Zn18  1  0.927174  0.572419  0.427387  1
  Zn  Zn19  1  0.072098  0.072562  0.072353  1
  C  C20  1  0.875744  0.125744  0.625000  1
  C  C21  1  0.624256  0.874256  0.125000  1
  N  N22  1  0.125792  0.624208  0.875000  1
  N  N23  1  0.374208  0.375792  0.375000  1
