# generated using pymatgen
data_HoEr3SiTc7
_symmetry_space_group_name_H-M   'P 1'
_cell_length_a   5.31511700
_cell_length_b   5.31511645
_cell_length_c   8.86549500
_cell_angle_alpha   90.00000000
_cell_angle_beta   90.00000000
_cell_angle_gamma   119.99999720
_symmetry_Int_Tables_number   1
_chemical_formula_structural   HoEr3SiTc7
_chemical_formula_sum   'Ho1 Er3 Si1 Tc7'
_cell_volume   216.89984724
_cell_formula_units_Z   1
loop_
 _symmetry_equiv_pos_site_id
 _symmetry_equiv_pos_as_xyz
  1  'x, y, z'
loop_
 _atom_site_type_symbol
 _atom_site_label
 _atom_site_symmetry_multiplicity
 _atom_site_fract_x
 _atom_site_fract_y
 _atom_site_fract_z
 _atom_site_occupancy
  Ho  Ho0  1  0.333333  0.666667  0.434907  1
  Er  Er1  1  0.666667  0.333333  0.565173  1
  Er  Er2  1  0.666667  0.333333  0.934695  1
  Er  Er3  1  0.333333  0.666667  0.065261  1
  Si  Si4  1  0.000000  0.000000  0.499998  1
  Tc  Tc5  1  0.000000  0.000000  0.000008  1
  Tc  Tc6  1  0.830036  0.169964  0.254305  1
  Tc  Tc7  1  0.830036  0.660073  0.254305  1
  Tc  Tc8  1  0.339927  0.169964  0.254305  1
  Tc  Tc9  1  0.169975  0.830025  0.745681  1
  Tc  Tc10  1  0.169975  0.339949  0.745681  1
  Tc  Tc11  1  0.660051  0.830025  0.745681  1
