# generated using pymatgen
data_Ca2Yb2CN4
_symmetry_space_group_name_H-M   'P 1'
_cell_length_a   11.34880400
_cell_length_b   3.53554900
_cell_length_c   13.93761700
_cell_angle_alpha   90.00000000
_cell_angle_beta   89.99995925
_cell_angle_gamma   90.00000000
_symmetry_Int_Tables_number   1
_chemical_formula_structural   Ca2Yb2CN4
_chemical_formula_sum   'Ca8 Yb8 C4 N16'
_cell_volume   559.23646562
_cell_formula_units_Z   4
loop_
 _symmetry_equiv_pos_site_id
 _symmetry_equiv_pos_as_xyz
  1  'x, y, z'
loop_
 _atom_site_type_symbol
 _atom_site_label
 _atom_site_symmetry_multiplicity
 _atom_site_fract_x
 _atom_site_fract_y
 _atom_site_fract_z
 _atom_site_occupancy
  Ca  Ca0  1  0.117702  0.250000  0.169782  1
  Ca  Ca1  1  0.617702  0.250000  0.330218  1
  Ca  Ca2  1  0.882298  0.750000  0.830218  1
  Ca  Ca3  1  0.382298  0.750000  0.669782  1
  Ca  Ca4  1  0.878745  0.250000  0.042522  1
  Ca  Ca5  1  0.378745  0.250000  0.457478  1
  Ca  Ca6  1  0.121255  0.750000  0.957478  1
  Ca  Ca7  1  0.621255  0.750000  0.542522  1
  Yb  Yb8  1  0.375320  0.250000  0.882080  1
  Yb  Yb9  1  0.875320  0.250000  0.617920  1
  Yb  Yb10  1  0.624680  0.750000  0.117920  1
  Yb  Yb11  1  0.124680  0.750000  0.382080  1
  Yb  Yb12  1  0.136905  0.250000  0.758593  1
  Yb  Yb13  1  0.636905  0.250000  0.741407  1
  Yb  Yb14  1  0.863095  0.750000  0.241407  1
  Yb  Yb15  1  0.363095  0.750000  0.258593  1
  C  C16  1  0.363875  0.250000  0.084821  1
  C  C17  1  0.863875  0.250000  0.415179  1
  C  C18  1  0.636125  0.750000  0.915179  1
  C  C19  1  0.136125  0.750000  0.584821  1
  N  N20  1  0.735521  0.250000  0.186931  1
  N  N21  1  0.235521  0.250000  0.313069  1
  N  N22  1  0.264479  0.750000  0.813069  1
  N  N23  1  0.764479  0.750000  0.686931  1
  N  N24  1  0.000638  0.250000  0.882020  1
  N  N25  1  0.500638  0.250000  0.617980  1
  N  N26  1  0.999362  0.750000  0.117980  1
  N  N27  1  0.499362  0.750000  0.382020  1
  N  N28  1  0.271452  0.250000  0.036842  1
  N  N29  1  0.771452  0.250000  0.463158  1
  N  N30  1  0.728548  0.750000  0.963158  1
  N  N31  1  0.228548  0.750000  0.536842  1
  N  N32  1  0.456428  0.250000  0.132625  1
  N  N33  1  0.956428  0.250000  0.367375  1
  N  N34  1  0.543572  0.750000  0.867375  1
  N  N35  1  0.043572  0.750000  0.632625  1
