# generated using pymatgen
data_Dy4Y12Cd4Ni2IrRu
_symmetry_space_group_name_H-M   'P 1'
_cell_length_a   9.61713637
_cell_length_b   9.70466404
_cell_length_c   9.70466500
_cell_angle_alpha   59.99999333
_cell_angle_beta   59.69846786
_cell_angle_gamma   59.69847015
_symmetry_Int_Tables_number   1
_chemical_formula_structural   Dy4Y12Cd4Ni2IrRu
_chemical_formula_sum   'Dy4 Y12 Cd4 Ni2 Ir1 Ru1'
_cell_volume   637.52517935
_cell_formula_units_Z   1
loop_
 _symmetry_equiv_pos_site_id
 _symmetry_equiv_pos_as_xyz
  1  'x, y, z'
loop_
 _atom_site_type_symbol
 _atom_site_label
 _atom_site_symmetry_multiplicity
 _atom_site_fract_x
 _atom_site_fract_y
 _atom_site_fract_z
 _atom_site_occupancy
  Dy  Dy0  1  0.346901  0.347250  0.350890  1
  Dy  Dy1  1  0.346901  0.347250  0.954960  1
  Dy  Dy2  1  0.346007  0.954544  0.349725  1
  Dy  Dy3  1  0.959888  0.345337  0.347388  1
  Y  Y4  1  0.811876  0.189669  0.188803  1
  Y  Y5  1  0.187759  0.810870  0.812631  1
  Y  Y6  1  0.187759  0.810870  0.188740  1
  Y  Y7  1  0.811876  0.189669  0.809653  1
  Y  Y8  1  0.188267  0.189998  0.810868  1
  Y  Y9  1  0.812617  0.809930  0.188726  1
  Y  Y10  1  0.935811  0.567219  0.560585  1
  Y  Y11  1  0.564122  0.937265  0.937158  1
  Y  Y12  1  0.564122  0.937265  0.561454  1
  Y  Y13  1  0.935811  0.567219  0.936386  1
  Y  Y14  1  0.558513  0.563320  0.939084  1
  Y  Y15  1  0.934145  0.935268  0.565294  1
  Cd  Cd16  1  0.580772  0.580989  0.580564  1
  Cd  Cd17  1  0.580772  0.580989  0.257677  1
  Cd  Cd18  1  0.580589  0.259369  0.580022  1
  Cd  Cd19  1  0.256726  0.581514  0.580881  1
  Ni  Ni20  1  0.145336  0.140355  0.140428  1
  Ni  Ni21  1  0.145336  0.140355  0.573883  1
  Ir  Ir22  1  0.572383  0.141833  0.142892  1
  Ru  Ru23  1  0.145716  0.571657  0.141314  1
