# generated using pymatgen
data_Na2Li2Ni10As7
_symmetry_space_group_name_H-M   'P 1'
_cell_length_a   3.83503700
_cell_length_b   9.42273040
_cell_length_c   9.42145368
_cell_angle_alpha   119.77344647
_cell_angle_beta   90.00000000
_cell_angle_gamma   90.00000000
_symmetry_Int_Tables_number   1
_chemical_formula_structural   Na2Li2Ni10As7
_chemical_formula_sum   'Na2 Li2 Ni10 As7'
_cell_volume   295.51654819
_cell_formula_units_Z   1
loop_
 _symmetry_equiv_pos_site_id
 _symmetry_equiv_pos_as_xyz
  1  'x, y, z'
loop_
 _atom_site_type_symbol
 _atom_site_label
 _atom_site_symmetry_multiplicity
 _atom_site_fract_x
 _atom_site_fract_y
 _atom_site_fract_z
 _atom_site_occupancy
  Na  Na0  1  0.000000  0.671753  0.336567  1
  Na  Na1  1  0.500000  0.331509  0.666148  1
  Li  Li2  1  0.500000  0.786749  0.892022  1
  Li  Li3  1  0.500000  0.112056  0.212689  1
  Ni  Ni4  1  0.000000  0.569615  0.952441  1
  Ni  Ni5  1  0.000000  0.377738  0.428470  1
  Ni  Ni6  1  0.000000  0.050174  0.622328  1
  Ni  Ni7  1  0.500000  0.099114  0.894168  1
  Ni  Ni8  1  0.000000  0.878610  0.158678  1
  Ni  Ni9  1  0.000000  0.289064  0.124898  1
  Ni  Ni10  1  0.000000  0.831767  0.710161  1
  Ni  Ni11  1  0.500000  0.955699  0.386059  1
  Ni  Ni12  1  0.500000  0.429914  0.044432  1
  Ni  Ni13  1  0.500000  0.611679  0.569749  1
  As  As14  1  0.000000  0.004062  0.991798  1
  As  As15  1  0.500000  0.709777  0.118954  1
  As  As16  1  0.500000  0.413242  0.292660  1
  As  As17  1  0.500000  0.887629  0.600159  1
  As  As18  1  0.000000  0.581582  0.704393  1
  As  As19  1  0.000000  0.117855  0.414528  1
  As  As20  1  0.000000  0.290411  0.878699  1
