# generated using pymatgen
data_Lu4Hf2ZrO12
_symmetry_space_group_name_H-M   'P 1'
_cell_length_a   6.27765983
_cell_length_b   6.28809652
_cell_length_c   6.41639377
_cell_angle_alpha   99.64989904
_cell_angle_beta   98.83539379
_cell_angle_gamma   99.49580722
_symmetry_Int_Tables_number   1
_chemical_formula_structural   Lu4Hf2ZrO12
_chemical_formula_sum   'Lu4 Hf2 Zr1 O12'
_cell_volume   241.96220530
_cell_formula_units_Z   1
loop_
 _symmetry_equiv_pos_site_id
 _symmetry_equiv_pos_as_xyz
  1  'x, y, z'
loop_
 _atom_site_type_symbol
 _atom_site_label
 _atom_site_symmetry_multiplicity
 _atom_site_fract_x
 _atom_site_fract_y
 _atom_site_fract_z
 _atom_site_occupancy
  Lu  Lu0  1  0.389931  0.697972  0.864474  1
  Lu  Lu1  1  0.692450  0.864371  0.389907  1
  Lu  Lu2  1  0.609900  0.300216  0.134152  1
  Lu  Lu3  1  0.309852  0.137239  0.610613  1
  Hf  Hf4  1  0.998843  0.999038  0.998310  1
  Hf  Hf5  1  0.851666  0.394680  0.674278  1
  Zr  Zr6  1  0.147897  0.606388  0.322404  1
  O  O7  1  0.033810  0.675973  0.895023  1
  O  O8  1  0.683683  0.926859  0.058091  1
  O  O9  1  0.916785  0.078210  0.690447  1
  O  O10  1  0.963846  0.319891  0.106465  1
  O  O11  1  0.315365  0.071861  0.941091  1
  O  O12  1  0.081891  0.926530  0.310711  1
  O  O13  1  0.588027  0.186684  0.432659  1
  O  O14  1  0.172415  0.427030  0.576342  1
  O  O15  1  0.417840  0.579266  0.177272  1
  O  O16  1  0.415353  0.814951  0.568354  1
  O  O17  1  0.824444  0.573028  0.428860  1
  O  O18  1  0.586000  0.419812  0.820546  1
