# generated using pymatgen
data_Dy2Ho2ZrZn3Rh4
_symmetry_space_group_name_H-M   'P 1'
_cell_length_a   4.03696600
_cell_length_b   7.08476805
_cell_length_c   8.36075500
_cell_angle_alpha   91.00595094
_cell_angle_beta   90.00000000
_cell_angle_gamma   90.00000000
_symmetry_Int_Tables_number   1
_chemical_formula_structural   Dy2Ho2ZrZn3Rh4
_chemical_formula_sum   'Dy2 Ho2 Zr1 Zn3 Rh4'
_cell_volume   239.08882918
_cell_formula_units_Z   1
loop_
 _symmetry_equiv_pos_site_id
 _symmetry_equiv_pos_as_xyz
  1  'x, y, z'
loop_
 _atom_site_type_symbol
 _atom_site_label
 _atom_site_symmetry_multiplicity
 _atom_site_fract_x
 _atom_site_fract_y
 _atom_site_fract_z
 _atom_site_occupancy
  Dy  Dy0  1  0.250000  0.547932  0.187248  1
  Dy  Dy1  1  0.250000  0.034029  0.323306  1
  Ho  Ho2  1  0.750000  0.480792  0.807487  1
  Ho  Ho3  1  0.750000  0.949438  0.662564  1
  Zr  Zr4  1  0.250000  0.129184  0.939748  1
  Zn  Zn5  1  0.750000  0.858278  0.072816  1
  Zn  Zn6  1  0.250000  0.630471  0.561982  1
  Zn  Zn7  1  0.750000  0.363217  0.440560  1
  Rh  Rh8  1  0.750000  0.736970  0.379474  1
  Rh  Rh9  1  0.250000  0.253353  0.631947  1
  Rh  Rh10  1  0.750000  0.252453  0.119891  1
  Rh  Rh11  1  0.250000  0.763883  0.872980  1
