# generated using pymatgen
data_Cs4UAsI12
_symmetry_space_group_name_H-M   'P 1'
_cell_length_a   8.44727900
_cell_length_b   8.44727900
_cell_length_c   12.45557800
_cell_angle_alpha   90.00000000
_cell_angle_beta   90.00000000
_cell_angle_gamma   90.00000000
_symmetry_Int_Tables_number   1
_chemical_formula_structural   Cs4UAsI12
_chemical_formula_sum   'Cs4 U1 As1 I12'
_cell_volume   888.78673186
_cell_formula_units_Z   1
loop_
 _symmetry_equiv_pos_site_id
 _symmetry_equiv_pos_as_xyz
  1  'x, y, z'
loop_
 _atom_site_type_symbol
 _atom_site_label
 _atom_site_symmetry_multiplicity
 _atom_site_fract_x
 _atom_site_fract_y
 _atom_site_fract_z
 _atom_site_occupancy
  Cs  Cs0  1  0.500000  0.000000  0.789485  1
  Cs  Cs1  1  0.500000  0.000000  0.210515  1
  Cs  Cs2  1  0.000000  0.500000  0.210515  1
  Cs  Cs3  1  0.000000  0.500000  0.789485  1
  U  U4  1  0.500000  0.500000  0.500000  1
  As  As5  1  0.000000  0.000000  0.000000  1
  I  I6  1  0.763438  0.250416  0.000000  1
  I  I7  1  0.236562  0.749584  0.000000  1
  I  I8  1  0.500000  0.500000  0.262073  1
  I  I9  1  0.292263  0.221193  0.500000  1
  I  I10  1  0.250416  0.236562  0.000000  1
  I  I11  1  0.778807  0.292263  0.500000  1
  I  I12  1  0.000000  0.000000  0.234519  1
  I  I13  1  0.707737  0.778807  0.500000  1
  I  I14  1  0.221193  0.707737  0.500000  1
  I  I15  1  0.500000  0.500000  0.737927  1
  I  I16  1  0.749584  0.763438  0.000000  1
  I  I17  1  0.000000  0.000000  0.765481  1
