# generated using pymatgen
data_Hf10Ga2(BiPb)3
_symmetry_space_group_name_H-M   'P 1'
_cell_length_a   8.81514955
_cell_length_b   8.80814850
_cell_length_c   5.87183800
_cell_angle_alpha   90.00000000
_cell_angle_beta   90.00000000
_cell_angle_gamma   120.07049303
_symmetry_Int_Tables_number   1
_chemical_formula_structural   Hf10Ga2(BiPb)3
_chemical_formula_sum   'Hf10 Ga2 Bi3 Pb3'
_cell_volume   394.55729450
_cell_formula_units_Z   1
loop_
 _symmetry_equiv_pos_site_id
 _symmetry_equiv_pos_as_xyz
  1  'x, y, z'
loop_
 _atom_site_type_symbol
 _atom_site_label
 _atom_site_symmetry_multiplicity
 _atom_site_fract_x
 _atom_site_fract_y
 _atom_site_fract_z
 _atom_site_occupancy
  Hf  Hf0  1  0.000771  0.264945  0.250000  1
  Hf  Hf1  1  0.733529  0.000628  0.750000  1
  Hf  Hf2  1  0.737766  0.734063  0.250000  1
  Hf  Hf3  1  0.667603  0.334527  0.501024  1
  Hf  Hf4  1  0.996607  0.731426  0.750000  1
  Hf  Hf5  1  0.332795  0.665697  0.998990  1
  Hf  Hf6  1  0.667603  0.334527  0.998976  1
  Hf  Hf7  1  0.332795  0.665697  0.501010  1
  Hf  Hf8  1  0.265398  0.268408  0.750000  1
  Hf  Hf9  1  0.263764  0.998163  0.250000  1
  Ga  Ga10  1  0.999841  0.999999  0.998023  1
  Ga  Ga11  1  0.999841  0.999999  0.501977  1
  Bi  Bi12  1  0.610788  0.999391  0.250000  1
  Bi  Bi13  1  0.387120  0.999615  0.750000  1
  Bi  Bi14  1  0.391209  0.390849  0.250000  1
  Pb  Pb15  1  0.000727  0.609751  0.250000  1
  Pb  Pb16  1  0.999578  0.388990  0.750000  1
  Pb  Pb17  1  0.612267  0.613321  0.750000  1
