# generated using pymatgen
data_Tb2Ho10GaCo4Pb
_symmetry_space_group_name_H-M   'P 1'
_cell_length_a   8.33214952
_cell_length_b   8.34496093
_cell_length_c   8.34496034
_cell_angle_alpha   112.12439951
_cell_angle_beta   109.19115655
_cell_angle_gamma   107.19463989
_symmetry_Int_Tables_number   1
_chemical_formula_structural   Tb2Ho10GaCo4Pb
_chemical_formula_sum   'Tb2 Ho10 Ga1 Co4 Pb1'
_cell_volume   445.50505452
_cell_formula_units_Z   1
loop_
 _symmetry_equiv_pos_site_id
 _symmetry_equiv_pos_as_xyz
  1  'x, y, z'
loop_
 _atom_site_type_symbol
 _atom_site_label
 _atom_site_symmetry_multiplicity
 _atom_site_fract_x
 _atom_site_fract_y
 _atom_site_fract_z
 _atom_site_occupancy
  Tb  Tb0  1  0.969156  0.267491  0.701666  1
  Tb  Tb1  1  0.030844  0.732509  0.298334  1
  Ho  Ho2  1  0.674812  0.859934  0.184305  1
  Ho  Ho3  1  0.325188  0.509493  0.185121  1
  Ho  Ho4  1  0.325188  0.140066  0.815695  1
  Ho  Ho5  1  0.674812  0.490507  0.814879  1
  Ho  Ho6  1  0.565582  0.267332  0.298250  1
  Ho  Ho7  1  0.434418  0.732668  0.701750  1
  Ho  Ho8  1  0.179455  0.780646  0.959597  1
  Ho  Ho9  1  0.820545  0.780142  0.601191  1
  Ho  Ho10  1  0.179455  0.219858  0.398809  1
  Ho  Ho11  1  0.820545  0.219354  0.040403  1
  Ga  Ga12  1  0.000000  0.500000  0.500000  1
  Co  Co13  1  0.114504  0.114174  0.000331  1
  Co  Co14  1  0.885496  0.885826  0.999669  1
  Co  Co15  1  0.661196  0.499792  0.161404  1
  Co  Co16  1  0.338804  0.500208  0.838596  1
  Pb  Pb17  1  0.500000  0.000000  0.500000  1
