# generated using pymatgen
data_Rb2BaLa(SbAu)4
_symmetry_space_group_name_H-M   'P 1'
_cell_length_a   4.70756200
_cell_length_b   4.70756176
_cell_length_c   19.65437400
_cell_angle_alpha   90.00000000
_cell_angle_beta   90.00000000
_cell_angle_gamma   120.00000172
_symmetry_Int_Tables_number   1
_chemical_formula_structural   Rb2BaLa(SbAu)4
_chemical_formula_sum   'Rb2 Ba1 La1 Sb4 Au4'
_cell_volume   377.20888569
_cell_formula_units_Z   1
loop_
 _symmetry_equiv_pos_site_id
 _symmetry_equiv_pos_as_xyz
  1  'x, y, z'
loop_
 _atom_site_type_symbol
 _atom_site_label
 _atom_site_symmetry_multiplicity
 _atom_site_fract_x
 _atom_site_fract_y
 _atom_site_fract_z
 _atom_site_occupancy
  Rb  Rb0  1  0.000000  0.000000  0.241835  1
  Rb  Rb1  1  0.000000  0.000000  0.758165  1
  Ba  Ba2  1  0.000000  0.000000  0.500000  1
  La  La3  1  0.000000  0.000000  0.000000  1
  Sb  Sb4  1  0.333333  0.666667  0.377150  1
  Sb  Sb5  1  0.666667  0.333333  0.622850  1
  Sb  Sb6  1  0.666667  0.333333  0.895850  1
  Sb  Sb7  1  0.333333  0.666667  0.104150  1
  Au  Au8  1  0.666667  0.333333  0.377271  1
  Au  Au9  1  0.333333  0.666667  0.622729  1
  Au  Au10  1  0.333333  0.666667  0.902161  1
  Au  Au11  1  0.666667  0.333333  0.097839  1
