# generated using pymatgen
data_La8Al5Ga3Ir8
_symmetry_space_group_name_H-M   'P 1'
_cell_length_a   4.27557900
_cell_length_b   7.27571347
_cell_length_c   16.31980118
_cell_angle_alpha   89.91462009
_cell_angle_beta   90.00000000
_cell_angle_gamma   90.00000000
_symmetry_Int_Tables_number   1
_chemical_formula_structural   La8Al5Ga3Ir8
_chemical_formula_sum   'La8 Al5 Ga3 Ir8'
_cell_volume   507.67397901
_cell_formula_units_Z   1
loop_
 _symmetry_equiv_pos_site_id
 _symmetry_equiv_pos_as_xyz
  1  'x, y, z'
loop_
 _atom_site_type_symbol
 _atom_site_label
 _atom_site_symmetry_multiplicity
 _atom_site_fract_x
 _atom_site_fract_y
 _atom_site_fract_z
 _atom_site_occupancy
  La  La0  1  0.250000  0.513552  0.779128  1
  La  La1  1  0.750000  0.488523  0.221144  1
  La  La2  1  0.750000  0.985388  0.280015  1
  La  La3  1  0.250000  0.013273  0.720690  1
  La  La4  1  0.250000  0.653163  0.559832  1
  La  La5  1  0.750000  0.346202  0.440102  1
  La  La6  1  0.750000  0.845741  0.059008  1
  La  La7  1  0.250000  0.152626  0.939855  1
  Al  Al8  1  0.250000  0.156515  0.149104  1
  Al  Al9  1  0.250000  0.505605  0.061057  1
  Al  Al10  1  0.750000  0.492869  0.939414  1
  Al  Al11  1  0.750000  0.993984  0.560921  1
  Al  Al12  1  0.250000  0.005861  0.439386  1
  Ga  Ga13  1  0.250000  0.654602  0.351074  1
  Ga  Ga14  1  0.750000  0.345019  0.649279  1
  Ga  Ga15  1  0.750000  0.845329  0.850255  1
  Ir  Ir16  1  0.250000  0.775856  0.177004  1
  Ir  Ir17  1  0.750000  0.231591  0.822619  1
  Ir  Ir18  1  0.750000  0.731824  0.677512  1
  Ir  Ir19  1  0.250000  0.267750  0.320295  1
  Ir  Ir20  1  0.250000  0.711598  0.929481  1
  Ir  Ir21  1  0.750000  0.283754  0.072605  1
  Ir  Ir22  1  0.750000  0.786416  0.430017  1
  Ir  Ir23  1  0.250000  0.212957  0.570202  1
