# generated using pymatgen
data_ErTh7Re2(Si6Rh)2
_symmetry_space_group_name_H-M   'P 1'
_cell_length_a   8.28521600
_cell_length_b   8.31794242
_cell_length_c   8.28942300
_cell_angle_alpha   90.00000000
_cell_angle_beta   90.00000000
_cell_angle_gamma   119.86993499
_symmetry_Int_Tables_number   1
_chemical_formula_structural   ErTh7Re2(Si6Rh)2
_chemical_formula_sum   'Er1 Th7 Re2 Si12 Rh2'
_cell_volume   495.38446506
_cell_formula_units_Z   1
loop_
 _symmetry_equiv_pos_site_id
 _symmetry_equiv_pos_as_xyz
  1  'x, y, z'
loop_
 _atom_site_type_symbol
 _atom_site_label
 _atom_site_symmetry_multiplicity
 _atom_site_fract_x
 _atom_site_fract_y
 _atom_site_fract_z
 _atom_site_occupancy
  Er  Er0  1  0.503138  0.006277  0.750000  1
  Th  Th1  1  0.000174  0.000346  0.250000  1
  Th  Th2  1  0.999820  0.999641  0.750000  1
  Th  Th3  1  0.503694  0.496537  0.250000  1
  Th  Th4  1  0.504007  0.008015  0.250000  1
  Th  Th5  1  0.992843  0.496537  0.250000  1
  Th  Th6  1  0.503498  0.495132  0.750000  1
  Th  Th7  1  0.991634  0.495132  0.750000  1
  Re  Re8  1  0.668869  0.337737  0.500904  1
  Re  Re9  1  0.668869  0.337737  0.999096  1
  Si  Si10  1  0.831633  0.164095  0.502791  1
  Si  Si11  1  0.836248  0.672496  0.497470  1
  Si  Si12  1  0.332460  0.164095  0.502791  1
  Si  Si13  1  0.831633  0.164095  0.997209  1
  Si  Si14  1  0.836248  0.672496  0.002530  1
  Si  Si15  1  0.332460  0.164095  0.997209  1
  Si  Si16  1  0.169097  0.834412  0.997502  1
  Si  Si17  1  0.665316  0.834412  0.997502  1
  Si  Si18  1  0.165054  0.330107  0.000911  1
  Si  Si19  1  0.169097  0.834412  0.502498  1
  Si  Si20  1  0.665316  0.834412  0.502498  1
  Si  Si21  1  0.165054  0.330107  0.499089  1
  Rh  Rh22  1  0.331918  0.663838  0.993649  1
  Rh  Rh23  1  0.331918  0.663838  0.506351  1
