# generated using pymatgen
data_Yb3PrEr4(B6Ru)4
_symmetry_space_group_name_H-M   'P 1'
_cell_length_a   3.66165600
_cell_length_b   9.14767169
_cell_length_c   11.55758312
_cell_angle_alpha   89.95023935
_cell_angle_beta   90.00000000
_cell_angle_gamma   90.00000000
_symmetry_Int_Tables_number   1
_chemical_formula_structural   Yb3PrEr4(B6Ru)4
_chemical_formula_sum   'Yb3 Pr1 Er4 B24 Ru4'
_cell_volume   387.12834664
_cell_formula_units_Z   1
loop_
 _symmetry_equiv_pos_site_id
 _symmetry_equiv_pos_as_xyz
  1  'x, y, z'
loop_
 _atom_site_type_symbol
 _atom_site_label
 _atom_site_symmetry_multiplicity
 _atom_site_fract_x
 _atom_site_fract_y
 _atom_site_fract_z
 _atom_site_occupancy
  Yb  Yb0  1  0.000000  0.325434  0.414836  1
  Yb  Yb1  1  0.000000  0.674976  0.583764  1
  Yb  Yb2  1  0.000000  0.823135  0.086435  1
  Pr  Pr3  1  0.000000  0.176293  0.915425  1
  Er  Er4  1  0.000000  0.940469  0.366882  1
  Er  Er5  1  0.000000  0.057928  0.630908  1
  Er  Er6  1  0.000000  0.443404  0.134621  1
  Er  Er7  1  0.000000  0.559360  0.866897  1
  B  B8  1  0.500000  0.554256  0.432750  1
  B  B9  1  0.500000  0.446444  0.566875  1
  B  B10  1  0.500000  0.053020  0.070248  1
  B  B11  1  0.500000  0.942554  0.932386  1
  B  B12  1  0.500000  0.748567  0.417100  1
  B  B13  1  0.500000  0.251562  0.581575  1
  B  B14  1  0.500000  0.249337  0.086412  1
  B  B15  1  0.500000  0.750331  0.917185  1
  B  B16  1  0.500000  0.790409  0.264742  1
  B  B17  1  0.500000  0.210554  0.733005  1
  B  B18  1  0.500000  0.291085  0.237411  1
  B  B19  1  0.500000  0.709338  0.763679  1
  B  B20  1  0.500000  0.630862  0.186219  1
  B  B21  1  0.500000  0.371665  0.812490  1
  B  B22  1  0.500000  0.130224  0.314977  1
  B  B23  1  0.500000  0.868522  0.684092  1
  B  B24  1  0.500000  0.982881  0.212094  1
  B  B25  1  0.500000  0.013401  0.786931  1
  B  B26  1  0.500000  0.484099  0.289909  1
  B  B27  1  0.500000  0.517302  0.710137  1
  B  B28  1  0.500000  0.597916  0.027120  1
  B  B29  1  0.500000  0.406062  0.974380  1
  B  B30  1  0.500000  0.096129  0.472768  1
  B  B31  1  0.500000  0.902781  0.525797  1
  Ru  Ru32  1  0.000000  0.639266  0.319892  1
  Ru  Ru33  1  0.000000  0.361047  0.679601  1
  Ru  Ru34  1  0.000000  0.139193  0.181735  1
  Ru  Ru35  1  0.000000  0.860194  0.818719  1
