# generated using pymatgen
data_Tm2Mn2Fe10P7
_symmetry_space_group_name_H-M   'P 1'
_cell_length_a   8.99979856
_cell_length_b   8.97974308
_cell_length_c   3.62305300
_cell_angle_alpha   90.00000000
_cell_angle_beta   90.00000000
_cell_angle_gamma   120.16663088
_symmetry_Int_Tables_number   1
_chemical_formula_structural   Tm2Mn2Fe10P7
_chemical_formula_sum   'Tm2 Mn2 Fe10 P7'
_cell_volume   253.14558108
_cell_formula_units_Z   1
loop_
 _symmetry_equiv_pos_site_id
 _symmetry_equiv_pos_as_xyz
  1  'x, y, z'
loop_
 _atom_site_type_symbol
 _atom_site_label
 _atom_site_symmetry_multiplicity
 _atom_site_fract_x
 _atom_site_fract_y
 _atom_site_fract_z
 _atom_site_occupancy
  Tm  Tm0  1  0.668057  0.336043  0.000000  1
  Tm  Tm1  1  0.997832  0.998315  0.500000  1
  Mn  Mn2  1  0.234498  0.784546  0.500000  1
  Mn  Mn3  1  0.219273  0.448687  0.500000  1
  Fe  Fe4  1  0.757673  0.723833  0.000000  1
  Fe  Fe5  1  0.277118  0.036205  0.000000  1
  Fe  Fe6  1  0.963227  0.239828  0.000000  1
  Fe  Fe7  1  0.488519  0.941884  0.000000  1
  Fe  Fe8  1  0.061052  0.547473  0.000000  1
  Fe  Fe9  1  0.452467  0.509821  0.000000  1
  Fe  Fe10  1  0.718019  0.100548  0.500000  1
  Fe  Fe11  1  0.898285  0.617051  0.500000  1
  Fe  Fe12  1  0.383463  0.282414  0.500000  1
  Fe  Fe13  1  0.545477  0.761875  0.500000  1
  P  P14  1  0.453906  0.076413  0.500000  1
  P  P15  1  0.926434  0.376705  0.500000  1
  P  P16  1  0.623557  0.556475  0.500000  1
  P  P17  1  0.744220  0.965027  0.000000  1
  P  P18  1  0.030435  0.778253  0.000000  1
  P  P19  1  0.218659  0.250821  0.000000  1
  P  P20  1  0.337830  0.667787  0.000000  1
