# generated using pymatgen
data_Tb2Y2CoAg
_symmetry_space_group_name_H-M   'P 1'
_cell_length_a   9.43250658
_cell_length_b   9.43250601
_cell_length_c   9.45004300
_cell_angle_alpha   59.93848934
_cell_angle_beta   59.93849134
_cell_angle_gamma   60.12303632
_symmetry_Int_Tables_number   1
_chemical_formula_structural   Tb2Y2CoAg
_chemical_formula_sum   'Tb8 Y8 Co4 Ag4'
_cell_volume   594.52489174
_cell_formula_units_Z   4
loop_
 _symmetry_equiv_pos_site_id
 _symmetry_equiv_pos_as_xyz
  1  'x, y, z'
loop_
 _atom_site_type_symbol
 _atom_site_label
 _atom_site_symmetry_multiplicity
 _atom_site_fract_x
 _atom_site_fract_y
 _atom_site_fract_z
 _atom_site_occupancy
  Tb  Tb0  1  0.347888  0.347888  0.348073  1
  Tb  Tb1  1  0.347888  0.347888  0.956151  1
  Tb  Tb2  1  0.348073  0.956151  0.347888  1
  Tb  Tb3  1  0.956151  0.348073  0.347888  1
  Tb  Tb4  1  0.812031  0.187969  0.187969  1
  Tb  Tb5  1  0.187969  0.812031  0.812031  1
  Tb  Tb6  1  0.187969  0.812031  0.187969  1
  Tb  Tb7  1  0.812031  0.187969  0.812031  1
  Y  Y8  1  0.188058  0.188058  0.811942  1
  Y  Y9  1  0.811942  0.811942  0.188058  1
  Y  Y10  1  0.937177  0.562823  0.562823  1
  Y  Y11  1  0.562823  0.937177  0.937177  1
  Y  Y12  1  0.562823  0.937177  0.562823  1
  Y  Y13  1  0.937177  0.562823  0.937177  1
  Y  Y14  1  0.562439  0.562439  0.937561  1
  Y  Y15  1  0.937561  0.937561  0.562439  1
  Co  Co16  1  0.140681  0.140681  0.144033  1
  Co  Co17  1  0.140681  0.140681  0.574605  1
  Co  Co18  1  0.144033  0.574605  0.140681  1
  Co  Co19  1  0.574605  0.144033  0.140681  1
  Ag  Ag20  1  0.580976  0.580976  0.580653  1
  Ag  Ag21  1  0.580976  0.580976  0.257395  1
  Ag  Ag22  1  0.580653  0.257395  0.580976  1
  Ag  Ag23  1  0.257395  0.580653  0.580976  1
