# generated using pymatgen
data_Ca11Pr8SmSn16
_symmetry_space_group_name_H-M   'P 1'
_cell_length_a   7.99139540
_cell_length_b   8.56479710
_cell_length_c   16.16975433
_cell_angle_alpha   90.04469159
_cell_angle_beta   89.98734989
_cell_angle_gamma   89.93337558
_symmetry_Int_Tables_number   1
_chemical_formula_structural   Ca11Pr8SmSn16
_chemical_formula_sum   'Ca11 Pr8 Sm1 Sn16'
_cell_volume   1106.73255081
_cell_formula_units_Z   1
loop_
 _symmetry_equiv_pos_site_id
 _symmetry_equiv_pos_as_xyz
  1  'x, y, z'
loop_
 _atom_site_type_symbol
 _atom_site_label
 _atom_site_symmetry_multiplicity
 _atom_site_fract_x
 _atom_site_fract_y
 _atom_site_fract_z
 _atom_site_occupancy
  Ca  Ca0  1  0.834339  0.674135  0.623205  1
  Ca  Ca1  1  0.665390  0.174385  0.376430  1
  Ca  Ca2  1  0.164850  0.325926  0.123660  1
  Ca  Ca3  1  0.666203  0.174565  0.123759  1
  Ca  Ca4  1  0.165257  0.325665  0.376432  1
  Ca  Ca5  1  0.334942  0.825778  0.623141  1
  Ca  Ca6  1  0.834560  0.674403  0.877058  1
  Ca  Ca7  1  0.162762  0.500808  0.749420  1
  Ca  Ca8  1  0.663910  0.999303  0.749596  1
  Ca  Ca9  1  0.836441  0.498313  0.250123  1
  Ca  Ca10  1  0.336453  0.001461  0.250108  1
  Pr  Pr11  1  0.494780  0.315696  0.903943  1
  Pr  Pr12  1  0.993745  0.185671  0.595208  1
  Pr  Pr13  1  0.505542  0.685691  0.403698  1
  Pr  Pr14  1  0.005151  0.814426  0.096710  1
  Pr  Pr15  1  0.506725  0.684937  0.096807  1
  Pr  Pr16  1  0.005538  0.814441  0.403829  1
  Pr  Pr17  1  0.494676  0.314824  0.595746  1
  Pr  Pr18  1  0.993785  0.185945  0.904754  1
  Sm  Sm19  1  0.335119  0.824225  0.875610  1
  Sn  Sn20  1  0.328317  0.033182  0.037318  1
  Sn  Sn21  1  0.828850  0.466248  0.461937  1
  Sn  Sn22  1  0.670543  0.966675  0.538291  1
  Sn  Sn23  1  0.172724  0.535473  0.961278  1
  Sn  Sn24  1  0.669152  0.966052  0.961034  1
  Sn  Sn25  1  0.171108  0.533523  0.538373  1
  Sn  Sn26  1  0.329406  0.033544  0.461837  1
  Sn  Sn27  1  0.828439  0.465867  0.038125  1
  Sn  Sn28  1  0.535198  0.602079  0.750889  1
  Sn  Sn29  1  0.037423  0.898445  0.751220  1
  Sn  Sn30  1  0.464177  0.398865  0.249926  1
  Sn  Sn31  1  0.964076  0.100637  0.250075  1
  Sn  Sn32  1  0.290433  0.141307  0.750934  1
  Sn  Sn33  1  0.790216  0.357530  0.750075  1
  Sn  Sn34  1  0.710192  0.857440  0.249734  1
  Sn  Sn35  1  0.209577  0.642535  0.249717  1
