# generated using pymatgen
data_MgSc4Fe(B2Ir5)2
_symmetry_space_group_name_H-M   'P 1'
_cell_length_a   9.48240804
_cell_length_b   9.47900504
_cell_length_c   3.03974300
_cell_angle_alpha   90.00000000
_cell_angle_beta   90.00000000
_cell_angle_gamma   90.01005019
_symmetry_Int_Tables_number   1
_chemical_formula_structural   MgSc4Fe(B2Ir5)2
_chemical_formula_sum   'Mg1 Sc4 Fe1 B4 Ir10'
_cell_volume   273.22362801
_cell_formula_units_Z   1
loop_
 _symmetry_equiv_pos_site_id
 _symmetry_equiv_pos_as_xyz
  1  'x, y, z'
loop_
 _atom_site_type_symbol
 _atom_site_label
 _atom_site_symmetry_multiplicity
 _atom_site_fract_x
 _atom_site_fract_y
 _atom_site_fract_z
 _atom_site_occupancy
  Mg  Mg0  1  0.000000  0.000000  0.000000  1
  Sc  Sc1  1  0.322090  0.824532  0.000000  1
  Sc  Sc2  1  0.677911  0.175468  0.000000  1
  Sc  Sc3  1  0.824517  0.677862  0.000000  1
  Sc  Sc4  1  0.175484  0.322138  0.000000  1
  Fe  Fe5  1  0.500000  0.500000  0.000000  1
  B  B6  1  0.125062  0.625788  0.000000  1
  B  B7  1  0.874938  0.374212  0.000000  1
  B  B8  1  0.625767  0.874896  0.000000  1
  B  B9  1  0.374234  0.125105  0.000000  1
  Ir  Ir10  1  0.219955  0.072194  0.499998  1
  Ir  Ir11  1  0.780045  0.927806  0.499998  1
  Ir  Ir12  1  0.715032  0.433134  0.499998  1
  Ir  Ir13  1  0.284969  0.566865  0.499998  1
  Ir  Ir14  1  0.433144  0.284958  0.499998  1
  Ir  Ir15  1  0.566856  0.715042  0.499998  1
  Ir  Ir16  1  0.072176  0.780041  0.499998  1
  Ir  Ir17  1  0.927824  0.219959  0.499998  1
  Ir  Ir18  1  0.000000  0.500000  0.499998  1
  Ir  Ir19  1  0.500000  0.000000  0.499998  1
