# generated using pymatgen
data_DyTh5H8Br15
_symmetry_space_group_name_H-M   'P 1'
_cell_length_a   10.03687370
_cell_length_b   10.03686700
_cell_length_c   10.03693961
_cell_angle_alpha   109.09134058
_cell_angle_beta   109.09110843
_cell_angle_gamma   110.23365142
_symmetry_Int_Tables_number   1
_chemical_formula_structural   DyTh5H8Br15
_chemical_formula_sum   'Dy1 Th5 H8 Br15'
_cell_volume   778.25097849
_cell_formula_units_Z   1
loop_
 _symmetry_equiv_pos_site_id
 _symmetry_equiv_pos_as_xyz
  1  'x, y, z'
loop_
 _atom_site_type_symbol
 _atom_site_label
 _atom_site_symmetry_multiplicity
 _atom_site_fract_x
 _atom_site_fract_y
 _atom_site_fract_z
 _atom_site_occupancy
  Dy  Dy0  1  0.231127  0.231128  0.000000  1
  Th  Th1  1  0.757176  0.757175  0.000000  1
  Th  Th2  1  0.240683  0.003496  0.237184  1
  Th  Th3  1  0.003497  0.240681  0.237184  1
  Th  Th4  1  0.766312  0.003498  0.762817  1
  Th  Th5  1  0.003499  0.766311  0.762814  1
  H  H6  1  0.177568  0.998607  0.000002  1
  H  H7  1  0.820556  0.998389  0.999999  1
  H  H8  1  0.998606  0.177567  0.999999  1
  H  H9  1  0.998390  0.820557  0.000001  1
  H  H10  1  0.998389  0.998388  0.177831  1
  H  H11  1  0.177567  0.177566  0.178960  1
  H  H12  1  0.998607  0.998607  0.821041  1
  H  H13  1  0.820557  0.820557  0.822168  1
  Br  Br14  1  0.747070  0.252789  0.000003  1
  Br  Br15  1  0.499482  0.499483  0.000000  1
  Br  Br16  1  0.252785  0.747065  0.999999  1
  Br  Br17  1  0.745888  0.999249  0.253361  1
  Br  Br18  1  0.999247  0.745888  0.253359  1
  Br  Br19  1  0.503764  0.256033  0.247731  1
  Br  Br20  1  0.256029  0.503765  0.247730  1
  Br  Br21  1  0.747071  0.747070  0.494284  1
  Br  Br22  1  0.500299  0.000298  0.500000  1
  Br  Br23  1  0.000298  0.500299  0.500000  1
  Br  Br24  1  0.252785  0.252786  0.505716  1
  Br  Br25  1  0.256034  0.008302  0.752273  1
  Br  Br26  1  0.008303  0.256033  0.752270  1
  Br  Br27  1  0.745889  0.492530  0.746641  1
  Br  Br28  1  0.492529  0.745889  0.746640  1
