# generated using pymatgen
data_Y3LuIr3PdO14
_symmetry_space_group_name_H-M   'P 1'
_cell_length_a   7.26313179
_cell_length_b   7.22598218
_cell_length_c   7.26313200
_cell_angle_alpha   59.82977688
_cell_angle_beta   59.99998992
_cell_angle_gamma   59.82977497
_symmetry_Int_Tables_number   1
_chemical_formula_structural   Y3LuIr3PdO14
_chemical_formula_sum   'Y3 Lu1 Ir3 Pd1 O14'
_cell_volume   268.84842701
_cell_formula_units_Z   1
loop_
 _symmetry_equiv_pos_site_id
 _symmetry_equiv_pos_as_xyz
  1  'x, y, z'
loop_
 _atom_site_type_symbol
 _atom_site_label
 _atom_site_symmetry_multiplicity
 _atom_site_fract_x
 _atom_site_fract_y
 _atom_site_fract_z
 _atom_site_occupancy
  Y  Y0  1  0.625000  0.125000  0.125000  1
  Y  Y1  1  0.125000  0.125000  0.625000  1
  Y  Y2  1  0.125000  0.125000  0.125000  1
  Lu  Lu3  1  0.125000  0.625000  0.125000  1
  Ir  Ir4  1  0.125000  0.625000  0.625000  1
  Ir  Ir5  1  0.625000  0.625000  0.125000  1
  Ir  Ir6  1  0.625000  0.625000  0.625000  1
  Pd  Pd7  1  0.625000  0.125000  0.625000  1
  O  O8  1  0.719907  0.703502  0.288295  1
  O  O9  1  0.279768  0.287737  0.716248  1
  O  O10  1  0.716248  0.287737  0.716248  1
  O  O11  1  0.288295  0.703502  0.288295  1
  O  O12  1  0.288295  0.703502  0.719907  1
  O  O13  1  0.716248  0.287737  0.279768  1
  O  O14  1  0.530093  0.546498  0.961705  1
  O  O15  1  0.970232  0.962263  0.533752  1
  O  O16  1  0.533752  0.962263  0.533752  1
  O  O17  1  0.961705  0.546498  0.961705  1
  O  O18  1  0.961705  0.546498  0.530093  1
  O  O19  1  0.533752  0.962263  0.970232  1
  O  O20  1  0.247348  0.257955  0.247348  1
  O  O21  1  0.002652  0.992045  0.002652  1
