# generated using pymatgen
data_Er8Be(Si4Pt)3
_symmetry_space_group_name_H-M   'P 1'
_cell_length_a   8.06479100
_cell_length_b   8.06479172
_cell_length_c   7.99326000
_cell_angle_alpha   90.00000000
_cell_angle_beta   90.00000000
_cell_angle_gamma   119.99999295
_symmetry_Int_Tables_number   1
_chemical_formula_structural   Er8Be(Si4Pt)3
_chemical_formula_sum   'Er8 Be1 Si12 Pt3'
_cell_volume   450.23668177
_cell_formula_units_Z   1
loop_
 _symmetry_equiv_pos_site_id
 _symmetry_equiv_pos_as_xyz
  1  'x, y, z'
loop_
 _atom_site_type_symbol
 _atom_site_label
 _atom_site_symmetry_multiplicity
 _atom_site_fract_x
 _atom_site_fract_y
 _atom_site_fract_z
 _atom_site_occupancy
  Er  Er0  1  0.499505  0.999010  0.248475  1
  Er  Er1  1  0.498819  0.997638  0.751590  1
  Er  Er2  1  0.000990  0.500495  0.248475  1
  Er  Er3  1  0.002362  0.501181  0.751590  1
  Er  Er4  1  0.499505  0.500495  0.248475  1
  Er  Er5  1  0.498819  0.501181  0.751590  1
  Er  Er6  1  0.000000  0.000000  0.248109  1
  Er  Er7  1  0.000000  0.000000  0.752078  1
  Be  Be8  1  0.333333  0.666667  0.000459  1
  Si  Si9  1  0.173145  0.346290  0.000217  1
  Si  Si10  1  0.835163  0.670327  0.000063  1
  Si  Si11  1  0.653710  0.826855  0.000217  1
  Si  Si12  1  0.834391  0.668782  0.500091  1
  Si  Si13  1  0.329673  0.164837  0.000063  1
  Si  Si14  1  0.165112  0.330226  0.499783  1
  Si  Si15  1  0.173145  0.826855  0.000217  1
  Si  Si16  1  0.331218  0.165609  0.500091  1
  Si  Si17  1  0.835163  0.164837  0.000063  1
  Si  Si18  1  0.669774  0.834888  0.499783  1
  Si  Si19  1  0.834391  0.165609  0.500091  1
  Si  Si20  1  0.165112  0.834888  0.499783  1
  Pt  Pt21  1  0.666667  0.333333  0.998184  1
  Pt  Pt22  1  0.666667  0.333333  0.500947  1
  Pt  Pt23  1  0.333333  0.666667  0.499567  1
