# generated using pymatgen
data_SmTh3Sc4(ReB6)4
_symmetry_space_group_name_H-M   'P 1'
_cell_length_a   3.67577000
_cell_length_b   9.09103938
_cell_length_c   11.54093749
_cell_angle_alpha   89.96676538
_cell_angle_beta   90.00000000
_cell_angle_gamma   90.00000000
_symmetry_Int_Tables_number   1
_chemical_formula_structural   SmTh3Sc4(ReB6)4
_chemical_formula_sum   'Sm1 Th3 Sc4 Re4 B24'
_cell_volume   385.65847851
_cell_formula_units_Z   1
loop_
 _symmetry_equiv_pos_site_id
 _symmetry_equiv_pos_as_xyz
  1  'x, y, z'
loop_
 _atom_site_type_symbol
 _atom_site_label
 _atom_site_symmetry_multiplicity
 _atom_site_fract_x
 _atom_site_fract_y
 _atom_site_fract_z
 _atom_site_occupancy
  Sm  Sm0  1  0.000000  0.321388  0.413958  1
  Th  Th1  1  0.000000  0.677270  0.584831  1
  Th  Th2  1  0.000000  0.820895  0.085737  1
  Th  Th3  1  0.000000  0.179187  0.914936  1
  Sc  Sc4  1  0.000000  0.945959  0.371775  1
  Sc  Sc5  1  0.000000  0.056278  0.627233  1
  Sc  Sc6  1  0.000000  0.444563  0.128731  1
  Sc  Sc7  1  0.000000  0.554079  0.872547  1
  Re  Re8  1  0.000000  0.641956  0.317359  1
  Re  Re9  1  0.000000  0.358437  0.682816  1
  Re  Re10  1  0.000000  0.140746  0.182812  1
  Re  Re11  1  0.000000  0.858798  0.817061  1
  B  B12  1  0.500000  0.555764  0.429629  1
  B  B13  1  0.500000  0.442634  0.569236  1
  B  B14  1  0.500000  0.057112  0.071391  1
  B  B15  1  0.500000  0.942848  0.928805  1
  B  B16  1  0.500000  0.753558  0.415992  1
  B  B17  1  0.500000  0.246286  0.582688  1
  B  B18  1  0.500000  0.254547  0.084854  1
  B  B19  1  0.500000  0.745578  0.915857  1
  B  B20  1  0.500000  0.793750  0.266052  1
  B  B21  1  0.500000  0.206310  0.733599  1
  B  B22  1  0.500000  0.294619  0.235400  1
  B  B23  1  0.500000  0.706042  0.765543  1
  B  B24  1  0.500000  0.627992  0.184482  1
  B  B25  1  0.500000  0.371405  0.815707  1
  B  B26  1  0.500000  0.129476  0.317111  1
  B  B27  1  0.500000  0.871573  0.683663  1
  B  B28  1  0.500000  0.984026  0.216331  1
  B  B29  1  0.500000  0.016490  0.784006  1
  B  B30  1  0.500000  0.482461  0.284902  1
  B  B31  1  0.500000  0.515980  0.714986  1
  B  B32  1  0.500000  0.596057  0.025817  1
  B  B33  1  0.500000  0.403913  0.974706  1
  B  B34  1  0.500000  0.096741  0.473996  1
  B  B35  1  0.500000  0.905280  0.525451  1
