# generated using pymatgen
data_YEr7(Zr3Sn4)4
_symmetry_space_group_name_H-M   'P 1'
_cell_length_a   7.78327402
_cell_length_b   7.83510401
_cell_length_c   14.75746800
_cell_angle_alpha   89.99796707
_cell_angle_beta   90.00426225
_cell_angle_gamma   90.00200383
_symmetry_Int_Tables_number   1
_chemical_formula_structural   YEr7(Zr3Sn4)4
_chemical_formula_sum   'Y1 Er7 Zr12 Sn16'
_cell_volume   899.95114771
_cell_formula_units_Z   1
loop_
 _symmetry_equiv_pos_site_id
 _symmetry_equiv_pos_as_xyz
  1  'x, y, z'
loop_
 _atom_site_type_symbol
 _atom_site_label
 _atom_site_symmetry_multiplicity
 _atom_site_fract_x
 _atom_site_fract_y
 _atom_site_fract_z
 _atom_site_occupancy
  Y  Y0  1  0.513105  0.322309  0.907023  1
  Er  Er1  1  0.013212  0.178153  0.592709  1
  Er  Er2  1  0.486815  0.678203  0.407057  1
  Er  Er3  1  0.986780  0.821859  0.092979  1
  Er  Er4  1  0.486834  0.678206  0.092986  1
  Er  Er5  1  0.986801  0.821791  0.407054  1
  Er  Er6  1  0.513269  0.321832  0.592847  1
  Er  Er7  1  0.013210  0.178100  0.907288  1
  Zr  Zr8  1  0.349705  0.837196  0.870902  1
  Zr  Zr9  1  0.849672  0.662740  0.629126  1
  Zr  Zr10  1  0.650342  0.162841  0.370883  1
  Zr  Zr11  1  0.150460  0.337227  0.129187  1
  Zr  Zr12  1  0.650352  0.162817  0.129126  1
  Zr  Zr13  1  0.150445  0.337248  0.370863  1
  Zr  Zr14  1  0.349709  0.837123  0.629093  1
  Zr  Zr15  1  0.849587  0.662758  0.870834  1
  Zr  Zr16  1  0.171635  0.510086  0.749991  1
  Zr  Zr17  1  0.671555  0.989972  0.750023  1
  Zr  Zr18  1  0.828424  0.489983  0.249989  1
  Zr  Zr19  1  0.328479  0.009932  0.250044  1
  Sn  Sn20  1  0.309737  0.039177  0.042311  1
  Sn  Sn21  1  0.810176  0.460449  0.457884  1
  Sn  Sn22  1  0.689948  0.960365  0.541963  1
  Sn  Sn23  1  0.188815  0.540262  0.958322  1
  Sn  Sn24  1  0.690215  0.959693  0.958195  1
  Sn  Sn25  1  0.189910  0.539523  0.541942  1
  Sn  Sn26  1  0.310125  0.039612  0.457912  1
  Sn  Sn27  1  0.810665  0.460839  0.042428  1
  Sn  Sn28  1  0.544301  0.614771  0.749773  1
  Sn  Sn29  1  0.044119  0.885504  0.750046  1
  Sn  Sn30  1  0.455898  0.385617  0.249973  1
  Sn  Sn31  1  0.955848  0.114431  0.249996  1
  Sn  Sn32  1  0.317425  0.155164  0.749467  1
  Sn  Sn33  1  0.818652  0.344215  0.749789  1
  Sn  Sn34  1  0.681936  0.844212  0.250012  1
  Sn  Sn35  1  0.181840  0.655793  0.249983  1
