# generated using pymatgen
data_La2Al19Co6
_symmetry_space_group_name_H-M   'P 1'
_cell_length_a   8.23173086
_cell_length_b   10.70192368
_cell_length_c   10.70192300
_cell_angle_alpha   68.94757839
_cell_angle_beta   78.52259485
_cell_angle_gamma   78.52259408
_symmetry_Int_Tables_number   1
_chemical_formula_structural   La2Al19Co6
_chemical_formula_sum   'La4 Al38 Co12'
_cell_volume   853.84593426
_cell_formula_units_Z   2
loop_
 _symmetry_equiv_pos_site_id
 _symmetry_equiv_pos_as_xyz
  1  'x, y, z'
loop_
 _atom_site_type_symbol
 _atom_site_label
 _atom_site_symmetry_multiplicity
 _atom_site_fract_x
 _atom_site_fract_y
 _atom_site_fract_z
 _atom_site_occupancy
  La  La0  1  0.744499  0.279102  0.279102  1
  La  La1  1  0.255501  0.720898  0.720898  1
  La  La2  1  0.226786  0.280084  0.280084  1
  La  La3  1  0.773214  0.719916  0.719916  1
  Al  Al4  1  0.000000  0.830160  0.169840  1
  Al  Al5  1  0.552104  0.815419  0.479371  1
  Al  Al6  1  0.359785  0.079849  0.079849  1
  Al  Al7  1  0.948755  0.729395  0.953086  1
  Al  Al8  1  0.057198  0.459017  0.811935  1
  Al  Al9  1  0.154588  0.565958  0.330823  1
  Al  Al10  1  0.352417  0.670142  0.437193  1
  Al  Al11  1  0.234983  0.998588  0.497098  1
  Al  Al12  1  0.552104  0.479371  0.815419  1
  Al  Al13  1  0.535516  0.296674  0.063093  1
  Al  Al14  1  0.464484  0.936907  0.703326  1
  Al  Al15  1  0.447896  0.520629  0.184581  1
  Al  Al16  1  0.464484  0.703326  0.936907  1
  Al  Al17  1  0.765017  0.001412  0.502902  1
  Al  Al18  1  0.942802  0.188065  0.540983  1
  Al  Al19  1  0.535516  0.063093  0.296674  1
  Al  Al20  1  0.647583  0.562807  0.329858  1
  Al  Al21  1  0.154588  0.330823  0.565958  1
  Al  Al22  1  0.765017  0.502902  0.001412  1
  Al  Al23  1  0.234983  0.497098  0.998588  1
  Al  Al24  1  0.051245  0.046914  0.270605  1
  Al  Al25  1  0.638980  0.850963  0.200043  1
  Al  Al26  1  0.638980  0.200043  0.850963  1
  Al  Al27  1  0.184566  0.914098  0.914098  1
  Al  Al28  1  0.845412  0.434042  0.669177  1
  Al  Al29  1  0.815434  0.085902  0.085902  1
  Al  Al30  1  0.948755  0.953086  0.729395  1
  Al  Al31  1  0.361020  0.149037  0.799957  1
  Al  Al32  1  0.051245  0.270605  0.046914  1
  Al  Al33  1  0.000000  0.169840  0.830160  1
  Al  Al34  1  0.942802  0.540983  0.188065  1
  Al  Al35  1  0.845412  0.669177  0.434042  1
  Al  Al36  1  0.057198  0.811935  0.459017  1
  Al  Al37  1  0.447896  0.184581  0.520629  1
  Al  Al38  1  0.352417  0.437193  0.670142  1
  Al  Al39  1  0.647583  0.329858  0.562807  1
  Al  Al40  1  0.640215  0.920151  0.920151  1
  Al  Al41  1  0.361020  0.799957  0.149037  1
  Co  Co42  1  0.404891  0.438630  0.438630  1
  Co  Co43  1  0.094124  0.561526  0.561526  1
  Co  Co44  1  0.811728  0.919389  0.320492  1
  Co  Co45  1  0.595109  0.561370  0.561370  1
  Co  Co46  1  0.330609  0.915783  0.314890  1
  Co  Co47  1  0.188272  0.080611  0.679508  1
  Co  Co48  1  0.905876  0.438474  0.438474  1
  Co  Co49  1  0.811728  0.320492  0.919389  1
  Co  Co50  1  0.330609  0.314890  0.915783  1
  Co  Co51  1  0.669391  0.084217  0.685110  1
  Co  Co52  1  0.188272  0.679508  0.080611  1
  Co  Co53  1  0.669391  0.685110  0.084217  1
