# generated using pymatgen
data_Tb2B5
_symmetry_space_group_name_H-M   'P 1'
_cell_length_a   7.12268600
_cell_length_b   7.13059971
_cell_length_c   7.15227330
_cell_angle_alpha   77.37874444
_cell_angle_beta   90.00000000
_cell_angle_gamma   90.00000000
_symmetry_Int_Tables_number   1
_chemical_formula_structural   Tb2B5
_chemical_formula_sum   'Tb8 B20'
_cell_volume   354.47914569
_cell_formula_units_Z   4
loop_
 _symmetry_equiv_pos_site_id
 _symmetry_equiv_pos_as_xyz
  1  'x, y, z'
loop_
 _atom_site_type_symbol
 _atom_site_label
 _atom_site_symmetry_multiplicity
 _atom_site_fract_x
 _atom_site_fract_y
 _atom_site_fract_z
 _atom_site_occupancy
  Tb  Tb0  1  0.184383  0.242135  0.244590  1
  Tb  Tb1  1  0.815617  0.757865  0.755410  1
  Tb  Tb2  1  0.315617  0.242135  0.744590  1
  Tb  Tb3  1  0.807670  0.234807  0.869318  1
  Tb  Tb4  1  0.692330  0.234807  0.369318  1
  Tb  Tb5  1  0.684383  0.757865  0.255410  1
  Tb  Tb6  1  0.307670  0.765193  0.630682  1
  Tb  Tb7  1  0.192330  0.765193  0.130682  1
  B  B8  1  0.673799  0.497441  0.039278  1
  B  B9  1  0.538169  0.503112  0.825836  1
  B  B10  1  0.173799  0.502559  0.460722  1
  B  B11  1  0.826201  0.497441  0.539278  1
  B  B12  1  0.410903  0.499054  0.410701  1
  B  B13  1  0.498271  0.314762  0.038930  1
  B  B14  1  0.507600  0.923974  0.927336  1
  B  B15  1  0.501729  0.685238  0.961070  1
  B  B16  1  0.461831  0.496888  0.174164  1
  B  B17  1  0.007600  0.076026  0.572664  1
  B  B18  1  0.492400  0.076026  0.072664  1
  B  B19  1  0.992400  0.923974  0.427336  1
  B  B20  1  0.089097  0.499054  0.910701  1
  B  B21  1  0.589097  0.500946  0.589299  1
  B  B22  1  0.038169  0.496888  0.674164  1
  B  B23  1  0.961831  0.503112  0.325836  1
  B  B24  1  0.998271  0.685238  0.461070  1
  B  B25  1  0.001729  0.314762  0.538930  1
  B  B26  1  0.910903  0.500946  0.089299  1
  B  B27  1  0.326201  0.502559  0.960722  1
