# generated using pymatgen
data_TcIr2Ru4W
_symmetry_space_group_name_H-M   'P 1'
_cell_length_a   5.52290800
_cell_length_b   5.50035217
_cell_length_c   4.37094700
_cell_angle_alpha   90.00000000
_cell_angle_beta   90.00000000
_cell_angle_gamma   120.13575828
_symmetry_Int_Tables_number   1
_chemical_formula_structural   TcIr2Ru4W
_chemical_formula_sum   'Tc1 Ir2 Ru4 W1'
_cell_volume   114.83353667
_cell_formula_units_Z   1
loop_
 _symmetry_equiv_pos_site_id
 _symmetry_equiv_pos_as_xyz
  1  'x, y, z'
loop_
 _atom_site_type_symbol
 _atom_site_label
 _atom_site_symmetry_multiplicity
 _atom_site_fract_x
 _atom_site_fract_y
 _atom_site_fract_z
 _atom_site_occupancy
  Tc  Tc0  1  0.665216  0.330430  0.250000  1
  Ir  Ir1  1  0.165222  0.330444  0.250000  1
  Ir  Ir2  1  0.831790  0.663579  0.750000  1
  Ru  Ru3  1  0.668968  0.835942  0.250000  1
  Ru  Ru4  1  0.166973  0.835942  0.250000  1
  Ru  Ru5  1  0.338117  0.166993  0.750000  1
  Ru  Ru6  1  0.828877  0.166993  0.750000  1
  W  W7  1  0.334837  0.669676  0.750000  1
