# generated using pymatgen
data_LaPr2BiO7
_symmetry_space_group_name_H-M   'P 1'
_cell_length_a   6.82080924
_cell_length_b   6.85467512
_cell_length_c   8.03424046
_cell_angle_alpha   106.88869758
_cell_angle_beta   89.88869269
_cell_angle_gamma   98.29226069
_symmetry_Int_Tables_number   1
_chemical_formula_structural   LaPr2BiO7
_chemical_formula_sum   'La2 Pr4 Bi2 O14'
_cell_volume   355.36087951
_cell_formula_units_Z   2
loop_
 _symmetry_equiv_pos_site_id
 _symmetry_equiv_pos_as_xyz
  1  'x, y, z'
loop_
 _atom_site_type_symbol
 _atom_site_label
 _atom_site_symmetry_multiplicity
 _atom_site_fract_x
 _atom_site_fract_y
 _atom_site_fract_z
 _atom_site_occupancy
  La  La0  1  0.740157  0.484924  0.618567  1
  La  La1  1  0.259843  0.515076  0.381433  1
  Pr  Pr2  1  0.461940  0.002554  0.252746  1
  Pr  Pr3  1  0.538060  0.997446  0.747254  1
  Pr  Pr4  1  0.267144  0.535157  0.882278  1
  Pr  Pr5  1  0.732856  0.464843  0.117722  1
  Bi  Bi6  1  0.000000  0.000000  0.500000  1
  Bi  Bi7  1  0.000000  0.000000  0.000000  1
  O  O8  1  0.441699  0.642654  0.165308  1
  O  O9  1  0.558301  0.357346  0.834692  1
  O  O10  1  0.294800  0.926192  0.954140  1
  O  O11  1  0.705200  0.073808  0.045860  1
  O  O12  1  0.291434  0.926815  0.510896  1
  O  O13  1  0.708566  0.073185  0.489104  1
  O  O14  1  0.547518  0.363766  0.345104  1
  O  O15  1  0.452482  0.636234  0.654896  1
  O  O16  1  0.924312  0.675750  0.954845  1
  O  O17  1  0.075688  0.324250  0.045155  1
  O  O18  1  0.076139  0.332486  0.615209  1
  O  O19  1  0.923861  0.667514  0.384791  1
  O  O20  1  0.889777  0.918765  0.729197  1
  O  O21  1  0.110223  0.081235  0.270803  1
