# generated using pymatgen
data_Sr2TlB2Pt7
_symmetry_space_group_name_H-M   'P 1'
_cell_length_a   5.67535600
_cell_length_b   5.67535646
_cell_length_c   7.56461700
_cell_angle_alpha   90.00000000
_cell_angle_beta   90.00000000
_cell_angle_gamma   119.99999733
_symmetry_Int_Tables_number   1
_chemical_formula_structural   Sr2TlB2Pt7
_chemical_formula_sum   'Sr2 Tl1 B2 Pt7'
_cell_volume   211.01039016
_cell_formula_units_Z   1
loop_
 _symmetry_equiv_pos_site_id
 _symmetry_equiv_pos_as_xyz
  1  'x, y, z'
loop_
 _atom_site_type_symbol
 _atom_site_label
 _atom_site_symmetry_multiplicity
 _atom_site_fract_x
 _atom_site_fract_y
 _atom_site_fract_z
 _atom_site_occupancy
  Sr  Sr0  1  0.000000  0.000000  0.000000  1
  Sr  Sr1  1  0.000000  0.000000  0.500000  1
  Tl  Tl2  1  0.666666  0.333332  0.000000  1
  B  B3  1  0.666666  0.333332  0.500000  1
  B  B4  1  0.333333  0.666667  0.500000  1
  Pt  Pt5  1  0.333333  0.666667  0.000000  1
  Pt  Pt6  1  0.498896  0.997792  0.306768  1
  Pt  Pt7  1  0.002208  0.501105  0.306768  1
  Pt  Pt8  1  0.498897  0.501105  0.306768  1
  Pt  Pt9  1  0.498896  0.997792  0.693232  1
  Pt  Pt10  1  0.002208  0.501105  0.693232  1
  Pt  Pt11  1  0.498897  0.501105  0.693232  1
