# generated using pymatgen
data_TmLuP7Ru12
_symmetry_space_group_name_H-M   'P 1'
_cell_length_a   9.39578900
_cell_length_b   9.39578742
_cell_length_c   3.94926200
_cell_angle_alpha   90.00000000
_cell_angle_beta   90.00000000
_cell_angle_gamma   119.99999501
_symmetry_Int_Tables_number   1
_chemical_formula_structural   TmLuP7Ru12
_chemical_formula_sum   'Tm1 Lu1 P7 Ru12'
_cell_volume   301.93470695
_cell_formula_units_Z   1
loop_
 _symmetry_equiv_pos_site_id
 _symmetry_equiv_pos_as_xyz
  1  'x, y, z'
loop_
 _atom_site_type_symbol
 _atom_site_label
 _atom_site_symmetry_multiplicity
 _atom_site_fract_x
 _atom_site_fract_y
 _atom_site_fract_z
 _atom_site_occupancy
  Tm  Tm0  1  0.333333  0.666667  0.000000  1
  Lu  Lu1  1  0.666667  0.333333  0.500000  1
  P  P2  1  0.598954  0.718300  0.500000  1
  P  P3  1  0.000000  0.000000  0.000000  1
  P  P4  1  0.281700  0.880654  0.500000  1
  P  P5  1  0.119346  0.401046  0.500000  1
  P  P6  1  0.883537  0.574280  0.000000  1
  P  P7  1  0.425720  0.309258  0.000000  1
  P  P8  1  0.690742  0.116463  0.000000  1
  Ru  Ru9  1  0.555230  0.948099  0.500000  1
  Ru  Ru10  1  0.392870  0.444770  0.500000  1
  Ru  Ru11  1  0.914558  0.123064  0.500000  1
  Ru  Ru12  1  0.208505  0.085442  0.500000  1
  Ru  Ru13  1  0.876936  0.791495  0.500000  1
  Ru  Ru14  1  0.727349  0.891884  0.000000  1
  Ru  Ru15  1  0.108116  0.835463  0.000000  1
  Ru  Ru16  1  0.164537  0.272651  0.000000  1
  Ru  Ru17  1  0.426086  0.066935  0.000000  1
  Ru  Ru18  1  0.933065  0.359152  0.000000  1
  Ru  Ru19  1  0.640848  0.573914  0.000000  1
  Ru  Ru20  1  0.051901  0.607130  0.500000  1
