# generated using pymatgen
data_SrP6SeO18
_symmetry_space_group_name_H-M   'P 1'
_cell_length_a   6.90902200
_cell_length_b   6.90902151
_cell_length_c   10.57306600
_cell_angle_alpha   90.00000000
_cell_angle_beta   90.00000000
_cell_angle_gamma   120.00000235
_symmetry_Int_Tables_number   1
_chemical_formula_structural   SrP6SeO18
_chemical_formula_sum   'Sr1 P6 Se1 O18'
_cell_volume   437.08377456
_cell_formula_units_Z   1
loop_
 _symmetry_equiv_pos_site_id
 _symmetry_equiv_pos_as_xyz
  1  'x, y, z'
loop_
 _atom_site_type_symbol
 _atom_site_label
 _atom_site_symmetry_multiplicity
 _atom_site_fract_x
 _atom_site_fract_y
 _atom_site_fract_z
 _atom_site_occupancy
  Sr  Sr0  1  0.000000  0.000000  0.500000  1
  P  P1  1  0.730622  0.125576  0.782035  1
  P  P2  1  0.874424  0.269378  0.217965  1
  P  P3  1  0.730622  0.605047  0.217965  1
  P  P4  1  0.874424  0.605047  0.782035  1
  P  P5  1  0.394953  0.269378  0.782035  1
  P  P6  1  0.394953  0.125576  0.217965  1
  Se  Se7  1  0.000000  0.000000  0.000000  1
  O  O8  1  0.899180  0.510864  0.192542  1
  O  O9  1  0.899180  0.388316  0.807458  1
  O  O10  1  0.489136  0.100820  0.807458  1
  O  O11  1  0.611684  0.100820  0.192542  1
  O  O12  1  0.754265  0.058512  0.652698  1
  O  O13  1  0.754281  0.995771  0.893104  1
  O  O14  1  0.489136  0.388316  0.192542  1
  O  O15  1  0.754265  0.695754  0.347302  1
  O  O16  1  0.754281  0.758510  0.106896  1
  O  O17  1  0.611684  0.510864  0.807458  1
  O  O18  1  0.941488  0.245735  0.347302  1
  O  O19  1  0.004229  0.245719  0.106896  1
  O  O20  1  0.241490  0.245719  0.893104  1
  O  O21  1  0.304246  0.245735  0.652698  1
  O  O22  1  0.004229  0.758510  0.893104  1
  O  O23  1  0.941488  0.695754  0.652698  1
  O  O24  1  0.241490  0.995771  0.106896  1
  O  O25  1  0.304246  0.058512  0.347302  1
