# generated using pymatgen
data_Hf3Zr7In2Sb5
_symmetry_space_group_name_H-M   'P 1'
_cell_length_a   5.88682413
_cell_length_b   8.65607975
_cell_length_c   8.64613200
_cell_angle_alpha   120.03228312
_cell_angle_beta   89.93215205
_cell_angle_gamma   90.16246775
_symmetry_Int_Tables_number   1
_chemical_formula_structural   Hf3Zr7In2Sb5
_chemical_formula_sum   'Hf3 Zr7 In2 Sb5'
_cell_volume   381.42720966
_cell_formula_units_Z   1
loop_
 _symmetry_equiv_pos_site_id
 _symmetry_equiv_pos_as_xyz
  1  'x, y, z'
loop_
 _atom_site_type_symbol
 _atom_site_label
 _atom_site_symmetry_multiplicity
 _atom_site_fract_x
 _atom_site_fract_y
 _atom_site_fract_z
 _atom_site_occupancy
  Hf  Hf0  1  0.499047  0.333651  0.669058  1
  Hf  Hf1  1  0.500029  0.664381  0.330760  1
  Hf  Hf2  1  0.002522  0.665913  0.332316  1
  Zr  Zr3  1  0.001416  0.333666  0.668283  1
  Zr  Zr4  1  0.769669  0.268839  0.000752  1
  Zr  Zr5  1  0.775501  0.734732  0.733643  1
  Zr  Zr6  1  0.775703  0.999708  0.265659  1
  Zr  Zr7  1  0.226271  0.729822  0.000313  1
  Zr  Zr8  1  0.227861  0.268627  0.267855  1
  Zr  Zr9  1  0.227729  0.999956  0.731485  1
  In  In10  1  0.258373  0.613913  0.613499  1
  In  In11  1  0.258461  0.999731  0.386064  1
  Sb  Sb12  1  0.741589  0.613719  0.000152  1
  Sb  Sb13  1  0.742552  0.389881  0.391564  1
  Sb  Sb14  1  0.742307  0.998159  0.608334  1
  Sb  Sb15  1  0.254252  0.386855  0.000316  1
  Sb  Sb16  1  0.496716  0.998449  0.999948  1
