# generated using pymatgen
data_Tb3Pr16TmSi16
_symmetry_space_group_name_H-M   'P 1'
_cell_length_a   7.84630004
_cell_length_b   7.84630028
_cell_length_c   15.38190900
_cell_angle_alpha   89.99445028
_cell_angle_beta   90.00554972
_cell_angle_gamma   90.01438600
_symmetry_Int_Tables_number   1
_chemical_formula_structural   Tb3Pr16TmSi16
_chemical_formula_sum   'Tb3 Pr16 Tm1 Si16'
_cell_volume   946.97836284
_cell_formula_units_Z   1
loop_
 _symmetry_equiv_pos_site_id
 _symmetry_equiv_pos_as_xyz
  1  'x, y, z'
loop_
 _atom_site_type_symbol
 _atom_site_label
 _atom_site_symmetry_multiplicity
 _atom_site_fract_x
 _atom_site_fract_y
 _atom_site_fract_z
 _atom_site_occupancy
  Tb  Tb0  1  0.308878  0.308878  0.000000  1
  Tb  Tb1  1  0.190803  0.808816  0.250036  1
  Tb  Tb2  1  0.808816  0.190803  0.749964  1
  Pr  Pr3  1  0.378736  0.013312  0.445066  1
  Pr  Pr4  1  0.486950  0.879014  0.694913  1
  Pr  Pr5  1  0.513201  0.121071  0.195076  1
  Pr  Pr6  1  0.879014  0.486950  0.305087  1
  Pr  Pr7  1  0.121071  0.513201  0.804924  1
  Pr  Pr8  1  0.621039  0.986753  0.945069  1
  Pr  Pr9  1  0.013312  0.378736  0.554934  1
  Pr  Pr10  1  0.986753  0.621039  0.054931  1
  Pr  Pr11  1  0.124950  0.976247  0.878572  1
  Pr  Pr12  1  0.523923  0.624763  0.128586  1
  Pr  Pr13  1  0.476422  0.375011  0.628375  1
  Pr  Pr14  1  0.624763  0.523923  0.871414  1
  Pr  Pr15  1  0.375011  0.476422  0.371625  1
  Pr  Pr16  1  0.875080  0.023790  0.378638  1
  Pr  Pr17  1  0.976247  0.124950  0.121428  1
  Pr  Pr18  1  0.023790  0.875080  0.621362  1
  Tm  Tm19  1  0.690258  0.690258  0.500000  1
  Si  Si20  1  0.187759  0.172206  0.708671  1
  Si  Si21  1  0.328063  0.687778  0.958544  1
  Si  Si22  1  0.672158  0.313248  0.458634  1
  Si  Si23  1  0.687778  0.328063  0.041456  1
  Si  Si24  1  0.313248  0.672158  0.541366  1
  Si  Si25  1  0.812223  0.827881  0.208784  1
  Si  Si26  1  0.172206  0.187759  0.291329  1
  Si  Si27  1  0.827881  0.812223  0.791216  1
  Si  Si28  1  0.286781  0.920842  0.063186  1
  Si  Si29  1  0.579609  0.786432  0.313993  1
  Si  Si30  1  0.420956  0.213344  0.813146  1
  Si  Si31  1  0.786432  0.579609  0.686007  1
  Si  Si32  1  0.213344  0.420956  0.186854  1
  Si  Si33  1  0.713256  0.078445  0.563028  1
  Si  Si34  1  0.920842  0.286781  0.936814  1
  Si  Si35  1  0.078445  0.713256  0.436972  1
