# generated using pymatgen
data_Y8SbPd11Pt13
_symmetry_space_group_name_H-M   'P 1'
_cell_length_a   8.41850080
_cell_length_b   8.42239142
_cell_length_c   8.42140611
_cell_angle_alpha   89.96632130
_cell_angle_beta   89.95184067
_cell_angle_gamma   89.98616646
_symmetry_Int_Tables_number   1
_chemical_formula_structural   Y8SbPd11Pt13
_chemical_formula_sum   'Y8 Sb1 Pd11 Pt13'
_cell_volume   597.11028077
_cell_formula_units_Z   1
loop_
 _symmetry_equiv_pos_site_id
 _symmetry_equiv_pos_as_xyz
  1  'x, y, z'
loop_
 _atom_site_type_symbol
 _atom_site_label
 _atom_site_symmetry_multiplicity
 _atom_site_fract_x
 _atom_site_fract_y
 _atom_site_fract_z
 _atom_site_occupancy
  Y  Y0  1  0.746484  0.745855  0.254023  1
  Y  Y1  1  0.745099  0.254993  0.745801  1
  Y  Y2  1  0.254171  0.745587  0.745812  1
  Y  Y3  1  0.745866  0.745068  0.745660  1
  Y  Y4  1  0.746022  0.254123  0.254022  1
  Y  Y5  1  0.254979  0.254544  0.746157  1
  Y  Y6  1  0.253372  0.746643  0.253957  1
  Y  Y7  1  0.253842  0.253363  0.253780  1
  Sb  Sb8  1  0.002370  0.999626  0.003126  1
  Pd  Pd9  1  0.000107  0.265142  0.500356  1
  Pd  Pd10  1  0.500074  0.734748  0.000080  1
  Pd  Pd11  1  0.999092  0.000502  0.696532  1
  Pd  Pd12  1  0.000088  0.499715  0.263616  1
  Pd  Pd13  1  0.999397  0.305750  0.998966  1
  Pd  Pd14  1  0.999366  0.693693  0.998950  1
  Pd  Pd15  1  0.695895  0.999928  0.998766  1
  Pd  Pd16  1  0.263770  0.499964  0.000200  1
  Pd  Pd17  1  0.263268  0.999934  0.499997  1
  Pd  Pd18  1  0.000068  0.499652  0.735180  1
  Pd  Pd19  1  0.500102  0.265020  0.000194  1
  Pt  Pt20  1  0.998578  0.000269  0.308637  1
  Pt  Pt21  1  0.734494  0.999896  0.500144  1
  Pt  Pt22  1  0.735035  0.499929  0.000194  1
  Pt  Pt23  1  0.499795  0.000071  0.734776  1
  Pt  Pt24  1  0.000193  0.734865  0.500282  1
  Pt  Pt25  1  0.499628  0.000135  0.263216  1
  Pt  Pt26  1  0.254091  0.500269  0.499680  1
  Pt  Pt27  1  0.499935  0.500032  0.746413  1
  Pt  Pt28  1  0.499876  0.499988  0.253810  1
  Pt  Pt29  1  0.499807  0.254427  0.499676  1
  Pt  Pt30  1  0.499796  0.746075  0.499673  1
  Pt  Pt31  1  0.746934  0.500278  0.499726  1
  Pt  Pt32  1  0.308407  0.999914  0.998601  1
