# generated using pymatgen
data_YbSm(Si7Rh3)2
_symmetry_space_group_name_H-M   'P 1'
_cell_length_a   8.00780811
_cell_length_b   8.00780842
_cell_length_c   8.00780900
_cell_angle_alpha   57.08044848
_cell_angle_beta   57.08044707
_cell_angle_gamma   57.08044937
_symmetry_Int_Tables_number   1
_chemical_formula_structural   YbSm(Si7Rh3)2
_chemical_formula_sum   'Yb1 Sm1 Si14 Rh6'
_cell_volume   338.66637622
_cell_formula_units_Z   1
loop_
 _symmetry_equiv_pos_site_id
 _symmetry_equiv_pos_as_xyz
  1  'x, y, z'
loop_
 _atom_site_type_symbol
 _atom_site_label
 _atom_site_symmetry_multiplicity
 _atom_site_fract_x
 _atom_site_fract_y
 _atom_site_fract_z
 _atom_site_occupancy
  Yb  Yb0  1  0.500000  0.500000  0.500000  1
  Sm  Sm1  1  0.000000  0.000000  0.000000  1
  Si  Si2  1  0.750205  0.750205  0.750205  1
  Si  Si3  1  0.249795  0.249795  0.249795  1
  Si  Si4  1  0.849477  0.066606  0.671544  1
  Si  Si5  1  0.671544  0.849477  0.066606  1
  Si  Si6  1  0.066606  0.671544  0.849477  1
  Si  Si7  1  0.647483  0.826285  0.435685  1
  Si  Si8  1  0.435685  0.647483  0.826285  1
  Si  Si9  1  0.826285  0.435685  0.647483  1
  Si  Si10  1  0.173715  0.564315  0.352517  1
  Si  Si11  1  0.564315  0.352517  0.173715  1
  Si  Si12  1  0.352517  0.173715  0.564315  1
  Si  Si13  1  0.933394  0.328456  0.150523  1
  Si  Si14  1  0.328456  0.150523  0.933394  1
  Si  Si15  1  0.150523  0.933394  0.328456  1
  Rh  Rh16  1  0.070161  0.430317  0.749514  1
  Rh  Rh17  1  0.250486  0.929839  0.569683  1
  Rh  Rh18  1  0.569683  0.250486  0.929839  1
  Rh  Rh19  1  0.929839  0.569683  0.250486  1
  Rh  Rh20  1  0.430317  0.749514  0.070161  1
  Rh  Rh21  1  0.749514  0.070161  0.430317  1
