# generated using pymatgen
data_TbNd2Y(B6Os)2
_symmetry_space_group_name_H-M   'P 1'
_cell_length_a   3.71366600
_cell_length_b   9.25524903
_cell_length_c   11.67517004
_cell_angle_alpha   90.00994236
_cell_angle_beta   90.00000000
_cell_angle_gamma   90.00000000
_symmetry_Int_Tables_number   1
_chemical_formula_structural   TbNd2Y(B6Os)2
_chemical_formula_sum   'Tb2 Nd4 Y2 B24 Os4'
_cell_volume   401.28613878
_cell_formula_units_Z   2
loop_
 _symmetry_equiv_pos_site_id
 _symmetry_equiv_pos_as_xyz
  1  'x, y, z'
loop_
 _atom_site_type_symbol
 _atom_site_label
 _atom_site_symmetry_multiplicity
 _atom_site_fract_x
 _atom_site_fract_y
 _atom_site_fract_z
 _atom_site_occupancy
  Tb  Tb0  1  0.000000  0.944137  0.372228  1
  Tb  Tb1  1  0.000000  0.055863  0.627772  1
  Nd  Nd2  1  0.000000  0.322822  0.414099  1
  Nd  Nd3  1  0.000000  0.677178  0.585901  1
  Nd  Nd4  1  0.000000  0.822718  0.085870  1
  Nd  Nd5  1  0.000000  0.177282  0.914130  1
  Y  Y6  1  0.000000  0.444290  0.127418  1
  Y  Y7  1  0.000000  0.555710  0.872582  1
  B  B8  1  0.500000  0.556018  0.430378  1
  B  B9  1  0.500000  0.443982  0.569622  1
  B  B10  1  0.500000  0.056080  0.069591  1
  B  B11  1  0.500000  0.943920  0.930409  1
  B  B12  1  0.500000  0.748778  0.417489  1
  B  B13  1  0.500000  0.251222  0.582511  1
  B  B14  1  0.500000  0.248970  0.082465  1
  B  B15  1  0.500000  0.751030  0.917535  1
  B  B16  1  0.500000  0.789867  0.267189  1
  B  B17  1  0.500000  0.210133  0.732811  1
  B  B18  1  0.500000  0.290152  0.232816  1
  B  B19  1  0.500000  0.709848  0.767184  1
  B  B20  1  0.500000  0.631234  0.185674  1
  B  B21  1  0.500000  0.368766  0.814326  1
  B  B22  1  0.500000  0.131383  0.314207  1
  B  B23  1  0.500000  0.868617  0.685793  1
  B  B24  1  0.500000  0.986311  0.213750  1
  B  B25  1  0.500000  0.013689  0.786250  1
  B  B26  1  0.500000  0.486098  0.286164  1
  B  B27  1  0.500000  0.513902  0.713836  1
  B  B28  1  0.500000  0.604461  0.028652  1
  B  B29  1  0.500000  0.395539  0.971348  1
  B  B30  1  0.500000  0.104752  0.471272  1
  B  B31  1  0.500000  0.895248  0.528728  1
  Os  Os32  1  0.000000  0.638903  0.319894  1
  Os  Os33  1  0.000000  0.361097  0.680106  1
  Os  Os34  1  0.000000  0.139193  0.179984  1
  Os  Os35  1  0.000000  0.860807  0.820016  1
