# generated using pymatgen
data_SnP6PbO18
_symmetry_space_group_name_H-M   'P 1'
_cell_length_a   6.91722200
_cell_length_b   6.91722116
_cell_length_c   10.65031000
_cell_angle_alpha   90.00000000
_cell_angle_beta   90.00000000
_cell_angle_gamma   120.00000404
_symmetry_Int_Tables_number   1
_chemical_formula_structural   SnP6PbO18
_chemical_formula_sum   'Sn1 P6 Pb1 O18'
_cell_volume   441.32267115
_cell_formula_units_Z   1
loop_
 _symmetry_equiv_pos_site_id
 _symmetry_equiv_pos_as_xyz
  1  'x, y, z'
loop_
 _atom_site_type_symbol
 _atom_site_label
 _atom_site_symmetry_multiplicity
 _atom_site_fract_x
 _atom_site_fract_y
 _atom_site_fract_z
 _atom_site_occupancy
  Sn  Sn0  1  0.000000  0.000000  0.000000  1
  P  P1  1  0.725835  0.122321  0.780710  1
  P  P2  1  0.877679  0.274165  0.219290  1
  P  P3  1  0.725835  0.603514  0.219290  1
  P  P4  1  0.877679  0.603514  0.780710  1
  P  P5  1  0.396486  0.274165  0.780710  1
  P  P6  1  0.396486  0.122321  0.219290  1
  Pb  Pb7  1  0.000000  0.000000  0.500000  1
  O  O8  1  0.897936  0.513301  0.195344  1
  O  O9  1  0.897936  0.384635  0.804656  1
  O  O10  1  0.486699  0.102064  0.804656  1
  O  O11  1  0.615365  0.102064  0.195344  1
  O  O12  1  0.744171  0.049673  0.652729  1
  O  O13  1  0.753083  0.998627  0.891836  1
  O  O14  1  0.486699  0.384635  0.195344  1
  O  O15  1  0.744171  0.694499  0.347271  1
  O  O16  1  0.753083  0.754457  0.108164  1
  O  O17  1  0.615365  0.513301  0.804656  1
  O  O18  1  0.950327  0.255829  0.347271  1
  O  O19  1  0.001373  0.246917  0.108164  1
  O  O20  1  0.245543  0.246917  0.891836  1
  O  O21  1  0.305501  0.255829  0.652729  1
  O  O22  1  0.001373  0.754457  0.891836  1
  O  O23  1  0.950327  0.694499  0.652729  1
  O  O24  1  0.245543  0.998627  0.108164  1
  O  O25  1  0.305501  0.049673  0.347271  1
