# generated using pymatgen
data_Dy2Lu2TcB12Ru
_symmetry_space_group_name_H-M   'P 1'
_cell_length_a   3.63315000
_cell_length_b   9.08187590
_cell_length_c   11.47480008
_cell_angle_alpha   89.87278367
_cell_angle_beta   90.00000000
_cell_angle_gamma   90.00000000
_symmetry_Int_Tables_number   1
_chemical_formula_structural   Dy2Lu2TcB12Ru
_chemical_formula_sum   'Dy4 Lu4 Tc2 B24 Ru2'
_cell_volume   378.61947512
_cell_formula_units_Z   2
loop_
 _symmetry_equiv_pos_site_id
 _symmetry_equiv_pos_as_xyz
  1  'x, y, z'
loop_
 _atom_site_type_symbol
 _atom_site_label
 _atom_site_symmetry_multiplicity
 _atom_site_fract_x
 _atom_site_fract_y
 _atom_site_fract_z
 _atom_site_occupancy
  Dy  Dy0  1  0.000000  0.323915  0.415477  1
  Dy  Dy1  1  0.000000  0.676085  0.584523  1
  Dy  Dy2  1  0.000000  0.820341  0.087203  1
  Dy  Dy3  1  0.000000  0.179659  0.912797  1
  Lu  Lu4  1  0.000000  0.942245  0.370852  1
  Lu  Lu5  1  0.000000  0.057755  0.629148  1
  Lu  Lu6  1  0.000000  0.443281  0.129771  1
  Lu  Lu7  1  0.000000  0.556719  0.870229  1
  Tc  Tc8  1  0.000000  0.638687  0.319461  1
  Tc  Tc9  1  0.000000  0.361313  0.680539  1
  B  B10  1  0.500000  0.553394  0.432765  1
  B  B11  1  0.500000  0.446606  0.567235  1
  B  B12  1  0.500000  0.054201  0.067121  1
  B  B13  1  0.500000  0.945799  0.932879  1
  B  B14  1  0.500000  0.749880  0.418542  1
  B  B15  1  0.500000  0.250120  0.581458  1
  B  B16  1  0.500000  0.249944  0.081440  1
  B  B17  1  0.500000  0.750056  0.918560  1
  B  B18  1  0.500000  0.792104  0.265102  1
  B  B19  1  0.500000  0.207896  0.734898  1
  B  B20  1  0.500000  0.291099  0.234465  1
  B  B21  1  0.500000  0.708901  0.765535  1
  B  B22  1  0.500000  0.630050  0.184553  1
  B  B23  1  0.500000  0.369950  0.815447  1
  B  B24  1  0.500000  0.129744  0.314743  1
  B  B25  1  0.500000  0.870256  0.685257  1
  B  B26  1  0.500000  0.982344  0.212480  1
  B  B27  1  0.500000  0.017656  0.787520  1
  B  B28  1  0.500000  0.481565  0.286965  1
  B  B29  1  0.500000  0.518435  0.713035  1
  B  B30  1  0.500000  0.600988  0.027664  1
  B  B31  1  0.500000  0.399012  0.972336  1
  B  B32  1  0.500000  0.101064  0.471915  1
  B  B33  1  0.500000  0.898936  0.528085  1
  Ru  Ru34  1  0.000000  0.138174  0.179336  1
  Ru  Ru35  1  0.000000  0.861826  0.820664  1
