# generated using pymatgen
data_Ce3DyIn2(RhAu)2
_symmetry_space_group_name_H-M   'P 1'
_cell_length_a   7.91486115
_cell_length_b   7.91486149
_cell_length_c   3.73737800
_cell_angle_alpha   90.00000000
_cell_angle_beta   90.00000000
_cell_angle_gamma   88.44072808
_symmetry_Int_Tables_number   1
_chemical_formula_structural   Ce3DyIn2(RhAu)2
_chemical_formula_sum   'Ce3 Dy1 In2 Rh2 Au2'
_cell_volume   234.04146063
_cell_formula_units_Z   1
loop_
 _symmetry_equiv_pos_site_id
 _symmetry_equiv_pos_as_xyz
  1  'x, y, z'
loop_
 _atom_site_type_symbol
 _atom_site_label
 _atom_site_symmetry_multiplicity
 _atom_site_fract_x
 _atom_site_fract_y
 _atom_site_fract_z
 _atom_site_occupancy
  Ce  Ce0  1  0.340767  0.840767  0.500000  1
  Ce  Ce1  1  0.188439  0.314099  0.500000  1
  Ce  Ce2  1  0.814099  0.688439  0.500000  1
  Dy  Dy3  1  0.665923  0.165923  0.500000  1
  In  In4  1  0.998898  0.002082  0.000000  1
  In  In5  1  0.502082  0.498898  0.000000  1
  Rh  Rh6  1  0.630247  0.859560  0.000000  1
  Rh  Rh7  1  0.359560  0.130247  0.000000  1
  Au  Au8  1  0.128238  0.628238  0.000000  1
  Au  Au9  1  0.871747  0.371747  0.000000  1
