# generated using pymatgen
data_Sr(Al5Ir)2
_symmetry_space_group_name_H-M   'P 1'
_cell_length_a   6.92807097
_cell_length_b   6.92807088
_cell_length_c   9.20516800
_cell_angle_alpha   90.00000000
_cell_angle_beta   90.00000000
_cell_angle_gamma   97.21131782
_symmetry_Int_Tables_number   1
_chemical_formula_structural   Sr(Al5Ir)2
_chemical_formula_sum   'Sr2 Al20 Ir4'
_cell_volume   438.33627045
_cell_formula_units_Z   2
loop_
 _symmetry_equiv_pos_site_id
 _symmetry_equiv_pos_as_xyz
  1  'x, y, z'
loop_
 _atom_site_type_symbol
 _atom_site_label
 _atom_site_symmetry_multiplicity
 _atom_site_fract_x
 _atom_site_fract_y
 _atom_site_fract_z
 _atom_site_occupancy
  Sr  Sr0  1  0.876326  0.123674  0.750000  1
  Sr  Sr1  1  0.123674  0.876326  0.250000  1
  Al  Al2  1  0.411765  0.143658  0.750000  1
  Al  Al3  1  0.143658  0.411765  0.250000  1
  Al  Al4  1  0.588235  0.856342  0.250000  1
  Al  Al5  1  0.856342  0.588235  0.750000  1
  Al  Al6  1  0.517321  0.774819  0.750000  1
  Al  Al7  1  0.774819  0.517321  0.250000  1
  Al  Al8  1  0.482679  0.225181  0.250000  1
  Al  Al9  1  0.225181  0.482679  0.750000  1
  Al  Al10  1  0.839633  0.160367  0.396779  1
  Al  Al11  1  0.160367  0.839633  0.603221  1
  Al  Al12  1  0.839633  0.160367  0.103221  1
  Al  Al13  1  0.160367  0.839633  0.896779  1
  Al  Al14  1  0.620782  0.379218  0.552357  1
  Al  Al15  1  0.379218  0.620782  0.447643  1
  Al  Al16  1  0.620782  0.379218  0.947643  1
  Al  Al17  1  0.379218  0.620782  0.052357  1
  Al  Al18  1  0.774707  0.774707  0.000000  1
  Al  Al19  1  0.774707  0.774707  0.500000  1
  Al  Al20  1  0.225293  0.225293  0.000000  1
  Al  Al21  1  0.225293  0.225293  0.500000  1
  Ir  Ir22  1  0.500000  0.000000  0.000000  1
  Ir  Ir23  1  0.000000  0.500000  0.000000  1
  Ir  Ir24  1  0.500000  0.000000  0.500000  1
  Ir  Ir25  1  0.000000  0.500000  0.500000  1
