# generated using pymatgen
data_Dy4AgIr
_symmetry_space_group_name_H-M   'P 1'
_cell_length_a   9.54560661
_cell_length_b   9.54560654
_cell_length_c   9.54560700
_cell_angle_alpha   60.00000186
_cell_angle_beta   60.00000213
_cell_angle_gamma   59.99999715
_symmetry_Int_Tables_number   1
_chemical_formula_structural   Dy4AgIr
_chemical_formula_sum   'Dy16 Ag4 Ir4'
_cell_volume   615.02903335
_cell_formula_units_Z   4
loop_
 _symmetry_equiv_pos_site_id
 _symmetry_equiv_pos_as_xyz
  1  'x, y, z'
loop_
 _atom_site_type_symbol
 _atom_site_label
 _atom_site_symmetry_multiplicity
 _atom_site_fract_x
 _atom_site_fract_y
 _atom_site_fract_z
 _atom_site_occupancy
  Dy  Dy0  1  0.601878  0.601878  0.601878  1
  Dy  Dy1  1  0.601878  0.601878  0.194366  1
  Dy  Dy2  1  0.601878  0.194366  0.601878  1
  Dy  Dy3  1  0.194366  0.601878  0.601878  1
  Dy  Dy4  1  0.061339  0.438661  0.438661  1
  Dy  Dy5  1  0.438661  0.061339  0.061339  1
  Dy  Dy6  1  0.438661  0.061339  0.438661  1
  Dy  Dy7  1  0.061339  0.438661  0.061339  1
  Dy  Dy8  1  0.438661  0.438661  0.061339  1
  Dy  Dy9  1  0.061339  0.061339  0.438661  1
  Dy  Dy10  1  0.186344  0.813656  0.813656  1
  Dy  Dy11  1  0.813656  0.186344  0.186344  1
  Dy  Dy12  1  0.813656  0.186344  0.813656  1
  Dy  Dy13  1  0.186344  0.813656  0.186344  1
  Dy  Dy14  1  0.813656  0.813656  0.186344  1
  Dy  Dy15  1  0.186344  0.186344  0.813656  1
  Ag  Ag16  1  0.832075  0.832075  0.832075  1
  Ag  Ag17  1  0.832075  0.832075  0.503776  1
  Ag  Ag18  1  0.832075  0.503776  0.832075  1
  Ag  Ag19  1  0.503776  0.832075  0.832075  1
  Ir  Ir20  1  0.392617  0.392617  0.392617  1
  Ir  Ir21  1  0.392617  0.392617  0.822151  1
  Ir  Ir22  1  0.392617  0.822151  0.392617  1
  Ir  Ir23  1  0.822151  0.392617  0.392617  1
