# generated using pymatgen
data_Ho2AgPdPb
_symmetry_space_group_name_H-M   'P 1'
_cell_length_a   8.05545300
_cell_length_b   8.01545200
_cell_length_c   3.64615900
_cell_angle_alpha   90.00000000
_cell_angle_beta   90.00000000
_cell_angle_gamma   90.00000000
_symmetry_Int_Tables_number   1
_chemical_formula_structural   Ho2AgPdPb
_chemical_formula_sum   'Ho4 Ag2 Pd2 Pb2'
_cell_volume   235.42554748
_cell_formula_units_Z   2
loop_
 _symmetry_equiv_pos_site_id
 _symmetry_equiv_pos_as_xyz
  1  'x, y, z'
loop_
 _atom_site_type_symbol
 _atom_site_label
 _atom_site_symmetry_multiplicity
 _atom_site_fract_x
 _atom_site_fract_y
 _atom_site_fract_z
 _atom_site_occupancy
  Ho  Ho0  1  0.684391  0.167617  0.500000  1
  Ho  Ho1  1  0.151269  0.327005  0.500000  1
  Ho  Ho2  1  0.815609  0.667617  0.500000  1
  Ho  Ho3  1  0.348731  0.827005  0.500000  1
  Ag  Ag4  1  0.377785  0.128685  0.000000  1
  Ag  Ag5  1  0.122215  0.628685  0.000000  1
  Pd  Pd6  1  0.624607  0.879122  0.000000  1
  Pd  Pd7  1  0.875393  0.379122  0.000000  1
  Pb  Pb8  1  0.999503  0.997571  0.000000  1
  Pb  Pb9  1  0.500497  0.497571  0.000000  1
