# generated using pymatgen
data_Dy2Y6Ti9Si16Mo3
_symmetry_space_group_name_H-M   'P 1'
_cell_length_a   7.02001842
_cell_length_b   7.02002040
_cell_length_c   12.90449906
_cell_angle_alpha   89.98375630
_cell_angle_beta   90.02242872
_cell_angle_gamma   89.99643765
_symmetry_Int_Tables_number   1
_chemical_formula_structural   Dy2Y6Ti9Si16Mo3
_chemical_formula_sum   'Dy2 Y6 Ti9 Si16 Mo3'
_cell_volume   635.94231655
_cell_formula_units_Z   1
loop_
 _symmetry_equiv_pos_site_id
 _symmetry_equiv_pos_as_xyz
  1  'x, y, z'
loop_
 _atom_site_type_symbol
 _atom_site_label
 _atom_site_symmetry_multiplicity
 _atom_site_fract_x
 _atom_site_fract_y
 _atom_site_fract_z
 _atom_site_occupancy
  Dy  Dy0  1  0.499819  0.841224  0.716632  1
  Dy  Dy1  1  0.340465  0.000248  0.466956  1
  Y  Y2  1  0.997929  0.660032  0.033464  1
  Y  Y3  1  0.000588  0.340353  0.533035  1
  Y  Y4  1  0.659958  0.997884  0.966515  1
  Y  Y5  1  0.158635  0.501392  0.781763  1
  Y  Y6  1  0.841099  0.499633  0.283305  1
  Y  Y7  1  0.501298  0.158502  0.218221  1
  Ti  Ti8  1  0.346993  0.509215  0.374416  1
  Ti  Ti9  1  0.847311  0.990856  0.376388  1
  Ti  Ti10  1  0.008526  0.151856  0.124816  1
  Ti  Ti11  1  0.991059  0.847396  0.623540  1
  Ti  Ti12  1  0.509238  0.346882  0.625511  1
  Ti  Ti13  1  0.151949  0.008520  0.875147  1
  Ti  Ti14  1  0.326904  0.326905  0.000033  1
  Ti  Ti15  1  0.491590  0.653837  0.127478  1
  Ti  Ti16  1  0.653808  0.491787  0.872486  1
  Si  Si17  1  0.047299  0.708762  0.435042  1
  Si  Si18  1  0.951887  0.291647  0.934043  1
  Si  Si19  1  0.708324  0.046971  0.565098  1
  Si  Si20  1  0.209212  0.453360  0.185030  1
  Si  Si21  1  0.790906  0.547717  0.684562  1
  Si  Si22  1  0.453297  0.208994  0.814933  1
  Si  Si23  1  0.547413  0.791194  0.315514  1
  Si  Si24  1  0.291701  0.951794  0.065956  1
  Si  Si25  1  0.798503  0.870766  0.184708  1
  Si  Si26  1  0.299320  0.630063  0.565333  1
  Si  Si27  1  0.702024  0.370081  0.065248  1
  Si  Si28  1  0.629534  0.299088  0.434720  1
  Si  Si29  1  0.370084  0.702162  0.934760  1
  Si  Si30  1  0.129582  0.201037  0.315037  1
  Si  Si31  1  0.201290  0.129144  0.684989  1
  Si  Si32  1  0.870662  0.798615  0.815207  1
  Mo  Mo33  1  0.672767  0.673185  0.500063  1
  Mo  Mo34  1  0.825929  0.172814  0.749298  1
  Mo  Mo35  1  0.173094  0.826079  0.250756  1
