# generated using pymatgen
data_Tb4TcRu6W
_symmetry_space_group_name_H-M   'P 1'
_cell_length_a   5.17507703
_cell_length_b   5.17507699
_cell_length_c   9.10429700
_cell_angle_alpha   90.00000000
_cell_angle_beta   90.00000000
_cell_angle_gamma   114.83661198
_symmetry_Int_Tables_number   1
_chemical_formula_structural   Tb4TcRu6W
_chemical_formula_sum   'Tb4 Tc1 Ru6 W1'
_cell_volume   221.27437225
_cell_formula_units_Z   1
loop_
 _symmetry_equiv_pos_site_id
 _symmetry_equiv_pos_as_xyz
  1  'x, y, z'
loop_
 _atom_site_type_symbol
 _atom_site_label
 _atom_site_symmetry_multiplicity
 _atom_site_fract_x
 _atom_site_fract_y
 _atom_site_fract_z
 _atom_site_occupancy
  Tb  Tb0  1  0.329524  0.670476  0.435949  1
  Tb  Tb1  1  0.667016  0.332984  0.567768  1
  Tb  Tb2  1  0.667016  0.332984  0.932232  1
  Tb  Tb3  1  0.329524  0.670476  0.064051  1
  Tc  Tc4  1  0.167342  0.832658  0.750000  1
  Ru  Ru5  1  0.997074  0.002926  0.500010  1
  Ru  Ru6  1  0.997074  0.002926  0.999990  1
  Ru  Ru7  1  0.833837  0.649992  0.250000  1
  Ru  Ru8  1  0.350008  0.166163  0.250000  1
  Ru  Ru9  1  0.165424  0.342797  0.750000  1
  Ru  Ru10  1  0.657203  0.834576  0.750000  1
  W  W11  1  0.838957  0.161043  0.250000  1
