# generated using pymatgen
data_Pr15Th(HgRu)4
_symmetry_space_group_name_H-M   'P 1'
_cell_length_a   10.04037999
_cell_length_b   10.04037880
_cell_length_c   10.04037877
_cell_angle_alpha   59.31473584
_cell_angle_beta   59.31473783
_cell_angle_gamma   59.31473597
_symmetry_Int_Tables_number   1
_chemical_formula_structural   Pr15Th(HgRu)4
_chemical_formula_sum   'Pr15 Th1 Hg4 Ru4'
_cell_volume   704.54057645
_cell_formula_units_Z   1
loop_
 _symmetry_equiv_pos_site_id
 _symmetry_equiv_pos_as_xyz
  1  'x, y, z'
loop_
 _atom_site_type_symbol
 _atom_site_label
 _atom_site_symmetry_multiplicity
 _atom_site_fract_x
 _atom_site_fract_y
 _atom_site_fract_z
 _atom_site_occupancy
  Pr  Pr0  1  0.347193  0.347193  0.955603  1
  Pr  Pr1  1  0.347193  0.955603  0.347193  1
  Pr  Pr2  1  0.955603  0.347193  0.347193  1
  Pr  Pr3  1  0.809541  0.191332  0.191332  1
  Pr  Pr4  1  0.192401  0.809597  0.809597  1
  Pr  Pr5  1  0.191332  0.809541  0.191332  1
  Pr  Pr6  1  0.809597  0.192401  0.809597  1
  Pr  Pr7  1  0.191332  0.191332  0.809541  1
  Pr  Pr8  1  0.809597  0.809597  0.192401  1
  Pr  Pr9  1  0.941623  0.560330  0.560330  1
  Pr  Pr10  1  0.560767  0.939719  0.939719  1
  Pr  Pr11  1  0.560330  0.941623  0.560330  1
  Pr  Pr12  1  0.939719  0.560767  0.939719  1
  Pr  Pr13  1  0.560330  0.560330  0.941623  1
  Pr  Pr14  1  0.939719  0.939719  0.560767  1
  Th  Th15  1  0.341290  0.341290  0.341290  1
  Hg  Hg16  1  0.583175  0.583175  0.583175  1
  Hg  Hg17  1  0.581328  0.581328  0.250487  1
  Hg  Hg18  1  0.581328  0.250487  0.581328  1
  Hg  Hg19  1  0.250487  0.581328  0.581328  1
  Ru  Ru20  1  0.137920  0.137920  0.137920  1
  Ru  Ru21  1  0.146322  0.146322  0.575545  1
  Ru  Ru22  1  0.146322  0.575545  0.146322  1
  Ru  Ru23  1  0.575545  0.146322  0.146322  1
