# generated using pymatgen
data_Lu5Sc3Ir4
_symmetry_space_group_name_H-M   'P 1'
_cell_length_a   4.34401200
_cell_length_b   7.06178399
_cell_length_c   8.47256208
_cell_angle_alpha   89.83586591
_cell_angle_beta   90.00000000
_cell_angle_gamma   90.00000000
_symmetry_Int_Tables_number   1
_chemical_formula_structural   Lu5Sc3Ir4
_chemical_formula_sum   'Lu5 Sc3 Ir4'
_cell_volume   259.90726749
_cell_formula_units_Z   1
loop_
 _symmetry_equiv_pos_site_id
 _symmetry_equiv_pos_as_xyz
  1  'x, y, z'
loop_
 _atom_site_type_symbol
 _atom_site_label
 _atom_site_symmetry_multiplicity
 _atom_site_fract_x
 _atom_site_fract_y
 _atom_site_fract_z
 _atom_site_occupancy
  Lu  Lu0  1  0.750000  0.644871  0.427510  1
  Lu  Lu1  1  0.250000  0.479902  0.163711  1
  Lu  Lu2  1  0.250000  0.989091  0.330973  1
  Lu  Lu3  1  0.750000  0.517449  0.829088  1
  Lu  Lu4  1  0.750000  0.021862  0.675577  1
  Sc  Sc5  1  0.250000  0.856999  0.930733  1
  Sc  Sc6  1  0.250000  0.354726  0.571657  1
  Sc  Sc7  1  0.750000  0.142117  0.070915  1
  Ir  Ir8  1  0.250000  0.243533  0.895216  1
  Ir  Ir9  1  0.250000  0.749281  0.609051  1
  Ir  Ir10  1  0.750000  0.752967  0.097625  1
  Ir  Ir11  1  0.750000  0.247204  0.397943  1
