# generated using pymatgen
data_Ba6Si5SnRh12
_symmetry_space_group_name_H-M   'P 1'
_cell_length_a   5.97310500
_cell_length_b   5.97310504
_cell_length_c   15.57655400
_cell_angle_alpha   90.00000000
_cell_angle_beta   90.00000000
_cell_angle_gamma   119.99999426
_symmetry_Int_Tables_number   1
_chemical_formula_structural   Ba6Si5SnRh12
_chemical_formula_sum   'Ba6 Si5 Sn1 Rh12'
_cell_volume   481.28501820
_cell_formula_units_Z   1
loop_
 _symmetry_equiv_pos_site_id
 _symmetry_equiv_pos_as_xyz
  1  'x, y, z'
loop_
 _atom_site_type_symbol
 _atom_site_label
 _atom_site_symmetry_multiplicity
 _atom_site_fract_x
 _atom_site_fract_y
 _atom_site_fract_z
 _atom_site_occupancy
  Ba  Ba0  1  0.666667  0.333333  0.964006  1
  Ba  Ba1  1  0.666667  0.333333  0.538450  1
  Ba  Ba2  1  0.333333  0.666667  0.035994  1
  Ba  Ba3  1  0.666667  0.333333  0.752557  1
  Ba  Ba4  1  0.333333  0.666667  0.461550  1
  Ba  Ba5  1  0.333333  0.666667  0.247443  1
  Si  Si6  1  0.666667  0.333333  0.242984  1
  Si  Si7  1  0.000000  0.000000  0.245977  1
  Si  Si8  1  0.000000  0.000000  0.754023  1
  Si  Si9  1  0.333333  0.666667  0.757016  1
  Si  Si10  1  0.000000  0.000000  0.000000  1
  Sn  Sn11  1  0.000000  0.000000  0.500000  1
  Rh  Rh12  1  0.160414  0.320828  0.862983  1
  Rh  Rh13  1  0.165135  0.330268  0.649315  1
  Rh  Rh14  1  0.679172  0.839586  0.862983  1
  Rh  Rh15  1  0.330268  0.165135  0.350685  1
  Rh  Rh16  1  0.834865  0.669732  0.350685  1
  Rh  Rh17  1  0.834865  0.165135  0.350685  1
  Rh  Rh18  1  0.839586  0.160414  0.137017  1
  Rh  Rh19  1  0.320828  0.160414  0.137017  1
  Rh  Rh20  1  0.669732  0.834865  0.649315  1
  Rh  Rh21  1  0.165135  0.834865  0.649315  1
  Rh  Rh22  1  0.839586  0.679172  0.137017  1
  Rh  Rh23  1  0.160414  0.839586  0.862983  1
