# generated using pymatgen
data_Cs8MnV3S4(O4F3)4
_symmetry_space_group_name_H-M   'P 1'
_cell_length_a   11.94097400
_cell_length_b   7.56489072
_cell_length_c   9.40642100
_cell_angle_alpha   87.44459521
_cell_angle_beta   90.00000000
_cell_angle_gamma   90.00000000
_symmetry_Int_Tables_number   1
_chemical_formula_structural   Cs8MnV3S4(O4F3)4
_chemical_formula_sum   'Cs8 Mn1 V3 S4 O16 F12'
_cell_volume   848.85739312
_cell_formula_units_Z   1
loop_
 _symmetry_equiv_pos_site_id
 _symmetry_equiv_pos_as_xyz
  1  'x, y, z'
loop_
 _atom_site_type_symbol
 _atom_site_label
 _atom_site_symmetry_multiplicity
 _atom_site_fract_x
 _atom_site_fract_y
 _atom_site_fract_z
 _atom_site_occupancy
  Cs  Cs0  1  0.188970  0.795783  0.333492  1
  Cs  Cs1  1  0.688010  0.205170  0.167830  1
  Cs  Cs2  1  0.811030  0.204217  0.666508  1
  Cs  Cs3  1  0.311990  0.794830  0.832170  1
  Cs  Cs4  1  0.310493  0.290269  0.172075  1
  Cs  Cs5  1  0.809985  0.709506  0.327592  1
  Cs  Cs6  1  0.689507  0.709731  0.827925  1
  Cs  Cs7  1  0.190015  0.290494  0.672408  1
  Mn  Mn8  1  0.500000  0.500000  0.500000  1
  V  V9  1  0.000000  0.500000  0.000000  1
  V  V10  1  0.000000  0.000000  0.000000  1
  V  V11  1  0.500000  0.000000  0.500000  1
  S  S12  1  0.999230  0.247672  0.290649  1
  S  S13  1  0.498703  0.749564  0.212283  1
  S  S14  1  0.000770  0.752328  0.709351  1
  S  S15  1  0.501297  0.250436  0.787717  1
  O  O16  1  0.454671  0.894069  0.302354  1
  O  O17  1  0.956213  0.103406  0.198492  1
  O  O18  1  0.545329  0.105931  0.697646  1
  O  O19  1  0.043787  0.896594  0.801508  1
  O  O20  1  0.046528  0.398482  0.194479  1
  O  O21  1  0.548873  0.602770  0.311384  1
  O  O22  1  0.953472  0.601518  0.805521  1
  O  O23  1  0.451127  0.397230  0.688616  1
  O  O24  1  0.904665  0.315784  0.372058  1
  O  O25  1  0.405185  0.677946  0.131107  1
  O  O26  1  0.095335  0.684216  0.627942  1
  O  O27  1  0.594815  0.322054  0.868893  1
  O  O28  1  0.091830  0.181361  0.381230  1
  O  O29  1  0.591532  0.814309  0.121402  1
  O  O30  1  0.908170  0.818639  0.618770  1
  O  O31  1  0.408468  0.185691  0.878598  1
  F  F32  1  0.348165  0.518876  0.452817  1
  F  F33  1  0.843329  0.484121  0.048703  1
  F  F34  1  0.651835  0.481124  0.547183  1
  F  F35  1  0.156671  0.515879  0.951297  1
  F  F36  1  0.157591  0.018582  0.039610  1
  F  F37  1  0.658348  0.980491  0.460466  1
  F  F38  1  0.842409  0.981418  0.960390  1
  F  F39  1  0.341652  0.019509  0.539534  1
  F  F40  1  0.002026  0.751929  0.084269  1
  F  F41  1  0.500703  0.239203  0.406352  1
  F  F42  1  0.997974  0.248071  0.915731  1
  F  F43  1  0.499297  0.760797  0.593648  1
