# generated using pymatgen
data_Er8Ti9Re3Si15Sn
_symmetry_space_group_name_H-M   'P 1'
_cell_length_a   7.00093949
_cell_length_b   6.95204658
_cell_length_c   12.82243407
_cell_angle_alpha   90.02983760
_cell_angle_beta   89.72861201
_cell_angle_gamma   89.93276630
_symmetry_Int_Tables_number   1
_chemical_formula_structural   Er8Ti9Re3Si15Sn
_chemical_formula_sum   'Er8 Ti9 Re3 Si15 Sn1'
_cell_volume   624.07134316
_cell_formula_units_Z   1
loop_
 _symmetry_equiv_pos_site_id
 _symmetry_equiv_pos_as_xyz
  1  'x, y, z'
loop_
 _atom_site_type_symbol
 _atom_site_label
 _atom_site_symmetry_multiplicity
 _atom_site_fract_x
 _atom_site_fract_y
 _atom_site_fract_z
 _atom_site_occupancy
  Er  Er0  1  0.342518  0.998325  0.461635  1
  Er  Er1  1  0.506739  0.836218  0.721571  1
  Er  Er2  1  0.500100  0.158456  0.218112  1
  Er  Er3  1  0.842323  0.497733  0.279082  1
  Er  Er4  1  0.159331  0.508001  0.784756  1
  Er  Er5  1  0.660869  0.998912  0.970720  1
  Er  Er6  1  0.992428  0.346821  0.526437  1
  Er  Er7  1  0.001969  0.659443  0.032160  1
  Ti  Ti8  1  0.672176  0.672444  0.499836  1
  Ti  Ti9  1  0.153368  0.005065  0.884483  1
  Ti  Ti10  1  0.495387  0.653264  0.124889  1
  Ti  Ti11  1  0.510695  0.354381  0.628239  1
  Ti  Ti12  1  0.655918  0.496220  0.877862  1
  Ti  Ti13  1  0.346922  0.503921  0.371360  1
  Ti  Ti14  1  0.845146  0.992501  0.375609  1
  Ti  Ti15  1  0.007062  0.151666  0.122467  1
  Ti  Ti16  1  0.978627  0.833988  0.618324  1
  Re  Re17  1  0.330604  0.329682  0.001317  1
  Re  Re18  1  0.174518  0.828387  0.247829  1
  Re  Re19  1  0.815000  0.176459  0.753850  1
  Si  Si20  1  0.372497  0.700886  0.934375  1
  Si  Si21  1  0.628998  0.297806  0.433337  1
  Si  Si22  1  0.702316  0.370588  0.068562  1
  Si  Si23  1  0.295279  0.631748  0.565192  1
  Si  Si24  1  0.801034  0.869716  0.183179  1
  Si  Si25  1  0.129196  0.199178  0.315408  1
  Si  Si26  1  0.871118  0.804035  0.817004  1
  Si  Si27  1  0.294008  0.952772  0.068733  1
  Si  Si28  1  0.548580  0.788025  0.314576  1
  Si  Si29  1  0.459075  0.211562  0.821372  1
  Si  Si30  1  0.793554  0.542494  0.685887  1
  Si  Si31  1  0.210575  0.453102  0.183004  1
  Si  Si32  1  0.703442  0.050119  0.567429  1
  Si  Si33  1  0.953085  0.292192  0.933325  1
  Si  Si34  1  0.049149  0.708240  0.429487  1
  Sn  Sn35  1  0.196395  0.125652  0.678594  1
