# generated using pymatgen
data_Ba4Sb4Se3S5F4
_symmetry_space_group_name_H-M   'P 1'
_cell_length_a   6.19746883
_cell_length_b   6.25153219
_cell_length_c   14.31767213
_cell_angle_alpha   86.00058310
_cell_angle_beta   87.96184878
_cell_angle_gamma   89.83524400
_symmetry_Int_Tables_number   1
_chemical_formula_structural   Ba4Sb4Se3S5F4
_chemical_formula_sum   'Ba4 Sb4 Se3 S5 F4'
_cell_volume   553.01825178
_cell_formula_units_Z   1
loop_
 _symmetry_equiv_pos_site_id
 _symmetry_equiv_pos_as_xyz
  1  'x, y, z'
loop_
 _atom_site_type_symbol
 _atom_site_label
 _atom_site_symmetry_multiplicity
 _atom_site_fract_x
 _atom_site_fract_y
 _atom_site_fract_z
 _atom_site_occupancy
  Ba  Ba0  1  0.760909  0.017892  0.390145  1
  Ba  Ba1  1  0.239532  0.983361  0.608171  1
  Ba  Ba2  1  0.261199  0.521323  0.390335  1
  Ba  Ba3  1  0.739890  0.480582  0.607717  1
  Sb  Sb4  1  0.259495  0.015225  0.140292  1
  Sb  Sb5  1  0.745497  0.972689  0.859376  1
  Sb  Sb6  1  0.741512  0.588676  0.143522  1
  Sb  Sb7  1  0.242848  0.410169  0.855376  1
  Se  Se8  1  0.671530  0.388735  0.878320  1
  Se  Se9  1  0.825480  0.007224  0.123673  1
  Se  Se10  1  0.178436  0.987740  0.874689  1
  S  S11  1  0.267052  0.033272  0.307398  1
  S  S12  1  0.733389  0.968869  0.691945  1
  S  S13  1  0.765548  0.533524  0.310335  1
  S  S14  1  0.234341  0.466439  0.688339  1
  S  S15  1  0.333323  0.622091  0.132712  1
  F  F16  1  0.999467  0.750006  0.500416  1
  F  F17  1  0.000655  0.251368  0.498296  1
  F  F18  1  0.500218  0.751918  0.500464  1
  F  F19  1  0.499681  0.248896  0.498480  1
