# generated using pymatgen
data_Nd3Pa(TcB4)4
_symmetry_space_group_name_H-M   'P 1'
_cell_length_a   3.67405200
_cell_length_b   6.04688596
_cell_length_c   11.70374601
_cell_angle_alpha   90.10717069
_cell_angle_beta   90.00000000
_cell_angle_gamma   90.00000000
_symmetry_Int_Tables_number   1
_chemical_formula_structural   Nd3Pa(TcB4)4
_chemical_formula_sum   'Nd3 Pa1 Tc4 B16'
_cell_volume   260.01667797
_cell_formula_units_Z   1
loop_
 _symmetry_equiv_pos_site_id
 _symmetry_equiv_pos_as_xyz
  1  'x, y, z'
loop_
 _atom_site_type_symbol
 _atom_site_label
 _atom_site_symmetry_multiplicity
 _atom_site_fract_x
 _atom_site_fract_y
 _atom_site_fract_z
 _atom_site_occupancy
  Nd  Nd0  1  0.000000  0.372512  0.650426  1
  Nd  Nd1  1  0.000000  0.125666  0.149918  1
  Nd  Nd2  1  0.000000  0.875246  0.849272  1
  Pa  Pa3  1  0.000000  0.625760  0.350470  1
  Tc  Tc4  1  0.000000  0.629797  0.091211  1
  Tc  Tc5  1  0.000000  0.367972  0.913799  1
  Tc  Tc6  1  0.000000  0.137376  0.407529  1
  Tc  Tc7  1  0.000000  0.861948  0.585739  1
  B  B8  1  0.500000  0.782357  0.186537  1
  B  B9  1  0.500000  0.216302  0.816747  1
  B  B10  1  0.500000  0.289989  0.316305  1
  B  B11  1  0.500000  0.717737  0.683634  1
  B  B12  1  0.500000  0.859698  0.032997  1
  B  B13  1  0.500000  0.139176  0.968876  1
  B  B14  1  0.500000  0.363690  0.466516  1
  B  B15  1  0.500000  0.638701  0.529178  1
  B  B16  1  0.500000  0.887326  0.452927  1
  B  B17  1  0.500000  0.110949  0.544730  1
  B  B18  1  0.500000  0.388701  0.046218  1
  B  B19  1  0.500000  0.611361  0.954951  1
  B  B20  1  0.500000  0.971030  0.310421  1
  B  B21  1  0.500000  0.023487  0.688803  1
  B  B22  1  0.500000  0.479707  0.192424  1
  B  B23  1  0.500000  0.523512  0.810370  1
