# generated using pymatgen
data_Nd5FeReO12
_symmetry_space_group_name_H-M   'P 1'
_cell_length_a   7.05227599
_cell_length_b   7.05227635
_cell_length_c   7.64291382
_cell_angle_alpha   74.28195234
_cell_angle_beta   74.28194992
_cell_angle_gamma   50.94651659
_symmetry_Int_Tables_number   1
_chemical_formula_structural   Nd5FeReO12
_chemical_formula_sum   'Nd5 Fe1 Re1 O12'
_cell_volume   281.57981220
_cell_formula_units_Z   1
loop_
 _symmetry_equiv_pos_site_id
 _symmetry_equiv_pos_as_xyz
  1  'x, y, z'
loop_
 _atom_site_type_symbol
 _atom_site_label
 _atom_site_symmetry_multiplicity
 _atom_site_fract_x
 _atom_site_fract_y
 _atom_site_fract_z
 _atom_site_occupancy
  Nd  Nd0  1  0.319222  0.292973  0.358066  1
  Nd  Nd1  1  0.707027  0.680778  0.641934  1
  Nd  Nd2  1  0.691092  0.691356  0.168395  1
  Nd  Nd3  1  0.308644  0.308908  0.831605  1
  Nd  Nd4  1  0.009176  0.990824  0.500000  1
  Fe  Fe5  1  0.754664  0.245336  0.000000  1
  Re  Re6  1  0.230751  0.769249  0.000000  1
  O  O7  1  0.103004  0.592093  0.573369  1
  O  O8  1  0.008117  0.990559  0.180512  1
  O  O9  1  0.407907  0.896996  0.426631  1
  O  O10  1  0.479120  0.522447  0.175328  1
  O  O11  1  0.100660  0.590440  0.078662  1
  O  O12  1  0.912666  0.400553  0.419036  1
  O  O13  1  0.009441  0.991883  0.819488  1
  O  O14  1  0.599447  0.087333  0.580964  1
  O  O15  1  0.477553  0.520880  0.824672  1
  O  O16  1  0.572530  0.100582  0.079302  1
  O  O17  1  0.409560  0.899340  0.921338  1
  O  O18  1  0.899418  0.427470  0.920698  1
