# generated using pymatgen
data_Ca4Nd4ReRu3C8
_symmetry_space_group_name_H-M   'P 1'
_cell_length_a   5.23060300
_cell_length_b   6.50289040
_cell_length_c   10.58121737
_cell_angle_alpha   90.11631975
_cell_angle_beta   90.00000000
_cell_angle_gamma   90.00000000
_symmetry_Int_Tables_number   1
_chemical_formula_structural   Ca4Nd4ReRu3C8
_chemical_formula_sum   'Ca4 Nd4 Re1 Ru3 C8'
_cell_volume   359.90918842
_cell_formula_units_Z   1
loop_
 _symmetry_equiv_pos_site_id
 _symmetry_equiv_pos_as_xyz
  1  'x, y, z'
loop_
 _atom_site_type_symbol
 _atom_site_label
 _atom_site_symmetry_multiplicity
 _atom_site_fract_x
 _atom_site_fract_y
 _atom_site_fract_z
 _atom_site_occupancy
  Ca  Ca0  1  0.250000  0.463638  0.774735  1
  Ca  Ca1  1  0.750000  0.034435  0.275622  1
  Ca  Ca2  1  0.250000  0.964064  0.722924  1
  Ca  Ca3  1  0.750000  0.535926  0.223070  1
  Nd  Nd4  1  0.250000  0.805528  0.052918  1
  Nd  Nd5  1  0.750000  0.692044  0.552979  1
  Nd  Nd6  1  0.250000  0.306288  0.445362  1
  Nd  Nd7  1  0.750000  0.198551  0.946108  1
  Re  Re8  1  0.750000  0.726242  0.854016  1
  Ru  Ru9  1  0.250000  0.273751  0.148731  1
  Ru  Ru10  1  0.750000  0.225640  0.647229  1
  Ru  Ru11  1  0.250000  0.774033  0.350995  1
  C  C12  1  0.250000  0.697917  0.523040  1
  C  C13  1  0.750000  0.800918  0.028534  1
  C  C14  1  0.250000  0.199953  0.976258  1
  C  C15  1  0.750000  0.303992  0.475688  1
  C  C16  1  0.250000  0.033082  0.254877  1
  C  C17  1  0.750000  0.465464  0.756915  1
  C  C18  1  0.250000  0.533278  0.244553  1
  C  C19  1  0.750000  0.965256  0.745447  1
