# generated using pymatgen
data_Ho2MgSi6(Pd4Pt)4
_symmetry_space_group_name_H-M   'P 1'
_cell_length_a   8.69318162
_cell_length_b   8.69721624
_cell_length_c   8.69721592
_cell_angle_alpha   59.93116039
_cell_angle_beta   59.90147776
_cell_angle_gamma   59.90147292
_symmetry_Int_Tables_number   1
_chemical_formula_structural   Ho2MgSi6(Pd4Pt)4
_chemical_formula_sum   'Ho2 Mg1 Si6 Pd16 Pt4'
_cell_volume   464.03435821
_cell_formula_units_Z   1
loop_
 _symmetry_equiv_pos_site_id
 _symmetry_equiv_pos_as_xyz
  1  'x, y, z'
loop_
 _atom_site_type_symbol
 _atom_site_label
 _atom_site_symmetry_multiplicity
 _atom_site_fract_x
 _atom_site_fract_y
 _atom_site_fract_z
 _atom_site_occupancy
  Ho  Ho0  1  0.250010  0.249910  0.249910  1
  Ho  Ho1  1  0.750030  0.749982  0.749982  1
  Mg  Mg2  1  0.999998  0.000000  0.000000  1
  Si  Si3  1  0.732236  0.267075  0.267075  1
  Si  Si4  1  0.268522  0.731982  0.731982  1
  Si  Si5  1  0.267801  0.732199  0.267533  1
  Si  Si6  1  0.731979  0.268009  0.732880  1
  Si  Si7  1  0.267801  0.267533  0.732199  1
  Si  Si8  1  0.731979  0.732880  0.268009  1
  Pd  Pd9  1  0.618185  0.616625  0.148777  1
  Pd  Pd10  1  0.618185  0.148777  0.616625  1
  Pd  Pd11  1  0.850652  0.382612  0.382612  1
  Pd  Pd12  1  0.148159  0.617334  0.617334  1
  Pd  Pd13  1  0.343084  0.000133  0.000133  1
  Pd  Pd14  1  0.656883  0.999950  0.999950  1
  Pd  Pd15  1  0.999686  0.343606  0.657058  1
  Pd  Pd16  1  0.999686  0.657058  0.343606  1
  Pd  Pd17  1  0.999615  0.343563  0.000400  1
  Pd  Pd18  1  0.656936  0.000174  0.343410  1
  Pd  Pd19  1  0.999400  0.656815  0.000253  1
  Pd  Pd20  1  0.343187  0.000200  0.657178  1
  Pd  Pd21  1  0.999615  0.000400  0.343563  1
  Pd  Pd22  1  0.999400  0.000253  0.656815  1
  Pd  Pd23  1  0.656936  0.343410  0.000174  1
  Pd  Pd24  1  0.343187  0.657178  0.000200  1
  Pt  Pt25  1  0.383397  0.383489  0.383489  1
  Pt  Pt26  1  0.618177  0.616175  0.616175  1
  Pt  Pt27  1  0.382637  0.382759  0.849919  1
  Pt  Pt28  1  0.382637  0.849919  0.382759  1
