# generated using pymatgen
data_Zr9In14Co6Ru
_symmetry_space_group_name_H-M   'P 1'
_cell_length_a   9.45234621
_cell_length_b   9.45234659
_cell_length_c   9.45234700
_cell_angle_alpha   60.00000206
_cell_angle_beta   60.00000072
_cell_angle_gamma   60.00000384
_symmetry_Int_Tables_number   1
_chemical_formula_structural   Zr9In14Co6Ru
_chemical_formula_sum   'Zr9 In14 Co6 Ru1'
_cell_volume   597.17818937
_cell_formula_units_Z   1
loop_
 _symmetry_equiv_pos_site_id
 _symmetry_equiv_pos_as_xyz
  1  'x, y, z'
loop_
 _atom_site_type_symbol
 _atom_site_label
 _atom_site_symmetry_multiplicity
 _atom_site_fract_x
 _atom_site_fract_y
 _atom_site_fract_z
 _atom_site_occupancy
  Zr  Zr0  1  0.122331  0.633009  0.122331  1
  Zr  Zr1  1  0.366991  0.877669  0.877669  1
  Zr  Zr2  1  0.877669  0.877669  0.877669  1
  Zr  Zr3  1  0.633009  0.122331  0.122331  1
  Zr  Zr4  1  0.500000  0.500000  0.500000  1
  Zr  Zr5  1  0.877669  0.877669  0.366991  1
  Zr  Zr6  1  0.122331  0.122331  0.122331  1
  Zr  Zr7  1  0.877669  0.366991  0.877669  1
  Zr  Zr8  1  0.122331  0.122331  0.633009  1
  In  In9  1  0.500000  0.841961  0.158039  1
  In  In10  1  0.500000  0.841961  0.500000  1
  In  In11  1  0.500000  0.158039  0.500000  1
  In  In12  1  0.500000  0.500000  0.841961  1
  In  In13  1  0.158039  0.500000  0.500000  1
  In  In14  1  0.841961  0.158039  0.500000  1
  In  In15  1  0.158039  0.841961  0.500000  1
  In  In16  1  0.500000  0.158039  0.841961  1
  In  In17  1  0.158039  0.500000  0.841961  1
  In  In18  1  0.500000  0.500000  0.158039  1
  In  In19  1  0.841961  0.500000  0.500000  1
  In  In20  1  0.841961  0.500000  0.158039  1
  In  In21  1  0.250000  0.250000  0.250000  1
  In  In22  1  0.750000  0.750000  0.750000  1
  Co  Co23  1  0.779137  0.779137  0.220863  1
  Co  Co24  1  0.220863  0.779137  0.220863  1
  Co  Co25  1  0.220863  0.779137  0.779137  1
  Co  Co26  1  0.220863  0.220863  0.779137  1
  Co  Co27  1  0.779137  0.220863  0.779137  1
  Co  Co28  1  0.779137  0.220863  0.220863  1
  Ru  Ru29  1  0.000000  0.000000  0.000000  1
