# generated using pymatgen
data_ErLuHf2Zr4F30
_symmetry_space_group_name_H-M   'P 1'
_cell_length_a   8.14179580
_cell_length_b   8.14179494
_cell_length_c   8.13931774
_cell_angle_alpha   79.82607491
_cell_angle_beta   79.82606925
_cell_angle_gamma   100.08873126
_symmetry_Int_Tables_number   1
_chemical_formula_structural   ErLuHf2Zr4F30
_chemical_formula_sum   'Er1 Lu1 Hf2 Zr4 F30'
_cell_volume   510.71435241
_cell_formula_units_Z   1
loop_
 _symmetry_equiv_pos_site_id
 _symmetry_equiv_pos_as_xyz
  1  'x, y, z'
loop_
 _atom_site_type_symbol
 _atom_site_label
 _atom_site_symmetry_multiplicity
 _atom_site_fract_x
 _atom_site_fract_y
 _atom_site_fract_z
 _atom_site_occupancy
  Er  Er0  1  0.678466  0.321534  0.750000  1
  Lu  Lu1  1  0.321653  0.678347  0.250000  1
  Hf  Hf2  1  0.250649  0.749351  0.750000  1
  Hf  Hf3  1  0.749428  0.250572  0.250000  1
  Zr  Zr4  1  0.821911  0.750099  0.324693  1
  Zr  Zr5  1  0.249901  0.178089  0.175307  1
  Zr  Zr6  1  0.178318  0.250641  0.674383  1
  Zr  Zr7  1  0.749359  0.821682  0.825617  1
  F  F8  1  0.150075  0.184487  0.947305  1
  F  F9  1  0.686214  0.561529  0.849271  1
  F  F10  1  0.043031  0.654852  0.314840  1
  F  F11  1  0.652903  0.040285  0.816413  1
  F  F12  1  0.560351  0.686943  0.347014  1
  F  F13  1  0.184338  0.149978  0.447614  1
  F  F14  1  0.850022  0.815662  0.052386  1
  F  F15  1  0.313057  0.439649  0.152986  1
  F  F16  1  0.959715  0.347097  0.683587  1
  F  F17  1  0.345148  0.956969  0.185160  1
  F  F18  1  0.438471  0.313786  0.650729  1
  F  F19  1  0.815513  0.849925  0.552695  1
  F  F20  1  0.965948  0.034052  0.750000  1
  F  F21  1  0.541659  0.751610  0.031574  1
  F  F22  1  0.248390  0.458341  0.468426  1
  F  F23  1  0.456283  0.247604  0.970682  1
  F  F24  1  0.752396  0.543717  0.529318  1
  F  F25  1  0.033570  0.966430  0.250000  1
  F  F26  1  0.221931  0.725655  0.002483  1
  F  F27  1  0.225300  0.494791  0.780014  1
  F  F28  1  0.995227  0.723474  0.775522  1
  F  F29  1  0.723596  0.995161  0.275345  1
  F  F30  1  0.494828  0.224780  0.280086  1
  F  F31  1  0.726350  0.220140  0.502018  1
  F  F32  1  0.779860  0.273650  0.997982  1
  F  F33  1  0.775220  0.505172  0.219914  1
  F  F34  1  0.004839  0.276404  0.224655  1
  F  F35  1  0.276526  0.004773  0.724478  1
  F  F36  1  0.505209  0.774700  0.719986  1
  F  F37  1  0.274345  0.778069  0.497517  1
