# generated using pymatgen
data_NaTbPr5RuBr12
_symmetry_space_group_name_H-M   'P 1'
_cell_length_a   9.61459262
_cell_length_b   9.55378638
_cell_length_c   9.59844555
_cell_angle_alpha   107.16378452
_cell_angle_beta   107.51338698
_cell_angle_gamma   106.80482031
_symmetry_Int_Tables_number   1
_chemical_formula_structural   NaTbPr5RuBr12
_chemical_formula_sum   'Na1 Tb1 Pr5 Ru1 Br12'
_cell_volume   731.00179395
_cell_formula_units_Z   1
loop_
 _symmetry_equiv_pos_site_id
 _symmetry_equiv_pos_as_xyz
  1  'x, y, z'
loop_
 _atom_site_type_symbol
 _atom_site_label
 _atom_site_symmetry_multiplicity
 _atom_site_fract_x
 _atom_site_fract_y
 _atom_site_fract_z
 _atom_site_occupancy
  Na  Na0  1  0.500027  0.500341  0.499747  1
  Tb  Tb1  1  0.110525  0.313261  0.030867  1
  Pr  Pr2  1  0.318784  0.029168  0.113388  1
  Pr  Pr3  1  0.031816  0.115049  0.320131  1
  Pr  Pr4  1  0.969346  0.888931  0.681489  1
  Pr  Pr5  1  0.681214  0.970155  0.886507  1
  Pr  Pr6  1  0.887769  0.679499  0.968939  1
  Ru  Ru7  1  0.000225  0.999521  0.001192  1
  Br  Br8  1  0.215422  0.676949  0.071661  1
  Br  Br9  1  0.443553  0.372356  0.151061  1
  Br  Br10  1  0.685259  0.074550  0.218006  1
  Br  Br11  1  0.926790  0.783190  0.315684  1
  Br  Br12  1  0.155943  0.455700  0.361429  1
  Br  Br13  1  0.373238  0.156934  0.457345  1
  Br  Br14  1  0.626945  0.843695  0.542967  1
  Br  Br15  1  0.843218  0.544063  0.626716  1
  Br  Br16  1  0.076009  0.224573  0.696749  1
  Br  Br17  1  0.314943  0.926094  0.782390  1
  Br  Br18  1  0.544501  0.627977  0.843114  1
  Br  Br19  1  0.794478  0.317995  0.930625  1
