# generated using pymatgen
data_YbSc(SnPt)2
_symmetry_space_group_name_H-M   'P 1'
_cell_length_a   7.55280200
_cell_length_b   7.55280165
_cell_length_c   7.62597500
_cell_angle_alpha   90.00000000
_cell_angle_beta   90.00000000
_cell_angle_gamma   120.00000152
_symmetry_Int_Tables_number   1
_chemical_formula_structural   YbSc(SnPt)2
_chemical_formula_sum   'Yb3 Sc3 Sn6 Pt6'
_cell_volume   376.74038866
_cell_formula_units_Z   3
loop_
 _symmetry_equiv_pos_site_id
 _symmetry_equiv_pos_as_xyz
  1  'x, y, z'
loop_
 _atom_site_type_symbol
 _atom_site_label
 _atom_site_symmetry_multiplicity
 _atom_site_fract_x
 _atom_site_fract_y
 _atom_site_fract_z
 _atom_site_occupancy
  Yb  Yb0  1  0.403287  0.997661  0.750000  1
  Yb  Yb1  1  0.594373  0.596713  0.750000  1
  Yb  Yb2  1  0.002339  0.405627  0.750000  1
  Sc  Sc3  1  0.394708  0.003682  0.250000  1
  Sc  Sc4  1  0.608974  0.605292  0.250000  1
  Sc  Sc5  1  0.996318  0.391026  0.250000  1
  Sn  Sn6  1  0.268428  0.269492  0.007363  1
  Sn  Sn7  1  0.001065  0.731572  0.007363  1
  Sn  Sn8  1  0.001065  0.731572  0.492637  1
  Sn  Sn9  1  0.730508  0.998935  0.492637  1
  Sn  Sn10  1  0.268428  0.269492  0.492637  1
  Sn  Sn11  1  0.730508  0.998935  0.007363  1
  Pt  Pt12  1  0.000000  0.000000  0.750000  1
  Pt  Pt13  1  0.000000  0.000000  0.250000  1
  Pt  Pt14  1  0.666667  0.333333  0.028639  1
  Pt  Pt15  1  0.333333  0.666667  0.462577  1
  Pt  Pt16  1  0.333333  0.666667  0.037423  1
  Pt  Pt17  1  0.666667  0.333333  0.471361  1
