# generated using pymatgen
data_Tb3Tm13(AlRh)4
_symmetry_space_group_name_H-M   'P 1'
_cell_length_a   9.44197016
_cell_length_b   9.43254238
_cell_length_c   9.44127171
_cell_angle_alpha   60.03549204
_cell_angle_beta   59.93639385
_cell_angle_gamma   60.00686008
_symmetry_Int_Tables_number   1
_chemical_formula_structural   Tb3Tm13(AlRh)4
_chemical_formula_sum   'Tb3 Tm13 Al4 Rh4'
_cell_volume   594.47888097
_cell_formula_units_Z   1
loop_
 _symmetry_equiv_pos_site_id
 _symmetry_equiv_pos_as_xyz
  1  'x, y, z'
loop_
 _atom_site_type_symbol
 _atom_site_label
 _atom_site_symmetry_multiplicity
 _atom_site_fract_x
 _atom_site_fract_y
 _atom_site_fract_z
 _atom_site_occupancy
  Tb  Tb0  1  0.062985  0.062985  0.437015  1
  Tb  Tb1  1  0.435998  0.064967  0.435803  1
  Tb  Tb2  1  0.064967  0.435998  0.063232  1
  Tm  Tm3  1  0.058426  0.645540  0.647967  1
  Tm  Tm4  1  0.437488  0.437488  0.062512  1
  Tm  Tm5  1  0.645540  0.058426  0.648068  1
  Tm  Tm6  1  0.193526  0.806967  0.191705  1
  Tm  Tm7  1  0.191913  0.191913  0.808087  1
  Tm  Tm8  1  0.807360  0.807360  0.192640  1
  Tm  Tm9  1  0.438205  0.062500  0.060970  1
  Tm  Tm10  1  0.807565  0.193010  0.191146  1
  Tm  Tm11  1  0.062500  0.438205  0.438325  1
  Tm  Tm12  1  0.806967  0.193526  0.807801  1
  Tm  Tm13  1  0.193010  0.807565  0.808280  1
  Tm  Tm14  1  0.647550  0.647162  0.055844  1
  Tm  Tm15  1  0.647162  0.647550  0.649446  1
  Al  Al16  1  0.421918  0.422542  0.422069  1
  Al  Al17  1  0.731454  0.423043  0.423144  1
  Al  Al18  1  0.423043  0.731454  0.422360  1
  Al  Al19  1  0.422542  0.421918  0.733471  1
  Rh  Rh20  1  0.858372  0.856536  0.427399  1
  Rh  Rh21  1  0.856536  0.858372  0.857692  1
  Rh  Rh22  1  0.427848  0.857126  0.858377  1
  Rh  Rh23  1  0.857126  0.427848  0.856649  1
