# generated using pymatgen
data_Pr8Si12HgIr2Rh
_symmetry_space_group_name_H-M   'P 1'
_cell_length_a   8.29361300
_cell_length_b   8.29361278
_cell_length_c   8.55663600
_cell_angle_alpha   90.00000000
_cell_angle_beta   90.00000000
_cell_angle_gamma   120.00000488
_symmetry_Int_Tables_number   1
_chemical_formula_structural   Pr8Si12HgIr2Rh
_chemical_formula_sum   'Pr8 Si12 Hg1 Ir2 Rh1'
_cell_volume   509.70769322
_cell_formula_units_Z   1
loop_
 _symmetry_equiv_pos_site_id
 _symmetry_equiv_pos_as_xyz
  1  'x, y, z'
loop_
 _atom_site_type_symbol
 _atom_site_label
 _atom_site_symmetry_multiplicity
 _atom_site_fract_x
 _atom_site_fract_y
 _atom_site_fract_z
 _atom_site_occupancy
  Pr  Pr0  1  0.000000  0.000000  0.748121  1
  Pr  Pr1  1  0.000000  0.000000  0.252245  1
  Pr  Pr2  1  0.496036  0.503964  0.743281  1
  Pr  Pr3  1  0.496036  0.992071  0.743281  1
  Pr  Pr4  1  0.007929  0.503964  0.743281  1
  Pr  Pr5  1  0.497366  0.502634  0.256566  1
  Pr  Pr6  1  0.005269  0.502634  0.256566  1
  Pr  Pr7  1  0.497366  0.994731  0.256566  1
  Si  Si8  1  0.843433  0.156567  0.000278  1
  Si  Si9  1  0.843433  0.686864  0.000278  1
  Si  Si10  1  0.313136  0.156567  0.000278  1
  Si  Si11  1  0.832405  0.167595  0.500667  1
  Si  Si12  1  0.832405  0.664810  0.500667  1
  Si  Si13  1  0.335190  0.167595  0.500667  1
  Si  Si14  1  0.166394  0.833606  0.499377  1
  Si  Si15  1  0.667211  0.833606  0.499377  1
  Si  Si16  1  0.166394  0.332789  0.499377  1
  Si  Si17  1  0.169553  0.830447  0.000217  1
  Si  Si18  1  0.660893  0.830447  0.000217  1
  Si  Si19  1  0.169553  0.339107  0.000217  1
  Hg  Hg20  1  0.666667  0.333333  0.996932  1
  Ir  Ir21  1  0.666667  0.333333  0.501491  1
  Ir  Ir22  1  0.333333  0.666667  0.498405  1
  Rh  Rh23  1  0.333333  0.666667  0.001646  1
