# generated using pymatgen
data_Ca2Yb(Al3Ni2)3
_symmetry_space_group_name_H-M   'P 1'
_cell_length_a   9.05415500
_cell_length_b   9.05415454
_cell_length_c   4.10150400
_cell_angle_alpha   90.00000000
_cell_angle_beta   90.00000000
_cell_angle_gamma   119.99999802
_symmetry_Int_Tables_number   1
_chemical_formula_structural   Ca2Yb(Al3Ni2)3
_chemical_formula_sum   'Ca2 Yb1 Al9 Ni6'
_cell_volume   291.18540814
_cell_formula_units_Z   1
loop_
 _symmetry_equiv_pos_site_id
 _symmetry_equiv_pos_as_xyz
  1  'x, y, z'
loop_
 _atom_site_type_symbol
 _atom_site_label
 _atom_site_symmetry_multiplicity
 _atom_site_fract_x
 _atom_site_fract_y
 _atom_site_fract_z
 _atom_site_occupancy
  Ca  Ca0  1  0.333333  0.666667  0.500000  1
  Ca  Ca1  1  0.666667  0.333333  0.500000  1
  Yb  Yb2  1  0.000000  0.000000  0.000000  1
  Al  Al3  1  0.500000  0.000000  0.000000  1
  Al  Al4  1  0.000000  0.500000  0.000000  1
  Al  Al5  1  0.500000  0.500000  0.000000  1
  Al  Al6  1  0.298298  0.000000  0.500000  1
  Al  Al7  1  0.701702  0.000000  0.500000  1
  Al  Al8  1  0.000000  0.298298  0.500000  1
  Al  Al9  1  0.000000  0.701702  0.500000  1
  Al  Al10  1  0.701702  0.701702  0.500000  1
  Al  Al11  1  0.298298  0.298298  0.500000  1
  Ni  Ni12  1  0.177011  0.354022  0.000000  1
  Ni  Ni13  1  0.822989  0.645978  0.000000  1
  Ni  Ni14  1  0.645978  0.822989  0.000000  1
  Ni  Ni15  1  0.354022  0.177011  0.000000  1
  Ni  Ni16  1  0.177011  0.822989  0.000000  1
  Ni  Ni17  1  0.822989  0.177011  0.000000  1
