# generated using pymatgen
data_Tb3Ho(ScIr)4
_symmetry_space_group_name_H-M   'P 1'
_cell_length_a   4.27662900
_cell_length_b   7.14136099
_cell_length_c   8.68901700
_cell_angle_alpha   89.87873893
_cell_angle_beta   90.00000000
_cell_angle_gamma   90.00000000
_symmetry_Int_Tables_number   1
_chemical_formula_structural   Tb3Ho(ScIr)4
_chemical_formula_sum   'Tb3 Ho1 Sc4 Ir4'
_cell_volume   265.37025268
_cell_formula_units_Z   1
loop_
 _symmetry_equiv_pos_site_id
 _symmetry_equiv_pos_as_xyz
  1  'x, y, z'
loop_
 _atom_site_type_symbol
 _atom_site_label
 _atom_site_symmetry_multiplicity
 _atom_site_fract_x
 _atom_site_fract_y
 _atom_site_fract_z
 _atom_site_occupancy
  Tb  Tb0  1  0.250000  0.982489  0.325891  1
  Tb  Tb1  1  0.250000  0.481896  0.173560  1
  Tb  Tb2  1  0.750000  0.018275  0.674510  1
  Ho  Ho3  1  0.750000  0.518084  0.826991  1
  Sc  Sc4  1  0.250000  0.360204  0.566293  1
  Sc  Sc5  1  0.250000  0.857796  0.934277  1
  Sc  Sc6  1  0.750000  0.641006  0.435179  1
  Sc  Sc7  1  0.750000  0.140457  0.065050  1
  Ir  Ir8  1  0.250000  0.239140  0.893281  1
  Ir  Ir9  1  0.250000  0.738433  0.606082  1
  Ir  Ir10  1  0.750000  0.760472  0.104732  1
  Ir  Ir11  1  0.750000  0.261750  0.394155  1
