# generated using pymatgen
data_Tb2Hf2ZrGe4
_symmetry_space_group_name_H-M   'P 1'
_cell_length_a   7.43137400
_cell_length_b   7.43137400
_cell_length_c   13.62196900
_cell_angle_alpha   90.00000000
_cell_angle_beta   90.00000000
_cell_angle_gamma   90.00000000
_symmetry_Int_Tables_number   1
_chemical_formula_structural   Tb2Hf2ZrGe4
_chemical_formula_sum   'Tb8 Hf8 Zr4 Ge16'
_cell_volume   752.27759062
_cell_formula_units_Z   4
loop_
 _symmetry_equiv_pos_site_id
 _symmetry_equiv_pos_as_xyz
  1  'x, y, z'
loop_
 _atom_site_type_symbol
 _atom_site_label
 _atom_site_symmetry_multiplicity
 _atom_site_fract_x
 _atom_site_fract_y
 _atom_site_fract_z
 _atom_site_occupancy
  Tb  Tb0  1  0.997833  0.343017  0.217506  1
  Tb  Tb1  1  0.002167  0.656983  0.717506  1
  Tb  Tb2  1  0.156983  0.497833  0.467506  1
  Tb  Tb3  1  0.502167  0.843017  0.032494  1
  Tb  Tb4  1  0.843017  0.502167  0.967506  1
  Tb  Tb5  1  0.497833  0.156983  0.532494  1
  Tb  Tb6  1  0.343017  0.997833  0.782494  1
  Tb  Tb7  1  0.656983  0.002167  0.282494  1
  Hf  Hf8  1  0.154700  0.995508  0.375435  1
  Hf  Hf9  1  0.845300  0.004492  0.875435  1
  Hf  Hf10  1  0.504492  0.654700  0.625435  1
  Hf  Hf11  1  0.345300  0.495508  0.874565  1
  Hf  Hf12  1  0.495508  0.345300  0.125435  1
  Hf  Hf13  1  0.654700  0.504492  0.374565  1
  Hf  Hf14  1  0.995508  0.154700  0.624565  1
  Hf  Hf15  1  0.004492  0.845300  0.124565  1
  Zr  Zr16  1  0.173773  0.173773  0.000000  1
  Zr  Zr17  1  0.826227  0.826227  0.500000  1
  Zr  Zr18  1  0.326227  0.673773  0.250000  1
  Zr  Zr19  1  0.673773  0.326227  0.750000  1
  Ge  Ge20  1  0.366168  0.299715  0.322782  1
  Ge  Ge21  1  0.633832  0.700285  0.822782  1
  Ge  Ge22  1  0.200285  0.866168  0.572782  1
  Ge  Ge23  1  0.133832  0.799715  0.927218  1
  Ge  Ge24  1  0.799715  0.133832  0.072782  1
  Ge  Ge25  1  0.866168  0.200285  0.427218  1
  Ge  Ge26  1  0.299715  0.366168  0.677218  1
  Ge  Ge27  1  0.700285  0.633832  0.177218  1
  Ge  Ge28  1  0.295995  0.040438  0.182421  1
  Ge  Ge29  1  0.704005  0.959562  0.682421  1
  Ge  Ge30  1  0.459562  0.795995  0.432421  1
  Ge  Ge31  1  0.204005  0.540438  0.067579  1
  Ge  Ge32  1  0.540438  0.204005  0.932421  1
  Ge  Ge33  1  0.795995  0.459562  0.567579  1
  Ge  Ge34  1  0.040438  0.295995  0.817579  1
  Ge  Ge35  1  0.959562  0.704005  0.317579  1
