# generated using pymatgen
data_SrTh11(GePd)12
_symmetry_space_group_name_H-M   'P 1'
_cell_length_a   4.44490500
_cell_length_b   7.66920900
_cell_length_c   23.29628140
_cell_angle_alpha   90.05527950
_cell_angle_beta   90.00000000
_cell_angle_gamma   90.00000000
_symmetry_Int_Tables_number   1
_chemical_formula_structural   SrTh11(GePd)12
_chemical_formula_sum   'Sr1 Th11 Ge12 Pd12'
_cell_volume   794.14436399
_cell_formula_units_Z   1
loop_
 _symmetry_equiv_pos_site_id
 _symmetry_equiv_pos_as_xyz
  1  'x, y, z'
loop_
 _atom_site_type_symbol
 _atom_site_label
 _atom_site_symmetry_multiplicity
 _atom_site_fract_x
 _atom_site_fract_y
 _atom_site_fract_z
 _atom_site_occupancy
  Sr  Sr0  1  0.250000  0.749233  0.500035  1
  Th  Th1  1  0.250000  0.752518  0.334085  1
  Th  Th2  1  0.750000  0.250749  0.666727  1
  Th  Th3  1  0.750000  0.250911  0.166295  1
  Th  Th4  1  0.250000  0.748955  0.832932  1
  Th  Th5  1  0.250000  0.750751  0.166998  1
  Th  Th6  1  0.750000  0.250556  0.833592  1
  Th  Th7  1  0.750000  0.248058  0.333283  1
  Th  Th8  1  0.250000  0.747502  0.665971  1
  Th  Th9  1  0.250000  0.751015  0.999929  1
  Th  Th10  1  0.750000  0.250023  0.999938  1
  Th  Th11  1  0.750000  0.249575  0.500063  1
  Ge  Ge12  1  0.250000  0.084511  0.079408  1
  Ge  Ge13  1  0.750000  0.916392  0.920049  1
  Ge  Ge14  1  0.750000  0.582525  0.408594  1
  Ge  Ge15  1  0.250000  0.414902  0.585926  1
  Ge  Ge16  1  0.250000  0.084989  0.246756  1
  Ge  Ge17  1  0.750000  0.916176  0.753895  1
  Ge  Ge18  1  0.750000  0.583881  0.246540  1
  Ge  Ge19  1  0.250000  0.415074  0.753466  1
  Ge  Ge20  1  0.250000  0.084240  0.414932  1
  Ge  Ge21  1  0.750000  0.916472  0.591670  1
  Ge  Ge22  1  0.750000  0.584540  0.079824  1
  Ge  Ge23  1  0.250000  0.416424  0.920975  1
  Pd  Pd24  1  0.250000  0.418113  0.252104  1
  Pd  Pd25  1  0.750000  0.582407  0.747604  1
  Pd  Pd26  1  0.750000  0.917703  0.251826  1
  Pd  Pd27  1  0.250000  0.081819  0.747994  1
  Pd  Pd28  1  0.250000  0.414952  0.417622  1
  Pd  Pd29  1  0.750000  0.577392  0.585994  1
  Pd  Pd30  1  0.750000  0.917978  0.086249  1
  Pd  Pd31  1  0.250000  0.082573  0.913587  1
  Pd  Pd32  1  0.250000  0.418495  0.085845  1
  Pd  Pd33  1  0.750000  0.582863  0.914010  1
  Pd  Pd34  1  0.750000  0.921405  0.413633  1
  Pd  Pd35  1  0.250000  0.084331  0.581648  1
