# generated using pymatgen
data_Y8Ho5Tm7Bi12
_symmetry_space_group_name_H-M   'P 1'
_cell_length_a   8.23811920
_cell_length_b   9.47338304
_cell_length_c   12.05744225
_cell_angle_alpha   89.99743374
_cell_angle_beta   89.97692874
_cell_angle_gamma   89.98953712
_symmetry_Int_Tables_number   1
_chemical_formula_structural   Y8Ho5Tm7Bi12
_chemical_formula_sum   'Y8 Ho5 Tm7 Bi12'
_cell_volume   940.99716914
_cell_formula_units_Z   1
loop_
 _symmetry_equiv_pos_site_id
 _symmetry_equiv_pos_as_xyz
  1  'x, y, z'
loop_
 _atom_site_type_symbol
 _atom_site_label
 _atom_site_symmetry_multiplicity
 _atom_site_fract_x
 _atom_site_fract_y
 _atom_site_fract_z
 _atom_site_occupancy
  Y  Y0  1  0.186382  0.750061  0.718646  1
  Y  Y1  1  0.686389  0.750021  0.781269  1
  Y  Y2  1  0.813585  0.250062  0.281339  1
  Y  Y3  1  0.313666  0.249928  0.218677  1
  Y  Y4  1  0.353656  0.750111  0.216013  1
  Y  Y5  1  0.853970  0.750200  0.284192  1
  Y  Y6  1  0.646295  0.250038  0.784106  1
  Y  Y7  1  0.146253  0.250020  0.715903  1
  Ho  Ho8  1  0.306842  0.434830  0.940475  1
  Ho  Ho9  1  0.806752  0.065139  0.559539  1
  Ho  Ho10  1  0.693167  0.935092  0.059566  1
  Ho  Ho11  1  0.193247  0.565110  0.440465  1
  Ho  Ho12  1  0.693073  0.564947  0.059508  1
  Tm  Tm13  1  0.025484  0.750081  0.988995  1
  Tm  Tm14  1  0.525207  0.750037  0.510942  1
  Tm  Tm15  1  0.974906  0.249917  0.010956  1
  Tm  Tm16  1  0.474803  0.250102  0.489055  1
  Tm  Tm17  1  0.193193  0.934528  0.440476  1
  Tm  Tm18  1  0.306799  0.065472  0.940470  1
  Tm  Tm19  1  0.806838  0.434466  0.559531  1
  Bi  Bi20  1  0.433848  0.003920  0.672450  1
  Bi  Bi21  1  0.933838  0.496161  0.827454  1
  Bi  Bi22  1  0.566056  0.503907  0.327609  1
  Bi  Bi23  1  0.066134  0.996160  0.172499  1
  Bi  Bi24  1  0.565989  0.996217  0.327534  1
  Bi  Bi25  1  0.066126  0.503839  0.172560  1
  Bi  Bi26  1  0.433923  0.496187  0.672438  1
  Bi  Bi27  1  0.934006  0.003870  0.827492  1
  Bi  Bi28  1  0.406668  0.750645  0.957805  1
  Bi  Bi29  1  0.906893  0.749579  0.542122  1
  Bi  Bi30  1  0.592911  0.249773  0.042013  1
  Bi  Bi31  1  0.093101  0.249578  0.457900  1
