# generated using pymatgen
data_Dy2Ho2TmPt4
_symmetry_space_group_name_H-M   'P 1'
_cell_length_a   7.44674800
_cell_length_b   7.54739200
_cell_length_c   14.72395800
_cell_angle_alpha   90.00000000
_cell_angle_beta   90.00000000
_cell_angle_gamma   90.00000000
_symmetry_Int_Tables_number   1
_chemical_formula_structural   Dy2Ho2TmPt4
_chemical_formula_sum   'Dy8 Ho8 Tm4 Pt16'
_cell_volume   827.53836042
_cell_formula_units_Z   4
loop_
 _symmetry_equiv_pos_site_id
 _symmetry_equiv_pos_as_xyz
  1  'x, y, z'
loop_
 _atom_site_type_symbol
 _atom_site_label
 _atom_site_symmetry_multiplicity
 _atom_site_fract_x
 _atom_site_fract_y
 _atom_site_fract_z
 _atom_site_occupancy
  Dy  Dy0  1  0.501784  0.679819  0.593121  1
  Dy  Dy1  1  0.001784  0.820181  0.906879  1
  Dy  Dy2  1  0.498216  0.320181  0.093121  1
  Dy  Dy3  1  0.998216  0.179819  0.406879  1
  Dy  Dy4  1  0.498216  0.320181  0.406879  1
  Dy  Dy5  1  0.998216  0.179819  0.093121  1
  Dy  Dy6  1  0.501784  0.679819  0.906879  1
  Dy  Dy7  1  0.001784  0.820181  0.593121  1
  Ho  Ho8  1  0.656721  0.168017  0.622551  1
  Ho  Ho9  1  0.156721  0.331983  0.877449  1
  Ho  Ho10  1  0.343279  0.831983  0.122551  1
  Ho  Ho11  1  0.843279  0.668017  0.377449  1
  Ho  Ho12  1  0.343279  0.831983  0.377449  1
  Ho  Ho13  1  0.843279  0.668017  0.122551  1
  Ho  Ho14  1  0.656721  0.168017  0.877449  1
  Ho  Ho15  1  0.156721  0.331983  0.622551  1
  Tm  Tm16  1  0.819178  0.512257  0.750000  1
  Tm  Tm17  1  0.319178  0.987743  0.750000  1
  Tm  Tm18  1  0.180822  0.487743  0.250000  1
  Tm  Tm19  1  0.680822  0.012257  0.250000  1
  Pt  Pt20  1  0.683439  0.967785  0.457908  1
  Pt  Pt21  1  0.183439  0.532215  0.042092  1
  Pt  Pt22  1  0.316561  0.032215  0.957908  1
  Pt  Pt23  1  0.816561  0.467785  0.542092  1
  Pt  Pt24  1  0.316561  0.032215  0.542092  1
  Pt  Pt25  1  0.816561  0.467785  0.957908  1
  Pt  Pt26  1  0.683439  0.967785  0.042092  1
  Pt  Pt27  1  0.183439  0.532215  0.457908  1
  Pt  Pt28  1  0.454252  0.387577  0.750000  1
  Pt  Pt29  1  0.954252  0.112423  0.750000  1
  Pt  Pt30  1  0.545748  0.612423  0.250000  1
  Pt  Pt31  1  0.045748  0.887577  0.250000  1
  Pt  Pt32  1  0.681828  0.855959  0.750000  1
  Pt  Pt33  1  0.181828  0.644041  0.750000  1
  Pt  Pt34  1  0.318172  0.144041  0.250000  1
  Pt  Pt35  1  0.818172  0.355959  0.250000  1
