# generated using pymatgen
data_TbSm3(Fe2Co5)2
_symmetry_space_group_name_H-M   'P 1'
_cell_length_a   5.11441067
_cell_length_b   5.11441131
_cell_length_c   12.15955725
_cell_angle_alpha   77.85980803
_cell_angle_beta   77.85981833
_cell_angle_gamma   59.99999040
_symmetry_Int_Tables_number   1
_chemical_formula_structural   TbSm3(Fe2Co5)2
_chemical_formula_sum   'Tb1 Sm3 Fe4 Co10'
_cell_volume   267.20292715
_cell_formula_units_Z   1
loop_
 _symmetry_equiv_pos_site_id
 _symmetry_equiv_pos_as_xyz
  1  'x, y, z'
loop_
 _atom_site_type_symbol
 _atom_site_label
 _atom_site_symmetry_multiplicity
 _atom_site_fract_x
 _atom_site_fract_y
 _atom_site_fract_z
 _atom_site_occupancy
  Tb  Tb0  1  0.851569  0.851569  0.445293  1
  Sm  Sm1  1  0.051182  0.051182  0.846452  1
  Sm  Sm2  1  0.948637  0.948637  0.154089  1
  Sm  Sm3  1  0.148661  0.148661  0.554019  1
  Fe  Fe4  1  0.278380  0.278380  0.164861  1
  Fe  Fe5  1  0.721593  0.721593  0.835220  1
  Fe  Fe6  1  0.388170  0.388170  0.835491  1
  Fe  Fe7  1  0.611822  0.611822  0.164534  1
  Co  Co8  1  0.500115  0.500115  0.499655  1
  Co  Co9  1  0.500008  0.500008  0.999958  1
  Co  Co10  1  0.500008  0.000026  0.999958  1
  Co  Co11  1  0.000026  0.500008  0.999958  1
  Co  Co12  1  0.110449  0.608946  0.671660  1
  Co  Co13  1  0.608946  0.608946  0.671660  1
  Co  Co14  1  0.608946  0.110449  0.671660  1
  Co  Co15  1  0.888885  0.391302  0.328511  1
  Co  Co16  1  0.391302  0.391302  0.328511  1
  Co  Co17  1  0.391302  0.888885  0.328511  1
