# generated using pymatgen
data_Ti16Pd5Rh3O4
_symmetry_space_group_name_H-M   'P 1'
_cell_length_a   8.27190987
_cell_length_b   8.27313253
_cell_length_c   8.27313300
_cell_angle_alpha   60.00000210
_cell_angle_beta   59.99511253
_cell_angle_gamma   59.99511236
_symmetry_Int_Tables_number   1
_chemical_formula_structural   Ti16Pd5Rh3O4
_chemical_formula_sum   'Ti16 Pd5 Rh3 O4'
_cell_volume   400.31208626
_cell_formula_units_Z   1
loop_
 _symmetry_equiv_pos_site_id
 _symmetry_equiv_pos_as_xyz
  1  'x, y, z'
loop_
 _atom_site_type_symbol
 _atom_site_label
 _atom_site_symmetry_multiplicity
 _atom_site_fract_x
 _atom_site_fract_y
 _atom_site_fract_z
 _atom_site_occupancy
  Ti  Ti0  1  0.110986  0.629671  0.629671  1
  Ti  Ti1  1  0.630970  0.117028  0.626002  1
  Ti  Ti2  1  0.630970  0.626002  0.117028  1
  Ti  Ti3  1  0.630970  0.626002  0.626002  1
  Ti  Ti4  1  0.819434  0.819254  0.180656  1
  Ti  Ti5  1  0.177322  0.183410  0.819634  1
  Ti  Ti6  1  0.819434  0.180656  0.819254  1
  Ti  Ti7  1  0.177322  0.819634  0.183410  1
  Ti  Ti8  1  0.177322  0.819634  0.819634  1
  Ti  Ti9  1  0.819434  0.180656  0.180656  1
  Ti  Ti10  1  0.429321  0.429240  0.070719  1
  Ti  Ti11  1  0.070246  0.069107  0.430324  1
  Ti  Ti12  1  0.429321  0.070719  0.429240  1
  Ti  Ti13  1  0.070246  0.430324  0.069107  1
  Ti  Ti14  1  0.070246  0.430324  0.430324  1
  Ti  Ti15  1  0.429321  0.070719  0.070719  1
  Pd  Pd16  1  0.767455  0.410848  0.410848  1
  Pd  Pd17  1  0.410820  0.764177  0.412501  1
  Pd  Pd18  1  0.410820  0.412501  0.764177  1
  Pd  Pd19  1  0.410820  0.412501  0.412501  1
  Pd  Pd20  1  0.476509  0.841164  0.841164  1
  Rh  Rh21  1  0.843112  0.468756  0.844066  1
  Rh  Rh22  1  0.843112  0.844066  0.468756  1
  Rh  Rh23  1  0.843112  0.844066  0.844066  1
  O  O24  1  0.623660  0.125446  0.125446  1
  O  O25  1  0.125903  0.623283  0.125407  1
  O  O26  1  0.125903  0.125407  0.623283  1
  O  O27  1  0.125903  0.125407  0.125407  1
