# generated using pymatgen
data_Ta4BeCo4P3
_symmetry_space_group_name_H-M   'P 1'
_cell_length_a   3.55921100
_cell_length_b   6.08298691
_cell_length_c   6.96061400
_cell_angle_alpha   90.06201553
_cell_angle_beta   90.00000000
_cell_angle_gamma   90.00000000
_symmetry_Int_Tables_number   1
_chemical_formula_structural   Ta4BeCo4P3
_chemical_formula_sum   'Ta4 Be1 Co4 P3'
_cell_volume   150.70161726
_cell_formula_units_Z   1
loop_
 _symmetry_equiv_pos_site_id
 _symmetry_equiv_pos_as_xyz
  1  'x, y, z'
loop_
 _atom_site_type_symbol
 _atom_site_label
 _atom_site_symmetry_multiplicity
 _atom_site_fract_x
 _atom_site_fract_y
 _atom_site_fract_z
 _atom_site_occupancy
  Ta  Ta0  1  0.250000  0.029530  0.829114  1
  Ta  Ta1  1  0.250000  0.523203  0.676949  1
  Ta  Ta2  1  0.750000  0.985572  0.173899  1
  Ta  Ta3  1  0.750000  0.469737  0.316268  1
  Be  Be4  1  0.250000  0.273752  0.120198  1
  Co  Co5  1  0.250000  0.141812  0.440108  1
  Co  Co6  1  0.250000  0.641957  0.062178  1
  Co  Co7  1  0.750000  0.854663  0.563275  1
  Co  Co8  1  0.750000  0.358605  0.938611  1
  P  P9  1  0.250000  0.772839  0.375521  1
  P  P10  1  0.750000  0.723234  0.882775  1
  P  P11  1  0.750000  0.225096  0.621105  1
