# generated using pymatgen
data_Ho3TiAl11Ru4
_symmetry_space_group_name_H-M   'P 1'
_cell_length_a   8.83153300
_cell_length_b   8.83153281
_cell_length_c   9.52346100
_cell_angle_alpha   90.00000000
_cell_angle_beta   90.00000000
_cell_angle_gamma   119.99999697
_symmetry_Int_Tables_number   1
_chemical_formula_structural   Ho3TiAl11Ru4
_chemical_formula_sum   'Ho6 Ti2 Al22 Ru8'
_cell_volume   643.27642466
_cell_formula_units_Z   2
loop_
 _symmetry_equiv_pos_site_id
 _symmetry_equiv_pos_as_xyz
  1  'x, y, z'
loop_
 _atom_site_type_symbol
 _atom_site_label
 _atom_site_symmetry_multiplicity
 _atom_site_fract_x
 _atom_site_fract_y
 _atom_site_fract_z
 _atom_site_occupancy
  Ho  Ho0  1  0.193953  0.387907  0.251383  1
  Ho  Ho1  1  0.806047  0.612093  0.748617  1
  Ho  Ho2  1  0.612093  0.806047  0.251383  1
  Ho  Ho3  1  0.387907  0.193953  0.748617  1
  Ho  Ho4  1  0.193953  0.806047  0.251383  1
  Ho  Ho5  1  0.806047  0.193953  0.748617  1
  Ti  Ti6  1  0.333333  0.666667  0.998920  1
  Ti  Ti7  1  0.666667  0.333333  0.001080  1
  Al  Al8  1  0.666667  0.333333  0.516870  1
  Al  Al9  1  0.333333  0.666667  0.483130  1
  Al  Al10  1  0.161513  0.323026  0.577435  1
  Al  Al11  1  0.838487  0.676974  0.422565  1
  Al  Al12  1  0.676974  0.838487  0.577435  1
  Al  Al13  1  0.840698  0.681394  0.076914  1
  Al  Al14  1  0.323026  0.161513  0.422565  1
  Al  Al15  1  0.159302  0.318606  0.923086  1
  Al  Al16  1  0.161513  0.838487  0.577435  1
  Al  Al17  1  0.318606  0.159302  0.076914  1
  Al  Al18  1  0.838487  0.161513  0.422565  1
  Al  Al19  1  0.681394  0.840698  0.923086  1
  Al  Al20  1  0.840698  0.159302  0.076914  1
  Al  Al21  1  0.159302  0.840698  0.923086  1
  Al  Al22  1  0.560935  0.121870  0.251603  1
  Al  Al23  1  0.439065  0.878130  0.748397  1
  Al  Al24  1  0.878130  0.439065  0.251603  1
  Al  Al25  1  0.121870  0.560935  0.748397  1
  Al  Al26  1  0.560935  0.439065  0.251603  1
  Al  Al27  1  0.439065  0.560935  0.748397  1
  Al  Al28  1  0.000000  0.000000  0.250505  1
  Al  Al29  1  0.000000  0.000000  0.749495  1
  Ru  Ru30  1  0.500000  0.000000  0.000000  1
  Ru  Ru31  1  0.000000  0.500000  0.000000  1
  Ru  Ru32  1  0.500000  0.000000  0.500000  1
  Ru  Ru33  1  0.500000  0.500000  0.000000  1
  Ru  Ru34  1  0.000000  0.500000  0.500000  1
  Ru  Ru35  1  0.500000  0.500000  0.500000  1
  Ru  Ru36  1  0.000000  0.000000  0.000000  1
  Ru  Ru37  1  0.000000  0.000000  0.500000  1
