# generated using pymatgen
data_Cs14LiFe7Se16
_symmetry_space_group_name_H-M   'P 1'
_cell_length_a   11.00988975
_cell_length_b   11.03965331
_cell_length_c   17.77749200
_cell_angle_alpha   64.91752224
_cell_angle_beta   64.53372866
_cell_angle_gamma   48.52202139
_symmetry_Int_Tables_number   1
_chemical_formula_structural   Cs14LiFe7Se16
_chemical_formula_sum   'Cs14 Li1 Fe7 Se16'
_cell_volume   1430.32738377
_cell_formula_units_Z   1
loop_
 _symmetry_equiv_pos_site_id
 _symmetry_equiv_pos_as_xyz
  1  'x, y, z'
loop_
 _atom_site_type_symbol
 _atom_site_label
 _atom_site_symmetry_multiplicity
 _atom_site_fract_x
 _atom_site_fract_y
 _atom_site_fract_z
 _atom_site_occupancy
  Cs  Cs0  1  0.247969  0.763388  0.742529  1
  Cs  Cs1  1  0.767833  0.229843  0.251569  1
  Cs  Cs2  1  0.251167  0.740270  0.992504  1
  Cs  Cs3  1  0.260913  0.755373  0.505691  1
  Cs  Cs4  1  0.750991  0.255088  0.013498  1
  Cs  Cs5  1  0.743471  0.254105  0.492825  1
  Cs  Cs6  1  0.979152  0.533752  0.608579  1
  Cs  Cs7  1  0.472234  0.001259  0.889482  1
  Cs  Cs8  1  0.998642  0.482499  0.386473  1
  Cs  Cs9  1  0.525255  0.989564  0.117211  1
  Cs  Cs10  1  0.003437  0.510516  0.864332  1
  Cs  Cs11  1  0.479837  0.007148  0.629044  1
  Cs  Cs12  1  0.996371  0.484033  0.139065  1
  Cs  Cs13  1  0.509766  0.012752  0.359194  1
  Li  Li14  1  0.672937  0.455757  0.653369  1
  Fe  Fe15  1  0.577791  0.306389  0.836494  1
  Fe  Fe16  1  0.316342  0.578785  0.328283  1
  Fe  Fe17  1  0.424880  0.682680  0.169422  1
  Fe  Fe18  1  0.891322  0.206885  0.781166  1
  Fe  Fe19  1  0.786799  0.101750  0.728768  1
  Fe  Fe20  1  0.113390  0.783268  0.223374  1
  Fe  Fe21  1  0.217057  0.887631  0.274533  1
  Se  Se22  1  0.657446  0.486994  0.798567  1
  Se  Se23  1  0.501335  0.332076  0.718410  1
  Se  Se24  1  0.345576  0.499363  0.209731  1
  Se  Se25  1  0.502007  0.655260  0.287465  1
  Se  Se26  1  0.971027  0.182587  0.635091  1
  Se  Se27  1  0.811054  0.024636  0.872984  1
  Se  Se28  1  0.033050  0.809008  0.369488  1
  Se  Se29  1  0.194555  0.966291  0.128325  1
  Se  Se30  1  0.659145  0.613350  0.053317  1
  Se  Se31  1  0.383299  0.353170  0.445514  1
  Se  Se32  1  0.346835  0.375975  0.951492  1
  Se  Se33  1  0.604228  0.695331  0.536280  1
  Se  Se34  1  0.860265  0.876664  0.691048  1
  Se  Se35  1  0.117039  0.132612  0.818825  1
  Se  Se36  1  0.137319  0.117389  0.312517  1
  Se  Se37  1  0.888266  0.856561  0.183536  1
