# generated using pymatgen
data_Rb2SrOsO6
_symmetry_space_group_name_H-M   'P 1'
_cell_length_a   6.18704000
_cell_length_b   6.18703934
_cell_length_c   6.18704000
_cell_angle_alpha   120.00001425
_cell_angle_beta   89.99999074
_cell_angle_gamma   119.99999821
_symmetry_Int_Tables_number   1
_chemical_formula_structural   Rb2SrOsO6
_chemical_formula_sum   'Rb2 Sr1 Os1 O6'
_cell_volume   167.46871205
_cell_formula_units_Z   1
loop_
 _symmetry_equiv_pos_site_id
 _symmetry_equiv_pos_as_xyz
  1  'x, y, z'
loop_
 _atom_site_type_symbol
 _atom_site_label
 _atom_site_symmetry_multiplicity
 _atom_site_fract_x
 _atom_site_fract_y
 _atom_site_fract_z
 _atom_site_occupancy
  Rb  Rb0  1  0.749997  0.499998  0.249999  1
  Rb  Rb1  1  0.249999  0.499998  0.750000  1
  Sr  Sr2  1  0.500000  0.000000  0.500000  1
  Os  Os3  1  0.000000  0.000000  0.000000  1
  O  O4  1  0.214570  0.000000  0.214570  1
  O  O5  1  0.214572  0.429144  0.214572  1
  O  O6  1  0.785428  0.000000  0.214572  1
  O  O7  1  0.785428  0.570855  0.785428  1
  O  O8  1  0.214572  0.000000  0.785428  1
  O  O9  1  0.785430  0.000000  0.785430  1
