# generated using pymatgen
data_Li4FeNi8As7Ru
_symmetry_space_group_name_H-M   'P 1'
_cell_length_a   9.41895085
_cell_length_b   9.39249069
_cell_length_c   3.74571400
_cell_angle_alpha   90.00000000
_cell_angle_beta   90.00000000
_cell_angle_gamma   120.01723609
_symmetry_Int_Tables_number   1
_chemical_formula_structural   Li4FeNi8As7Ru
_chemical_formula_sum   'Li4 Fe1 Ni8 As7 Ru1'
_cell_volume   286.92810789
_cell_formula_units_Z   1
loop_
 _symmetry_equiv_pos_site_id
 _symmetry_equiv_pos_as_xyz
  1  'x, y, z'
loop_
 _atom_site_type_symbol
 _atom_site_label
 _atom_site_symmetry_multiplicity
 _atom_site_fract_x
 _atom_site_fract_y
 _atom_site_fract_z
 _atom_site_occupancy
  Li  Li0  1  0.444537  0.214244  0.500000  1
  Li  Li1  1  0.788737  0.235445  0.500000  1
  Li  Li2  1  0.334526  0.670712  0.000000  1
  Li  Li3  1  0.998963  0.002498  0.500000  1
  Fe  Fe4  1  0.497214  0.452377  0.000000  1
  Ni  Ni5  1  0.276981  0.374642  0.500000  1
  Ni  Ni6  1  0.623654  0.900367  0.500000  1
  Ni  Ni7  1  0.102203  0.719917  0.500000  1
  Ni  Ni8  1  0.550028  0.050686  0.000000  1
  Ni  Ni9  1  0.954665  0.499445  0.000000  1
  Ni  Ni10  1  0.721455  0.763254  0.000000  1
  Ni  Ni11  1  0.235264  0.951982  0.000000  1
  Ni  Ni12  1  0.046102  0.283283  0.000000  1
  As  As13  1  0.959044  0.752457  0.000000  1
  As  As14  1  0.245534  0.206814  0.000000  1
  As  As15  1  0.795522  0.037319  0.000000  1
  As  As16  1  0.666627  0.342574  0.000000  1
  As  As17  1  0.537248  0.617800  0.500000  1
  As  As18  1  0.378183  0.916277  0.500000  1
  As  As19  1  0.086844  0.462336  0.500000  1
  Ru  Ru20  1  0.756672  0.545571  0.500000  1
