# generated using pymatgen
data_LiTb2Co8TcP6
_symmetry_space_group_name_H-M   'P 1'
_cell_length_a   3.70380100
_cell_length_b   10.36326000
_cell_length_c   11.82724000
_cell_angle_alpha   90.00000000
_cell_angle_beta   90.00000000
_cell_angle_gamma   90.00000000
_symmetry_Int_Tables_number   1
_chemical_formula_structural   LiTb2Co8TcP6
_chemical_formula_sum   'Li2 Tb4 Co16 Tc2 P12'
_cell_volume   453.97030772
_cell_formula_units_Z   2
loop_
 _symmetry_equiv_pos_site_id
 _symmetry_equiv_pos_as_xyz
  1  'x, y, z'
loop_
 _atom_site_type_symbol
 _atom_site_label
 _atom_site_symmetry_multiplicity
 _atom_site_fract_x
 _atom_site_fract_y
 _atom_site_fract_z
 _atom_site_occupancy
  Li  Li0  1  0.750000  0.296035  0.009401  1
  Li  Li1  1  0.750000  0.203965  0.509401  1
  Tb  Tb2  1  0.250000  0.582832  0.703155  1
  Tb  Tb3  1  0.250000  0.917168  0.203155  1
  Tb  Tb4  1  0.750000  0.416642  0.295756  1
  Tb  Tb5  1  0.750000  0.083358  0.795756  1
  Co  Co6  1  0.250000  0.409271  0.488116  1
  Co  Co7  1  0.250000  0.090729  0.988116  1
  Co  Co8  1  0.750000  0.594260  0.510696  1
  Co  Co9  1  0.750000  0.905740  0.010696  1
  Co  Co10  1  0.250000  0.217993  0.175740  1
  Co  Co11  1  0.250000  0.282007  0.675740  1
  Co  Co12  1  0.750000  0.777561  0.823292  1
  Co  Co13  1  0.750000  0.722439  0.323292  1
  Co  Co14  1  0.250000  0.884846  0.701727  1
  Co  Co15  1  0.250000  0.615154  0.201727  1
  Co  Co16  1  0.750000  0.116918  0.301249  1
  Co  Co17  1  0.750000  0.383082  0.801249  1
  Co  Co18  1  0.250000  0.464521  0.933077  1
  Co  Co19  1  0.250000  0.035479  0.433077  1
  Co  Co20  1  0.750000  0.533637  0.069463  1
  Co  Co21  1  0.750000  0.966363  0.569463  1
  Tc  Tc22  1  0.250000  0.708779  0.989828  1
  Tc  Tc23  1  0.250000  0.791221  0.489828  1
  P  P24  1  0.250000  0.418630  0.114119  1
  P  P25  1  0.250000  0.081370  0.614119  1
  P  P26  1  0.750000  0.577082  0.888036  1
  P  P27  1  0.750000  0.922918  0.388036  1
  P  P28  1  0.250000  0.271096  0.863686  1
  P  P29  1  0.250000  0.228904  0.363686  1
  P  P30  1  0.750000  0.729121  0.132989  1
  P  P31  1  0.750000  0.770879  0.632989  1
  P  P32  1  0.250000  0.597682  0.391951  1
  P  P33  1  0.250000  0.902318  0.891951  1
  P  P34  1  0.750000  0.398624  0.607719  1
  P  P35  1  0.750000  0.101376  0.107719  1
