# generated using pymatgen
data_Th(SCl6)2
_symmetry_space_group_name_H-M   'P 1'
_cell_length_a   8.68531841
_cell_length_b   8.68531810
_cell_length_c   8.68531986
_cell_angle_alpha   78.25379044
_cell_angle_beta   78.25378784
_cell_angle_gamma   78.25379030
_symmetry_Int_Tables_number   1
_chemical_formula_structural   Th(SCl6)2
_chemical_formula_sum   'Th1 S2 Cl12'
_cell_volume   618.97327685
_cell_formula_units_Z   1
loop_
 _symmetry_equiv_pos_site_id
 _symmetry_equiv_pos_as_xyz
  1  'x, y, z'
loop_
 _atom_site_type_symbol
 _atom_site_label
 _atom_site_symmetry_multiplicity
 _atom_site_fract_x
 _atom_site_fract_y
 _atom_site_fract_z
 _atom_site_occupancy
  Th  Th0  1  0.000000  0.000000  0.000000  1
  S  S1  1  0.209886  0.209886  0.209886  1
  S  S2  1  0.790114  0.790114  0.790114  1
  Cl  Cl3  1  0.834021  0.834021  0.548268  1
  Cl  Cl4  1  0.863935  0.204492  0.204492  1
  Cl  Cl5  1  0.204492  0.204492  0.863935  1
  Cl  Cl6  1  0.204492  0.863935  0.204492  1
  Cl  Cl7  1  0.795508  0.136065  0.795508  1
  Cl  Cl8  1  0.136065  0.795508  0.795508  1
  Cl  Cl9  1  0.795508  0.795508  0.136065  1
  Cl  Cl10  1  0.451732  0.165979  0.165979  1
  Cl  Cl11  1  0.165979  0.165979  0.451732  1
  Cl  Cl12  1  0.165979  0.451732  0.165979  1
  Cl  Cl13  1  0.834021  0.548268  0.834021  1
  Cl  Cl14  1  0.548268  0.834021  0.834021  1
