# generated using pymatgen
data_Dy3Y9InCo4Rh
_symmetry_space_group_name_H-M   'P 1'
_cell_length_a   8.33593493
_cell_length_b   8.34130142
_cell_length_c   8.33593591
_cell_angle_alpha   110.90361609
_cell_angle_beta   110.47600058
_cell_angle_gamma   107.03583475
_symmetry_Int_Tables_number   1
_chemical_formula_structural   Dy3Y9InCo4Rh
_chemical_formula_sum   'Dy3 Y9 In1 Co4 Rh1'
_cell_volume   445.72700037
_cell_formula_units_Z   1
loop_
 _symmetry_equiv_pos_site_id
 _symmetry_equiv_pos_as_xyz
  1  'x, y, z'
loop_
 _atom_site_type_symbol
 _atom_site_label
 _atom_site_symmetry_multiplicity
 _atom_site_fract_x
 _atom_site_fract_y
 _atom_site_fract_z
 _atom_site_occupancy
  Dy  Dy0  1  0.685933  0.380104  0.694171  1
  Dy  Dy1  1  0.313961  0.007649  0.693688  1
  Dy  Dy2  1  0.685912  0.991841  0.305929  1
  Y  Y3  1  0.406845  0.211667  0.194319  1
  Y  Y4  1  0.593629  0.788100  0.805614  1
  Y  Y5  1  0.017349  0.211667  0.804821  1
  Y  Y6  1  0.982485  0.788100  0.194472  1
  Y  Y7  1  0.187102  0.292418  0.479905  1
  Y  Y8  1  0.813213  0.707421  0.520412  1
  Y  Y9  1  0.187010  0.707421  0.894208  1
  Y  Y10  1  0.812513  0.292418  0.105317  1
  Y  Y11  1  0.314157  0.618200  0.304043  1
  In  In12  1  0.499922  0.500066  0.000144  1
  Co  Co13  1  0.382505  0.001546  0.382912  1
  Co  Co14  1  0.618634  0.001546  0.619041  1
  Co  Co15  1  0.110773  0.611690  0.500917  1
  Co  Co16  1  0.887941  0.387752  0.499811  1
  Rh  Rh17  1  0.000117  0.000394  0.000277  1
