# generated using pymatgen
data_CaNd6FeCl12
_symmetry_space_group_name_H-M   'P 1'
_cell_length_a   9.12124285
_cell_length_b   9.34453877
_cell_length_c   9.12724474
_cell_angle_alpha   107.44320664
_cell_angle_beta   106.22029215
_cell_angle_gamma   107.09616274
_symmetry_Int_Tables_number   1
_chemical_formula_structural   CaNd6FeCl12
_chemical_formula_sum   'Ca1 Nd6 Fe1 Cl12'
_cell_volume   649.23400968
_cell_formula_units_Z   1
loop_
 _symmetry_equiv_pos_site_id
 _symmetry_equiv_pos_as_xyz
  1  'x, y, z'
loop_
 _atom_site_type_symbol
 _atom_site_label
 _atom_site_symmetry_multiplicity
 _atom_site_fract_x
 _atom_site_fract_y
 _atom_site_fract_z
 _atom_site_occupancy
  Ca  Ca0  1  0.500000  0.500000  0.500000  1
  Nd  Nd1  1  0.310732  0.110627  0.020161  1
  Nd  Nd2  1  0.020290  0.322426  0.118164  1
  Nd  Nd3  1  0.110183  0.022630  0.310401  1
  Nd  Nd4  1  0.889817  0.977370  0.689600  1
  Nd  Nd5  1  0.979710  0.677575  0.881837  1
  Nd  Nd6  1  0.689269  0.889373  0.979840  1
  Fe  Fe7  1  0.000000  0.000000  0.000000  1
  Cl  Cl8  1  0.679428  0.206200  0.069244  1
  Cl  Cl9  1  0.368758  0.452972  0.169453  1
  Cl  Cl10  1  0.070964  0.686028  0.207845  1
  Cl  Cl11  1  0.789059  0.931309  0.319859  1
  Cl  Cl12  1  0.456752  0.175865  0.371385  1
  Cl  Cl13  1  0.168916  0.370214  0.459095  1
  Cl  Cl14  1  0.831084  0.629787  0.540905  1
  Cl  Cl15  1  0.543248  0.824136  0.628615  1
  Cl  Cl16  1  0.210942  0.068692  0.680141  1
  Cl  Cl17  1  0.929036  0.313972  0.792156  1
  Cl  Cl18  1  0.631243  0.547028  0.830547  1
  Cl  Cl19  1  0.320573  0.793800  0.930756  1
