# generated using pymatgen
data_Zr8Mn7Si14W
_symmetry_space_group_name_H-M   'P 1'
_cell_length_a   9.71491949
_cell_length_b   9.70855234
_cell_length_c   9.68854065
_cell_angle_alpha   94.04351093
_cell_angle_beta   94.07858958
_cell_angle_gamma   149.17086851
_symmetry_Int_Tables_number   1
_chemical_formula_structural   Zr8Mn7Si14W
_chemical_formula_sum   'Zr8 Mn7 Si14 W1'
_cell_volume   451.37656705
_cell_formula_units_Z   1
loop_
 _symmetry_equiv_pos_site_id
 _symmetry_equiv_pos_as_xyz
  1  'x, y, z'
loop_
 _atom_site_type_symbol
 _atom_site_label
 _atom_site_symmetry_multiplicity
 _atom_site_fract_x
 _atom_site_fract_y
 _atom_site_fract_z
 _atom_site_occupancy
  Zr  Zr0  1  0.139795  0.139795  0.279591  1
  Zr  Zr1  1  0.862918  0.862918  0.725835  1
  Zr  Zr2  1  0.860222  0.136694  0.001042  1
  Zr  Zr3  1  0.140820  0.864348  0.001042  1
  Zr  Zr4  1  0.492125  0.296400  0.803274  1
  Zr  Zr5  1  0.496697  0.692676  0.198374  1
  Zr  Zr6  1  0.701677  0.505698  0.198374  1
  Zr  Zr7  1  0.311149  0.506874  0.803274  1
  Mn  Mn8  1  0.106407  0.606407  0.212812  1
  Mn  Mn9  1  0.106415  0.893306  0.502082  1
  Mn  Mn10  1  0.395667  0.608776  0.502082  1
  Mn  Mn11  1  0.597414  0.399550  0.497536  1
  Mn  Mn12  1  0.900122  0.097986  0.497536  1
  Mn  Mn13  1  0.898329  0.398329  0.796660  1
  Mn  Mn14  1  0.599172  0.099172  0.198343  1
  Si  Si15  1  0.541747  0.136246  0.583104  1
  Si  Si16  1  0.527975  0.934850  0.407748  1
  Si  Si17  1  0.879773  0.472898  0.407748  1
  Si  Si18  1  0.041357  0.446857  0.583104  1
  Si  Si19  1  0.749530  0.750107  0.002018  1
  Si  Si20  1  0.252488  0.251911  0.002018  1
  Si  Si21  1  0.290343  0.290343  0.580686  1
  Si  Si22  1  0.710950  0.710950  0.421902  1
  Si  Si23  1  0.723545  0.306350  0.003656  1
  Si  Si24  1  0.280111  0.697306  0.003656  1
  Si  Si25  1  0.987691  0.284659  0.297465  1
  Si  Si26  1  0.967927  0.679290  0.703163  1
  Si  Si27  1  0.735236  0.023873  0.703163  1
  Si  Si28  1  0.309774  0.012806  0.297465  1
  W  W29  1  0.392625  0.892625  0.785251  1
