# generated using pymatgen
data_Ho3Tm3Sc2(Co4P3)4
_symmetry_space_group_name_H-M   'P 1'
_cell_length_a   3.70611500
_cell_length_b   10.62564501
_cell_length_c   12.30638401
_cell_angle_alpha   89.99543776
_cell_angle_beta   90.00000000
_cell_angle_gamma   90.00000000
_symmetry_Int_Tables_number   1
_chemical_formula_structural   Ho3Tm3Sc2(Co4P3)4
_chemical_formula_sum   'Ho3 Tm3 Sc2 Co16 P12'
_cell_volume   484.62370680
_cell_formula_units_Z   1
loop_
 _symmetry_equiv_pos_site_id
 _symmetry_equiv_pos_as_xyz
  1  'x, y, z'
loop_
 _atom_site_type_symbol
 _atom_site_label
 _atom_site_symmetry_multiplicity
 _atom_site_fract_x
 _atom_site_fract_y
 _atom_site_fract_z
 _atom_site_occupancy
  Ho  Ho0  1  0.000000  0.500014  0.528181  1
  Ho  Ho1  1  0.500000  0.000023  0.471860  1
  Ho  Ho2  1  0.500000  0.822838  0.205693  1
  Tm  Tm3  1  0.500000  0.177252  0.205633  1
  Tm  Tm4  1  0.000000  0.677169  0.794376  1
  Tm  Tm5  1  0.000000  0.322834  0.794343  1
  Sc  Sc6  1  0.500000  0.499886  0.157949  1
  Sc  Sc7  1  0.000000  0.999996  0.842053  1
  Co  Co8  1  0.500000  0.499974  0.705386  1
  Co  Co9  1  0.000000  0.000480  0.294846  1
  Co  Co10  1  0.000000  0.499959  0.987467  1
  Co  Co11  1  0.500000  0.000157  0.012371  1
  Co  Co12  1  0.500000  0.331190  0.994549  1
  Co  Co13  1  0.500000  0.668683  0.994428  1
  Co  Co14  1  0.000000  0.168862  0.005424  1
  Co  Co15  1  0.000000  0.831188  0.005220  1
  Co  Co16  1  0.500000  0.295317  0.432988  1
  Co  Co17  1  0.500000  0.704624  0.433156  1
  Co  Co18  1  0.000000  0.204696  0.567017  1
  Co  Co19  1  0.000000  0.795317  0.567055  1
  Co  Co20  1  0.500000  0.877146  0.702680  1
  Co  Co21  1  0.500000  0.122873  0.702660  1
  Co  Co22  1  0.000000  0.622524  0.297487  1
  Co  Co23  1  0.000000  0.377141  0.297326  1
  P  P24  1  0.500000  0.500004  0.884981  1
  P  P25  1  0.000000  0.000410  0.114717  1
  P  P26  1  0.500000  0.500056  0.361072  1
  P  P27  1  0.000000  0.999997  0.638917  1
  P  P28  1  0.500000  0.310478  0.616147  1
  P  P29  1  0.500000  0.689497  0.616158  1
  P  P30  1  0.000000  0.189549  0.383857  1
  P  P31  1  0.000000  0.810335  0.384335  1
  P  P32  1  0.500000  0.838640  0.891662  1
  P  P33  1  0.500000  0.161337  0.891614  1
  P  P34  1  0.000000  0.660899  0.108022  1
  P  P35  1  0.000000  0.338656  0.108372  1
