# generated using pymatgen
data_Pr2HoCo2P6Ru7
_symmetry_space_group_name_H-M   'P 1'
_cell_length_a   3.92831500
_cell_length_b   10.97043100
_cell_length_c   12.82106300
_cell_angle_alpha   90.00000000
_cell_angle_beta   90.00000000
_cell_angle_gamma   90.00000000
_symmetry_Int_Tables_number   1
_chemical_formula_structural   Pr2HoCo2P6Ru7
_chemical_formula_sum   'Pr4 Ho2 Co4 P12 Ru14'
_cell_volume   552.52766725
_cell_formula_units_Z   2
loop_
 _symmetry_equiv_pos_site_id
 _symmetry_equiv_pos_as_xyz
  1  'x, y, z'
loop_
 _atom_site_type_symbol
 _atom_site_label
 _atom_site_symmetry_multiplicity
 _atom_site_fract_x
 _atom_site_fract_y
 _atom_site_fract_z
 _atom_site_occupancy
  Pr  Pr0  1  0.000000  0.500000  0.524716  1
  Pr  Pr1  1  0.500000  0.000000  0.472240  1
  Pr  Pr2  1  0.000000  0.681275  0.797983  1
  Pr  Pr3  1  0.000000  0.318725  0.797983  1
  Ho  Ho4  1  0.500000  0.822079  0.203051  1
  Ho  Ho5  1  0.500000  0.177921  0.203051  1
  Co  Co6  1  0.000000  0.500000  0.992618  1
  Co  Co7  1  0.500000  0.000000  0.014505  1
  Co  Co8  1  0.000000  0.161339  0.011996  1
  Co  Co9  1  0.000000  0.838661  0.011996  1
  P  P10  1  0.500000  0.302945  0.613092  1
  P  P11  1  0.500000  0.697055  0.613092  1
  P  P12  1  0.000000  0.195941  0.381161  1
  P  P13  1  0.000000  0.804059  0.381161  1
  P  P14  1  0.500000  0.500000  0.892861  1
  P  P15  1  0.000000  0.000000  0.112933  1
  P  P16  1  0.500000  0.854394  0.898697  1
  P  P17  1  0.500000  0.145606  0.898697  1
  P  P18  1  0.000000  0.657502  0.101587  1
  P  P19  1  0.000000  0.342498  0.101587  1
  P  P20  1  0.500000  0.500000  0.332834  1
  P  P21  1  0.000000  0.000000  0.665991  1
  Ru  Ru22  1  0.500000  0.298025  0.425639  1
  Ru  Ru23  1  0.500000  0.701975  0.425639  1
  Ru  Ru24  1  0.000000  0.199977  0.570211  1
  Ru  Ru25  1  0.000000  0.800023  0.570211  1
  Ru  Ru26  1  0.500000  0.879167  0.716068  1
  Ru  Ru27  1  0.500000  0.120833  0.716068  1
  Ru  Ru28  1  0.000000  0.623753  0.280013  1
  Ru  Ru29  1  0.000000  0.376247  0.280013  1
  Ru  Ru30  1  0.500000  0.325192  0.996115  1
  Ru  Ru31  1  0.500000  0.674808  0.996115  1
  Ru  Ru32  1  0.500000  0.500000  0.152102  1
  Ru  Ru33  1  0.000000  0.000000  0.852018  1
  Ru  Ru34  1  0.500000  0.500000  0.701324  1
  Ru  Ru35  1  0.000000  0.000000  0.294626  1
