# generated using pymatgen
data_CePr3Pa2(Al3Ru)8
_symmetry_space_group_name_H-M   'P 1'
_cell_length_a   8.86087500
_cell_length_b   8.87171020
_cell_length_c   9.65745100
_cell_angle_alpha   90.00000000
_cell_angle_beta   90.00000000
_cell_angle_gamma   119.95960355
_symmetry_Int_Tables_number   1
_chemical_formula_structural   CePr3Pa2(Al3Ru)8
_chemical_formula_sum   'Ce1 Pr3 Pa2 Al24 Ru8'
_cell_volume   657.73922519
_cell_formula_units_Z   1
loop_
 _symmetry_equiv_pos_site_id
 _symmetry_equiv_pos_as_xyz
  1  'x, y, z'
loop_
 _atom_site_type_symbol
 _atom_site_label
 _atom_site_symmetry_multiplicity
 _atom_site_fract_x
 _atom_site_fract_y
 _atom_site_fract_z
 _atom_site_occupancy
  Ce  Ce0  1  0.195628  0.391257  0.250000  1
  Pr  Pr1  1  0.809518  0.619035  0.750000  1
  Pr  Pr2  1  0.380323  0.190222  0.750000  1
  Pr  Pr3  1  0.809898  0.190222  0.750000  1
  Pa  Pa4  1  0.200117  0.803297  0.250000  1
  Pa  Pa5  1  0.603180  0.803297  0.250000  1
  Al  Al6  1  0.332291  0.664584  0.482792  1
  Al  Al7  1  0.666336  0.332671  0.986922  1
  Al  Al8  1  0.666336  0.332671  0.513078  1
  Al  Al9  1  0.332291  0.664584  0.017208  1
  Al  Al10  1  0.163660  0.327319  0.572914  1
  Al  Al11  1  0.672849  0.836304  0.572747  1
  Al  Al12  1  0.163456  0.836304  0.572747  1
  Al  Al13  1  0.838498  0.162723  0.080057  1
  Al  Al14  1  0.838498  0.162723  0.419943  1
  Al  Al15  1  0.838568  0.677136  0.080901  1
  Al  Al16  1  0.324226  0.162723  0.080057  1
  Al  Al17  1  0.672849  0.836304  0.927253  1
  Al  Al18  1  0.163660  0.327319  0.927086  1
  Al  Al19  1  0.838568  0.677136  0.419099  1
  Al  Al20  1  0.998054  0.996106  0.250000  1
  Al  Al21  1  0.999376  0.998753  0.750000  1
  Al  Al22  1  0.564727  0.129454  0.250000  1
  Al  Al23  1  0.437646  0.561697  0.750000  1
  Al  Al24  1  0.124051  0.561697  0.750000  1
  Al  Al25  1  0.875111  0.437302  0.250000  1
  Al  Al26  1  0.562190  0.437302  0.250000  1
  Al  Al27  1  0.437932  0.875865  0.750000  1
  Al  Al28  1  0.163456  0.836304  0.927253  1
  Al  Al29  1  0.324226  0.162723  0.419943  1
  Ru  Ru30  1  0.000357  0.000713  0.499720  1
  Ru  Ru31  1  0.000357  0.000713  0.000280  1
  Ru  Ru32  1  0.496498  0.992997  0.487845  1
  Ru  Ru33  1  0.500115  0.504386  0.008679  1
  Ru  Ru34  1  0.004271  0.504386  0.008679  1
  Ru  Ru35  1  0.004271  0.504386  0.491321  1
  Ru  Ru36  1  0.500115  0.504386  0.491321  1
  Ru  Ru37  1  0.496498  0.992997  0.012155  1
