# generated using pymatgen
data_Lu7OsRhSe2
_symmetry_space_group_name_H-M   'P 1'
_cell_length_a   8.92515882
_cell_length_b   8.94603669
_cell_length_c   8.94603789
_cell_angle_alpha   155.23158838
_cell_angle_beta   119.04440255
_cell_angle_gamma   66.84121089
_symmetry_Int_Tables_number   1
_chemical_formula_structural   Lu7OsRhSe2
_chemical_formula_sum   'Lu7 Os1 Rh1 Se2'
_cell_volume   259.40795050
_cell_formula_units_Z   1
loop_
 _symmetry_equiv_pos_site_id
 _symmetry_equiv_pos_as_xyz
  1  'x, y, z'
loop_
 _atom_site_type_symbol
 _atom_site_label
 _atom_site_symmetry_multiplicity
 _atom_site_fract_x
 _atom_site_fract_y
 _atom_site_fract_z
 _atom_site_occupancy
  Lu  Lu0  1  0.541831  0.125661  0.416170  1
  Lu  Lu1  1  0.289135  0.873862  0.415274  1
  Lu  Lu2  1  0.947105  0.315220  0.631885  1
  Lu  Lu3  1  0.311106  0.683226  0.627880  1
  Lu  Lu4  1  0.612458  0.358212  0.254246  1
  Lu  Lu5  1  0.903097  0.641529  0.261569  1
  Lu  Lu6  1  0.001163  0.000776  0.000387  1
  Os  Os7  1  0.168785  0.237991  0.930794  1
  Rh  Rh8  1  0.693318  0.762852  0.930466  1
  Se  Se9  1  0.263465  0.500947  0.762517  1
  Se  Se10  1  0.659395  0.999725  0.659670  1
