# generated using pymatgen
data_La2Pr5Nd(MoO6)4
_symmetry_space_group_name_H-M   'P 1'
_cell_length_a   10.31430314
_cell_length_b   10.31430463
_cell_length_c   5.63726340
_cell_angle_alpha   75.28977697
_cell_angle_beta   75.28977754
_cell_angle_gamma   68.71890829
_symmetry_Int_Tables_number   1
_chemical_formula_structural   La2Pr5Nd(MoO6)4
_chemical_formula_sum   'La2 Pr5 Nd1 Mo4 O24'
_cell_volume   531.73045481
_cell_formula_units_Z   1
loop_
 _symmetry_equiv_pos_site_id
 _symmetry_equiv_pos_as_xyz
  1  'x, y, z'
loop_
 _atom_site_type_symbol
 _atom_site_label
 _atom_site_symmetry_multiplicity
 _atom_site_fract_x
 _atom_site_fract_y
 _atom_site_fract_z
 _atom_site_occupancy
  La  La0  1  0.634240  0.365760  0.750000  1
  La  La1  1  0.365130  0.634870  0.250000  1
  Pr  Pr2  1  0.890761  0.109239  0.250000  1
  Pr  Pr3  1  0.712282  0.943230  0.882108  1
  Pr  Pr4  1  0.287814  0.056331  0.118144  1
  Pr  Pr5  1  0.056770  0.287718  0.617892  1
  Pr  Pr6  1  0.943669  0.712186  0.381856  1
  Nd  Nd7  1  0.108769  0.891231  0.750000  1
  Mo  Mo8  1  0.507829  0.798900  0.558881  1
  Mo  Mo9  1  0.491948  0.201150  0.441392  1
  Mo  Mo10  1  0.201100  0.492171  0.941119  1
  Mo  Mo11  1  0.798850  0.508052  0.058608  1
  O  O12  1  0.685881  0.162925  0.584332  1
  O  O13  1  0.313068  0.837229  0.417668  1
  O  O14  1  0.837075  0.314119  0.915668  1
  O  O15  1  0.162771  0.686932  0.082332  1
  O  O16  1  0.385314  0.829290  0.856562  1
  O  O17  1  0.614654  0.170654  0.143628  1
  O  O18  1  0.170710  0.614686  0.643438  1
  O  O19  1  0.829346  0.385346  0.356372  1
  O  O20  1  0.674503  0.788316  0.635712  1
  O  O21  1  0.325465  0.211769  0.364203  1
  O  O22  1  0.211684  0.325497  0.864288  1
  O  O23  1  0.788231  0.674535  0.135797  1
  O  O24  1  0.473890  0.071524  0.733787  1
  O  O25  1  0.525953  0.928350  0.266190  1
  O  O26  1  0.928476  0.526110  0.766213  1
  O  O27  1  0.071650  0.474047  0.233810  1
  O  O28  1  0.545027  0.618942  0.518215  1
  O  O29  1  0.454886  0.381183  0.481666  1
  O  O30  1  0.381058  0.454973  0.981785  1
  O  O31  1  0.618817  0.545114  0.018334  1
  O  O32  1  0.892650  0.923021  0.077377  1
  O  O33  1  0.108381  0.075633  0.920806  1
  O  O34  1  0.076979  0.107350  0.422623  1
  O  O35  1  0.924367  0.891619  0.579194  1
