# generated using pymatgen
data_K2Rb4HoLuF12
_symmetry_space_group_name_H-M   'P 1'
_cell_length_a   6.72430324
_cell_length_b   6.53673822
_cell_length_c   11.34605506
_cell_angle_alpha   55.13499483
_cell_angle_beta   90.02214579
_cell_angle_gamma   89.99507886
_symmetry_Int_Tables_number   1
_chemical_formula_structural   K2Rb4HoLuF12
_chemical_formula_sum   'K2 Rb4 Ho1 Lu1 F12'
_cell_volume   409.19697559
_cell_formula_units_Z   1
loop_
 _symmetry_equiv_pos_site_id
 _symmetry_equiv_pos_as_xyz
  1  'x, y, z'
loop_
 _atom_site_type_symbol
 _atom_site_label
 _atom_site_symmetry_multiplicity
 _atom_site_fract_x
 _atom_site_fract_y
 _atom_site_fract_z
 _atom_site_occupancy
  K  K0  1  0.500000  0.500000  0.000000  1
  K  K1  1  0.000000  0.500000  0.500000  1
  Rb  Rb2  1  0.043606  0.735020  0.753203  1
  Rb  Rb3  1  0.956394  0.264980  0.246797  1
  Rb  Rb4  1  0.544194  0.262946  0.748810  1
  Rb  Rb5  1  0.455806  0.737054  0.251190  1
  Ho  Ho6  1  0.500000  0.000000  0.500000  1
  Lu  Lu7  1  0.000000  0.000000  0.000000  1
  F  F8  1  0.763699  0.766880  0.553733  1
  F  F9  1  0.236301  0.233120  0.446267  1
  F  F10  1  0.258259  0.228439  0.947505  1
  F  F11  1  0.741741  0.771561  0.052495  1
  F  F12  1  0.462505  0.862761  0.724790  1
  F  F13  1  0.537495  0.137239  0.275210  1
  F  F14  1  0.963298  0.134296  0.779940  1
  F  F15  1  0.036702  0.865704  0.220060  1
  F  F16  1  0.316211  0.692473  0.538659  1
  F  F17  1  0.683789  0.307527  0.461341  1
  F  F18  1  0.819471  0.301081  0.962200  1
  F  F19  1  0.180529  0.698919  0.037800  1
