# generated using pymatgen
data_TbMo3(PO4)4
_symmetry_space_group_name_H-M   'P 1'
_cell_length_a   4.88708304
_cell_length_b   7.05659016
_cell_length_c   9.08200706
_cell_angle_alpha   90.00962610
_cell_angle_beta   90.23531940
_cell_angle_gamma   89.87149369
_symmetry_Int_Tables_number   1
_chemical_formula_structural   TbMo3(PO4)4
_chemical_formula_sum   'Tb1 Mo3 P4 O16'
_cell_volume   313.19995256
_cell_formula_units_Z   1
loop_
 _symmetry_equiv_pos_site_id
 _symmetry_equiv_pos_as_xyz
  1  'x, y, z'
loop_
 _atom_site_type_symbol
 _atom_site_label
 _atom_site_symmetry_multiplicity
 _atom_site_fract_x
 _atom_site_fract_y
 _atom_site_fract_z
 _atom_site_occupancy
  Tb  Tb0  1  0.000000  0.000000  0.000000  1
  Mo  Mo1  1  0.500000  0.500000  0.500000  1
  Mo  Mo2  1  0.000000  0.500000  0.000000  1
  Mo  Mo3  1  0.500000  0.000000  0.500000  1
  P  P4  1  0.989692  0.745537  0.673785  1
  P  P5  1  0.493633  0.257302  0.818667  1
  P  P6  1  0.010308  0.254463  0.326215  1
  P  P7  1  0.506367  0.742698  0.181333  1
  O  O8  1  0.146051  0.435651  0.379627  1
  O  O9  1  0.653780  0.564444  0.129752  1
  O  O10  1  0.849655  0.931176  0.628688  1
  O  O11  1  0.371897  0.070380  0.871260  1
  O  O12  1  0.853949  0.564349  0.620373  1
  O  O13  1  0.346220  0.435556  0.870248  1
  O  O14  1  0.150345  0.068824  0.371312  1
  O  O15  1  0.628103  0.929620  0.128740  1
  O  O16  1  0.201437  0.733875  0.124730  1
  O  O17  1  0.705604  0.249655  0.385256  1
  O  O18  1  0.798563  0.266125  0.875270  1
  O  O19  1  0.294396  0.750345  0.614744  1
  O  O20  1  0.525351  0.747615  0.355535  1
  O  O21  1  0.016897  0.259767  0.152567  1
  O  O22  1  0.474649  0.252385  0.644465  1
  O  O23  1  0.983103  0.740233  0.847433  1
