# generated using pymatgen
data_Mg7In9(BIr4)2
_symmetry_space_group_name_H-M   'P 1'
_cell_length_a   8.71270667
_cell_length_b   8.81800325
_cell_length_c   8.70948443
_cell_angle_alpha   60.57802223
_cell_angle_beta   59.98775171
_cell_angle_gamma   60.39422029
_symmetry_Int_Tables_number   1
_chemical_formula_structural   Mg7In9(BIr4)2
_chemical_formula_sum   'Mg7 In9 B2 Ir8'
_cell_volume   476.55174331
_cell_formula_units_Z   1
loop_
 _symmetry_equiv_pos_site_id
 _symmetry_equiv_pos_as_xyz
  1  'x, y, z'
loop_
 _atom_site_type_symbol
 _atom_site_label
 _atom_site_symmetry_multiplicity
 _atom_site_fract_x
 _atom_site_fract_y
 _atom_site_fract_z
 _atom_site_occupancy
  Mg  Mg0  1  0.125349  0.122885  0.626416  1
  Mg  Mg1  1  0.126966  0.624130  0.121940  1
  Mg  Mg2  1  0.543893  0.545187  0.952561  1
  Mg  Mg3  1  0.958359  0.545187  0.952561  1
  Mg  Mg4  1  0.125543  0.126760  0.124249  1
  Mg  Mg5  1  0.623448  0.126760  0.124249  1
  Mg  Mg6  1  0.293659  0.703899  0.708784  1
  In  In7  1  0.958903  0.949103  0.548825  1
  In  In8  1  0.301861  0.702319  0.290971  1
  In  In9  1  0.698627  0.304738  0.704455  1
  In  In10  1  0.292180  0.304738  0.704455  1
  In  In11  1  0.706588  0.302693  0.284133  1
  In  In12  1  0.704848  0.702319  0.290971  1
  In  In13  1  0.949130  0.549482  0.552257  1
  In  In14  1  0.552570  0.948006  0.946854  1
  In  In15  1  0.543170  0.949103  0.548825  1
  B  B16  1  0.252158  0.242417  0.253267  1
  B  B17  1  0.997398  0.006023  0.999181  1
  Ir  Ir18  1  0.903109  0.899304  0.905078  1
  Ir  Ir19  1  0.901065  0.296450  0.901422  1
  Ir  Ir20  1  0.292509  0.899304  0.905078  1
  Ir  Ir21  1  0.345516  0.350048  0.958919  1
  Ir  Ir22  1  0.955431  0.349500  0.348645  1
  Ir  Ir23  1  0.901968  0.899622  0.296443  1
  Ir  Ir24  1  0.349330  0.950526  0.350814  1
  Ir  Ir25  1  0.346423  0.349500  0.348645  1
