# generated using pymatgen
data_Nd5Pa(Ni3As2)6
_symmetry_space_group_name_H-M   'P 1'
_cell_length_a   3.97645100
_cell_length_b   10.95426405
_cell_length_c   12.86975400
_cell_angle_alpha   89.91863502
_cell_angle_beta   90.00000000
_cell_angle_gamma   90.00000523
_symmetry_Int_Tables_number   1
_chemical_formula_structural   Nd5Pa(Ni3As2)6
_chemical_formula_sum   'Nd5 Pa1 Ni18 As12'
_cell_volume   560.59426178
_cell_formula_units_Z   1
loop_
 _symmetry_equiv_pos_site_id
 _symmetry_equiv_pos_as_xyz
  1  'x, y, z'
loop_
 _atom_site_type_symbol
 _atom_site_label
 _atom_site_symmetry_multiplicity
 _atom_site_fract_x
 _atom_site_fract_y
 _atom_site_fract_z
 _atom_site_occupancy
  Nd  Nd0  1  0.000000  0.500149  0.518853  1
  Nd  Nd1  1  0.500000  0.999943  0.480138  1
  Nd  Nd2  1  0.500000  0.185546  0.206027  1
  Nd  Nd3  1  0.000000  0.687513  0.793682  1
  Nd  Nd4  1  0.000000  0.313292  0.794464  1
  Pa  Pa5  1  0.500001  0.815086  0.208502  1
  Ni  Ni6  1  0.500000  0.500837  0.152385  1
  Ni  Ni7  1  0.000000  0.001079  0.848016  1
  Ni  Ni8  1  0.499999  0.500499  0.697708  1
  Ni  Ni9  1  0.000000  0.992924  0.299751  1
  Ni  Ni10  1  0.000000  0.501739  0.980611  1
  Ni  Ni11  1  0.500000  0.996944  0.023850  1
  Ni  Ni12  1  0.500000  0.334623  0.996810  1
  Ni  Ni13  1  0.500000  0.668801  0.000003  1
  Ni  Ni14  1  0.000000  0.165708  0.004168  1
  Ni  Ni15  1  0.000000  0.833508  0.003206  1
  Ni  Ni16  1  0.500000  0.301519  0.423654  1
  Ni  Ni17  1  0.500001  0.695282  0.416241  1
  Ni  Ni18  1  0.000000  0.195898  0.575770  1
  Ni  Ni19  1  0.000000  0.805336  0.578199  1
  Ni  Ni20  1  0.500000  0.882204  0.709586  1
  Ni  Ni21  1  0.500000  0.119143  0.710331  1
  Ni  Ni22  1  0.000001  0.622823  0.287871  1
  Ni  Ni23  1  0.999999  0.381838  0.289364  1
  As  As24  1  0.500000  0.501791  0.877086  1
  As  As25  1  0.000000  0.997304  0.122886  1
  As  As26  1  0.500000  0.496719  0.337350  1
  As  As27  1  0.000000  0.001249  0.662301  1
  As  As28  1  0.500000  0.311248  0.611321  1
  As  As29  1  0.500000  0.689575  0.609579  1
  As  As30  1  0.000000  0.186560  0.387813  1
  As  As31  1  0.000000  0.809529  0.391162  1
  As  As32  1  0.500000  0.851288  0.894123  1
  As  As33  1  0.500000  0.148846  0.896002  1
  As  As34  1  0.000000  0.653647  0.105952  1
  As  As35  1  0.000000  0.350011  0.105232  1
