# generated using pymatgen
data_Er3Cd3Hg2Pt
_symmetry_space_group_name_H-M   'P 1'
_cell_length_a   8.01651600
_cell_length_b   8.01651643
_cell_length_c   3.80642600
_cell_angle_alpha   90.00000000
_cell_angle_beta   90.00000000
_cell_angle_gamma   119.99999823
_symmetry_Int_Tables_number   1
_chemical_formula_structural   Er3Cd3Hg2Pt
_chemical_formula_sum   'Er3 Cd3 Hg2 Pt1'
_cell_volume   211.84556731
_cell_formula_units_Z   1
loop_
 _symmetry_equiv_pos_site_id
 _symmetry_equiv_pos_as_xyz
  1  'x, y, z'
loop_
 _atom_site_type_symbol
 _atom_site_label
 _atom_site_symmetry_multiplicity
 _atom_site_fract_x
 _atom_site_fract_y
 _atom_site_fract_z
 _atom_site_occupancy
  Er  Er0  1  0.578434  0.967515  0.000000  1
  Er  Er1  1  0.032485  0.610919  0.000000  1
  Er  Er2  1  0.389081  0.421566  0.000000  1
  Cd  Cd3  1  0.276310  0.002654  0.500000  1
  Cd  Cd4  1  0.997346  0.273656  0.500000  1
  Cd  Cd5  1  0.726344  0.723690  0.500000  1
  Hg  Hg6  1  0.666667  0.333333  0.500000  1
  Hg  Hg7  1  0.000000  0.000000  0.000000  1
  Pt  Pt8  1  0.333333  0.666667  0.500000  1
