# generated using pymatgen
data_HfSc2(SnIr)3
_symmetry_space_group_name_H-M   'P 1'
_cell_length_a   7.60171411
_cell_length_b   7.63272223
_cell_length_c   3.42505300
_cell_angle_alpha   90.00000000
_cell_angle_beta   90.00000000
_cell_angle_gamma   120.13501971
_symmetry_Int_Tables_number   1
_chemical_formula_structural   HfSc2(SnIr)3
_chemical_formula_sum   'Hf1 Sc2 Sn3 Ir3'
_cell_volume   171.86855695
_cell_formula_units_Z   1
loop_
 _symmetry_equiv_pos_site_id
 _symmetry_equiv_pos_as_xyz
  1  'x, y, z'
loop_
 _atom_site_type_symbol
 _atom_site_label
 _atom_site_symmetry_multiplicity
 _atom_site_fract_x
 _atom_site_fract_y
 _atom_site_fract_z
 _atom_site_occupancy
  Hf  Hf0  1  0.000000  0.609076  0.500000  1
  Sc  Sc1  1  0.390161  0.391086  0.500000  1
  Sc  Sc2  1  0.609839  0.000925  0.500000  1
  Sn  Sn3  1  0.715743  0.723043  0.000000  1
  Sn  Sn4  1  0.284257  0.007299  0.000000  1
  Sn  Sn5  1  0.000000  0.269323  0.000000  1
  Ir  Ir6  1  0.678482  0.343649  0.000000  1
  Ir  Ir7  1  0.321518  0.665167  0.000000  1
  Ir  Ir8  1  0.000000  0.990431  0.500000  1
