# generated using pymatgen
data_Ca4Tb3SmCd8
_symmetry_space_group_name_H-M   'P 1'
_cell_length_a   7.53235200
_cell_length_b   7.55268100
_cell_length_c   7.49193700
_cell_angle_alpha   90.00000000
_cell_angle_beta   90.00005325
_cell_angle_gamma   90.00000000
_symmetry_Int_Tables_number   1
_chemical_formula_structural   Ca4Tb3SmCd8
_chemical_formula_sum   'Ca4 Tb3 Sm1 Cd8'
_cell_volume   426.21218912
_cell_formula_units_Z   1
loop_
 _symmetry_equiv_pos_site_id
 _symmetry_equiv_pos_as_xyz
  1  'x, y, z'
loop_
 _atom_site_type_symbol
 _atom_site_label
 _atom_site_symmetry_multiplicity
 _atom_site_fract_x
 _atom_site_fract_y
 _atom_site_fract_z
 _atom_site_occupancy
  Ca  Ca0  1  0.749546  0.250000  0.000123  1
  Ca  Ca1  1  0.249534  0.750000  0.499878  1
  Ca  Ca2  1  0.750454  0.250000  0.500121  1
  Ca  Ca3  1  0.250466  0.750000  0.999877  1
  Tb  Tb4  1  0.749300  0.750000  0.000001  1
  Tb  Tb5  1  0.750715  0.750000  0.499986  1
  Tb  Tb6  1  0.249294  0.250000  0.500013  1
  Sm  Sm7  1  0.250759  0.250000  0.999999  1
  Cd  Cd8  1  0.999372  0.500979  0.249529  1
  Cd  Cd9  1  0.999372  0.999023  0.249529  1
  Cd  Cd10  1  0.501025  0.999266  0.252226  1
  Cd  Cd11  1  0.501025  0.500734  0.252226  1
  Cd  Cd12  1  0.500607  0.500991  0.747772  1
  Cd  Cd13  1  0.500607  0.999011  0.747772  1
  Cd  Cd14  1  0.998962  0.999261  0.750475  1
  Cd  Cd15  1  0.998962  0.500739  0.750475  1
