# generated using pymatgen
data_Ho10IrOs2Rh
_symmetry_space_group_name_H-M   'P 1'
_cell_length_a   6.42357884
_cell_length_b   7.26837690
_cell_length_c   8.41399786
_cell_angle_alpha   96.54420704
_cell_angle_beta   112.41105749
_cell_angle_gamma   90.06070404
_symmetry_Int_Tables_number   1
_chemical_formula_structural   Ho10IrOs2Rh
_chemical_formula_sum   'Ho10 Ir1 Os2 Rh1'
_cell_volume   360.38047822
_cell_formula_units_Z   1
loop_
 _symmetry_equiv_pos_site_id
 _symmetry_equiv_pos_as_xyz
  1  'x, y, z'
loop_
 _atom_site_type_symbol
 _atom_site_label
 _atom_site_symmetry_multiplicity
 _atom_site_fract_x
 _atom_site_fract_y
 _atom_site_fract_z
 _atom_site_occupancy
  Ho  Ho0  1  0.970107  0.916382  0.180023  1
  Ho  Ho1  1  0.789665  0.584146  0.820171  1
  Ho  Ho2  1  0.026246  0.081101  0.816797  1
  Ho  Ho3  1  0.210127  0.418527  0.184387  1
  Ho  Ho4  1  0.654060  0.817191  0.440482  1
  Ho  Ho5  1  0.213117  0.683647  0.559220  1
  Ho  Ho6  1  0.348931  0.180134  0.560543  1
  Ho  Ho7  1  0.785547  0.318488  0.437686  1
  Ho  Ho8  1  0.426847  0.750682  0.000341  1
  Ho  Ho9  1  0.577042  0.249540  0.000723  1
  Ir  Ir10  1  0.392737  0.075754  0.219626  1
  Os  Os11  1  0.825443  0.573208  0.218330  1
  Os  Os12  1  0.607578  0.926433  0.782063  1
  Rh  Rh13  1  0.172553  0.424767  0.779607  1
