# generated using pymatgen
data_La12Ir(PdI4)3
_symmetry_space_group_name_H-M   'P 1'
_cell_length_a   11.13183946
_cell_length_b   11.01198681
_cell_length_c   11.01411160
_cell_angle_alpha   109.31283960
_cell_angle_beta   109.47268437
_cell_angle_gamma   109.81881269
_symmetry_Int_Tables_number   1
_chemical_formula_structural   La12Ir(PdI4)3
_chemical_formula_sum   'La12 Ir1 Pd3 I12'
_cell_volume   1036.87729186
_cell_formula_units_Z   1
loop_
 _symmetry_equiv_pos_site_id
 _symmetry_equiv_pos_as_xyz
  1  'x, y, z'
loop_
 _atom_site_type_symbol
 _atom_site_label
 _atom_site_symmetry_multiplicity
 _atom_site_fract_x
 _atom_site_fract_y
 _atom_site_fract_z
 _atom_site_occupancy
  La  La0  1  0.461980  0.486848  0.227381  1
  La  La1  1  0.749533  0.231463  0.267730  1
  La  La2  1  0.750244  0.018388  0.481406  1
  La  La3  1  0.230890  0.462900  0.481488  1
  La  La4  1  0.265480  0.740635  0.227259  1
  La  La5  1  0.037960  0.273165  0.012933  1
  La  La6  1  0.018514  0.036042  0.267550  1
  La  La7  1  0.474989  0.739414  0.012861  1
  La  La8  1  0.481977  0.232355  0.464535  1
  La  La9  1  0.025020  0.487149  0.760339  1
  La  La10  1  0.268705  0.018547  0.036950  1
  La  La11  1  0.234852  0.272913  0.759801  1
  Ir  Ir12  1  0.250044  0.499923  0.000095  1
  Pd  Pd13  1  0.250319  0.250514  0.250402  1
  Pd  Pd14  1  0.500409  0.001135  0.250629  1
  Pd  Pd15  1  0.999335  0.249667  0.499062  1
  I  I16  1  0.250339  0.760459  0.739810  1
  I  I17  1  0.519273  0.508197  0.758375  1
  I  I18  1  0.980636  0.741217  0.991993  1
  I  I19  1  0.738941  0.249867  0.758110  1
  I  I20  1  0.989459  0.979232  0.739824  1
  I  I21  1  0.249524  0.991546  0.508138  1
  I  I22  1  0.758382  0.515889  0.507867  1
  I  I23  1  0.511354  0.250935  0.992057  1
  I  I24  1  0.760931  0.741681  0.249680  1
  I  I25  1  0.741882  0.991856  0.983842  1
  I  I26  1  0.988765  0.507864  0.249267  1
  I  I27  1  0.510263  0.760200  0.520617  1
