# generated using pymatgen
data_Ti6TcP4
_symmetry_space_group_name_H-M   'P 1'
_cell_length_a   7.42253299
_cell_length_b   7.42253421
_cell_length_c   13.43796753
_cell_angle_alpha   75.98567591
_cell_angle_beta   75.98567272
_cell_angle_gamma   26.65919712
_symmetry_Int_Tables_number   1
_chemical_formula_structural   Ti6TcP4
_chemical_formula_sum   'Ti12 Tc2 P8'
_cell_volume   321.73144739
_cell_formula_units_Z   2
loop_
 _symmetry_equiv_pos_site_id
 _symmetry_equiv_pos_as_xyz
  1  'x, y, z'
loop_
 _atom_site_type_symbol
 _atom_site_label
 _atom_site_symmetry_multiplicity
 _atom_site_fract_x
 _atom_site_fract_y
 _atom_site_fract_z
 _atom_site_occupancy
  Ti  Ti0  1  0.430680  0.430680  0.169563  1
  Ti  Ti1  1  0.569320  0.569320  0.830437  1
  Ti  Ti2  1  0.196721  0.196721  0.690667  1
  Ti  Ti3  1  0.803279  0.803279  0.309333  1
  Ti  Ti4  1  0.207149  0.207149  0.205272  1
  Ti  Ti5  1  0.792851  0.792851  0.794728  1
  Ti  Ti6  1  0.340939  0.340939  0.967904  1
  Ti  Ti7  1  0.659061  0.659061  0.032096  1
  Ti  Ti8  1  0.003587  0.003587  0.339170  1
  Ti  Ti9  1  0.996413  0.996413  0.660830  1
  Ti  Ti10  1  0.176578  0.176578  0.459704  1
  Ti  Ti11  1  0.823422  0.823422  0.540296  1
  Tc  Tc12  1  0.000000  0.000000  0.000000  1
  Tc  Tc13  1  0.500000  0.500000  0.500000  1
  P  P14  1  0.177099  0.177099  0.889992  1
  P  P15  1  0.822901  0.822901  0.110008  1
  P  P16  1  0.372530  0.372530  0.396099  1
  P  P17  1  0.627470  0.627470  0.603901  1
  P  P18  1  0.370294  0.370294  0.659284  1
  P  P19  1  0.629706  0.629706  0.340716  1
  P  P20  1  0.061269  0.061269  0.150770  1
  P  P21  1  0.938731  0.938731  0.849230  1
