# generated using pymatgen
data_Nd12Ru(RhBr4)3
_symmetry_space_group_name_H-M   'P 1'
_cell_length_a   10.43283585
_cell_length_b   10.43283484
_cell_length_c   10.43283502
_cell_angle_alpha   109.42357448
_cell_angle_beta   109.42357727
_cell_angle_gamma   109.42357634
_symmetry_Int_Tables_number   1
_chemical_formula_structural   Nd12Ru(RhBr4)3
_chemical_formula_sum   'Nd12 Ru1 Rh3 Br12'
_cell_volume   875.68697646
_cell_formula_units_Z   1
loop_
 _symmetry_equiv_pos_site_id
 _symmetry_equiv_pos_as_xyz
  1  'x, y, z'
loop_
 _atom_site_type_symbol
 _atom_site_label
 _atom_site_symmetry_multiplicity
 _atom_site_fract_x
 _atom_site_fract_y
 _atom_site_fract_z
 _atom_site_occupancy
  Nd  Nd0  1  0.265705  0.750000  0.234295  1
  Nd  Nd1  1  0.484865  0.750000  0.015135  1
  Nd  Nd2  1  0.236115  0.468751  0.481974  1
  Nd  Nd3  1  0.018026  0.031249  0.263885  1
  Nd  Nd4  1  0.234295  0.265705  0.750000  1
  Nd  Nd5  1  0.015135  0.484865  0.750000  1
  Nd  Nd6  1  0.481974  0.236115  0.468751  1
  Nd  Nd7  1  0.263885  0.018026  0.031249  1
  Nd  Nd8  1  0.750000  0.234295  0.265705  1
  Nd  Nd9  1  0.750000  0.015135  0.484865  1
  Nd  Nd10  1  0.468751  0.481974  0.236115  1
  Nd  Nd11  1  0.031249  0.263885  0.018026  1
  Ru  Ru12  1  0.250000  0.250000  0.250000  1
  Rh  Rh13  1  0.500723  0.999277  0.250000  1
  Rh  Rh14  1  0.250000  0.500723  0.999277  1
  Rh  Rh15  1  0.999277  0.250000  0.500723  1
  Br  Br16  1  0.250000  0.993977  0.506023  1
  Br  Br17  1  0.512150  0.506166  0.756156  1
  Br  Br18  1  0.250000  0.755390  0.744610  1
  Br  Br19  1  0.987850  0.743844  0.993834  1
  Br  Br20  1  0.993977  0.506023  0.250000  1
  Br  Br21  1  0.743844  0.993834  0.987850  1
  Br  Br22  1  0.755390  0.744610  0.250000  1
  Br  Br23  1  0.506166  0.756156  0.512150  1
  Br  Br24  1  0.506023  0.250000  0.993977  1
  Br  Br25  1  0.756156  0.512150  0.506166  1
  Br  Br26  1  0.744610  0.250000  0.755390  1
  Br  Br27  1  0.993834  0.987850  0.743844  1
