# generated using pymatgen
data_As8Ir3Rh
_symmetry_space_group_name_H-M   'P 1'
_cell_length_a   6.15361116
_cell_length_b   6.14559170
_cell_length_c   6.24511102
_cell_angle_alpha   66.77915003
_cell_angle_beta   90.01940693
_cell_angle_gamma   89.99136963
_symmetry_Int_Tables_number   1
_chemical_formula_structural   As8Ir3Rh
_chemical_formula_sum   'As8 Ir3 Rh1'
_cell_volume   217.04289093
_cell_formula_units_Z   1
loop_
 _symmetry_equiv_pos_site_id
 _symmetry_equiv_pos_as_xyz
  1  'x, y, z'
loop_
 _atom_site_type_symbol
 _atom_site_label
 _atom_site_symmetry_multiplicity
 _atom_site_fract_x
 _atom_site_fract_y
 _atom_site_fract_z
 _atom_site_occupancy
  As  As0  1  0.870618  0.658531  0.684318  1
  As  As1  1  0.369719  0.338222  0.815442  1
  As  As2  1  0.129158  0.338781  0.316897  1
  As  As3  1  0.630565  0.665203  0.182237  1
  As  As4  1  0.127133  0.842151  0.874908  1
  As  As5  1  0.626468  0.153942  0.625735  1
  As  As6  1  0.872233  0.154095  0.127507  1
  As  As7  1  0.373369  0.849078  0.372465  1
  Ir  Ir8  1  0.500502  0.727184  0.790763  1
  Ir  Ir9  1  0.999468  0.269853  0.709644  1
  Ir  Ir10  1  0.500191  0.274996  0.207674  1
  Rh  Rh11  1  0.000575  0.727964  0.292408  1
