# generated using pymatgen
data_Fe12MoW11N2
_symmetry_space_group_name_H-M   'P 1'
_cell_length_a   7.71013048
_cell_length_b   7.71514978
_cell_length_c   7.71514855
_cell_angle_alpha   60.01661035
_cell_angle_beta   60.02152377
_cell_angle_gamma   60.02152222
_symmetry_Int_Tables_number   1
_chemical_formula_structural   Fe12MoW11N2
_chemical_formula_sum   'Fe12 Mo1 W11 N2'
_cell_volume   324.66174322
_cell_formula_units_Z   1
loop_
 _symmetry_equiv_pos_site_id
 _symmetry_equiv_pos_as_xyz
  1  'x, y, z'
loop_
 _atom_site_type_symbol
 _atom_site_label
 _atom_site_symmetry_multiplicity
 _atom_site_fract_x
 _atom_site_fract_y
 _atom_site_fract_z
 _atom_site_occupancy
  Fe  Fe0  1  0.920349  0.238983  0.920320  1
  Fe  Fe1  1  0.329557  0.011312  0.329573  1
  Fe  Fe2  1  0.329414  0.329512  0.329512  1
  Fe  Fe3  1  0.011561  0.329512  0.329512  1
  Fe  Fe4  1  0.920349  0.920320  0.238983  1
  Fe  Fe5  1  0.239096  0.920419  0.920419  1
  Fe  Fe6  1  0.329557  0.329573  0.011312  1
  Fe  Fe7  1  0.125003  0.124894  0.625099  1
  Fe  Fe8  1  0.920068  0.920419  0.920419  1
  Fe  Fe9  1  0.125003  0.625099  0.124894  1
  Fe  Fe10  1  0.124964  0.124963  0.124963  1
  Fe  Fe11  1  0.625111  0.124963  0.124963  1
  Mo  Mo12  1  0.301896  0.698104  0.698104  1
  W  W13  1  0.301908  0.302213  0.698070  1
  W  W14  1  0.551114  0.948733  0.551759  1
  W  W15  1  0.948138  0.551862  0.551862  1
  W  W16  1  0.551629  0.948371  0.948371  1
  W  W17  1  0.698771  0.301229  0.301229  1
  W  W18  1  0.948393  0.551759  0.948733  1
  W  W19  1  0.301908  0.698070  0.302213  1
  W  W20  1  0.551114  0.551759  0.948733  1
  W  W21  1  0.697809  0.302213  0.698070  1
  W  W22  1  0.697809  0.698070  0.302213  1
  W  W23  1  0.948393  0.948733  0.551759  1
  N  N24  1  0.750021  0.749979  0.749979  1
  N  N25  1  0.501064  0.498936  0.498936  1
