# generated using pymatgen
data_Sr2Tm3Bi4
_symmetry_space_group_name_H-M   'P 1'
_cell_length_a   8.65419100
_cell_length_b   8.50848900
_cell_length_c   15.79995200
_cell_angle_alpha   90.00000000
_cell_angle_beta   90.00000000
_cell_angle_gamma   90.00000000
_symmetry_Int_Tables_number   1
_chemical_formula_structural   Sr2Tm3Bi4
_chemical_formula_sum   'Sr8 Tm12 Bi16'
_cell_volume   1163.41507062
_cell_formula_units_Z   4
loop_
 _symmetry_equiv_pos_site_id
 _symmetry_equiv_pos_as_xyz
  1  'x, y, z'
loop_
 _atom_site_type_symbol
 _atom_site_label
 _atom_site_symmetry_multiplicity
 _atom_site_fract_x
 _atom_site_fract_y
 _atom_site_fract_z
 _atom_site_occupancy
  Sr  Sr0  1  0.027154  0.174075  0.093999  1
  Sr  Sr1  1  0.527154  0.325925  0.406001  1
  Sr  Sr2  1  0.472846  0.674075  0.906001  1
  Sr  Sr3  1  0.972846  0.825925  0.593999  1
  Sr  Sr4  1  0.972846  0.825925  0.906001  1
  Sr  Sr5  1  0.472846  0.674075  0.593999  1
  Sr  Sr6  1  0.527154  0.325925  0.093999  1
  Sr  Sr7  1  0.027154  0.174075  0.406001  1
  Tm  Tm8  1  0.853872  0.646855  0.125774  1
  Tm  Tm9  1  0.353872  0.853145  0.374226  1
  Tm  Tm10  1  0.646128  0.146855  0.874226  1
  Tm  Tm11  1  0.146128  0.353145  0.625774  1
  Tm  Tm12  1  0.146128  0.353145  0.874226  1
  Tm  Tm13  1  0.646128  0.146855  0.625774  1
  Tm  Tm14  1  0.353872  0.853145  0.125774  1
  Tm  Tm15  1  0.853872  0.646855  0.374226  1
  Tm  Tm16  1  0.695546  0.996875  0.250000  1
  Tm  Tm17  1  0.195546  0.503125  0.250000  1
  Tm  Tm18  1  0.804454  0.496875  0.750000  1
  Tm  Tm19  1  0.304454  0.003125  0.750000  1
  Bi  Bi20  1  0.053672  0.852123  0.250000  1
  Bi  Bi21  1  0.553672  0.647877  0.250000  1
  Bi  Bi22  1  0.446328  0.352123  0.750000  1
  Bi  Bi23  1  0.946328  0.147877  0.750000  1
  Bi  Bi24  1  0.848670  0.347023  0.250000  1
  Bi  Bi25  1  0.348670  0.152977  0.250000  1
  Bi  Bi26  1  0.651330  0.847023  0.750000  1
  Bi  Bi27  1  0.151330  0.652977  0.750000  1
  Bi  Bi28  1  0.799525  0.452813  0.951221  1
  Bi  Bi29  1  0.299525  0.047187  0.548779  1
  Bi  Bi30  1  0.700475  0.952813  0.048779  1
  Bi  Bi31  1  0.200475  0.547187  0.451221  1
  Bi  Bi32  1  0.200475  0.547187  0.048779  1
  Bi  Bi33  1  0.700475  0.952813  0.451221  1
  Bi  Bi34  1  0.299525  0.047187  0.951221  1
  Bi  Bi35  1  0.799525  0.452813  0.548779  1
