# generated using pymatgen
data_La4Ga2Rh3
_symmetry_space_group_name_H-M   'P 1'
_cell_length_a   7.47315500
_cell_length_b   7.59795756
_cell_length_c   4.24874300
_cell_angle_alpha   90.00000000
_cell_angle_beta   90.00000000
_cell_angle_gamma   119.45811448
_symmetry_Int_Tables_number   1
_chemical_formula_structural   La4Ga2Rh3
_chemical_formula_sum   'La4 Ga2 Rh3'
_cell_volume   210.05719593
_cell_formula_units_Z   1
loop_
 _symmetry_equiv_pos_site_id
 _symmetry_equiv_pos_as_xyz
  1  'x, y, z'
loop_
 _atom_site_type_symbol
 _atom_site_label
 _atom_site_symmetry_multiplicity
 _atom_site_fract_x
 _atom_site_fract_y
 _atom_site_fract_z
 _atom_site_occupancy
  La  La0  1  0.241668  0.000000  0.000000  1
  La  La1  1  0.619564  0.000000  0.500000  1
  La  La2  1  0.424122  0.450976  0.500000  1
  La  La3  1  0.973146  0.549024  0.500000  1
  Ga  Ga4  1  0.752161  0.749663  0.000000  1
  Ga  Ga5  1  0.002498  0.250337  0.000000  1
  Rh  Rh6  1  0.972579  0.000000  0.500000  1
  Rh  Rh7  1  0.332926  0.651590  0.000000  1
  Rh  Rh8  1  0.681338  0.348410  0.000000  1
