# generated using pymatgen
data_V5Si2B4W5
_symmetry_space_group_name_H-M   'P 1'
_cell_length_a   6.90014271
_cell_length_b   6.90014235
_cell_length_c   6.89852310
_cell_angle_alpha   129.27534379
_cell_angle_beta   129.27533826
_cell_angle_gamma   74.85610162
_symmetry_Int_Tables_number   1
_chemical_formula_structural   V5Si2B4W5
_chemical_formula_sum   'V5 Si2 B4 W5'
_cell_volume   191.41735556
_cell_formula_units_Z   1
loop_
 _symmetry_equiv_pos_site_id
 _symmetry_equiv_pos_as_xyz
  1  'x, y, z'
loop_
 _atom_site_type_symbol
 _atom_site_label
 _atom_site_symmetry_multiplicity
 _atom_site_fract_x
 _atom_site_fract_y
 _atom_site_fract_z
 _atom_site_occupancy
  V  V0  1  0.471297  0.303639  0.499948  1
  V  V1  1  0.803639  0.971297  0.499948  1
  V  V2  1  0.303635  0.803635  0.834571  1
  V  V3  1  0.004624  0.001845  0.000267  1
  V  V4  1  0.501845  0.504624  0.000267  1
  Si  Si5  1  0.246114  0.238162  0.996507  1
  Si  Si6  1  0.738162  0.746114  0.996507  1
  B  B7  1  0.620764  0.120764  0.735777  1
  B  B8  1  0.128375  0.379579  0.503598  1
  B  B9  1  0.879579  0.628375  0.503598  1
  B  B10  1  0.385288  0.885288  0.262749  1
  W  W11  1  0.529234  0.691082  0.498252  1
  W  W12  1  0.029890  0.529890  0.837068  1
  W  W13  1  0.692404  0.192404  0.162498  1
  W  W14  1  0.974067  0.474067  0.170193  1
  W  W15  1  0.191082  0.029234  0.498252  1
