# generated using pymatgen
data_Y4Lu6Ru3Rh
_symmetry_space_group_name_H-M   'P 1'
_cell_length_a   6.25030641
_cell_length_b   7.27744353
_cell_length_c   8.38543792
_cell_angle_alpha   97.11151197
_cell_angle_beta   111.99354168
_cell_angle_gamma   90.16338704
_symmetry_Int_Tables_number   1
_chemical_formula_structural   Y4Lu6Ru3Rh
_chemical_formula_sum   'Y4 Lu6 Ru3 Rh1'
_cell_volume   350.44143632
_cell_formula_units_Z   1
loop_
 _symmetry_equiv_pos_site_id
 _symmetry_equiv_pos_as_xyz
  1  'x, y, z'
loop_
 _atom_site_type_symbol
 _atom_site_label
 _atom_site_symmetry_multiplicity
 _atom_site_fract_x
 _atom_site_fract_y
 _atom_site_fract_z
 _atom_site_occupancy
  Y  Y0  1  0.524134  0.082722  0.809708  1
  Y  Y1  1  0.476779  0.919256  0.188653  1
  Y  Y2  1  0.715624  0.417301  0.189874  1
  Y  Y3  1  0.284551  0.581927  0.805267  1
  Lu  Lu4  1  0.299207  0.311623  0.435101  1
  Lu  Lu5  1  0.703034  0.686095  0.568225  1
  Lu  Lu6  1  0.863319  0.184827  0.565837  1
  Lu  Lu7  1  0.133922  0.818029  0.435486  1
  Lu  Lu8  1  0.079854  0.248359  0.998289  1
  Lu  Lu9  1  0.918544  0.750691  0.999833  1
  Ru  Ru10  1  0.684540  0.425341  0.777151  1
  Ru  Ru11  1  0.095553  0.923540  0.778650  1
  Ru  Ru12  1  0.907999  0.076201  0.222416  1
  Rh  Rh13  1  0.312938  0.574088  0.225511  1
