# generated using pymatgen
data_Li8La7PrSn3Bi5
_symmetry_space_group_name_H-M   'P 1'
_cell_length_a   9.81468450
_cell_length_b   9.81142339
_cell_length_c   7.77087530
_cell_angle_alpha   89.99999824
_cell_angle_beta   89.88881992
_cell_angle_gamma   119.98900840
_symmetry_Int_Tables_number   1
_chemical_formula_structural   Li8La7PrSn3Bi5
_chemical_formula_sum   'Li8 La7 Pr1 Sn3 Bi5'
_cell_volume   648.12076186
_cell_formula_units_Z   1
loop_
 _symmetry_equiv_pos_site_id
 _symmetry_equiv_pos_as_xyz
  1  'x, y, z'
loop_
 _atom_site_type_symbol
 _atom_site_label
 _atom_site_symmetry_multiplicity
 _atom_site_fract_x
 _atom_site_fract_y
 _atom_site_fract_z
 _atom_site_occupancy
  Li  Li0  1  0.829064  0.165618  0.717781  1
  Li  Li1  1  0.829064  0.663445  0.717781  1
  Li  Li2  1  0.338735  0.169367  0.715626  1
  Li  Li3  1  0.169438  0.831629  0.215772  1
  Li  Li4  1  0.169438  0.337810  0.215772  1
  Li  Li5  1  0.661152  0.830576  0.213289  1
  Li  Li6  1  0.665807  0.332902  0.334469  1
  Li  Li7  1  0.337570  0.668785  0.832822  1
  La  La8  1  0.489390  0.518335  0.507681  1
  La  La9  1  0.489390  0.971056  0.507681  1
  La  La10  1  0.024720  0.512361  0.505896  1
  La  La11  1  0.515180  0.491326  0.003504  1
  La  La12  1  0.515180  0.023855  0.003504  1
  La  La13  1  0.974832  0.487416  0.004594  1
  La  La14  1  0.994681  0.997341  0.500922  1
  Pr  Pr15  1  0.993462  0.996732  0.996113  1
  Sn  Sn16  1  0.668404  0.834202  0.767076  1
  Sn  Sn17  1  0.667992  0.333995  0.734905  1
  Sn  Sn18  1  0.332837  0.666419  0.235262  1
  Bi  Bi19  1  0.834234  0.166797  0.265089  1
  Bi  Bi20  1  0.834234  0.667437  0.265089  1
  Bi  Bi21  1  0.332973  0.166487  0.265427  1
  Bi  Bi22  1  0.166110  0.833355  0.765974  1
  Bi  Bi23  1  0.166110  0.332755  0.765974  1
