# generated using pymatgen
data_K2Si8Pb4O21
_symmetry_space_group_name_H-M   'P 1'
_cell_length_a   7.09043702
_cell_length_b   7.44340058
_cell_length_c   11.87209977
_cell_angle_alpha   96.79045109
_cell_angle_beta   103.73158169
_cell_angle_gamma   111.12245570
_symmetry_Int_Tables_number   1
_chemical_formula_structural   K2Si8Pb4O21
_chemical_formula_sum   'K2 Si8 Pb4 O21'
_cell_volume   553.22702236
_cell_formula_units_Z   1
loop_
 _symmetry_equiv_pos_site_id
 _symmetry_equiv_pos_as_xyz
  1  'x, y, z'
loop_
 _atom_site_type_symbol
 _atom_site_label
 _atom_site_symmetry_multiplicity
 _atom_site_fract_x
 _atom_site_fract_y
 _atom_site_fract_z
 _atom_site_occupancy
  K  K0  1  0.735181  0.707255  0.434217  1
  K  K1  1  0.264819  0.292745  0.565783  1
  Si  Si2  1  0.090785  0.226482  0.870263  1
  Si  Si3  1  0.909215  0.773518  0.129737  1
  Si  Si4  1  0.177917  0.897484  0.737477  1
  Si  Si5  1  0.822083  0.102516  0.262523  1
  Si  Si6  1  0.663969  0.195956  0.471123  1
  Si  Si7  1  0.336031  0.804044  0.528877  1
  Si  Si8  1  0.879007  0.456146  0.730164  1
  Si  Si9  1  0.120993  0.543854  0.269836  1
  Pb  Pb10  1  0.648165  0.778437  0.815498  1
  Pb  Pb11  1  0.351835  0.221563  0.184502  1
  Pb  Pb12  1  0.364346  0.718707  0.055001  1
  Pb  Pb13  1  0.635654  0.281293  0.944999  1
  O  O14  1  0.500000  0.000000  0.500000  1
  O  O15  1  0.847337  0.336230  0.596799  1
  O  O16  1  0.152663  0.663770  0.403201  1
  O  O17  1  0.393870  0.932063  0.838243  1
  O  O18  1  0.606130  0.067937  0.161757  1
  O  O19  1  0.873429  0.111920  0.900791  1
  O  O20  1  0.126571  0.888080  0.099209  1
  O  O21  1  0.691162  0.693453  0.021004  1
  O  O22  1  0.308838  0.306547  0.978996  1
  O  O23  1  0.107280  0.084029  0.756210  1
  O  O24  1  0.892720  0.915971  0.243790  1
  O  O25  1  0.075534  0.424270  0.820597  1
  O  O26  1  0.924466  0.575730  0.179403  1
  O  O27  1  0.972311  0.696544  0.732811  1
  O  O28  1  0.027689  0.303456  0.267189  1
  O  O29  1  0.457345  0.687130  0.598330  1
  O  O30  1  0.542655  0.312870  0.401670  1
  O  O31  1  0.335947  0.603202  0.232268  1
  O  O32  1  0.664053  0.396798  0.767732  1
  O  O33  1  0.196897  0.885441  0.600753  1
  O  O34  1  0.803103  0.114559  0.399247  1
