# generated using pymatgen
data_YHo3(MoN3)4
_symmetry_space_group_name_H-M   'P 1'
_cell_length_a   7.32918539
_cell_length_b   7.32918511
_cell_length_c   6.27641641
_cell_angle_alpha   73.37740162
_cell_angle_beta   73.37739964
_cell_angle_gamma   81.30669965
_symmetry_Int_Tables_number   1
_chemical_formula_structural   YHo3(MoN3)4
_chemical_formula_sum   'Y1 Ho3 Mo4 N12'
_cell_volume   308.67638841
_cell_formula_units_Z   1
loop_
 _symmetry_equiv_pos_site_id
 _symmetry_equiv_pos_as_xyz
  1  'x, y, z'
loop_
 _atom_site_type_symbol
 _atom_site_label
 _atom_site_symmetry_multiplicity
 _atom_site_fract_x
 _atom_site_fract_y
 _atom_site_fract_z
 _atom_site_occupancy
  Y  Y0  1  0.293204  0.706796  0.750000  1
  Ho  Ho1  1  0.912174  0.087826  0.750000  1
  Ho  Ho2  1  0.707783  0.292217  0.250000  1
  Ho  Ho3  1  0.087483  0.912517  0.250000  1
  Mo  Mo4  1  0.800270  0.619262  0.773534  1
  Mo  Mo5  1  0.199466  0.380265  0.227133  1
  Mo  Mo6  1  0.619735  0.800534  0.272867  1
  Mo  Mo7  1  0.380738  0.199730  0.726466  1
  N  N8  1  0.218224  0.000743  0.847016  1
  N  N9  1  0.367244  0.345704  0.429750  1
  N  N10  1  0.633996  0.654133  0.569114  1
  N  N11  1  0.625373  0.112271  0.660627  1
  N  N12  1  0.999257  0.781776  0.652984  1
  N  N13  1  0.780991  0.000970  0.153486  1
  N  N14  1  0.112002  0.624862  0.162210  1
  N  N15  1  0.887729  0.374627  0.839373  1
  N  N16  1  0.999030  0.219009  0.346514  1
  N  N17  1  0.345867  0.366004  0.930886  1
  N  N18  1  0.654296  0.632756  0.070250  1
  N  N19  1  0.375138  0.887998  0.337790  1
