# generated using pymatgen
data_Th4FeP8Os7
_symmetry_space_group_name_H-M   'P 1'
_cell_length_a   4.15494800
_cell_length_b   7.58845013
_cell_length_c   10.50041763
_cell_angle_alpha   90.31873065
_cell_angle_beta   90.00000000
_cell_angle_gamma   90.00000000
_symmetry_Int_Tables_number   1
_chemical_formula_structural   Th4FeP8Os7
_chemical_formula_sum   'Th4 Fe1 P8 Os7'
_cell_volume   331.06900978
_cell_formula_units_Z   1
loop_
 _symmetry_equiv_pos_site_id
 _symmetry_equiv_pos_as_xyz
  1  'x, y, z'
loop_
 _atom_site_type_symbol
 _atom_site_label
 _atom_site_symmetry_multiplicity
 _atom_site_fract_x
 _atom_site_fract_y
 _atom_site_fract_z
 _atom_site_occupancy
  Th  Th0  1  0.250000  0.266085  0.668238  1
  Th  Th1  1  0.750000  0.732331  0.334745  1
  Th  Th2  1  0.250000  0.763428  0.827525  1
  Th  Th3  1  0.750000  0.234422  0.168398  1
  Fe  Fe4  1  0.750000  0.628494  0.628424  1
  P  P5  1  0.250000  0.092853  0.966746  1
  P  P6  1  0.750000  0.905504  0.031578  1
  P  P7  1  0.250000  0.594068  0.538521  1
  P  P8  1  0.750000  0.410693  0.474491  1
  P  P9  1  0.250000  0.531439  0.161528  1
  P  P10  1  0.750000  0.471430  0.837166  1
  P  P11  1  0.250000  0.030655  0.339268  1
  P  P12  1  0.750000  0.967019  0.659386  1
  Os  Os13  1  0.750000  0.112589  0.450341  1
  Os  Os14  1  0.250000  0.888939  0.550082  1
  Os  Os15  1  0.750000  0.610458  0.048797  1
  Os  Os16  1  0.250000  0.389211  0.947513  1
  Os  Os17  1  0.250000  0.870468  0.132752  1
  Os  Os18  1  0.750000  0.126971  0.866140  1
  Os  Os19  1  0.250000  0.372940  0.368361  1
