# generated using pymatgen
data_Nb3Sn2Mo3
_symmetry_space_group_name_H-M   'P 1'
_cell_length_a   5.22187499
_cell_length_b   5.22187599
_cell_length_c   5.22187498
_cell_angle_alpha   89.94158665
_cell_angle_beta   89.94159492
_cell_angle_gamma   89.94158366
_symmetry_Int_Tables_number   1
_chemical_formula_structural   Nb3Sn2Mo3
_chemical_formula_sum   'Nb3 Sn2 Mo3'
_cell_volume   142.38977939
_cell_formula_units_Z   1
loop_
 _symmetry_equiv_pos_site_id
 _symmetry_equiv_pos_as_xyz
  1  'x, y, z'
loop_
 _atom_site_type_symbol
 _atom_site_label
 _atom_site_symmetry_multiplicity
 _atom_site_fract_x
 _atom_site_fract_y
 _atom_site_fract_z
 _atom_site_occupancy
  Nb  Nb0  1  0.250182  0.999434  0.500406  1
  Nb  Nb1  1  0.999434  0.500406  0.250182  1
  Nb  Nb2  1  0.500406  0.250182  0.999434  1
  Sn  Sn3  1  0.998852  0.998852  0.998852  1
  Sn  Sn4  1  0.501016  0.501016  0.501016  1
  Mo  Mo5  1  0.750215  0.999760  0.500137  1
  Mo  Mo6  1  0.999760  0.500137  0.750215  1
  Mo  Mo7  1  0.500137  0.750215  0.999760  1
