# generated using pymatgen
data_Ta2AlB2Os5
_symmetry_space_group_name_H-M   'P 1'
_cell_length_a   9.37756700
_cell_length_b   9.37756700
_cell_length_c   3.00665700
_cell_angle_alpha   90.00000000
_cell_angle_beta   90.00000000
_cell_angle_gamma   90.00000000
_symmetry_Int_Tables_number   1
_chemical_formula_structural   Ta2AlB2Os5
_chemical_formula_sum   'Ta4 Al2 B4 Os10'
_cell_volume   264.40169686
_cell_formula_units_Z   2
loop_
 _symmetry_equiv_pos_site_id
 _symmetry_equiv_pos_as_xyz
  1  'x, y, z'
loop_
 _atom_site_type_symbol
 _atom_site_label
 _atom_site_symmetry_multiplicity
 _atom_site_fract_x
 _atom_site_fract_y
 _atom_site_fract_z
 _atom_site_occupancy
  Ta  Ta0  1  0.822253  0.677747  0.000000  1
  Ta  Ta1  1  0.177747  0.322253  0.000000  1
  Ta  Ta2  1  0.322253  0.822253  0.000000  1
  Ta  Ta3  1  0.677747  0.177747  0.000000  1
  Al  Al4  1  0.500000  0.500000  0.000000  1
  Al  Al5  1  0.000000  0.000000  0.000000  1
  B  B6  1  0.624769  0.875231  0.000000  1
  B  B7  1  0.375231  0.124769  0.000000  1
  B  B8  1  0.124769  0.624769  0.000000  1
  B  B9  1  0.875231  0.375231  0.000000  1
  Os  Os10  1  0.568341  0.714405  0.500000  1
  Os  Os11  1  0.431659  0.285595  0.500000  1
  Os  Os12  1  0.068341  0.785595  0.500000  1
  Os  Os13  1  0.931659  0.214405  0.500000  1
  Os  Os14  1  0.285595  0.568341  0.500000  1
  Os  Os15  1  0.714405  0.431659  0.500000  1
  Os  Os16  1  0.214405  0.068341  0.500000  1
  Os  Os17  1  0.785595  0.931659  0.500000  1
  Os  Os18  1  0.500000  0.000000  0.500000  1
  Os  Os19  1  0.000000  0.500000  0.500000  1
