# generated using pymatgen
data_Te4IrAu
_symmetry_space_group_name_H-M   'P 1'
_cell_length_a   4.09538500
_cell_length_b   5.36168560
_cell_length_c   7.58083578
_cell_angle_alpha   89.57490940
_cell_angle_beta   90.00000000
_cell_angle_gamma   90.00000000
_symmetry_Int_Tables_number   1
_chemical_formula_structural   Te4IrAu
_chemical_formula_sum   'Te4 Ir1 Au1'
_cell_volume   166.45667484
_cell_formula_units_Z   1
loop_
 _symmetry_equiv_pos_site_id
 _symmetry_equiv_pos_as_xyz
  1  'x, y, z'
loop_
 _atom_site_type_symbol
 _atom_site_label
 _atom_site_symmetry_multiplicity
 _atom_site_fract_x
 _atom_site_fract_y
 _atom_site_fract_z
 _atom_site_occupancy
  Te  Te0  1  0.500000  0.220069  0.182721  1
  Te  Te1  1  0.000000  0.281938  0.616898  1
  Te  Te2  1  0.500000  0.779931  0.817279  1
  Te  Te3  1  0.000000  0.718062  0.383102  1
  Ir  Ir4  1  0.500000  0.000000  0.500000  1
  Au  Au5  1  0.000000  0.000000  0.000000  1
