# generated using pymatgen
data_Tm8In4Ga7Sn
_symmetry_space_group_name_H-M   'P 1'
_cell_length_a   7.18377715
_cell_length_b   7.18377622
_cell_length_c   8.85826903
_cell_angle_alpha   89.99589255
_cell_angle_beta   89.99588918
_cell_angle_gamma   90.55338148
_symmetry_Int_Tables_number   1
_chemical_formula_structural   Tm8In4Ga7Sn
_chemical_formula_sum   'Tm8 In4 Ga7 Sn1'
_cell_volume   457.12424259
_cell_formula_units_Z   1
loop_
 _symmetry_equiv_pos_site_id
 _symmetry_equiv_pos_as_xyz
  1  'x, y, z'
loop_
 _atom_site_type_symbol
 _atom_site_label
 _atom_site_symmetry_multiplicity
 _atom_site_fract_x
 _atom_site_fract_y
 _atom_site_fract_z
 _atom_site_occupancy
  Tm  Tm0  1  0.823289  0.172416  0.503146  1
  Tm  Tm1  1  0.172416  0.823289  0.503146  1
  Tm  Tm2  1  0.333991  0.333991  0.994676  1
  Tm  Tm3  1  0.669998  0.669998  0.997082  1
  Tm  Tm4  1  0.669769  0.669769  0.502929  1
  Tm  Tm5  1  0.333845  0.333845  0.505435  1
  Tm  Tm6  1  0.172162  0.822079  0.996900  1
  Tm  Tm7  1  0.822079  0.172162  0.996900  1
  In  In8  1  0.511107  0.997586  0.250742  1
  In  In9  1  0.998851  0.499531  0.748685  1
  In  In10  1  0.499531  0.998851  0.748685  1
  In  In11  1  0.997586  0.511107  0.250742  1
  Ga  Ga12  1  0.626685  0.375784  0.250191  1
  Ga  Ga13  1  0.375784  0.626685  0.250191  1
  Ga  Ga14  1  0.126646  0.126646  0.750765  1
  Ga  Ga15  1  0.874009  0.874009  0.750054  1
  Ga  Ga16  1  0.372817  0.626139  0.750059  1
  Ga  Ga17  1  0.626139  0.372817  0.750059  1
  Ga  Ga18  1  0.866631  0.866631  0.250040  1
  Sn  Sn19  1  0.126664  0.126664  0.249573  1
