# generated using pymatgen
data_CuS2I
_symmetry_space_group_name_H-M   'P 1'
_cell_length_a   7.72215519
_cell_length_b   4.81359300
_cell_length_c   13.60382823
_cell_angle_alpha   90.00000000
_cell_angle_beta   113.95490070
_cell_angle_gamma   90.00000000
_symmetry_Int_Tables_number   1
_chemical_formula_structural   CuS2I
_chemical_formula_sum   'Cu4 S8 I4'
_cell_volume   462.11624234
_cell_formula_units_Z   4
loop_
 _symmetry_equiv_pos_site_id
 _symmetry_equiv_pos_as_xyz
  1  'x, y, z'
loop_
 _atom_site_type_symbol
 _atom_site_label
 _atom_site_symmetry_multiplicity
 _atom_site_fract_x
 _atom_site_fract_y
 _atom_site_fract_z
 _atom_site_occupancy
  Cu  Cu0  1  0.191858  0.375663  0.247786  1
  Cu  Cu1  1  0.808142  0.875663  0.252213  1
  Cu  Cu2  1  0.191858  0.124337  0.747786  1
  Cu  Cu3  1  0.808142  0.624337  0.752214  1
  S  S4  1  0.332113  0.059664  0.180548  1
  S  S5  1  0.574485  0.194434  0.183897  1
  S  S6  1  0.425514  0.694434  0.316104  1
  S  S7  1  0.667887  0.559664  0.319453  1
  S  S8  1  0.332113  0.440336  0.680548  1
  S  S9  1  0.574485  0.305566  0.683896  1
  S  S10  1  0.425514  0.805566  0.816104  1
  S  S11  1  0.667887  0.940336  0.819452  1
  I  I12  1  0.896753  0.628349  0.109054  1
  I  I13  1  0.103246  0.128349  0.390946  1
  I  I14  1  0.896754  0.871651  0.609054  1
  I  I15  1  0.103246  0.371651  0.890945  1
