# generated using pymatgen
data_TbYAl9ZnOs2
_symmetry_space_group_name_H-M   'P 1'
_cell_length_a   7.62745292
_cell_length_b   7.62752201
_cell_length_c   9.50689116
_cell_angle_alpha   90.00636818
_cell_angle_beta   90.01425870
_cell_angle_gamma   119.16225973
_symmetry_Int_Tables_number   1
_chemical_formula_structural   TbYAl9ZnOs2
_chemical_formula_sum   'Tb2 Y2 Al18 Zn2 Os4'
_cell_volume   482.98843164
_cell_formula_units_Z   2
loop_
 _symmetry_equiv_pos_site_id
 _symmetry_equiv_pos_as_xyz
  1  'x, y, z'
loop_
 _atom_site_type_symbol
 _atom_site_label
 _atom_site_symmetry_multiplicity
 _atom_site_fract_x
 _atom_site_fract_y
 _atom_site_fract_z
 _atom_site_occupancy
  Tb  Tb0  1  0.996629  0.680251  0.250020  1
  Tb  Tb1  1  0.003371  0.319749  0.749980  1
  Y  Y2  1  0.680085  0.996567  0.250099  1
  Y  Y3  1  0.319915  0.003433  0.749901  1
  Al  Al4  1  0.143175  0.143080  0.250040  1
  Al  Al5  1  0.856825  0.856920  0.749960  1
  Al  Al6  1  0.002599  0.348474  0.076784  1
  Al  Al7  1  0.997401  0.651526  0.923216  1
  Al  Al8  1  0.997359  0.651468  0.576765  1
  Al  Al9  1  0.348698  0.002752  0.423212  1
  Al  Al10  1  0.002641  0.348532  0.423235  1
  Al  Al11  1  0.651302  0.997248  0.576788  1
  Al  Al12  1  0.651231  0.997324  0.923209  1
  Al  Al13  1  0.348769  0.002676  0.076791  1
  Al  Al14  1  0.344616  0.344539  0.553665  1
  Al  Al15  1  0.655384  0.655461  0.446335  1
  Al  Al16  1  0.655346  0.655403  0.053744  1
  Al  Al17  1  0.344654  0.344597  0.946256  1
  Al  Al18  1  0.337472  0.555241  0.249931  1
  Al  Al19  1  0.662528  0.444759  0.750069  1
  Al  Al20  1  0.555261  0.337584  0.249955  1
  Al  Al21  1  0.444739  0.662416  0.750045  1
  Zn  Zn22  1  0.000000  0.000000  0.000000  1
  Zn  Zn23  1  0.000000  0.000000  0.500000  1
  Os  Os24  1  0.672317  0.327698  0.000021  1
  Os  Os25  1  0.327683  0.672302  0.999979  1
  Os  Os26  1  0.327762  0.672289  0.499977  1
  Os  Os27  1  0.672238  0.327711  0.500023  1
