# generated using pymatgen
data_Dy16Lu4Si15Rh
_symmetry_space_group_name_H-M   'P 1'
_cell_length_a   7.39211967
_cell_length_b   7.64163911
_cell_length_c   14.58853380
_cell_angle_alpha   89.66881344
_cell_angle_beta   89.67006387
_cell_angle_gamma   90.18499453
_symmetry_Int_Tables_number   1
_chemical_formula_structural   Dy16Lu4Si15Rh
_chemical_formula_sum   'Dy16 Lu4 Si15 Rh1'
_cell_volume   824.04398139
_cell_formula_units_Z   1
loop_
 _symmetry_equiv_pos_site_id
 _symmetry_equiv_pos_as_xyz
  1  'x, y, z'
loop_
 _atom_site_type_symbol
 _atom_site_label
 _atom_site_symmetry_multiplicity
 _atom_site_fract_x
 _atom_site_fract_y
 _atom_site_fract_z
 _atom_site_occupancy
  Dy  Dy0  1  0.974196  0.816414  0.098131  1
  Dy  Dy1  1  0.471417  0.682535  0.401126  1
  Dy  Dy2  1  0.528778  0.322547  0.900290  1
  Dy  Dy3  1  0.029459  0.184020  0.599574  1
  Dy  Dy4  1  0.027970  0.185245  0.901598  1
  Dy  Dy5  1  0.529796  0.318222  0.598939  1
  Dy  Dy6  1  0.473756  0.682052  0.099777  1
  Dy  Dy7  1  0.969861  0.817277  0.400279  1
  Dy  Dy8  1  0.683746  0.811067  0.882152  1
  Dy  Dy9  1  0.178948  0.681257  0.621997  1
  Dy  Dy10  1  0.817563  0.334064  0.118284  1
  Dy  Dy11  1  0.315945  0.177881  0.376005  1
  Dy  Dy12  1  0.320975  0.179336  0.123688  1
  Dy  Dy13  1  0.819133  0.319621  0.377079  1
  Dy  Dy14  1  0.175896  0.675015  0.878283  1
  Dy  Dy15  1  0.683110  0.818943  0.622595  1
  Lu  Lu16  1  0.648698  0.992621  0.248694  1
  Lu  Lu17  1  0.148442  0.510424  0.247748  1
  Lu  Lu18  1  0.847957  0.487263  0.757581  1
  Lu  Lu19  1  0.352440  0.010376  0.752035  1
  Si  Si20  1  0.766248  0.631067  0.251654  1
  Si  Si21  1  0.267122  0.870234  0.250698  1
  Si  Si22  1  0.731779  0.125115  0.748933  1
  Si  Si23  1  0.234282  0.371020  0.746994  1
  Si  Si24  1  0.017163  0.105580  0.248631  1
  Si  Si25  1  0.520784  0.397211  0.251329  1
  Si  Si26  1  0.474436  0.605335  0.747128  1
  Si  Si27  1  0.979223  0.898510  0.748813  1
  Si  Si28  1  0.354273  0.972415  0.540320  1
  Si  Si29  1  0.646795  0.027713  0.042303  1
  Si  Si30  1  0.147521  0.470808  0.459610  1
  Si  Si31  1  0.155556  0.472802  0.042105  1
  Si  Si32  1  0.643677  0.027966  0.458958  1
  Si  Si33  1  0.353124  0.969941  0.960795  1
  Si  Si34  1  0.853985  0.528254  0.539380  1
  Rh  Rh35  1  0.855942  0.519849  0.956500  1
