# generated using pymatgen
data_Sc8Co4Ru3Rh
_symmetry_space_group_name_H-M   'P 1'
_cell_length_a   6.35585000
_cell_length_b   4.48832200
_cell_length_c   9.00855900
_cell_angle_alpha   90.00000000
_cell_angle_beta   90.00103537
_cell_angle_gamma   90.00000000
_symmetry_Int_Tables_number   1
_chemical_formula_structural   Sc8Co4Ru3Rh
_chemical_formula_sum   'Sc8 Co4 Ru3 Rh1'
_cell_volume   256.98807589
_cell_formula_units_Z   1
loop_
 _symmetry_equiv_pos_site_id
 _symmetry_equiv_pos_as_xyz
  1  'x, y, z'
loop_
 _atom_site_type_symbol
 _atom_site_label
 _atom_site_symmetry_multiplicity
 _atom_site_fract_x
 _atom_site_fract_y
 _atom_site_fract_z
 _atom_site_occupancy
  Sc  Sc0  1  0.997942  0.749999  0.124982  1
  Sc  Sc1  1  0.502517  0.749999  0.125040  1
  Sc  Sc2  1  0.999322  0.249999  0.377121  1
  Sc  Sc3  1  0.501114  0.249999  0.377152  1
  Sc  Sc4  1  0.499784  0.749999  0.624941  1
  Sc  Sc5  1  0.999762  0.749999  0.624994  1
  Sc  Sc6  1  0.500732  0.249999  0.872842  1
  Sc  Sc7  1  0.998829  0.249999  0.872904  1
  Co  Co8  1  0.750141  0.249999  0.125009  1
  Co  Co9  1  0.250142  0.749999  0.374559  1
  Co  Co10  1  0.749869  0.249999  0.624999  1
  Co  Co11  1  0.249865  0.749999  0.875406  1
  Ru  Ru12  1  0.750164  0.749999  0.373546  1
  Ru  Ru13  1  0.249835  0.249999  0.625052  1
  Ru  Ru14  1  0.749837  0.749999  0.876421  1
  Rh  Rh15  1  0.250148  0.249999  0.125031  1
