# generated using pymatgen
data_CaNd6Os4C9
_symmetry_space_group_name_H-M   'P 1'
_cell_length_a   6.63356824
_cell_length_b   6.63356735
_cell_length_c   12.05665800
_cell_angle_alpha   70.82927414
_cell_angle_beta   109.17072319
_cell_angle_gamma   131.25855238
_symmetry_Int_Tables_number   1
_chemical_formula_structural   CaNd6Os4C9
_chemical_formula_sum   'Ca1 Nd6 Os4 C9'
_cell_volume   372.01289512
_cell_formula_units_Z   1
loop_
 _symmetry_equiv_pos_site_id
 _symmetry_equiv_pos_as_xyz
  1  'x, y, z'
loop_
 _atom_site_type_symbol
 _atom_site_label
 _atom_site_symmetry_multiplicity
 _atom_site_fract_x
 _atom_site_fract_y
 _atom_site_fract_z
 _atom_site_occupancy
  Ca  Ca0  1  0.000000  0.000000  0.000000  1
  Nd  Nd1  1  0.138637  0.861360  0.621283  1
  Nd  Nd2  1  0.861359  0.138637  0.378716  1
  Nd  Nd3  1  0.140925  0.859072  0.310703  1
  Nd  Nd4  1  0.380270  0.619727  0.158358  1
  Nd  Nd5  1  0.619727  0.380270  0.841642  1
  Nd  Nd6  1  0.859072  0.140925  0.689297  1
  Os  Os7  1  0.641969  0.358028  0.142188  1
  Os  Os8  1  0.358029  0.641968  0.857812  1
  Os  Os9  1  0.565248  0.434749  0.429524  1
  Os  Os10  1  0.434749  0.565248  0.570477  1
  C  C11  1  0.383505  0.616492  0.708022  1
  C  C12  1  0.616493  0.383504  0.291979  1
  C  C13  1  0.390955  0.609042  0.387342  1
  C  C14  1  0.609041  0.390956  0.612659  1
  C  C15  1  0.078422  0.921575  0.819640  1
  C  C16  1  0.921576  0.078421  0.180360  1
  C  C17  1  0.499998  0.499998  0.000000  1
  C  C18  1  0.804197  0.195799  0.145504  1
  C  C19  1  0.195799  0.804198  0.854496  1
