# generated using pymatgen
data_Li2MnFe2Ni9As7
_symmetry_space_group_name_H-M   'P 1'
_cell_length_a   9.42011061
_cell_length_b   9.45472978
_cell_length_c   3.69874600
_cell_angle_alpha   90.00000000
_cell_angle_beta   90.00000000
_cell_angle_gamma   120.23715213
_symmetry_Int_Tables_number   1
_chemical_formula_structural   Li2MnFe2Ni9As7
_chemical_formula_sum   'Li2 Mn1 Fe2 Ni9 As7'
_cell_volume   284.60823441
_cell_formula_units_Z   1
loop_
 _symmetry_equiv_pos_site_id
 _symmetry_equiv_pos_as_xyz
  1  'x, y, z'
loop_
 _atom_site_type_symbol
 _atom_site_label
 _atom_site_symmetry_multiplicity
 _atom_site_fract_x
 _atom_site_fract_y
 _atom_site_fract_z
 _atom_site_occupancy
  Li  Li0  1  0.334327  0.667861  0.000000  1
  Li  Li1  1  0.998290  0.999035  0.500000  1
  Mn  Mn2  1  0.791265  0.238434  0.500000  1
  Fe  Fe3  1  0.761857  0.554026  0.500000  1
  Fe  Fe4  1  0.446269  0.208363  0.500000  1
  Ni  Ni5  1  0.285437  0.381885  0.500000  1
  Ni  Ni6  1  0.616721  0.901113  0.500000  1
  Ni  Ni7  1  0.097534  0.715323  0.500000  1
  Ni  Ni8  1  0.506305  0.453033  0.000000  1
  Ni  Ni9  1  0.545390  0.051811  0.000000  1
  Ni  Ni10  1  0.948069  0.495166  0.000000  1
  Ni  Ni11  1  0.720973  0.766708  0.000000  1
  Ni  Ni12  1  0.232768  0.954062  0.000000  1
  Ni  Ni13  1  0.046211  0.279174  0.000000  1
  As  As14  1  0.955690  0.749908  0.000000  1
  As  As15  1  0.249449  0.205583  0.000000  1
  As  As16  1  0.793326  0.042456  0.000000  1
  As  As17  1  0.665791  0.333607  0.000000  1
  As  As18  1  0.544603  0.626596  0.500000  1
  As  As19  1  0.373246  0.917288  0.500000  1
  As  As20  1  0.086478  0.458567  0.500000  1
