# generated using pymatgen
data_Sr3Bi(Pt2O7)2
_symmetry_space_group_name_H-M   'P 1'
_cell_length_a   7.37522011
_cell_length_b   7.50727550
_cell_length_c   7.37522000
_cell_angle_alpha   60.58019751
_cell_angle_beta   60.00000047
_cell_angle_gamma   60.58019483
_symmetry_Int_Tables_number   1
_chemical_formula_structural   Sr3Bi(Pt2O7)2
_chemical_formula_sum   'Sr3 Bi1 Pt4 O14'
_cell_volume   291.25325305
_cell_formula_units_Z   1
loop_
 _symmetry_equiv_pos_site_id
 _symmetry_equiv_pos_as_xyz
  1  'x, y, z'
loop_
 _atom_site_type_symbol
 _atom_site_label
 _atom_site_symmetry_multiplicity
 _atom_site_fract_x
 _atom_site_fract_y
 _atom_site_fract_z
 _atom_site_occupancy
  Sr  Sr0  1  0.125000  0.125000  0.625000  1
  Sr  Sr1  1  0.625000  0.125000  0.125000  1
  Sr  Sr2  1  0.125000  0.125000  0.125000  1
  Bi  Bi3  1  0.125000  0.625000  0.125000  1
  Pt  Pt4  1  0.625000  0.625000  0.125000  1
  Pt  Pt5  1  0.625000  0.125000  0.625000  1
  Pt  Pt6  1  0.125000  0.625000  0.625000  1
  Pt  Pt7  1  0.625000  0.625000  0.625000  1
  O  O8  1  0.235900  0.292301  0.235900  1
  O  O9  1  0.014100  0.957699  0.014100  1
  O  O10  1  0.547546  0.950084  0.547546  1
  O  O11  1  0.293189  0.696843  0.293189  1
  O  O12  1  0.533220  0.553157  0.956811  1
  O  O13  1  0.956811  0.553157  0.533220  1
  O  O14  1  0.547546  0.950084  0.954825  1
  O  O15  1  0.954825  0.950084  0.547546  1
  O  O16  1  0.956811  0.553157  0.956811  1
  O  O17  1  0.702454  0.299916  0.295175  1
  O  O18  1  0.293189  0.696843  0.716780  1
  O  O19  1  0.702454  0.299916  0.702454  1
  O  O20  1  0.295175  0.299916  0.702454  1
  O  O21  1  0.716780  0.696843  0.293189  1
