# generated using pymatgen
data_YTh3(ZnRu)4
_symmetry_space_group_name_H-M   'P 1'
_cell_length_a   4.01874300
_cell_length_b   7.01410544
_cell_length_c   8.43520030
_cell_angle_alpha   90.50371529
_cell_angle_beta   90.00000000
_cell_angle_gamma   90.00000000
_symmetry_Int_Tables_number   1
_chemical_formula_structural   YTh3(ZnRu)4
_chemical_formula_sum   'Y1 Th3 Zn4 Ru4'
_cell_volume   237.76128553
_cell_formula_units_Z   1
loop_
 _symmetry_equiv_pos_site_id
 _symmetry_equiv_pos_as_xyz
  1  'x, y, z'
loop_
 _atom_site_type_symbol
 _atom_site_label
 _atom_site_symmetry_multiplicity
 _atom_site_fract_x
 _atom_site_fract_y
 _atom_site_fract_z
 _atom_site_occupancy
  Y  Y0  1  0.250000  0.040209  0.314622  1
  Th  Th1  1  0.250000  0.540806  0.187367  1
  Th  Th2  1  0.750000  0.464445  0.814669  1
  Th  Th3  1  0.750000  0.959321  0.679729  1
  Zn  Zn4  1  0.250000  0.626399  0.553324  1
  Zn  Zn5  1  0.750000  0.357778  0.443487  1
  Zn  Zn6  1  0.750000  0.881679  0.062595  1
  Zn  Zn7  1  0.250000  0.128645  0.949042  1
  Ru  Ru8  1  0.250000  0.747712  0.866185  1
  Ru  Ru9  1  0.750000  0.270147  0.126116  1
  Ru  Ru10  1  0.750000  0.741313  0.365558  1
  Ru  Ru11  1  0.250000  0.241545  0.637306  1
