# generated using pymatgen
data_K(ZrS2)2
_symmetry_space_group_name_H-M   'P 1'
_cell_length_a   6.34439000
_cell_length_b   7.33303100
_cell_length_c   15.86698100
_cell_angle_alpha   90.00000000
_cell_angle_beta   90.00000000
_cell_angle_gamma   90.00000000
_symmetry_Int_Tables_number   1
_chemical_formula_structural   K(ZrS2)2
_chemical_formula_sum   'K4 Zr8 S16'
_cell_volume   738.18921285
_cell_formula_units_Z   4
loop_
 _symmetry_equiv_pos_site_id
 _symmetry_equiv_pos_as_xyz
  1  'x, y, z'
loop_
 _atom_site_type_symbol
 _atom_site_label
 _atom_site_symmetry_multiplicity
 _atom_site_fract_x
 _atom_site_fract_y
 _atom_site_fract_z
 _atom_site_occupancy
  K  K0  1  0.342295  0.000000  0.000000  1
  K  K1  1  0.657705  0.500000  0.500000  1
  K  K2  1  0.030804  0.000000  0.500000  1
  K  K3  1  0.969196  0.500000  0.000000  1
  Zr  Zr4  1  0.999734  0.000000  0.248110  1
  Zr  Zr5  1  0.999734  0.000000  0.751890  1
  Zr  Zr6  1  0.000266  0.500000  0.251890  1
  Zr  Zr7  1  0.000266  0.500000  0.748110  1
  Zr  Zr8  1  0.500000  0.250000  0.250000  1
  Zr  Zr9  1  0.500000  0.750000  0.750000  1
  Zr  Zr10  1  0.500000  0.750000  0.250000  1
  Zr  Zr11  1  0.500000  0.250000  0.750000  1
  S  S12  1  0.834083  0.248179  0.346408  1
  S  S13  1  0.834083  0.751821  0.653592  1
  S  S14  1  0.165917  0.748179  0.153592  1
  S  S15  1  0.165917  0.251821  0.846408  1
  S  S16  1  0.165917  0.251821  0.153592  1
  S  S17  1  0.165917  0.748179  0.846408  1
  S  S18  1  0.834083  0.751821  0.346408  1
  S  S19  1  0.834083  0.248179  0.653592  1
  S  S20  1  0.667317  0.000000  0.154379  1
  S  S21  1  0.667317  0.000000  0.845621  1
  S  S22  1  0.332683  0.500000  0.345621  1
  S  S23  1  0.332683  0.500000  0.654379  1
  S  S24  1  0.334700  0.000000  0.343801  1
  S  S25  1  0.334700  0.000000  0.656199  1
  S  S26  1  0.665300  0.500000  0.156199  1
  S  S27  1  0.665300  0.500000  0.843801  1
