# generated using pymatgen
data_Tm12Re5Si16Tc3
_symmetry_space_group_name_H-M   'P 1'
_cell_length_a   10.48307675
_cell_length_b   10.48139324
_cell_length_c   14.20241488
_cell_angle_alpha   55.19884325
_cell_angle_beta   55.19696857
_cell_angle_gamma   30.69410147
_symmetry_Int_Tables_number   1
_chemical_formula_structural   Tm12Re5Si16Tc3
_chemical_formula_sum   'Tm12 Re5 Si16 Tc3'
_cell_volume   642.07893439
_cell_formula_units_Z   1
loop_
 _symmetry_equiv_pos_site_id
 _symmetry_equiv_pos_as_xyz
  1  'x, y, z'
loop_
 _atom_site_type_symbol
 _atom_site_label
 _atom_site_symmetry_multiplicity
 _atom_site_fract_x
 _atom_site_fract_y
 _atom_site_fract_z
 _atom_site_occupancy
  Tm  Tm0  1  0.752813  0.484434  0.048539  1
  Tm  Tm1  1  0.536581  0.307516  0.153829  1
  Tm  Tm2  1  0.515653  0.246889  0.451440  1
  Tm  Tm3  1  0.463773  0.692664  0.846134  1
  Tm  Tm4  1  0.292341  0.040070  0.138586  1
  Tm  Tm5  1  0.959724  0.707488  0.361380  1
  Tm  Tm6  1  0.707656  0.959520  0.861445  1
  Tm  Tm7  1  0.040301  0.292526  0.638514  1
  Tm  Tm8  1  0.247044  0.515476  0.951462  1
  Tm  Tm9  1  0.484116  0.753216  0.548724  1
  Tm  Tm10  1  0.307329  0.536132  0.653796  1
  Tm  Tm11  1  0.693100  0.463519  0.346051  1
  Re  Re12  1  0.170500  0.357596  0.218284  1
  Re  Re13  1  0.137822  0.911984  0.077567  1
  Re  Re14  1  0.087866  0.862479  0.422226  1
  Re  Re15  1  0.862454  0.087474  0.922682  1
  Re  Re16  1  0.912331  0.137482  0.577656  1
  Si  Si17  1  0.902706  0.097259  0.250014  1
  Si  Si18  1  0.097288  0.902761  0.750057  1
  Si  Si19  1  0.345083  0.654842  0.250011  1
  Si  Si20  1  0.655071  0.344938  0.750037  1
  Si  Si21  1  0.999934  0.229969  0.876847  1
  Si  Si22  1  0.769960  0.000167  0.623100  1
  Si  Si23  1  0.000868  0.769949  0.122629  1
  Si  Si24  1  0.229328  0.000295  0.376961  1
  Si  Si25  1  0.606305  0.046456  0.076138  1
  Si  Si26  1  0.954108  0.392477  0.425032  1
  Si  Si27  1  0.392817  0.954612  0.923660  1
  Si  Si28  1  0.045473  0.607296  0.576161  1
  Si  Si29  1  0.384373  0.160627  0.379859  1
  Si  Si30  1  0.839657  0.615832  0.119388  1
  Si  Si31  1  0.615841  0.839471  0.620385  1
  Si  Si32  1  0.160072  0.384535  0.879864  1
  Tc  Tc33  1  0.641869  0.829831  0.281625  1
  Tc  Tc34  1  0.829684  0.641870  0.782000  1
  Tc  Tc35  1  0.358160  0.170348  0.717915  1
