# generated using pymatgen
data_Hf2Zr(AlAu)3
_symmetry_space_group_name_H-M   'P 1'
_cell_length_a   6.77244300
_cell_length_b   6.83729497
_cell_length_c   4.17475000
_cell_angle_alpha   90.00000000
_cell_angle_beta   90.00000000
_cell_angle_gamma   119.68673532
_symmetry_Int_Tables_number   1
_chemical_formula_structural   Hf2Zr(AlAu)3
_chemical_formula_sum   'Hf2 Zr1 Al3 Au3'
_cell_volume   167.93958067
_cell_formula_units_Z   1
loop_
 _symmetry_equiv_pos_site_id
 _symmetry_equiv_pos_as_xyz
  1  'x, y, z'
loop_
 _atom_site_type_symbol
 _atom_site_label
 _atom_site_symmetry_multiplicity
 _atom_site_fract_x
 _atom_site_fract_y
 _atom_site_fract_z
 _atom_site_occupancy
  Hf  Hf0  1  0.420577  0.419275  0.499999  1
  Hf  Hf1  1  0.001302  0.580724  0.499999  1
  Zr  Zr2  1  0.579039  0.000000  0.499999  1
  Al  Al3  1  0.252540  0.000000  0.000000  1
  Al  Al4  1  0.996240  0.246682  0.000000  1
  Al  Al5  1  0.749558  0.753319  0.000000  1
  Au  Au6  1  0.666825  0.339543  0.000000  1
  Au  Au7  1  0.327282  0.660458  0.000000  1
  Au  Au8  1  0.006635  0.000000  0.499999  1
