# generated using pymatgen
data_BaHo(AsPt)2
_symmetry_space_group_name_H-M   'P 1'
_cell_length_a   4.33244200
_cell_length_b   4.33244215
_cell_length_c   17.37309800
_cell_angle_alpha   90.00000000
_cell_angle_beta   90.00000000
_cell_angle_gamma   119.99999889
_symmetry_Int_Tables_number   1
_chemical_formula_structural   BaHo(AsPt)2
_chemical_formula_sum   'Ba2 Ho2 As4 Pt4'
_cell_volume   282.40568514
_cell_formula_units_Z   2
loop_
 _symmetry_equiv_pos_site_id
 _symmetry_equiv_pos_as_xyz
  1  'x, y, z'
loop_
 _atom_site_type_symbol
 _atom_site_label
 _atom_site_symmetry_multiplicity
 _atom_site_fract_x
 _atom_site_fract_y
 _atom_site_fract_z
 _atom_site_occupancy
  Ba  Ba0  1  0.000000  0.000000  0.250000  1
  Ba  Ba1  1  0.000000  0.000000  0.750000  1
  Ho  Ho2  1  0.000000  0.000000  0.500000  1
  Ho  Ho3  1  0.000000  0.000000  0.000000  1
  As  As4  1  0.333333  0.666667  0.885354  1
  As  As5  1  0.666667  0.333333  0.114646  1
  As  As6  1  0.666667  0.333333  0.385354  1
  As  As7  1  0.333333  0.666667  0.614646  1
  Pt  Pt8  1  0.333333  0.666667  0.397982  1
  Pt  Pt9  1  0.666667  0.333333  0.602018  1
  Pt  Pt10  1  0.666667  0.333333  0.897982  1
  Pt  Pt11  1  0.333333  0.666667  0.102018  1
