# generated using pymatgen
data_Sr2YC2(O2F)3
_symmetry_space_group_name_H-M   'P 1'
_cell_length_a   9.47120300
_cell_length_b   6.77492500
_cell_length_c   11.34100200
_cell_angle_alpha   90.00000000
_cell_angle_beta   90.00000000
_cell_angle_gamma   90.00000000
_symmetry_Int_Tables_number   1
_chemical_formula_structural   Sr2YC2(O2F)3
_chemical_formula_sum   'Sr8 Y4 C8 O24 F12'
_cell_volume   727.71455945
_cell_formula_units_Z   4
loop_
 _symmetry_equiv_pos_site_id
 _symmetry_equiv_pos_as_xyz
  1  'x, y, z'
loop_
 _atom_site_type_symbol
 _atom_site_label
 _atom_site_symmetry_multiplicity
 _atom_site_fract_x
 _atom_site_fract_y
 _atom_site_fract_z
 _atom_site_occupancy
  Sr  Sr0  1  0.382198  0.238120  0.071099  1
  Sr  Sr1  1  0.117801  0.738121  0.071099  1
  Sr  Sr2  1  0.617801  0.238120  0.428901  1
  Sr  Sr3  1  0.882199  0.738121  0.428901  1
  Sr  Sr4  1  0.117801  0.261879  0.571099  1
  Sr  Sr5  1  0.382198  0.761879  0.571099  1
  Sr  Sr6  1  0.882199  0.261879  0.928900  1
  Sr  Sr7  1  0.617801  0.761879  0.928900  1
  Y  Y8  1  0.000000  0.273909  0.250000  1
  Y  Y9  1  0.500000  0.773908  0.250000  1
  Y  Y10  1  0.500000  0.226092  0.750000  1
  Y  Y11  1  0.000000  0.726092  0.750000  1
  C  C12  1  0.694443  0.475850  0.175477  1
  C  C13  1  0.805557  0.975850  0.175477  1
  C  C14  1  0.305558  0.475850  0.324522  1
  C  C15  1  0.194442  0.975850  0.324522  1
  C  C16  1  0.805557  0.024151  0.675477  1
  C  C17  1  0.694443  0.524150  0.675477  1
  C  C18  1  0.194442  0.024151  0.824522  1
  C  C19  1  0.305558  0.524150  0.824522  1
  O  O20  1  0.913565  0.017040  0.108675  1
  O  O21  1  0.586435  0.517039  0.108675  1
  O  O22  1  0.800435  0.379974  0.135635  1
  O  O23  1  0.699566  0.879973  0.135635  1
  O  O24  1  0.189320  0.037462  0.215119  1
  O  O25  1  0.310680  0.537462  0.215119  1
  O  O26  1  0.810679  0.037462  0.284881  1
  O  O27  1  0.689320  0.537462  0.284881  1
  O  O28  1  0.199566  0.379974  0.364364  1
  O  O29  1  0.300434  0.879973  0.364364  1
  O  O30  1  0.086435  0.017040  0.391325  1
  O  O31  1  0.413565  0.517039  0.391325  1
  O  O32  1  0.586435  0.482960  0.608675  1
  O  O33  1  0.913565  0.982961  0.608675  1
  O  O34  1  0.699566  0.120026  0.635635  1
  O  O35  1  0.800435  0.620027  0.635635  1
  O  O36  1  0.310680  0.462539  0.715119  1
  O  O37  1  0.189320  0.962538  0.715119  1
  O  O38  1  0.689320  0.462539  0.784881  1
  O  O39  1  0.810679  0.962538  0.784881  1
  O  O40  1  0.300434  0.120026  0.864364  1
  O  O41  1  0.199566  0.620027  0.864364  1
  O  O42  1  0.413565  0.482960  0.891326  1
  O  O43  1  0.086435  0.982961  0.891326  1
  F  F44  1  0.096047  0.356755  0.070197  1
  F  F45  1  0.403953  0.856754  0.070197  1
  F  F46  1  0.500000  0.117520  0.250000  1
  F  F47  1  0.000000  0.617520  0.250000  1
  F  F48  1  0.903952  0.356755  0.429803  1
  F  F49  1  0.596047  0.856754  0.429803  1
  F  F50  1  0.403953  0.143246  0.570197  1
  F  F51  1  0.096047  0.643246  0.570197  1
  F  F52  1  0.000000  0.382481  0.750000  1
  F  F53  1  0.500000  0.882480  0.750000  1
  F  F54  1  0.596047  0.143246  0.929802  1
  F  F55  1  0.903952  0.643246  0.929802  1
