# generated using pymatgen
data_DyPa3(Ir2Pb)2
_symmetry_space_group_name_H-M   'P 1'
_cell_length_a   7.87539646
_cell_length_b   7.87539646
_cell_length_c   3.57542700
_cell_angle_alpha   90.00000000
_cell_angle_beta   90.00000000
_cell_angle_gamma   91.72129608
_symmetry_Int_Tables_number   1
_chemical_formula_structural   DyPa3(Ir2Pb)2
_chemical_formula_sum   'Dy1 Pa3 Ir4 Pb2'
_cell_volume   221.65460314
_cell_formula_units_Z   1
loop_
 _symmetry_equiv_pos_site_id
 _symmetry_equiv_pos_as_xyz
  1  'x, y, z'
loop_
 _atom_site_type_symbol
 _atom_site_label
 _atom_site_symmetry_multiplicity
 _atom_site_fract_x
 _atom_site_fract_y
 _atom_site_fract_z
 _atom_site_occupancy
  Dy  Dy0  1  0.330890  0.169110  0.500001  1
  Pa  Pa1  1  0.832701  0.330228  0.500001  1
  Pa  Pa2  1  0.169772  0.667300  0.500001  1
  Pa  Pa3  1  0.664733  0.835268  0.500001  1
  Ir  Ir4  1  0.645100  0.124432  0.000000  1
  Ir  Ir5  1  0.114441  0.385558  0.000000  1
  Ir  Ir6  1  0.861271  0.638730  0.000000  1
  Ir  Ir7  1  0.375567  0.854901  0.000000  1
  Pb  Pb8  1  0.009016  0.003491  0.000000  1
  Pb  Pb9  1  0.496508  0.490983  0.000000  1
