# generated using pymatgen
data_Ho4LuCo2Os
_symmetry_space_group_name_H-M   'P 1'
_cell_length_a   8.58714584
_cell_length_b   8.58714606
_cell_length_c   8.58714484
_cell_angle_alpha   131.40933872
_cell_angle_beta   131.40933800
_cell_angle_gamma   71.16352470
_symmetry_Int_Tables_number   1
_chemical_formula_structural   Ho4LuCo2Os
_chemical_formula_sum   'Ho8 Lu2 Co4 Os2'
_cell_volume   348.70885322
_cell_formula_units_Z   2
loop_
 _symmetry_equiv_pos_site_id
 _symmetry_equiv_pos_as_xyz
  1  'x, y, z'
loop_
 _atom_site_type_symbol
 _atom_site_label
 _atom_site_symmetry_multiplicity
 _atom_site_fract_x
 _atom_site_fract_y
 _atom_site_fract_z
 _atom_site_occupancy
  Ho  Ho0  1  0.679055  0.536158  0.500000  1
  Ho  Ho1  1  0.463842  0.963842  0.142896  1
  Ho  Ho2  1  0.820945  0.320945  0.857104  1
  Ho  Ho3  1  0.536158  0.036158  0.857104  1
  Ho  Ho4  1  0.036158  0.179055  0.500000  1
  Ho  Ho5  1  0.320945  0.463842  0.500000  1
  Ho  Ho6  1  0.179055  0.679055  0.142896  1
  Ho  Ho7  1  0.963842  0.820945  0.500000  1
  Lu  Lu8  1  0.000000  0.000000  0.000000  1
  Lu  Lu9  1  0.500000  0.500000  0.000000  1
  Co  Co10  1  0.112660  0.612660  0.725319  1
  Co  Co11  1  0.887340  0.387340  0.274681  1
  Co  Co12  1  0.612660  0.887340  0.500000  1
  Co  Co13  1  0.387340  0.112660  0.500000  1
  Os  Os14  1  0.250000  0.250000  0.000000  1
  Os  Os15  1  0.750000  0.750000  0.000000  1
