# generated using pymatgen
data_Y3Mg2ScRh3
_symmetry_space_group_name_H-M   'P 1'
_cell_length_a   7.35621000
_cell_length_b   7.38912355
_cell_length_c   4.08429900
_cell_angle_alpha   90.00000000
_cell_angle_beta   90.00000000
_cell_angle_gamma   120.14811979
_symmetry_Int_Tables_number   1
_chemical_formula_structural   Y3Mg2ScRh3
_chemical_formula_sum   'Y3 Mg2 Sc1 Rh3'
_cell_volume   191.97517054
_cell_formula_units_Z   1
loop_
 _symmetry_equiv_pos_site_id
 _symmetry_equiv_pos_as_xyz
  1  'x, y, z'
loop_
 _atom_site_type_symbol
 _atom_site_label
 _atom_site_symmetry_multiplicity
 _atom_site_fract_x
 _atom_site_fract_y
 _atom_site_fract_z
 _atom_site_occupancy
  Y  Y0  1  0.000000  0.599733  0.500000  1
  Y  Y1  1  0.425559  0.413688  0.500000  1
  Y  Y2  1  0.574441  0.988129  0.500000  1
  Mg  Mg3  1  0.247112  0.002453  0.000000  1
  Mg  Mg4  1  0.752888  0.755341  0.000000  1
  Sc  Sc5  1  0.000000  0.245901  0.000000  1
  Rh  Rh6  1  0.320272  0.650095  0.000000  1
  Rh  Rh7  1  0.000000  0.014837  0.500000  1
  Rh  Rh8  1  0.679728  0.329821  0.000000  1
