# generated using pymatgen
data_AcLa3(Mo2O7)2
_symmetry_space_group_name_H-M   'P 1'
_cell_length_a   7.57098669
_cell_length_b   7.57863233
_cell_length_c   7.58222700
_cell_angle_alpha   120.01618482
_cell_angle_beta   119.96245453
_cell_angle_gamma   90.00164504
_symmetry_Int_Tables_number   1
_chemical_formula_structural   AcLa3(Mo2O7)2
_chemical_formula_sum   'Ac1 La3 Mo4 O14'
_cell_volume   307.72227983
_cell_formula_units_Z   1
loop_
 _symmetry_equiv_pos_site_id
 _symmetry_equiv_pos_as_xyz
  1  'x, y, z'
loop_
 _atom_site_type_symbol
 _atom_site_label
 _atom_site_symmetry_multiplicity
 _atom_site_fract_x
 _atom_site_fract_y
 _atom_site_fract_z
 _atom_site_occupancy
  Ac  Ac0  1  0.375000  0.625000  0.750000  1
  La  La1  1  0.375000  0.625000  0.250000  1
  La  La2  1  0.875000  0.625000  0.250000  1
  La  La3  1  0.375000  0.125000  0.750000  1
  Mo  Mo4  1  0.875000  0.625000  0.750000  1
  Mo  Mo5  1  0.375000  0.125000  0.250000  1
  Mo  Mo6  1  0.875000  0.125000  0.250000  1
  Mo  Mo7  1  0.875000  0.125000  0.750000  1
  O  O8  1  0.785834  0.197844  0.997222  1
  O  O9  1  0.549257  0.461013  0.496146  1
  O  O10  1  0.204948  0.205110  0.999924  1
  O  O11  1  0.952080  0.454407  0.498171  1
  O  O12  1  0.801721  0.799143  0.587733  1
  O  O13  1  0.539937  0.040283  0.090248  1
  O  O14  1  0.246399  0.753661  0.492799  1
  O  O15  1  0.948279  0.450857  0.912267  1
  O  O16  1  0.964166  0.052156  0.502778  1
  O  O17  1  0.545052  0.044890  0.500076  1
  O  O18  1  0.210063  0.209717  0.409752  1
  O  O19  1  0.503601  0.496339  0.007201  1
  O  O20  1  0.797920  0.795593  0.001829  1
  O  O21  1  0.200743  0.788987  0.003854  1
