# generated using pymatgen
data_Nd4CuIrAu2
_symmetry_space_group_name_H-M   'P 1'
_cell_length_a   4.64669700
_cell_length_b   5.78461263
_cell_length_c   7.48401571
_cell_angle_alpha   88.74502862
_cell_angle_beta   90.00000000
_cell_angle_gamma   90.00000000
_symmetry_Int_Tables_number   1
_chemical_formula_structural   Nd4CuIrAu2
_chemical_formula_sum   'Nd4 Cu1 Ir1 Au2'
_cell_volume   201.11716535
_cell_formula_units_Z   1
loop_
 _symmetry_equiv_pos_site_id
 _symmetry_equiv_pos_as_xyz
  1  'x, y, z'
loop_
 _atom_site_type_symbol
 _atom_site_label
 _atom_site_symmetry_multiplicity
 _atom_site_fract_x
 _atom_site_fract_y
 _atom_site_fract_z
 _atom_site_occupancy
  Nd  Nd0  1  0.250000  0.361666  0.674945  1
  Nd  Nd1  1  0.250000  0.138726  0.197849  1
  Nd  Nd2  1  0.750000  0.649963  0.330222  1
  Nd  Nd3  1  0.750000  0.856530  0.797640  1
  Cu  Cu4  1  0.750000  0.136166  0.462593  1
  Ir  Ir5  1  0.250000  0.860777  0.534935  1
  Au  Au6  1  0.250000  0.650574  0.042279  1
  Au  Au7  1  0.750000  0.345596  0.959537  1
