# generated using pymatgen
data_Y2Er(AlNi2)3
_symmetry_space_group_name_H-M   'P 1'
_cell_length_a   5.21208900
_cell_length_b   5.21208783
_cell_length_c   15.88246200
_cell_angle_alpha   90.00000000
_cell_angle_beta   90.00000000
_cell_angle_gamma   119.99998836
_symmetry_Int_Tables_number   1
_chemical_formula_structural   Y2Er(AlNi2)3
_chemical_formula_sum   'Y4 Er2 Al6 Ni12'
_cell_volume   373.65608257
_cell_formula_units_Z   2
loop_
 _symmetry_equiv_pos_site_id
 _symmetry_equiv_pos_as_xyz
  1  'x, y, z'
loop_
 _atom_site_type_symbol
 _atom_site_label
 _atom_site_symmetry_multiplicity
 _atom_site_fract_x
 _atom_site_fract_y
 _atom_site_fract_z
 _atom_site_occupancy
  Y  Y0  1  0.333333  0.666667  0.544260  1
  Y  Y1  1  0.666667  0.333333  0.455740  1
  Y  Y2  1  0.333333  0.666667  0.753087  1
  Y  Y3  1  0.666667  0.333333  0.246913  1
  Er  Er4  1  0.666667  0.333333  0.040763  1
  Er  Er5  1  0.333333  0.666667  0.959237  1
  Al  Al6  1  0.000000  0.000000  0.248515  1
  Al  Al7  1  0.000000  0.000000  0.751485  1
  Al  Al8  1  0.333333  0.666667  0.249061  1
  Al  Al9  1  0.666667  0.333333  0.750939  1
  Al  Al10  1  0.000000  0.000000  0.000000  1
  Al  Al11  1  0.000000  0.000000  0.500000  1
  Ni  Ni12  1  0.168376  0.336752  0.124474  1
  Ni  Ni13  1  0.831624  0.663248  0.875526  1
  Ni  Ni14  1  0.663248  0.831624  0.124474  1
  Ni  Ni15  1  0.832454  0.664910  0.627653  1
  Ni  Ni16  1  0.336752  0.168376  0.875526  1
  Ni  Ni17  1  0.167546  0.335090  0.372347  1
  Ni  Ni18  1  0.168376  0.831624  0.124474  1
  Ni  Ni19  1  0.335090  0.167546  0.627653  1
  Ni  Ni20  1  0.831624  0.168376  0.875526  1
  Ni  Ni21  1  0.664910  0.832454  0.372347  1
  Ni  Ni22  1  0.832454  0.167546  0.627653  1
  Ni  Ni23  1  0.167546  0.832454  0.372347  1
