# generated using pymatgen
data_Ce2LuAl2Ge3
_symmetry_space_group_name_H-M   'P 1'
_cell_length_a   7.90019159
_cell_length_b   7.90094424
_cell_length_c   7.90019097
_cell_angle_alpha   120.10698543
_cell_angle_beta   120.10629409
_cell_angle_gamma   89.81268318
_symmetry_Int_Tables_number   1
_chemical_formula_structural   Ce2LuAl2Ge3
_chemical_formula_sum   'Ce4 Lu2 Al4 Ge6'
_cell_volume   348.13398489
_cell_formula_units_Z   2
loop_
 _symmetry_equiv_pos_site_id
 _symmetry_equiv_pos_as_xyz
  1  'x, y, z'
loop_
 _atom_site_type_symbol
 _atom_site_label
 _atom_site_symmetry_multiplicity
 _atom_site_fract_x
 _atom_site_fract_y
 _atom_site_fract_z
 _atom_site_occupancy
  Ce  Ce0  1  0.664393  0.164344  0.819967  1
  Ce  Ce1  1  0.344452  0.844387  0.180100  1
  Ce  Ce2  1  0.844377  0.664344  0.499950  1
  Ce  Ce3  1  0.164287  0.344387  0.499935  1
  Lu  Lu4  1  0.734576  0.734604  0.000014  1
  Lu  Lu5  1  0.234590  0.234604  0.000028  1
  Al  Al6  1  0.948462  0.448482  0.767840  1
  Al  Al7  1  0.680607  0.180634  0.232156  1
  Al  Al8  1  0.180642  0.948482  0.500019  1
  Al  Al9  1  0.448479  0.680634  0.500027  1
  Ge  Ge10  1  0.480852  0.480838  0.999957  1
  Ge  Ge11  1  0.980881  0.980838  0.999986  1
  Ge  Ge12  1  0.042510  0.542508  0.188306  1
  Ge  Ge13  1  0.354210  0.854205  0.811721  1
  Ge  Ge14  1  0.854202  0.042508  0.499998  1
  Ge  Ge15  1  0.542483  0.354205  0.499995  1
