# generated using pymatgen
data_Er4Al17GaIr5Pt
_symmetry_space_group_name_H-M   'P 1'
_cell_length_a   7.54596004
_cell_length_b   7.54617867
_cell_length_c   9.45217401
_cell_angle_alpha   89.97432551
_cell_angle_beta   89.95364822
_cell_angle_gamma   119.47210155
_symmetry_Int_Tables_number   1
_chemical_formula_structural   Er4Al17GaIr5Pt
_chemical_formula_sum   'Er4 Al17 Ga1 Ir5 Pt1'
_cell_volume   468.58598531
_cell_formula_units_Z   1
loop_
 _symmetry_equiv_pos_site_id
 _symmetry_equiv_pos_as_xyz
  1  'x, y, z'
loop_
 _atom_site_type_symbol
 _atom_site_label
 _atom_site_symmetry_multiplicity
 _atom_site_fract_x
 _atom_site_fract_y
 _atom_site_fract_z
 _atom_site_occupancy
  Er  Er0  1  0.994196  0.674343  0.250907  1
  Er  Er1  1  0.004130  0.327554  0.749278  1
  Er  Er2  1  0.674844  0.994832  0.250652  1
  Er  Er3  1  0.327873  0.004700  0.749120  1
  Al  Al4  1  0.870914  0.870186  0.749853  1
  Al  Al5  1  0.004002  0.335756  0.076437  1
  Al  Al6  1  0.001984  0.667580  0.923589  1
  Al  Al7  1  0.999726  0.663967  0.574940  1
  Al  Al8  1  0.335940  0.999834  0.425361  1
  Al  Al9  1  0.000731  0.335385  0.424744  1
  Al  Al10  1  0.664526  0.998955  0.575444  1
  Al  Al11  1  0.663763  0.995555  0.923444  1
  Al  Al12  1  0.332123  0.997784  0.076122  1
  Al  Al13  1  0.332720  0.332403  0.554812  1
  Al  Al14  1  0.666750  0.666530  0.447942  1
  Al  Al15  1  0.665844  0.669036  0.055932  1
  Al  Al16  1  0.330113  0.333439  0.941317  1
  Al  Al17  1  0.339354  0.551845  0.250372  1
  Al  Al18  1  0.660371  0.452846  0.747389  1
  Al  Al19  1  0.548860  0.339001  0.252426  1
  Al  Al20  1  0.449919  0.660040  0.749691  1
  Ga  Ga21  1  0.134215  0.133082  0.250253  1
  Ir  Ir22  1  0.327394  0.671282  0.000126  1
  Ir  Ir23  1  0.327738  0.670934  0.499983  1
  Ir  Ir24  1  0.671484  0.327151  0.499915  1
  Ir  Ir25  1  0.999198  0.999716  0.997614  1
  Ir  Ir26  1  0.999724  0.999091  0.502362  1
  Pt  Pt27  1  0.671558  0.327175  0.999972  1
