# generated using pymatgen
data_Dy5Nb2P12Ir11Ru6
_symmetry_space_group_name_H-M   'P 1'
_cell_length_a   12.74845715
_cell_length_b   12.61662536
_cell_length_c   3.98072200
_cell_angle_alpha   90.00000000
_cell_angle_beta   90.00000000
_cell_angle_gamma   119.72444821
_symmetry_Int_Tables_number   1
_chemical_formula_structural   Dy5Nb2P12Ir11Ru6
_chemical_formula_sum   'Dy5 Nb2 P12 Ir11 Ru6'
_cell_volume   556.02268785
_cell_formula_units_Z   1
loop_
 _symmetry_equiv_pos_site_id
 _symmetry_equiv_pos_as_xyz
  1  'x, y, z'
loop_
 _atom_site_type_symbol
 _atom_site_label
 _atom_site_symmetry_multiplicity
 _atom_site_fract_x
 _atom_site_fract_y
 _atom_site_fract_z
 _atom_site_occupancy
  Dy  Dy0  1  0.664859  0.331714  0.000000  1
  Dy  Dy1  1  0.335637  0.669581  0.000000  1
  Dy  Dy2  1  0.814131  0.001809  0.500000  1
  Dy  Dy3  1  0.182928  0.184800  0.500000  1
  Dy  Dy4  1  0.999651  0.811904  0.500000  1
  Nb  Nb5  1  0.443596  0.998291  0.000000  1
  Nb  Nb6  1  0.553014  0.550694  0.000000  1
  P  P7  1  0.639557  0.002213  0.000000  1
  P  P8  1  0.358454  0.362000  0.000000  1
  P  P9  1  0.000094  0.635392  0.000000  1
  P  P10  1  0.687687  0.517990  0.500000  1
  P  P11  1  0.830786  0.307606  0.500000  1
  P  P12  1  0.318345  0.834142  0.500000  1
  P  P13  1  0.523363  0.689072  0.500000  1
  P  P14  1  0.176744  0.998402  0.000000  1
  P  P15  1  0.820578  0.818662  0.000000  1
  P  P16  1  0.997152  0.183444  0.000000  1
  P  P17  1  0.476627  0.163380  0.500000  1
  P  P18  1  0.169127  0.481395  0.500000  1
  Ir  Ir19  1  0.628191  0.806842  0.000000  1
  Ir  Ir20  1  0.179765  0.376260  0.000000  1
  Ir  Ir21  1  0.368679  0.180108  0.000000  1
  Ir  Ir22  1  0.190511  0.816106  0.000000  1
  Ir  Ir23  1  0.807550  0.621846  0.000000  1
  Ir  Ir24  1  0.868438  0.505114  0.500000  1
  Ir  Ir25  1  0.493809  0.357717  0.500000  1
  Ir  Ir26  1  0.639351  0.130025  0.500000  1
  Ir  Ir27  1  0.134025  0.641047  0.500000  1
  Ir  Ir28  1  0.359466  0.492314  0.500000  1
  Ir  Ir29  1  0.997725  0.001191  0.000000  1
  Ru  Ru30  1  0.514468  0.870618  0.500000  1
  Ru  Ru31  1  0.721301  0.717628  0.500000  1
  Ru  Ru32  1  0.002044  0.288574  0.500000  1
  Ru  Ru33  1  0.002378  0.455399  0.000000  1
  Ru  Ru34  1  0.821241  0.198926  0.000000  1
  Ru  Ru35  1  0.278725  0.997790  0.500000  1
