# generated using pymatgen
data_Tb2PrCd3Pb2Au
_symmetry_space_group_name_H-M   'P 1'
_cell_length_a   7.64211844
_cell_length_b   7.64211727
_cell_length_c   4.66221300
_cell_angle_alpha   90.00000000
_cell_angle_beta   90.00000000
_cell_angle_gamma   120.51920604
_symmetry_Int_Tables_number   1
_chemical_formula_structural   Tb2PrCd3Pb2Au
_chemical_formula_sum   'Tb2 Pr1 Cd3 Pb2 Au1'
_cell_volume   234.56012063
_cell_formula_units_Z   1
loop_
 _symmetry_equiv_pos_site_id
 _symmetry_equiv_pos_as_xyz
  1  'x, y, z'
loop_
 _atom_site_type_symbol
 _atom_site_label
 _atom_site_symmetry_multiplicity
 _atom_site_fract_x
 _atom_site_fract_y
 _atom_site_fract_z
 _atom_site_occupancy
  Tb  Tb0  1  0.600485  0.001281  0.000000  1
  Tb  Tb1  1  0.001281  0.600485  0.000000  1
  Pr  Pr2  1  0.406674  0.406674  0.000000  1
  Cd  Cd3  1  0.232675  0.000474  0.500000  1
  Cd  Cd4  1  0.000474  0.232675  0.500000  1
  Cd  Cd5  1  0.764038  0.764038  0.500000  1
  Pb  Pb6  1  0.331141  0.671734  0.500000  1
  Pb  Pb7  1  0.671734  0.331141  0.500000  1
  Au  Au8  1  0.991499  0.991499  0.000000  1
