# generated using pymatgen
data_LiYb2Si(PPd4)5
_symmetry_space_group_name_H-M   'P 1'
_cell_length_a   8.63345833
_cell_length_b   8.63778187
_cell_length_c   8.63742607
_cell_angle_alpha   59.96824383
_cell_angle_beta   60.01532201
_cell_angle_gamma   60.01373251
_symmetry_Int_Tables_number   1
_chemical_formula_structural   LiYb2Si(PPd4)5
_chemical_formula_sum   'Li1 Yb2 Si1 P5 Pd20'
_cell_volume   455.45693413
_cell_formula_units_Z   1
loop_
 _symmetry_equiv_pos_site_id
 _symmetry_equiv_pos_as_xyz
  1  'x, y, z'
loop_
 _atom_site_type_symbol
 _atom_site_label
 _atom_site_symmetry_multiplicity
 _atom_site_fract_x
 _atom_site_fract_y
 _atom_site_fract_z
 _atom_site_occupancy
  Li  Li0  1  0.999592  0.000408  0.000409  1
  Yb  Yb1  1  0.250415  0.249585  0.249585  1
  Yb  Yb2  1  0.750415  0.749585  0.749585  1
  Si  Si3  1  0.737394  0.262609  0.262606  1
  P  P4  1  0.261615  0.738379  0.738384  1
  P  P5  1  0.262997  0.737004  0.261274  1
  P  P6  1  0.738726  0.261274  0.737003  1
  P  P7  1  0.263002  0.261301  0.736998  1
  P  P8  1  0.738705  0.736992  0.261295  1
  Pd  Pd9  1  0.383313  0.385527  0.385529  1
  Pd  Pd10  1  0.614805  0.614812  0.614798  1
  Pd  Pd11  1  0.385173  0.385207  0.844409  1
  Pd  Pd12  1  0.385201  0.844415  0.385195  1
  Pd  Pd13  1  0.614490  0.616678  0.154366  1
  Pd  Pd14  1  0.614472  0.154368  0.616686  1
  Pd  Pd15  1  0.845633  0.385535  0.385510  1
  Pd  Pd16  1  0.155592  0.614788  0.614827  1
  Pd  Pd17  1  0.342632  0.000811  0.000814  1
  Pd  Pd18  1  0.655752  0.000802  0.000801  1
  Pd  Pd19  1  0.999186  0.344257  0.657368  1
  Pd  Pd20  1  0.999200  0.657354  0.344249  1
  Pd  Pd21  1  0.002131  0.344750  0.997870  1
  Pd  Pd22  1  0.655274  0.997872  0.344726  1
  Pd  Pd23  1  0.999786  0.656316  0.000215  1
  Pd  Pd24  1  0.343655  0.000211  0.656346  1
  Pd  Pd25  1  0.002128  0.997881  0.344729  1
  Pd  Pd26  1  0.999783  0.000212  0.656336  1
  Pd  Pd27  1  0.655270  0.344739  0.997872  1
  Pd  Pd28  1  0.343665  0.656330  0.000217  1
