# generated using pymatgen
data_Ti3CrSi3Rh2
_symmetry_space_group_name_H-M   'P 1'
_cell_length_a   7.36797231
_cell_length_b   7.36797284
_cell_length_c   7.36797182
_cell_angle_alpha   127.31067147
_cell_angle_beta   123.78536534
_cell_angle_gamma   80.66422959
_symmetry_Int_Tables_number   1
_chemical_formula_structural   Ti3CrSi3Rh2
_chemical_formula_sum   'Ti6 Cr2 Si6 Rh4'
_cell_volume   254.99206659
_cell_formula_units_Z   2
loop_
 _symmetry_equiv_pos_site_id
 _symmetry_equiv_pos_as_xyz
  1  'x, y, z'
loop_
 _atom_site_type_symbol
 _atom_site_label
 _atom_site_symmetry_multiplicity
 _atom_site_fract_x
 _atom_site_fract_y
 _atom_site_fract_z
 _atom_site_occupancy
  Ti  Ti0  1  0.964789  0.735429  0.270639  1
  Ti  Ti1  1  0.035211  0.305852  0.770639  1
  Ti  Ti2  1  0.245947  0.172509  0.426563  1
  Ti  Ti3  1  0.754053  0.180618  0.926563  1
  Ti  Ti4  1  0.561894  0.350788  0.288892  1
  Ti  Ti5  1  0.438106  0.726998  0.788892  1
  Cr  Cr6  1  0.500000  0.494960  0.994960  1
  Cr  Cr7  1  0.000000  0.494960  0.494960  1
  Si  Si8  1  0.779194  0.787575  0.508381  1
  Si  Si9  1  0.220806  0.729187  0.008381  1
  Si  Si10  1  0.339688  0.076124  0.750328  1
  Si  Si11  1  0.660312  0.410640  0.736436  1
  Si  Si12  1  0.174204  0.410640  0.250328  1
  Si  Si13  1  0.825796  0.076124  0.236436  1
  Rh  Rh14  1  0.161654  0.998781  0.906874  1
  Rh  Rh15  1  0.838346  0.745220  0.837127  1
  Rh  Rh16  1  0.408093  0.745220  0.406874  1
  Rh  Rh17  1  0.591907  0.998781  0.337127  1
