# generated using pymatgen
data_Ti2AlIr4Rh
_symmetry_space_group_name_H-M   'P 1'
_cell_length_a   4.00796300
_cell_length_b   5.41690500
_cell_length_c   10.67939500
_cell_angle_alpha   90.00000000
_cell_angle_beta   90.00000000
_cell_angle_gamma   90.00000000
_symmetry_Int_Tables_number   1
_chemical_formula_structural   Ti2AlIr4Rh
_chemical_formula_sum   'Ti4 Al2 Ir8 Rh2'
_cell_volume   231.85772641
_cell_formula_units_Z   2
loop_
 _symmetry_equiv_pos_site_id
 _symmetry_equiv_pos_as_xyz
  1  'x, y, z'
loop_
 _atom_site_type_symbol
 _atom_site_label
 _atom_site_symmetry_multiplicity
 _atom_site_fract_x
 _atom_site_fract_y
 _atom_site_fract_z
 _atom_site_occupancy
  Ti  Ti0  1  0.500000  0.318660  0.138901  1
  Ti  Ti1  1  0.500000  0.681340  0.861099  1
  Ti  Ti2  1  0.500000  0.818660  0.361099  1
  Ti  Ti3  1  0.500000  0.181340  0.638901  1
  Al  Al4  1  0.000000  0.000000  0.000000  1
  Al  Al5  1  0.000000  0.500000  0.500000  1
  Ir  Ir6  1  0.000000  0.066905  0.248186  1
  Ir  Ir7  1  0.000000  0.933095  0.751814  1
  Ir  Ir8  1  0.000000  0.566905  0.251814  1
  Ir  Ir9  1  0.000000  0.433095  0.748186  1
  Ir  Ir10  1  0.500000  0.308490  0.388660  1
  Ir  Ir11  1  0.500000  0.691510  0.611340  1
  Ir  Ir12  1  0.500000  0.808490  0.111340  1
  Ir  Ir13  1  0.500000  0.191510  0.888660  1
  Rh  Rh14  1  0.000000  0.000000  0.500000  1
  Rh  Rh15  1  0.000000  0.500000  0.000000  1
