# generated using pymatgen
data_Th2Co2Au
_symmetry_space_group_name_H-M   'P 1'
_cell_length_a   7.40833700
_cell_length_b   7.40833700
_cell_length_c   3.63357900
_cell_angle_alpha   90.00000000
_cell_angle_beta   90.00000000
_cell_angle_gamma   90.00000000
_symmetry_Int_Tables_number   1
_chemical_formula_structural   Th2Co2Au
_chemical_formula_sum   'Th4 Co4 Au2'
_cell_volume   199.42337719
_cell_formula_units_Z   2
loop_
 _symmetry_equiv_pos_site_id
 _symmetry_equiv_pos_as_xyz
  1  'x, y, z'
loop_
 _atom_site_type_symbol
 _atom_site_label
 _atom_site_symmetry_multiplicity
 _atom_site_fract_x
 _atom_site_fract_y
 _atom_site_fract_z
 _atom_site_occupancy
  Th  Th0  1  0.326200  0.173800  0.500001  1
  Th  Th1  1  0.826200  0.326200  0.500001  1
  Th  Th2  1  0.173800  0.673801  0.500001  1
  Th  Th3  1  0.673801  0.826200  0.500001  1
  Co  Co4  1  0.628795  0.128796  0.000000  1
  Co  Co5  1  0.128796  0.371204  0.000000  1
  Co  Co6  1  0.871206  0.628795  0.000000  1
  Co  Co7  1  0.371204  0.871206  0.000000  1
  Au  Au8  1  0.000000  0.000000  0.000000  1
  Au  Au9  1  0.500000  0.500000  0.000000  1
