# generated using pymatgen
data_La2B8OsRu6
_symmetry_space_group_name_H-M   'P 1'
_cell_length_a   6.48835000
_cell_length_b   6.48835000
_cell_length_c   10.16851100
_cell_angle_alpha   90.00000000
_cell_angle_beta   90.00000000
_cell_angle_gamma   90.00000000
_symmetry_Int_Tables_number   1
_chemical_formula_structural   La2B8OsRu6
_chemical_formula_sum   'La4 B16 Os2 Ru12'
_cell_volume   428.08094885
_cell_formula_units_Z   2
loop_
 _symmetry_equiv_pos_site_id
 _symmetry_equiv_pos_as_xyz
  1  'x, y, z'
loop_
 _atom_site_type_symbol
 _atom_site_label
 _atom_site_symmetry_multiplicity
 _atom_site_fract_x
 _atom_site_fract_y
 _atom_site_fract_z
 _atom_site_occupancy
  La  La0  1  0.732829  0.880408  0.000000  1
  La  La1  1  0.119592  0.732829  0.500000  1
  La  La2  1  0.880408  0.267171  0.500000  1
  La  La3  1  0.267171  0.119592  0.000000  1
  B  B4  1  0.500000  0.000000  0.589213  1
  B  B5  1  0.500000  0.000000  0.410787  1
  B  B6  1  0.897463  0.274607  0.168206  1
  B  B7  1  0.102537  0.725393  0.831794  1
  B  B8  1  0.500000  0.500000  0.340842  1
  B  B9  1  0.500000  0.500000  0.840842  1
  B  B10  1  0.274607  0.102537  0.668206  1
  B  B11  1  0.102537  0.725393  0.168206  1
  B  B12  1  0.274607  0.102537  0.331794  1
  B  B13  1  0.897463  0.274607  0.831794  1
  B  B14  1  0.500000  0.500000  0.659158  1
  B  B15  1  0.500000  0.500000  0.159158  1
  B  B16  1  0.000000  0.500000  0.910787  1
  B  B17  1  0.725393  0.897463  0.668206  1
  B  B18  1  0.725393  0.897463  0.331794  1
  B  B19  1  0.000000  0.500000  0.089213  1
  Os  Os20  1  0.000000  0.000000  0.250000  1
  Os  Os21  1  0.000000  0.000000  0.750000  1
  Ru  Ru22  1  0.204987  0.399436  0.752522  1
  Ru  Ru23  1  0.400178  0.286587  0.500000  1
  Ru  Ru24  1  0.399436  0.795013  0.252522  1
  Ru  Ru25  1  0.204987  0.399436  0.247478  1
  Ru  Ru26  1  0.599822  0.713413  0.500000  1
  Ru  Ru27  1  0.600564  0.204987  0.747478  1
  Ru  Ru28  1  0.286587  0.599822  0.000000  1
  Ru  Ru29  1  0.713413  0.400178  0.000000  1
  Ru  Ru30  1  0.795013  0.600564  0.247478  1
  Ru  Ru31  1  0.795013  0.600564  0.752522  1
  Ru  Ru32  1  0.399436  0.795013  0.747478  1
  Ru  Ru33  1  0.600564  0.204987  0.252522  1
