# generated using pymatgen
data_Eu3Bi(AuO3)4
_symmetry_space_group_name_H-M   'P 1'
_cell_length_a   3.96507872
_cell_length_b   5.66794100
_cell_length_c   13.13314800
_cell_angle_alpha   90.00000000
_cell_angle_beta   89.51900836
_cell_angle_gamma   90.00000000
_symmetry_Int_Tables_number   1
_chemical_formula_structural   Eu3Bi(AuO3)4
_chemical_formula_sum   'Eu3 Bi1 Au4 O12'
_cell_volume   295.14176454
_cell_formula_units_Z   1
loop_
 _symmetry_equiv_pos_site_id
 _symmetry_equiv_pos_as_xyz
  1  'x, y, z'
loop_
 _atom_site_type_symbol
 _atom_site_label
 _atom_site_symmetry_multiplicity
 _atom_site_fract_x
 _atom_site_fract_y
 _atom_site_fract_z
 _atom_site_occupancy
  Eu  Eu0  1  0.260925  0.750000  0.080126  1
  Eu  Eu1  1  0.251528  0.250000  0.417776  1
  Eu  Eu2  1  0.745734  0.250000  0.920750  1
  Bi  Bi3  1  0.721654  0.750000  0.574332  1
  Au  Au4  1  0.073729  0.750000  0.832386  1
  Au  Au5  1  0.073460  0.250000  0.671015  1
  Au  Au6  1  0.932748  0.250000  0.168998  1
  Au  Au7  1  0.929974  0.750000  0.328808  1
  O  O8  1  0.186613  0.499519  0.249167  1
  O  O9  1  0.824125  0.003655  0.754369  1
  O  O10  1  0.824125  0.496345  0.754369  1
  O  O11  1  0.186613  0.000481  0.249167  1
  O  O12  1  0.749258  0.499622  0.076504  1
  O  O13  1  0.739563  0.506135  0.424539  1
  O  O14  1  0.256988  0.999401  0.925196  1
  O  O15  1  0.248577  0.004603  0.573130  1
  O  O16  1  0.739563  0.993865  0.424539  1
  O  O17  1  0.749258  0.000378  0.076504  1
  O  O18  1  0.248577  0.495397  0.573130  1
  O  O19  1  0.256988  0.500599  0.925196  1
