# generated using pymatgen
data_Pa6Al24Re3Os5
_symmetry_space_group_name_H-M   'P 1'
_cell_length_a   8.90225600
_cell_length_b   8.90225527
_cell_length_c   9.43729300
_cell_angle_alpha   90.00000000
_cell_angle_beta   90.00000000
_cell_angle_gamma   120.00000273
_symmetry_Int_Tables_number   1
_chemical_formula_structural   Pa6Al24Re3Os5
_chemical_formula_sum   'Pa6 Al24 Re3 Os5'
_cell_volume   647.70638882
_cell_formula_units_Z   1
loop_
 _symmetry_equiv_pos_site_id
 _symmetry_equiv_pos_as_xyz
  1  'x, y, z'
loop_
 _atom_site_type_symbol
 _atom_site_label
 _atom_site_symmetry_multiplicity
 _atom_site_fract_x
 _atom_site_fract_y
 _atom_site_fract_z
 _atom_site_occupancy
  Pa  Pa0  1  0.198640  0.397280  0.244724  1
  Pa  Pa1  1  0.801360  0.602720  0.755276  1
  Pa  Pa2  1  0.602720  0.801360  0.244724  1
  Pa  Pa3  1  0.397280  0.198640  0.755276  1
  Pa  Pa4  1  0.198640  0.801360  0.244724  1
  Pa  Pa5  1  0.801360  0.198640  0.755276  1
  Al  Al6  1  0.333333  0.666667  0.010754  1
  Al  Al7  1  0.666667  0.333333  0.989246  1
  Al  Al8  1  0.666667  0.333333  0.518484  1
  Al  Al9  1  0.333333  0.666667  0.481516  1
  Al  Al10  1  0.161664  0.323327  0.577554  1
  Al  Al11  1  0.838336  0.676673  0.422446  1
  Al  Al12  1  0.676673  0.838336  0.577554  1
  Al  Al13  1  0.838512  0.677026  0.082460  1
  Al  Al14  1  0.323327  0.161664  0.422446  1
  Al  Al15  1  0.161488  0.322974  0.917540  1
  Al  Al16  1  0.161664  0.838336  0.577554  1
  Al  Al17  1  0.322974  0.161488  0.082460  1
  Al  Al18  1  0.838336  0.161664  0.422446  1
  Al  Al19  1  0.677026  0.838512  0.917540  1
  Al  Al20  1  0.838512  0.161488  0.082460  1
  Al  Al21  1  0.161488  0.838512  0.917540  1
  Al  Al22  1  0.562377  0.124754  0.252355  1
  Al  Al23  1  0.437623  0.875246  0.747645  1
  Al  Al24  1  0.875246  0.437623  0.252355  1
  Al  Al25  1  0.124754  0.562377  0.747645  1
  Al  Al26  1  0.562377  0.437623  0.252355  1
  Al  Al27  1  0.437623  0.562377  0.747645  1
  Al  Al28  1  0.000000  0.000000  0.250113  1
  Al  Al29  1  0.000000  0.000000  0.749887  1
  Re  Re30  1  0.500000  0.000000  0.000000  1
  Re  Re31  1  0.000000  0.500000  0.000000  1
  Re  Re32  1  0.500000  0.500000  0.000000  1
  Os  Os33  1  0.500000  0.000000  0.500000  1
  Os  Os34  1  0.000000  0.500000  0.500000  1
  Os  Os35  1  0.500000  0.500000  0.500000  1
  Os  Os36  1  0.000000  0.000000  0.000000  1
  Os  Os37  1  0.000000  0.000000  0.500000  1
