# generated using pymatgen
data_Tb5Dy11(TmSn4)4
_symmetry_space_group_name_H-M   'P 1'
_cell_length_a   8.00908903
_cell_length_b   8.16357101
_cell_length_c   15.44378104
_cell_angle_alpha   90.00239833
_cell_angle_beta   89.99189969
_cell_angle_gamma   89.99583383
_symmetry_Int_Tables_number   1
_chemical_formula_structural   Tb5Dy11(TmSn4)4
_chemical_formula_sum   'Tb5 Dy11 Tm4 Sn16'
_cell_volume   1009.75712322
_cell_formula_units_Z   1
loop_
 _symmetry_equiv_pos_site_id
 _symmetry_equiv_pos_as_xyz
  1  'x, y, z'
loop_
 _atom_site_type_symbol
 _atom_site_label
 _atom_site_symmetry_multiplicity
 _atom_site_fract_x
 _atom_site_fract_y
 _atom_site_fract_z
 _atom_site_occupancy
  Tb  Tb0  1  0.980107  0.820458  0.097335  1
  Tb  Tb1  1  0.480104  0.679523  0.097300  1
  Tb  Tb2  1  0.980100  0.820455  0.402684  1
  Tb  Tb3  1  0.519893  0.320462  0.597298  1
  Tb  Tb4  1  0.019885  0.179553  0.902692  1
  Dy  Dy5  1  0.366876  0.837173  0.877881  1
  Dy  Dy6  1  0.866882  0.662842  0.622117  1
  Dy  Dy7  1  0.633116  0.162850  0.377890  1
  Dy  Dy8  1  0.133128  0.337142  0.122119  1
  Dy  Dy9  1  0.633115  0.162867  0.122102  1
  Dy  Dy10  1  0.133128  0.337162  0.377903  1
  Dy  Dy11  1  0.366872  0.837168  0.622101  1
  Dy  Dy12  1  0.866855  0.662819  0.877871  1
  Dy  Dy13  1  0.519902  0.320462  0.902643  1
  Dy  Dy14  1  0.019908  0.179530  0.597359  1
  Dy  Dy15  1  0.480090  0.679521  0.402647  1
  Tm  Tm16  1  0.198235  0.502777  0.750010  1
  Tm  Tm17  1  0.698237  0.997226  0.749988  1
  Tm  Tm18  1  0.801740  0.497195  0.250034  1
  Tm  Tm19  1  0.301798  0.002806  0.250010  1
  Sn  Sn20  1  0.293219  0.036025  0.042530  1
  Sn  Sn21  1  0.793103  0.464058  0.457446  1
  Sn  Sn22  1  0.706897  0.964058  0.542553  1
  Sn  Sn23  1  0.206904  0.535932  0.957445  1
  Sn  Sn24  1  0.706733  0.964052  0.957457  1
  Sn  Sn25  1  0.206822  0.535998  0.542500  1
  Sn  Sn26  1  0.293176  0.035992  0.457500  1
  Sn  Sn27  1  0.793141  0.463935  0.042491  1
  Sn  Sn28  1  0.563804  0.618411  0.750001  1
  Sn  Sn29  1  0.063806  0.881581  0.749991  1
  Sn  Sn30  1  0.436191  0.381593  0.250008  1
  Sn  Sn31  1  0.936191  0.118468  0.250009  1
  Sn  Sn32  1  0.328985  0.148391  0.750033  1
  Sn  Sn33  1  0.828989  0.351600  0.749960  1
  Sn  Sn34  1  0.670966  0.851607  0.250060  1
  Sn  Sn35  1  0.171104  0.648308  0.250030  1
