# generated using pymatgen
data_Sr3LaB16(OsRu6)2
_symmetry_space_group_name_H-M   'P 1'
_cell_length_a   6.48881400
_cell_length_b   6.47939299
_cell_length_c   10.22876200
_cell_angle_alpha   90.00000000
_cell_angle_beta   90.00000000
_cell_angle_gamma   90.08985677
_symmetry_Int_Tables_number   1
_chemical_formula_structural   Sr3LaB16(OsRu6)2
_chemical_formula_sum   'Sr3 La1 B16 Os2 Ru12'
_cell_volume   430.05320290
_cell_formula_units_Z   1
loop_
 _symmetry_equiv_pos_site_id
 _symmetry_equiv_pos_as_xyz
  1  'x, y, z'
loop_
 _atom_site_type_symbol
 _atom_site_label
 _atom_site_symmetry_multiplicity
 _atom_site_fract_x
 _atom_site_fract_y
 _atom_site_fract_z
 _atom_site_occupancy
  Sr  Sr0  1  0.110844  0.730021  0.500000  1
  Sr  Sr1  1  0.888673  0.269052  0.500000  1
  Sr  Sr2  1  0.269670  0.112263  0.000000  1
  La  La3  1  0.734141  0.883001  0.000000  1
  B  B4  1  0.500186  0.000479  0.588837  1
  B  B5  1  0.500186  0.000479  0.411163  1
  B  B6  1  0.897639  0.273846  0.167302  1
  B  B7  1  0.102334  0.725903  0.832125  1
  B  B8  1  0.499414  0.500432  0.340666  1
  B  B9  1  0.499117  0.500419  0.840954  1
  B  B10  1  0.275670  0.102578  0.668810  1
  B  B11  1  0.102334  0.725903  0.167875  1
  B  B12  1  0.275670  0.102578  0.331190  1
  B  B13  1  0.897639  0.273846  0.832698  1
  B  B14  1  0.499414  0.500432  0.659334  1
  B  B15  1  0.499117  0.500419  0.159046  1
  B  B16  1  0.000015  0.499620  0.911183  1
  B  B17  1  0.725661  0.898337  0.667994  1
  B  B18  1  0.725661  0.898337  0.332006  1
  B  B19  1  0.000015  0.499620  0.088817  1
  Os  Os20  1  0.999791  0.000174  0.249226  1
  Os  Os21  1  0.999791  0.000174  0.750774  1
  Ru  Ru22  1  0.205767  0.396396  0.756394  1
  Ru  Ru23  1  0.405826  0.286863  0.500000  1
  Ru  Ru24  1  0.396618  0.794266  0.254728  1
  Ru  Ru25  1  0.205767  0.396396  0.243606  1
  Ru  Ru26  1  0.594272  0.714276  0.500000  1
  Ru  Ru27  1  0.603385  0.206312  0.745119  1
  Ru  Ru28  1  0.286231  0.595765  0.000000  1
  Ru  Ru29  1  0.713380  0.402911  0.000000  1
  Ru  Ru30  1  0.792884  0.604162  0.243103  1
  Ru  Ru31  1  0.792884  0.604162  0.756897  1
  Ru  Ru32  1  0.396618  0.794266  0.745272  1
  Ru  Ru33  1  0.603385  0.206312  0.254881  1
