# generated using pymatgen
data_ZrTa3(NbBr6)3
_symmetry_space_group_name_H-M   'P 1'
_cell_length_a   10.70894783
_cell_length_b   10.70795729
_cell_length_c   10.71068300
_cell_angle_alpha   56.08094688
_cell_angle_beta   56.06860389
_cell_angle_gamma   56.07469457
_symmetry_Int_Tables_number   1
_chemical_formula_structural   ZrTa3(NbBr6)3
_chemical_formula_sum   'Zr1 Ta3 Nb3 Br18'
_cell_volume   789.52247883
_cell_formula_units_Z   1
loop_
 _symmetry_equiv_pos_site_id
 _symmetry_equiv_pos_as_xyz
  1  'x, y, z'
loop_
 _atom_site_type_symbol
 _atom_site_label
 _atom_site_symmetry_multiplicity
 _atom_site_fract_x
 _atom_site_fract_y
 _atom_site_fract_z
 _atom_site_occupancy
  Zr  Zr0  1  0.999961  0.999909  0.000361  1
  Ta  Ta1  1  0.413497  0.314777  0.639524  1
  Ta  Ta2  1  0.360256  0.586693  0.685117  1
  Ta  Ta3  1  0.685356  0.360386  0.586245  1
  Nb  Nb4  1  0.312971  0.641115  0.412564  1
  Nb  Nb5  1  0.641030  0.412958  0.312716  1
  Nb  Nb6  1  0.587219  0.687201  0.358777  1
  Br  Br7  1  0.565920  0.160206  0.445055  1
  Br  Br8  1  0.222749  0.372872  0.907295  1
  Br  Br9  1  0.908536  0.221627  0.374589  1
  Br  Br10  1  0.371874  0.909424  0.221842  1
  Br  Br11  1  0.778307  0.628014  0.090604  1
  Br  Br12  1  0.092041  0.777153  0.629592  1
  Br  Br13  1  0.716995  0.964448  0.150778  1
  Br  Br14  1  0.961889  0.151338  0.716705  1
  Br  Br15  1  0.152614  0.715786  0.962329  1
  Br  Br16  1  0.284053  0.037500  0.848509  1
  Br  Br17  1  0.035052  0.848987  0.283494  1
  Br  Br18  1  0.850284  0.282871  0.035429  1
  Br  Br19  1  0.557117  0.432786  0.838261  1
  Br  Br20  1  0.161750  0.440424  0.568898  1
  Br  Br21  1  0.442646  0.567530  0.160215  1
  Br  Br22  1  0.431132  0.838293  0.559534  1
  Br  Br23  1  0.839777  0.554919  0.434148  1
  Br  Br24  1  0.626976  0.092782  0.777418  1
