# generated using pymatgen
data_YCd3Pd8
_symmetry_space_group_name_H-M   'P 1'
_cell_length_a   4.20619705
_cell_length_b   5.74641013
_cell_length_c   17.18120025
_cell_angle_alpha   90.03187937
_cell_angle_beta   89.99750227
_cell_angle_gamma   90.02593069
_symmetry_Int_Tables_number   1
_chemical_formula_structural   YCd3Pd8
_chemical_formula_sum   'Y2 Cd6 Pd16'
_cell_volume   415.27866675
_cell_formula_units_Z   2
loop_
 _symmetry_equiv_pos_site_id
 _symmetry_equiv_pos_as_xyz
  1  'x, y, z'
loop_
 _atom_site_type_symbol
 _atom_site_label
 _atom_site_symmetry_multiplicity
 _atom_site_fract_x
 _atom_site_fract_y
 _atom_site_fract_z
 _atom_site_occupancy
  Y  Y0  1  0.524057  0.845686  0.206133  1
  Y  Y1  1  0.527970  0.232370  0.706127  1
  Cd  Cd2  1  0.524225  0.337889  0.043840  1
  Cd  Cd3  1  0.525636  0.337069  0.368378  1
  Cd  Cd4  1  0.026846  0.040348  0.456024  1
  Cd  Cd5  1  0.527816  0.743371  0.543939  1
  Cd  Cd6  1  0.526375  0.739792  0.868465  1
  Cd  Cd7  1  0.025204  0.039227  0.956009  1
  Pd  Pd8  1  0.524449  0.828779  0.035547  1
  Pd  Pd9  1  0.023883  0.101159  0.120966  1
  Pd  Pd10  1  0.023986  0.592376  0.121775  1
  Pd  Pd11  1  0.524050  0.345411  0.206120  1
  Pd  Pd12  1  0.024761  0.591464  0.290680  1
  Pd  Pd13  1  0.024654  0.100181  0.291164  1
  Pd  Pd14  1  0.525993  0.827815  0.376776  1
  Pd  Pd15  1  0.026840  0.540230  0.456322  1
  Pd  Pd16  1  0.527585  0.252732  0.535525  1
  Pd  Pd17  1  0.028144  0.979678  0.620875  1
  Pd  Pd18  1  0.028090  0.488300  0.621914  1
  Pd  Pd19  1  0.527985  0.732595  0.706196  1
  Pd  Pd20  1  0.027254  0.484644  0.790767  1
  Pd  Pd21  1  0.027340  0.975731  0.791081  1
  Pd  Pd22  1  0.526047  0.248940  0.876680  1
  Pd  Pd23  1  0.025147  0.539175  0.956236  1
