# generated using pymatgen
data_Cs14TaNb(In3P5)2
_symmetry_space_group_name_H-M   'P 1'
_cell_length_a   8.87505901
_cell_length_b   9.74181856
_cell_length_c   14.80096862
_cell_angle_alpha   85.56827270
_cell_angle_beta   84.53308460
_cell_angle_gamma   85.01535891
_symmetry_Int_Tables_number   1
_chemical_formula_structural   Cs14TaNb(In3P5)2
_chemical_formula_sum   'Cs14 Ta1 Nb1 In6 P10'
_cell_volume   1265.96670338
_cell_formula_units_Z   1
loop_
 _symmetry_equiv_pos_site_id
 _symmetry_equiv_pos_as_xyz
  1  'x, y, z'
loop_
 _atom_site_type_symbol
 _atom_site_label
 _atom_site_symmetry_multiplicity
 _atom_site_fract_x
 _atom_site_fract_y
 _atom_site_fract_z
 _atom_site_occupancy
  Cs  Cs0  1  0.840252  0.363174  0.649357  1
  Cs  Cs1  1  0.818772  0.808190  0.134013  1
  Cs  Cs2  1  0.238192  0.008151  0.468211  1
  Cs  Cs3  1  0.274231  0.254098  0.250927  1
  Cs  Cs4  1  0.741432  0.499058  0.974305  1
  Cs  Cs5  1  0.257318  0.501186  0.026041  1
  Cs  Cs6  1  0.678828  0.083340  0.885442  1
  Cs  Cs7  1  0.762197  0.992486  0.533102  1
  Cs  Cs8  1  0.726756  0.743127  0.748978  1
  Cs  Cs9  1  0.332352  0.344009  0.598347  1
  Cs  Cs10  1  0.159491  0.637944  0.349384  1
  Cs  Cs11  1  0.181098  0.193056  0.865730  1
  Cs  Cs12  1  0.319704  0.917407  0.110546  1
  Cs  Cs13  1  0.665042  0.656385  0.402594  1
  Ta  Ta14  1  0.351482  0.606725  0.773282  1
  Nb  Nb15  1  0.648568  0.393352  0.226851  1
  In  In16  1  0.059802  0.812786  0.867251  1
  In  In17  1  0.939393  0.187337  0.133318  1
  In  In18  1  0.357098  0.946146  0.705094  1
  In  In19  1  0.096788  0.721540  0.626492  1
  In  In20  1  0.903166  0.278723  0.373280  1
  In  In21  1  0.643998  0.054262  0.296062  1
  P  P22  1  0.913251  0.444286  0.212592  1
  P  P23  1  0.630552  0.203144  0.128894  1
  P  P24  1  0.088091  0.555112  0.787318  1
  P  P25  1  0.592658  0.297328  0.383495  1
  P  P26  1  0.407774  0.702531  0.617604  1
  P  P27  1  0.039222  0.982356  0.704073  1
  P  P28  1  0.510222  0.407871  0.807961  1
  P  P29  1  0.490670  0.592996  0.191355  1
  P  P30  1  0.370084  0.794769  0.871531  1
  P  P31  1  0.961513  0.017123  0.296572  1
