# generated using pymatgen
data_Sr2Si3Hg
_symmetry_space_group_name_H-M   'P 1'
_cell_length_a   11.96176782
_cell_length_b   10.30992029
_cell_length_c   8.54780914
_cell_angle_alpha   78.12284823
_cell_angle_beta   57.50663125
_cell_angle_gamma   44.37050636
_symmetry_Int_Tables_number   1
_chemical_formula_structural   Sr2Si3Hg
_chemical_formula_sum   'Sr8 Si12 Hg4'
_cell_volume   592.71202179
_cell_formula_units_Z   4
loop_
 _symmetry_equiv_pos_site_id
 _symmetry_equiv_pos_as_xyz
  1  'x, y, z'
loop_
 _atom_site_type_symbol
 _atom_site_label
 _atom_site_symmetry_multiplicity
 _atom_site_fract_x
 _atom_site_fract_y
 _atom_site_fract_z
 _atom_site_occupancy
  Sr  Sr0  1  0.124107  0.124107  0.875893  1
  Sr  Sr1  1  0.875894  0.875894  0.124106  1
  Sr  Sr2  1  0.125894  0.125894  0.374106  1
  Sr  Sr3  1  0.374107  0.374107  0.125893  1
  Sr  Sr4  1  0.623377  0.623378  0.376623  1
  Sr  Sr5  1  0.376623  0.376623  0.623377  1
  Sr  Sr6  1  0.626623  0.626623  0.873377  1
  Sr  Sr7  1  0.873378  0.873378  0.626622  1
  Si  Si8  1  0.912311  0.594100  0.428656  1
  Si  Si9  1  0.064934  0.428656  0.594100  1
  Si  Si10  1  0.428656  0.064934  0.912311  1
  Si  Si11  1  0.594100  0.912311  0.064934  1
  Si  Si12  1  0.337689  0.655900  0.821344  1
  Si  Si13  1  0.655900  0.337689  0.185066  1
  Si  Si14  1  0.821344  0.185066  0.337689  1
  Si  Si15  1  0.185066  0.821344  0.655900  1
  Si  Si16  1  0.909837  0.590164  0.909836  1
  Si  Si17  1  0.590164  0.909837  0.590163  1
  Si  Si18  1  0.340164  0.659837  0.340164  1
  Si  Si19  1  0.659836  0.340164  0.659836  1
  Hg  Hg20  1  0.082694  0.417306  0.082694  1
  Hg  Hg21  1  0.832694  0.167306  0.832694  1
  Hg  Hg22  1  0.167306  0.832694  0.167306  1
  Hg  Hg23  1  0.417306  0.082694  0.417306  1
