# generated using pymatgen
data_HoPa(SiNi)2
_symmetry_space_group_name_H-M   'P 1'
_cell_length_a   4.16028400
_cell_length_b   6.94733020
_cell_length_c   7.05304852
_cell_angle_alpha   89.65725490
_cell_angle_beta   90.00000000
_cell_angle_gamma   90.00000000
_symmetry_Int_Tables_number   1
_chemical_formula_structural   HoPa(SiNi)2
_chemical_formula_sum   'Ho2 Pa2 Si4 Ni4'
_cell_volume   203.84967341
_cell_formula_units_Z   2
loop_
 _symmetry_equiv_pos_site_id
 _symmetry_equiv_pos_as_xyz
  1  'x, y, z'
loop_
 _atom_site_type_symbol
 _atom_site_label
 _atom_site_symmetry_multiplicity
 _atom_site_fract_x
 _atom_site_fract_y
 _atom_site_fract_z
 _atom_site_occupancy
  Ho  Ho0  1  0.250000  0.490139  0.798635  1
  Ho  Ho1  1  0.750000  0.509861  0.201365  1
  Pa  Pa2  1  0.750000  0.012607  0.302812  1
  Pa  Pa3  1  0.250000  0.987393  0.697188  1
  Si  Si4  1  0.750000  0.695871  0.590300  1
  Si  Si5  1  0.250000  0.304129  0.409700  1
  Si  Si6  1  0.250000  0.806345  0.094348  1
  Si  Si7  1  0.750000  0.193655  0.905652  1
  Ni  Ni8  1  0.750000  0.815292  0.918479  1
  Ni  Ni9  1  0.250000  0.184708  0.081521  1
  Ni  Ni10  1  0.250000  0.690153  0.421585  1
  Ni  Ni11  1  0.750000  0.309847  0.578415  1
