# generated using pymatgen
data_MgSnPt2O7
_symmetry_space_group_name_H-M   'P 1'
_cell_length_a   7.06505316
_cell_length_b   7.06505257
_cell_length_c   7.13530400
_cell_angle_alpha   59.67052256
_cell_angle_beta   59.67052532
_cell_angle_gamma   90.10497756
_symmetry_Int_Tables_number   1
_chemical_formula_structural   MgSnPt2O7
_chemical_formula_sum   'Mg2 Sn2 Pt4 O14'
_cell_volume   249.07407472
_cell_formula_units_Z   2
loop_
 _symmetry_equiv_pos_site_id
 _symmetry_equiv_pos_as_xyz
  1  'x, y, z'
loop_
 _atom_site_type_symbol
 _atom_site_label
 _atom_site_symmetry_multiplicity
 _atom_site_fract_x
 _atom_site_fract_y
 _atom_site_fract_z
 _atom_site_occupancy
  Mg  Mg0  1  0.375008  0.125030  0.249981  1
  Mg  Mg1  1  0.874971  0.624992  0.750018  1
  Sn  Sn2  1  0.374979  0.625024  0.250012  1
  Sn  Sn3  1  0.374978  0.625021  0.749987  1
  Pt  Pt4  1  0.875008  0.124995  0.250005  1
  Pt  Pt5  1  0.875043  0.624991  0.249984  1
  Pt  Pt6  1  0.875008  0.124994  0.749994  1
  Pt  Pt7  1  0.375010  0.124958  0.750017  1
  O  O8  1  0.224277  0.226047  0.994064  1
  O  O9  1  0.776562  0.223438  0.000000  1
  O  O10  1  0.491958  0.508042  0.000000  1
  O  O11  1  0.219597  0.780403  0.000000  1
  O  O12  1  0.773953  0.775723  0.005936  1
  O  O13  1  0.976036  0.474245  0.055667  1
  O  O14  1  0.773953  0.775722  0.444388  1
  O  O15  1  0.525753  0.023964  0.505948  1
  O  O16  1  0.530382  0.469618  0.500001  1
  O  O17  1  0.973449  0.026551  0.500001  1
  O  O18  1  0.976036  0.474247  0.494054  1
  O  O19  1  0.258017  0.741984  0.500001  1
  O  O20  1  0.224277  0.226046  0.555613  1
  O  O21  1  0.525753  0.023963  0.944335  1
