# generated using pymatgen
data_Hf6BePb2
_symmetry_space_group_name_H-M   'P 1'
_cell_length_a   7.72490500
_cell_length_b   7.72490391
_cell_length_c   3.74685000
_cell_angle_alpha   90.00000000
_cell_angle_beta   90.00000000
_cell_angle_gamma   120.00000039
_symmetry_Int_Tables_number   1
_chemical_formula_structural   Hf6BePb2
_chemical_formula_sum   'Hf6 Be1 Pb2'
_cell_volume   193.63469247
_cell_formula_units_Z   1
loop_
 _symmetry_equiv_pos_site_id
 _symmetry_equiv_pos_as_xyz
  1  'x, y, z'
loop_
 _atom_site_type_symbol
 _atom_site_label
 _atom_site_symmetry_multiplicity
 _atom_site_fract_x
 _atom_site_fract_y
 _atom_site_fract_z
 _atom_site_occupancy
  Hf  Hf0  1  0.229723  0.000000  0.500000  1
  Hf  Hf1  1  0.000000  0.229723  0.500000  1
  Hf  Hf2  1  0.770277  0.770277  0.500000  1
  Hf  Hf3  1  0.615324  0.000000  0.000000  1
  Hf  Hf4  1  0.000000  0.615324  0.000000  1
  Hf  Hf5  1  0.384676  0.384676  0.000000  1
  Be  Be6  1  0.000000  0.000000  0.000000  1
  Pb  Pb7  1  0.333333  0.666667  0.500000  1
  Pb  Pb8  1  0.666667  0.333333  0.500000  1
