# generated using pymatgen
data_Ba6CuPd4O15
_symmetry_space_group_name_H-M   'P 1'
_cell_length_a   7.48624674
_cell_length_b   7.48702038
_cell_length_c   7.46254338
_cell_angle_alpha   85.60717231
_cell_angle_beta   85.61919348
_cell_angle_gamma   85.81087863
_symmetry_Int_Tables_number   1
_chemical_formula_structural   Ba6CuPd4O15
_chemical_formula_sum   'Ba6 Cu1 Pd4 O15'
_cell_volume   414.87498124
_cell_formula_units_Z   1
loop_
 _symmetry_equiv_pos_site_id
 _symmetry_equiv_pos_as_xyz
  1  'x, y, z'
loop_
 _atom_site_type_symbol
 _atom_site_label
 _atom_site_symmetry_multiplicity
 _atom_site_fract_x
 _atom_site_fract_y
 _atom_site_fract_z
 _atom_site_occupancy
  Ba  Ba0  1  0.339466  0.660467  0.999998  1
  Ba  Ba1  1  0.005060  0.338210  0.662268  1
  Ba  Ba2  1  0.662248  0.994149  0.337304  1
  Ba  Ba3  1  0.159687  0.840401  0.500005  1
  Ba  Ba4  1  0.497781  0.135404  0.846094  1
  Ba  Ba5  1  0.864398  0.502054  0.153690  1
  Cu  Cu6  1  0.553765  0.446197  0.499907  1
  Pd  Pd7  1  0.288781  0.301002  0.293662  1
  Pd  Pd8  1  0.699271  0.710869  0.706581  1
  Pd  Pd9  1  0.099296  0.094100  0.097769  1
  Pd  Pd10  1  0.906000  0.901000  0.902042  1
  O  O11  1  0.152293  0.000902  0.847618  1
  O  O12  1  0.850128  0.149908  0.000132  1
  O  O13  1  0.999791  0.847655  0.151885  1
  O  O14  1  0.036809  0.191573  0.343900  1
  O  O15  1  0.346302  0.032583  0.198368  1
  O  O16  1  0.200139  0.337423  0.031690  1
  O  O17  1  0.807878  0.963292  0.656067  1
  O  O18  1  0.662843  0.799804  0.968552  1
  O  O19  1  0.967782  0.654185  0.801491  1
  O  O20  1  0.377538  0.259351  0.541198  1
  O  O21  1  0.534232  0.396194  0.243828  1
  O  O22  1  0.182508  0.540248  0.354984  1
  O  O23  1  0.741119  0.622233  0.459076  1
  O  O24  1  0.459505  0.815858  0.645328  1
  O  O25  1  0.605379  0.464938  0.756563  1
