# generated using pymatgen
data_Dy2Tm4Ga7Co16
_symmetry_space_group_name_H-M   'P 1'
_cell_length_a   8.45176458
_cell_length_b   8.43006137
_cell_length_c   8.43006101
_cell_angle_alpha   60.17041163
_cell_angle_beta   59.91479860
_cell_angle_gamma   59.91480317
_symmetry_Int_Tables_number   1
_chemical_formula_structural   Dy2Tm4Ga7Co16
_chemical_formula_sum   'Dy2 Tm4 Ga7 Co16'
_cell_volume   424.70572890
_cell_formula_units_Z   1
loop_
 _symmetry_equiv_pos_site_id
 _symmetry_equiv_pos_as_xyz
  1  'x, y, z'
loop_
 _atom_site_type_symbol
 _atom_site_label
 _atom_site_symmetry_multiplicity
 _atom_site_fract_x
 _atom_site_fract_y
 _atom_site_fract_z
 _atom_site_occupancy
  Dy  Dy0  1  0.717589  0.282411  0.282411  1
  Dy  Dy1  1  0.282411  0.717589  0.717589  1
  Tm  Tm2  1  0.280090  0.719910  0.280090  1
  Tm  Tm3  1  0.280090  0.280090  0.719910  1
  Tm  Tm4  1  0.719910  0.280090  0.719910  1
  Tm  Tm5  1  0.719910  0.719910  0.280090  1
  Ga  Ga6  1  0.500000  0.000000  0.000000  1
  Ga  Ga7  1  0.000000  0.500000  0.500000  1
  Ga  Ga8  1  0.000000  0.500000  0.000000  1
  Ga  Ga9  1  0.000000  0.000000  0.500000  1
  Ga  Ga10  1  0.500000  0.000000  0.500000  1
  Ga  Ga11  1  0.500000  0.500000  0.000000  1
  Ga  Ga12  1  0.000000  0.000000  0.000000  1
  Co  Co13  1  0.321537  0.321759  0.321759  1
  Co  Co14  1  0.321759  0.321537  0.034947  1
  Co  Co15  1  0.034947  0.321759  0.321759  1
  Co  Co16  1  0.321759  0.034947  0.321537  1
  Co  Co17  1  0.678463  0.678241  0.678241  1
  Co  Co18  1  0.678241  0.678463  0.965053  1
  Co  Co19  1  0.678241  0.965053  0.678463  1
  Co  Co20  1  0.965053  0.678241  0.678241  1
  Co  Co21  1  0.127092  0.125117  0.125117  1
  Co  Co22  1  0.125117  0.127092  0.622674  1
  Co  Co23  1  0.622674  0.125117  0.125117  1
  Co  Co24  1  0.125117  0.622674  0.127092  1
  Co  Co25  1  0.872908  0.874883  0.874883  1
  Co  Co26  1  0.874883  0.872908  0.377326  1
  Co  Co27  1  0.874883  0.377326  0.872908  1
  Co  Co28  1  0.377326  0.874883  0.874883  1
