# generated using pymatgen
data_Pr3Th(Sn5Rh3)2
_symmetry_space_group_name_H-M   'P 1'
_cell_length_a   13.67975808
_cell_length_b   13.67975868
_cell_length_c   7.33335852
_cell_angle_alpha   90.09294232
_cell_angle_beta   89.90705709
_cell_angle_gamma   160.96313854
_symmetry_Int_Tables_number   1
_chemical_formula_structural   Pr3Th(Sn5Rh3)2
_chemical_formula_sum   'Pr3 Th1 Sn10 Rh6'
_cell_volume   447.62229093
_cell_formula_units_Z   1
loop_
 _symmetry_equiv_pos_site_id
 _symmetry_equiv_pos_as_xyz
  1  'x, y, z'
loop_
 _atom_site_type_symbol
 _atom_site_label
 _atom_site_symmetry_multiplicity
 _atom_site_fract_x
 _atom_site_fract_y
 _atom_site_fract_z
 _atom_site_occupancy
  Pr  Pr0  1  0.173023  0.826977  0.252728  1
  Pr  Pr1  1  0.524579  0.475421  0.739010  1
  Pr  Pr2  1  0.826837  0.173163  0.753310  1
  Th  Th3  1  0.475066  0.524934  0.237807  1
  Sn  Sn4  1  0.704495  0.295505  0.550752  1
  Sn  Sn5  1  0.596705  0.403295  0.113802  1
  Sn  Sn6  1  0.049764  0.950236  0.402390  1
  Sn  Sn7  1  0.951311  0.048689  0.896182  1
  Sn  Sn8  1  0.710436  0.289564  0.973829  1
  Sn  Sn9  1  0.289249  0.710751  0.473795  1
  Sn  Sn10  1  0.295342  0.704658  0.050287  1
  Sn  Sn11  1  0.878343  0.121657  0.232288  1
  Sn  Sn12  1  0.120759  0.879241  0.733348  1
  Sn  Sn13  1  0.403277  0.596723  0.616004  1
  Rh  Rh14  1  0.395608  0.604392  0.990577  1
  Rh  Rh15  1  0.777372  0.222628  0.263581  1
  Rh  Rh16  1  0.222623  0.777377  0.763419  1
  Rh  Rh17  1  0.049925  0.950075  0.025183  1
  Rh  Rh18  1  0.606550  0.393450  0.482882  1
  Rh  Rh19  1  0.948738  0.051262  0.512628  1
