# generated using pymatgen
data_HoLu2Al9Si3Os4
_symmetry_space_group_name_H-M   'P 1'
_cell_length_a   8.67911201
_cell_length_b   8.65450412
_cell_length_c   9.49387200
_cell_angle_alpha   90.00000000
_cell_angle_beta   90.00000000
_cell_angle_gamma   120.10048934
_symmetry_Int_Tables_number   1
_chemical_formula_structural   HoLu2Al9Si3Os4
_chemical_formula_sum   'Ho2 Lu4 Al18 Si6 Os8'
_cell_volume   616.95122330
_cell_formula_units_Z   2
loop_
 _symmetry_equiv_pos_site_id
 _symmetry_equiv_pos_as_xyz
  1  'x, y, z'
loop_
 _atom_site_type_symbol
 _atom_site_label
 _atom_site_symmetry_multiplicity
 _atom_site_fract_x
 _atom_site_fract_y
 _atom_site_fract_z
 _atom_site_occupancy
  Ho  Ho0  1  0.197046  0.808159  0.250000  1
  Ho  Ho1  1  0.802954  0.191841  0.750000  1
  Lu  Lu2  1  0.195218  0.390184  0.250000  1
  Lu  Lu3  1  0.804782  0.609816  0.750000  1
  Lu  Lu4  1  0.605594  0.805310  0.250000  1
  Lu  Lu5  1  0.394406  0.194690  0.750000  1
  Al  Al6  1  0.165058  0.329902  0.578584  1
  Al  Al7  1  0.834942  0.670098  0.421416  1
  Al  Al8  1  0.670611  0.834511  0.577133  1
  Al  Al9  1  0.834942  0.670098  0.078584  1
  Al  Al10  1  0.329389  0.165489  0.422867  1
  Al  Al11  1  0.165058  0.329902  0.921416  1
  Al  Al12  1  0.163900  0.834872  0.577917  1
  Al  Al13  1  0.329389  0.165489  0.077133  1
  Al  Al14  1  0.836100  0.165128  0.422083  1
  Al  Al15  1  0.670611  0.834511  0.922867  1
  Al  Al16  1  0.836100  0.165128  0.077917  1
  Al  Al17  1  0.163900  0.834872  0.922083  1
  Al  Al18  1  0.872727  0.432825  0.250000  1
  Al  Al19  1  0.127273  0.567175  0.750000  1
  Al  Al20  1  0.559991  0.433434  0.250000  1
  Al  Al21  1  0.440009  0.566566  0.750000  1
  Al  Al22  1  0.997494  0.000414  0.250000  1
  Al  Al23  1  0.002506  0.999586  0.750000  1
  Si  Si24  1  0.331952  0.663983  0.040430  1
  Si  Si25  1  0.668048  0.336017  0.959570  1
  Si  Si26  1  0.668048  0.336017  0.540430  1
  Si  Si27  1  0.331952  0.663983  0.459570  1
  Si  Si28  1  0.563619  0.126237  0.250000  1
  Si  Si29  1  0.436381  0.873763  0.750000  1
  Os  Os30  1  0.500000  0.000000  0.000000  1
  Os  Os31  1  0.000000  0.500000  0.000000  1
  Os  Os32  1  0.500000  0.000000  0.500000  1
  Os  Os33  1  0.500000  0.500000  0.000000  1
  Os  Os34  1  0.000000  0.500000  0.500000  1
  Os  Os35  1  0.500000  0.500000  0.500000  1
  Os  Os36  1  0.000000  0.000000  0.000000  1
  Os  Os37  1  0.000000  0.000000  0.500000  1
