# generated using pymatgen
data_Nd5HfRuO12
_symmetry_space_group_name_H-M   'P 1'
_cell_length_a   7.13757312
_cell_length_b   7.13757419
_cell_length_c   7.62760890
_cell_angle_alpha   74.52925559
_cell_angle_beta   74.52924456
_cell_angle_gamma   50.66347875
_symmetry_Int_Tables_number   1
_chemical_formula_structural   Nd5HfRuO12
_chemical_formula_sum   'Nd5 Hf1 Ru1 O12'
_cell_volume   287.16152403
_cell_formula_units_Z   1
loop_
 _symmetry_equiv_pos_site_id
 _symmetry_equiv_pos_as_xyz
  1  'x, y, z'
loop_
 _atom_site_type_symbol
 _atom_site_label
 _atom_site_symmetry_multiplicity
 _atom_site_fract_x
 _atom_site_fract_y
 _atom_site_fract_z
 _atom_site_occupancy
  Nd  Nd0  1  0.299373  0.305249  0.360033  1
  Nd  Nd1  1  0.694751  0.700627  0.639967  1
  Nd  Nd2  1  0.687773  0.701347  0.166475  1
  Nd  Nd3  1  0.298653  0.312227  0.833525  1
  Nd  Nd4  1  0.005453  0.994547  0.500000  1
  Hf  Hf5  1  0.767427  0.232573  0.000000  1
  Ru  Ru6  1  0.253171  0.746829  0.000000  1
  O  O7  1  0.093095  0.598816  0.574522  1
  O  O8  1  0.017203  0.982205  0.181818  1
  O  O9  1  0.401184  0.906905  0.425478  1
  O  O10  1  0.495995  0.505498  0.179590  1
  O  O11  1  0.099164  0.583621  0.080952  1
  O  O12  1  0.902320  0.405418  0.422411  1
  O  O13  1  0.017795  0.982797  0.818182  1
  O  O14  1  0.594582  0.097679  0.577589  1
  O  O15  1  0.494502  0.504005  0.820410  1
  O  O16  1  0.565515  0.104335  0.081644  1
  O  O17  1  0.416379  0.900836  0.919048  1
  O  O18  1  0.895665  0.434485  0.918356  1
