# generated using pymatgen
data_P4IrRu4Pt3
_symmetry_space_group_name_H-M   'P 1'
_cell_length_a   3.81358100
_cell_length_b   8.16790612
_cell_length_c   5.72261051
_cell_angle_alpha   90.17203611
_cell_angle_beta   90.00000000
_cell_angle_gamma   90.00000000
_symmetry_Int_Tables_number   1
_chemical_formula_structural   P4IrRu4Pt3
_chemical_formula_sum   'P4 Ir1 Ru4 Pt3'
_cell_volume   178.25262862
_cell_formula_units_Z   1
loop_
 _symmetry_equiv_pos_site_id
 _symmetry_equiv_pos_as_xyz
  1  'x, y, z'
loop_
 _atom_site_type_symbol
 _atom_site_label
 _atom_site_symmetry_multiplicity
 _atom_site_fract_x
 _atom_site_fract_y
 _atom_site_fract_z
 _atom_site_occupancy
  P  P0  1  0.250000  0.651027  0.676089  1
  P  P1  1  0.750000  0.343239  0.329214  1
  P  P2  1  0.250000  0.147747  0.812138  1
  P  P3  1  0.750000  0.852743  0.178578  1
  Ir  Ir4  1  0.750000  0.116829  0.569607  1
  Ru  Ru5  1  0.250000  0.379759  0.564591  1
  Ru  Ru6  1  0.750000  0.621722  0.434965  1
  Ru  Ru7  1  0.250000  0.876962  0.936168  1
  Ru  Ru8  1  0.750000  0.123251  0.062304  1
  Pt  Pt9  1  0.250000  0.887469  0.435823  1
  Pt  Pt10  1  0.750000  0.614002  0.935511  1
  Pt  Pt11  1  0.250000  0.385250  0.065013  1
