# generated using pymatgen
data_KRbY6F20
_symmetry_space_group_name_H-M   'P 1'
_cell_length_a   8.29812161
_cell_length_b   8.29812195
_cell_length_c   8.29812200
_cell_angle_alpha   59.99999981
_cell_angle_beta   59.99999843
_cell_angle_gamma   59.99999573
_symmetry_Int_Tables_number   1
_chemical_formula_structural   KRbY6F20
_chemical_formula_sum   'K1 Rb1 Y6 F20'
_cell_volume   404.04004048
_cell_formula_units_Z   1
loop_
 _symmetry_equiv_pos_site_id
 _symmetry_equiv_pos_as_xyz
  1  'x, y, z'
loop_
 _atom_site_type_symbol
 _atom_site_label
 _atom_site_symmetry_multiplicity
 _atom_site_fract_x
 _atom_site_fract_y
 _atom_site_fract_z
 _atom_site_occupancy
  K  K0  1  0.250000  0.250000  0.250000  1
  Rb  Rb1  1  0.750000  0.750000  0.750000  1
  Y  Y2  1  0.759461  0.759461  0.240539  1
  Y  Y3  1  0.240539  0.759461  0.240539  1
  Y  Y4  1  0.759461  0.240539  0.240539  1
  Y  Y5  1  0.240539  0.240539  0.759461  1
  Y  Y6  1  0.759461  0.240539  0.759461  1
  Y  Y7  1  0.240539  0.759461  0.759461  1
  F  F8  1  0.889645  0.889645  0.331065  1
  F  F9  1  0.889645  0.331065  0.889645  1
  F  F10  1  0.331065  0.889645  0.889645  1
  F  F11  1  0.889645  0.889645  0.889645  1
  F  F12  1  0.111965  0.111965  0.664105  1
  F  F13  1  0.111965  0.664105  0.111965  1
  F  F14  1  0.664105  0.111965  0.111965  1
  F  F15  1  0.111965  0.111965  0.111965  1
  F  F16  1  0.499849  0.499849  0.830086  1
  F  F17  1  0.170217  0.499849  0.830086  1
  F  F18  1  0.499849  0.170217  0.830086  1
  F  F19  1  0.170217  0.830086  0.499849  1
  F  F20  1  0.499849  0.830086  0.499849  1
  F  F21  1  0.499849  0.830086  0.170217  1
  F  F22  1  0.830086  0.170217  0.499849  1
  F  F23  1  0.830086  0.499849  0.170217  1
  F  F24  1  0.830086  0.499849  0.499849  1
  F  F25  1  0.499849  0.499849  0.170217  1
  F  F26  1  0.499849  0.170217  0.499849  1
  F  F27  1  0.170217  0.499849  0.499849  1
