# generated using pymatgen
data_Ce6Co17ReP12
_symmetry_space_group_name_H-M   'P 1'
_cell_length_a   3.76576400
_cell_length_b   10.52534100
_cell_length_c   12.35034100
_cell_angle_alpha   90.00000000
_cell_angle_beta   90.00000000
_cell_angle_gamma   90.00000000
_symmetry_Int_Tables_number   1
_chemical_formula_structural   Ce6Co17ReP12
_chemical_formula_sum   'Ce6 Co17 Re1 P12'
_cell_volume   489.51750114
_cell_formula_units_Z   1
loop_
 _symmetry_equiv_pos_site_id
 _symmetry_equiv_pos_as_xyz
  1  'x, y, z'
loop_
 _atom_site_type_symbol
 _atom_site_label
 _atom_site_symmetry_multiplicity
 _atom_site_fract_x
 _atom_site_fract_y
 _atom_site_fract_z
 _atom_site_occupancy
  Ce  Ce0  1  0.000000  0.500000  0.525370  1
  Ce  Ce1  1  0.500000  0.000000  0.477963  1
  Ce  Ce2  1  0.500000  0.819272  0.209096  1
  Ce  Ce3  1  0.500000  0.180728  0.209096  1
  Ce  Ce4  1  0.000000  0.684135  0.792878  1
  Ce  Ce5  1  0.000000  0.315865  0.792878  1
  Co  Co6  1  0.000000  0.000000  0.840922  1
  Co  Co7  1  0.500000  0.500000  0.702844  1
  Co  Co8  1  0.000000  0.000000  0.297099  1
  Co  Co9  1  0.000000  0.500000  0.987026  1
  Co  Co10  1  0.500000  0.000000  0.017204  1
  Co  Co11  1  0.500000  0.332635  0.991638  1
  Co  Co12  1  0.500000  0.667365  0.991638  1
  Co  Co13  1  0.000000  0.166412  0.004765  1
  Co  Co14  1  0.000000  0.833588  0.004765  1
  Co  Co15  1  0.500000  0.301450  0.427673  1
  Co  Co16  1  0.500000  0.698550  0.427673  1
  Co  Co17  1  0.000000  0.198380  0.571876  1
  Co  Co18  1  0.000000  0.801620  0.571876  1
  Co  Co19  1  0.500000  0.880428  0.713439  1
  Co  Co20  1  0.500000  0.119572  0.713439  1
  Co  Co21  1  0.000000  0.619515  0.286148  1
  Co  Co22  1  0.000000  0.380485  0.286148  1
  Re  Re23  1  0.500000  0.500000  0.154351  1
  P  P24  1  0.500000  0.500000  0.883476  1
  P  P25  1  0.000000  0.000000  0.114731  1
  P  P26  1  0.500000  0.500000  0.345094  1
  P  P27  1  0.000000  0.000000  0.659185  1
  P  P28  1  0.500000  0.306030  0.612932  1
  P  P29  1  0.500000  0.693970  0.612932  1
  P  P30  1  0.000000  0.193508  0.388202  1
  P  P31  1  0.000000  0.806492  0.388202  1
  P  P32  1  0.500000  0.851247  0.894951  1
  P  P33  1  0.500000  0.148753  0.894951  1
  P  P34  1  0.000000  0.655533  0.103768  1
  P  P35  1  0.000000  0.344467  0.103768  1
