# generated using pymatgen
data_LuScSn2PtRh
_symmetry_space_group_name_H-M   'P 1'
_cell_length_a   7.59207900
_cell_length_b   7.59207901
_cell_length_c   7.22379400
_cell_angle_alpha   90.00000000
_cell_angle_beta   90.00000000
_cell_angle_gamma   120.00000433
_symmetry_Int_Tables_number   1
_chemical_formula_structural   LuScSn2PtRh
_chemical_formula_sum   'Lu3 Sc3 Sn6 Pt3 Rh3'
_cell_volume   360.59309231
_cell_formula_units_Z   3
loop_
 _symmetry_equiv_pos_site_id
 _symmetry_equiv_pos_as_xyz
  1  'x, y, z'
loop_
 _atom_site_type_symbol
 _atom_site_label
 _atom_site_symmetry_multiplicity
 _atom_site_fract_x
 _atom_site_fract_y
 _atom_site_fract_z
 _atom_site_occupancy
  Lu  Lu0  1  0.402165  0.003954  0.248134  1
  Lu  Lu1  1  0.601789  0.597835  0.248134  1
  Lu  Lu2  1  0.996046  0.398211  0.248134  1
  Sc  Sc3  1  0.395660  0.001739  0.752838  1
  Sc  Sc4  1  0.606079  0.604340  0.752838  1
  Sc  Sc5  1  0.998261  0.393921  0.752838  1
  Sn  Sn6  1  0.273492  0.269449  0.993564  1
  Sn  Sn7  1  0.995956  0.726508  0.993564  1
  Sn  Sn8  1  0.000863  0.733918  0.506022  1
  Sn  Sn9  1  0.733055  0.999137  0.506022  1
  Sn  Sn10  1  0.266082  0.266945  0.506022  1
  Sn  Sn11  1  0.730551  0.004044  0.993564  1
  Pt  Pt12  1  0.333333  0.666667  0.510814  1
  Pt  Pt13  1  0.333333  0.666667  0.989286  1
  Pt  Pt14  1  0.666667  0.333333  0.516573  1
  Rh  Rh15  1  0.000000  0.000000  0.753995  1
  Rh  Rh16  1  0.000000  0.000000  0.245751  1
  Rh  Rh17  1  0.666667  0.333333  0.981908  1
