# generated using pymatgen
data_Cs2KEr(AsSe2)6
_symmetry_space_group_name_H-M   'P 1'
_cell_length_a   10.13723400
_cell_length_b   10.13723422
_cell_length_c   8.44909700
_cell_angle_alpha   90.00000000
_cell_angle_beta   90.00000000
_cell_angle_gamma   120.00000406
_symmetry_Int_Tables_number   1
_chemical_formula_structural   Cs2KEr(AsSe2)6
_chemical_formula_sum   'Cs2 K1 Er1 As6 Se12'
_cell_volume   751.93424213
_cell_formula_units_Z   1
loop_
 _symmetry_equiv_pos_site_id
 _symmetry_equiv_pos_as_xyz
  1  'x, y, z'
loop_
 _atom_site_type_symbol
 _atom_site_label
 _atom_site_symmetry_multiplicity
 _atom_site_fract_x
 _atom_site_fract_y
 _atom_site_fract_z
 _atom_site_occupancy
  Cs  Cs0  1  0.333333  0.666667  0.844314  1
  Cs  Cs1  1  0.666667  0.333333  0.155686  1
  K  K2  1  0.000000  0.000000  0.000000  1
  Er  Er3  1  0.000000  0.000000  0.500000  1
  As  As4  1  0.280338  0.832707  0.394258  1
  As  As5  1  0.167293  0.447631  0.394258  1
  As  As6  1  0.552369  0.719662  0.394258  1
  As  As7  1  0.719662  0.167293  0.605742  1
  As  As8  1  0.832707  0.552369  0.605742  1
  As  As9  1  0.447631  0.280338  0.605742  1
  Se  Se10  1  0.241146  0.031089  0.296189  1
  Se  Se11  1  0.968911  0.210058  0.296189  1
  Se  Se12  1  0.789942  0.758854  0.296189  1
  Se  Se13  1  0.758854  0.968911  0.703811  1
  Se  Se14  1  0.031089  0.789942  0.703811  1
  Se  Se15  1  0.210058  0.241146  0.703811  1
  Se  Se16  1  0.515827  0.905930  0.241025  1
  Se  Se17  1  0.094070  0.609896  0.241025  1
  Se  Se18  1  0.390104  0.484173  0.241025  1
  Se  Se19  1  0.484173  0.094070  0.758975  1
  Se  Se20  1  0.905930  0.390104  0.758975  1
  Se  Se21  1  0.609896  0.515827  0.758975  1
