# generated using pymatgen
data_Zr3Co5Ni(B2Ru)3
_symmetry_space_group_name_H-M   'P 1'
_cell_length_a   5.83966567
_cell_length_b   5.86685232
_cell_length_c   5.83966538
_cell_angle_alpha   95.16906330
_cell_angle_beta   94.94124878
_cell_angle_gamma   95.16906588
_symmetry_Int_Tables_number   1
_chemical_formula_structural   Zr3Co5Ni(B2Ru)3
_chemical_formula_sum   'Zr3 Co5 Ni1 B6 Ru3'
_cell_volume   197.54767399
_cell_formula_units_Z   1
loop_
 _symmetry_equiv_pos_site_id
 _symmetry_equiv_pos_as_xyz
  1  'x, y, z'
loop_
 _atom_site_type_symbol
 _atom_site_label
 _atom_site_symmetry_multiplicity
 _atom_site_fract_x
 _atom_site_fract_y
 _atom_site_fract_z
 _atom_site_occupancy
  Zr  Zr0  1  0.002070  0.997248  0.002070  1
  Zr  Zr1  1  0.668117  0.671442  0.668117  1
  Zr  Zr2  1  0.331261  0.333661  0.331261  1
  Co  Co3  1  0.691051  0.689507  0.206085  1
  Co  Co4  1  0.206085  0.689507  0.691051  1
  Co  Co5  1  0.310768  0.795142  0.310768  1
  Co  Co6  1  0.309824  0.309199  0.793295  1
  Co  Co7  1  0.793295  0.309199  0.309824  1
  Ni  Ni8  1  0.691522  0.208552  0.691522  1
  B  B9  1  0.614868  0.384299  0.002155  1
  B  B10  1  0.999905  0.616655  0.383465  1
  B  B11  1  0.377054  0.998341  0.619905  1
  B  B12  1  0.002155  0.384299  0.614868  1
  B  B13  1  0.619905  0.998341  0.377054  1
  B  B14  1  0.383465  0.616655  0.999905  1
  Ru  Ru15  1  0.999376  0.999787  0.499866  1
  Ru  Ru16  1  0.499866  0.999787  0.999376  1
  Ru  Ru17  1  0.999413  0.498378  0.999413  1
