# generated using pymatgen
data_Li2Nd3ZnIr2Pd
_symmetry_space_group_name_H-M   'P 1'
_cell_length_a   7.33179700
_cell_length_b   7.33072770
_cell_length_c   4.03924000
_cell_angle_alpha   90.00000000
_cell_angle_beta   90.00000000
_cell_angle_gamma   120.00482078
_symmetry_Int_Tables_number   1
_chemical_formula_structural   Li2Nd3ZnIr2Pd
_chemical_formula_sum   'Li2 Nd3 Zn1 Ir2 Pd1'
_cell_volume   188.00383630
_cell_formula_units_Z   1
loop_
 _symmetry_equiv_pos_site_id
 _symmetry_equiv_pos_as_xyz
  1  'x, y, z'
loop_
 _atom_site_type_symbol
 _atom_site_label
 _atom_site_symmetry_multiplicity
 _atom_site_fract_x
 _atom_site_fract_y
 _atom_site_fract_z
 _atom_site_occupancy
  Li  Li0  1  0.763357  0.763422  0.000000  1
  Li  Li1  1  0.999935  0.236578  0.000000  1
  Nd  Nd2  1  0.578552  0.000000  0.500000  1
  Nd  Nd3  1  0.416256  0.415164  0.500000  1
  Nd  Nd4  1  0.001092  0.584836  0.500000  1
  Zn  Zn5  1  0.242207  0.000000  0.000000  1
  Ir  Ir6  1  0.330106  0.670583  0.000000  1
  Ir  Ir7  1  0.659524  0.329417  0.000000  1
  Pd  Pd8  1  0.008971  0.000000  0.500000  1
