# generated using pymatgen
data_Cs6Na4PrVAs6
_symmetry_space_group_name_H-M   'P 1'
_cell_length_a   11.32603322
_cell_length_b   11.32603281
_cell_length_c   16.81831400
_cell_angle_alpha   90.00000000
_cell_angle_beta   90.00000000
_cell_angle_gamma   143.32448063
_symmetry_Int_Tables_number   1
_chemical_formula_structural   Cs6Na4PrVAs6
_chemical_formula_sum   'Cs12 Na8 Pr2 V2 As12'
_cell_volume   1288.59934898
_cell_formula_units_Z   2
loop_
 _symmetry_equiv_pos_site_id
 _symmetry_equiv_pos_as_xyz
  1  'x, y, z'
loop_
 _atom_site_type_symbol
 _atom_site_label
 _atom_site_symmetry_multiplicity
 _atom_site_fract_x
 _atom_site_fract_y
 _atom_site_fract_z
 _atom_site_occupancy
  Cs  Cs0  1  0.606386  0.947161  0.827559  1
  Cs  Cs1  1  0.284039  0.284461  0.318370  1
  Cs  Cs2  1  0.215961  0.215539  0.818370  1
  Cs  Cs3  1  0.715539  0.715961  0.681630  1
  Cs  Cs4  1  0.447161  0.106386  0.672441  1
  Cs  Cs5  1  0.893614  0.552839  0.327559  1
  Cs  Cs6  1  0.052839  0.393614  0.172441  1
  Cs  Cs7  1  0.393595  0.053347  0.178501  1
  Cs  Cs8  1  0.553347  0.893595  0.321499  1
  Cs  Cs9  1  0.106405  0.446653  0.678501  1
  Cs  Cs10  1  0.946653  0.606405  0.821499  1
  Cs  Cs11  1  0.784461  0.784039  0.181630  1
  Na  Na12  1  0.081188  0.918812  0.000000  1
  Na  Na13  1  0.580318  0.419682  0.500000  1
  Na  Na14  1  0.919682  0.080318  0.000000  1
  Na  Na15  1  0.753497  0.246503  0.000000  1
  Na  Na16  1  0.746503  0.253497  0.500000  1
  Na  Na17  1  0.246357  0.753643  0.000000  1
  Na  Na18  1  0.253643  0.746357  0.500000  1
  Na  Na19  1  0.418812  0.581188  0.500000  1
  Pr  Pr20  1  0.913610  0.086390  0.500000  1
  Pr  Pr21  1  0.586390  0.413610  0.000000  1
  V  V22  1  0.086213  0.913787  0.500000  1
  V  V23  1  0.413787  0.586213  0.000000  1
  As  As24  1  0.077462  0.403307  0.400249  1
  As  As25  1  0.903307  0.577462  0.099751  1
  As  As26  1  0.422538  0.096693  0.900249  1
  As  As27  1  0.596693  0.922538  0.599751  1
  As  As28  1  0.952195  0.653470  0.582472  1
  As  As29  1  0.153470  0.452195  0.917528  1
  As  As30  1  0.547805  0.846530  0.082472  1
  As  As31  1  0.346530  0.047805  0.417528  1
  As  As32  1  0.207216  0.176328  0.582563  1
  As  As33  1  0.676328  0.707216  0.917437  1
  As  As34  1  0.292784  0.323672  0.082563  1
  As  As35  1  0.823672  0.792784  0.417437  1
