# generated using pymatgen
data_CaTbCo5B4
_symmetry_space_group_name_H-M   'P 1'
_cell_length_a   7.04663963
_cell_length_b   5.89106760
_cell_length_c   5.27911928
_cell_angle_alpha   78.01133001
_cell_angle_beta   54.86252851
_cell_angle_gamma   47.13506500
_symmetry_Int_Tables_number   1
_chemical_formula_structural   CaTbCo5B4
_chemical_formula_sum   'Ca1 Tb1 Co5 B4'
_cell_volume   125.02763103
_cell_formula_units_Z   1
loop_
 _symmetry_equiv_pos_site_id
 _symmetry_equiv_pos_as_xyz
  1  'x, y, z'
loop_
 _atom_site_type_symbol
 _atom_site_label
 _atom_site_symmetry_multiplicity
 _atom_site_fract_x
 _atom_site_fract_y
 _atom_site_fract_z
 _atom_site_occupancy
  Ca  Ca0  1  0.145653  0.145657  0.854352  1
  Tb  Tb1  1  0.856815  0.856820  0.143181  1
  Co  Co2  1  0.500209  0.500205  0.999794  1
  Co  Co3  1  0.249094  0.249102  0.250897  1
  Co  Co4  1  0.000211  0.000199  0.499794  1
  Co  Co5  1  0.499684  0.499692  0.500311  1
  Co  Co6  1  0.749104  0.749115  0.750895  1
  B  B7  1  0.469681  0.788673  0.211367  1
  B  B8  1  0.210095  0.530770  0.469249  1
  B  B9  1  0.788654  0.469693  0.530301  1
  B  B10  1  0.530786  0.210081  0.789865  1
