# generated using pymatgen
data_Cs2NaDyBi2
_symmetry_space_group_name_H-M   'P 1'
_cell_length_a   10.58535827
_cell_length_b   10.58535849
_cell_length_c   10.58535768
_cell_angle_alpha   136.94691567
_cell_angle_beta   62.62885164
_cell_angle_gamma   136.80523755
_symmetry_Int_Tables_number   1
_chemical_formula_structural   Cs2NaDyBi2
_chemical_formula_sum   'Cs4 Na2 Dy2 Bi4'
_cell_volume   547.43400787
_cell_formula_units_Z   2
loop_
 _symmetry_equiv_pos_site_id
 _symmetry_equiv_pos_as_xyz
  1  'x, y, z'
loop_
 _atom_site_type_symbol
 _atom_site_label
 _atom_site_symmetry_multiplicity
 _atom_site_fract_x
 _atom_site_fract_y
 _atom_site_fract_z
 _atom_site_occupancy
  Cs  Cs0  1  0.823804  0.274580  0.098385  1
  Cs  Cs1  1  0.676195  0.774580  0.450776  1
  Cs  Cs2  1  0.323804  0.225420  0.549224  1
  Cs  Cs3  1  0.176196  0.725419  0.901614  1
  Na  Na4  1  0.750000  0.250000  0.500000  1
  Na  Na5  1  0.250000  0.750000  0.500000  1
  Dy  Dy6  1  0.250000  0.250000  0.000000  1
  Dy  Dy7  1  0.750001  0.750001  0.000000  1
  Bi  Bi8  1  0.405702  0.726131  0.131835  1
  Bi  Bi9  1  0.094297  0.226132  0.320429  1
  Bi  Bi10  1  0.905702  0.773868  0.679571  1
  Bi  Bi11  1  0.594297  0.273868  0.868165  1
