# generated using pymatgen
data_Zr4Al2(ReMo)3
_symmetry_space_group_name_H-M   'P 1'
_cell_length_a   5.29682000
_cell_length_b   5.28871672
_cell_length_c   8.80165400
_cell_angle_alpha   90.00000000
_cell_angle_beta   90.00000000
_cell_angle_gamma   120.05068466
_symmetry_Int_Tables_number   1
_chemical_formula_structural   Zr4Al2(ReMo)3
_chemical_formula_sum   'Zr4 Al2 Re3 Mo3'
_cell_volume   213.42161833
_cell_formula_units_Z   1
loop_
 _symmetry_equiv_pos_site_id
 _symmetry_equiv_pos_as_xyz
  1  'x, y, z'
loop_
 _atom_site_type_symbol
 _atom_site_label
 _atom_site_symmetry_multiplicity
 _atom_site_fract_x
 _atom_site_fract_y
 _atom_site_fract_z
 _atom_site_occupancy
  Zr  Zr0  1  0.334211  0.668424  0.436829  1
  Zr  Zr1  1  0.667218  0.334435  0.933435  1
  Zr  Zr2  1  0.667218  0.334435  0.566565  1
  Zr  Zr3  1  0.334211  0.668424  0.063171  1
  Al  Al4  1  0.998142  0.996285  0.999338  1
  Al  Al5  1  0.998142  0.996285  0.500662  1
  Re  Re6  1  0.658827  0.830508  0.750000  1
  Re  Re7  1  0.829946  0.659894  0.250000  1
  Re  Re8  1  0.171682  0.830508  0.750000  1
  Mo  Mo9  1  0.169926  0.339851  0.750000  1
  Mo  Mo10  1  0.829139  0.170477  0.250000  1
  Mo  Mo11  1  0.341337  0.170477  0.250000  1
