# generated using pymatgen
data_YHo19(Bi2Ir)4
_symmetry_space_group_name_H-M   'P 1'
_cell_length_a   7.99410444
_cell_length_b   8.99526700
_cell_length_c   12.47365800
_cell_angle_alpha   90.00000000
_cell_angle_beta   89.98153168
_cell_angle_gamma   90.00000000
_symmetry_Int_Tables_number   1
_chemical_formula_structural   YHo19(Bi2Ir)4
_chemical_formula_sum   'Y1 Ho19 Bi8 Ir4'
_cell_volume   896.96952250
_cell_formula_units_Z   1
loop_
 _symmetry_equiv_pos_site_id
 _symmetry_equiv_pos_as_xyz
  1  'x, y, z'
loop_
 _atom_site_type_symbol
 _atom_site_label
 _atom_site_symmetry_multiplicity
 _atom_site_fract_x
 _atom_site_fract_y
 _atom_site_fract_z
 _atom_site_occupancy
  Y  Y0  1  0.341103  0.750000  0.707308  1
  Ho  Ho1  1  0.658210  0.250000  0.294234  1
  Ho  Ho2  1  0.842080  0.250000  0.794493  1
  Ho  Ho3  1  0.158323  0.750000  0.205728  1
  Ho  Ho4  1  0.879050  0.750000  0.806568  1
  Ho  Ho5  1  0.120339  0.250000  0.193383  1
  Ho  Ho6  1  0.379561  0.250000  0.693369  1
  Ho  Ho7  1  0.620488  0.750000  0.306255  1
  Ho  Ho8  1  0.676658  0.542011  0.564727  1
  Ho  Ho9  1  0.323269  0.458346  0.434775  1
  Ho  Ho10  1  0.176706  0.458091  0.934921  1
  Ho  Ho11  1  0.323269  0.041654  0.434775  1
  Ho  Ho12  1  0.823492  0.541853  0.065177  1
  Ho  Ho13  1  0.676658  0.957989  0.564727  1
  Ho  Ho14  1  0.823492  0.958147  0.065177  1
  Ho  Ho15  1  0.176706  0.041909  0.934921  1
  Ho  Ho16  1  0.053734  0.750000  0.498609  1
  Ho  Ho17  1  0.946101  0.250000  0.501003  1
  Ho  Ho18  1  0.554183  0.250000  0.001431  1
  Ho  Ho19  1  0.446501  0.750000  0.999178  1
  Bi  Bi20  1  0.570872  0.509228  0.827638  1
  Bi  Bi21  1  0.429456  0.490187  0.172730  1
  Bi  Bi22  1  0.069929  0.490064  0.672429  1
  Bi  Bi23  1  0.429456  0.009813  0.172730  1
  Bi  Bi24  1  0.929611  0.509584  0.327238  1
  Bi  Bi25  1  0.570872  0.990772  0.827638  1
  Bi  Bi26  1  0.929611  0.990416  0.327238  1
  Bi  Bi27  1  0.069929  0.009936  0.672429  1
  Ir  Ir28  1  0.070705  0.750000  0.990775  1
  Ir  Ir29  1  0.929488  0.250000  0.009223  1
  Ir  Ir30  1  0.570508  0.250000  0.508987  1
  Ir  Ir31  1  0.429637  0.750000  0.490187  1
