# generated using pymatgen
data_Be6Si5PRu12
_symmetry_space_group_name_H-M   'P 1'
_cell_length_a   4.05136700
_cell_length_b   5.72152300
_cell_length_c   12.13732500
_cell_angle_alpha   90.00000000
_cell_angle_beta   89.99779227
_cell_angle_gamma   90.00000000
_symmetry_Int_Tables_number   1
_chemical_formula_structural   Be6Si5PRu12
_chemical_formula_sum   'Be6 Si5 P1 Ru12'
_cell_volume   281.34306561
_cell_formula_units_Z   1
loop_
 _symmetry_equiv_pos_site_id
 _symmetry_equiv_pos_as_xyz
  1  'x, y, z'
loop_
 _atom_site_type_symbol
 _atom_site_label
 _atom_site_symmetry_multiplicity
 _atom_site_fract_x
 _atom_site_fract_y
 _atom_site_fract_z
 _atom_site_occupancy
  Be  Be0  1  0.000000  0.500001  0.000000  1
  Be  Be1  1  0.499779  0.000000  0.172091  1
  Be  Be2  1  0.999708  0.500001  0.332923  1
  Be  Be3  1  0.500000  0.000000  0.500000  1
  Be  Be4  1  0.000293  0.500001  0.667077  1
  Be  Be5  1  0.500221  0.000000  0.827909  1
  Si  Si6  1  0.499846  0.500001  0.165977  1
  Si  Si7  1  0.999831  0.000000  0.332501  1
  Si  Si8  1  0.500000  0.500001  0.500000  1
  Si  Si9  1  0.000170  0.000000  0.667499  1
  Si  Si10  1  0.500154  0.500001  0.834024  1
  P  P11  1  0.000000  0.000000  0.000000  1
  Ru  Ru12  1  0.500000  0.243699  0.000000  1
  Ru  Ru13  1  0.500000  0.756301  0.000000  1
  Ru  Ru14  1  0.999856  0.247759  0.162849  1
  Ru  Ru15  1  0.999856  0.752241  0.162849  1
  Ru  Ru16  1  0.499830  0.251358  0.332393  1
  Ru  Ru17  1  0.499830  0.748643  0.332393  1
  Ru  Ru18  1  0.000000  0.249036  0.500000  1
  Ru  Ru19  1  0.000000  0.750964  0.500000  1
  Ru  Ru20  1  0.500171  0.251358  0.667607  1
  Ru  Ru21  1  0.500171  0.748643  0.667607  1
  Ru  Ru22  1  0.000144  0.247759  0.837151  1
  Ru  Ru23  1  0.000144  0.752241  0.837151  1
