# generated using pymatgen
data_Ho4Lu4B24Ru3W
_symmetry_space_group_name_H-M   'P 1'
_cell_length_a   3.60532800
_cell_length_b   9.10033973
_cell_length_c   11.49649103
_cell_angle_alpha   89.86475199
_cell_angle_beta   90.00000000
_cell_angle_gamma   90.00000000
_symmetry_Int_Tables_number   1
_chemical_formula_structural   Ho4Lu4B24Ru3W
_chemical_formula_sum   'Ho4 Lu4 B24 Ru3 W1'
_cell_volume   377.19548168
_cell_formula_units_Z   1
loop_
 _symmetry_equiv_pos_site_id
 _symmetry_equiv_pos_as_xyz
  1  'x, y, z'
loop_
 _atom_site_type_symbol
 _atom_site_label
 _atom_site_symmetry_multiplicity
 _atom_site_fract_x
 _atom_site_fract_y
 _atom_site_fract_z
 _atom_site_occupancy
  Ho  Ho0  1  0.000000  0.320815  0.413690  1
  Ho  Ho1  1  0.000000  0.678468  0.585567  1
  Ho  Ho2  1  0.000000  0.820063  0.086696  1
  Ho  Ho3  1  0.000000  0.177484  0.914762  1
  Lu  Lu4  1  0.000000  0.946450  0.373346  1
  Lu  Lu5  1  0.000000  0.057621  0.628788  1
  Lu  Lu6  1  0.000000  0.442577  0.125730  1
  Lu  Lu7  1  0.000000  0.556586  0.871087  1
  B  B8  1  0.500000  0.550163  0.436595  1
  B  B9  1  0.500000  0.445488  0.568697  1
  B  B10  1  0.500000  0.054161  0.066745  1
  B  B11  1  0.500000  0.945803  0.933061  1
  B  B12  1  0.500000  0.753499  0.422428  1
  B  B13  1  0.500000  0.250570  0.581527  1
  B  B14  1  0.500000  0.249232  0.079951  1
  B  B15  1  0.500000  0.750243  0.918839  1
  B  B16  1  0.500000  0.796487  0.263872  1
  B  B17  1  0.500000  0.208100  0.734694  1
  B  B18  1  0.500000  0.290773  0.232525  1
  B  B19  1  0.500000  0.708831  0.765548  1
  B  B20  1  0.500000  0.630998  0.181186  1
  B  B21  1  0.500000  0.368775  0.815637  1
  B  B22  1  0.500000  0.130999  0.314753  1
  B  B23  1  0.500000  0.870197  0.684909  1
  B  B24  1  0.500000  0.983598  0.212900  1
  B  B25  1  0.500000  0.017560  0.787768  1
  B  B26  1  0.500000  0.476237  0.285707  1
  B  B27  1  0.500000  0.516954  0.713557  1
  B  B28  1  0.500000  0.603583  0.026597  1
  B  B29  1  0.500000  0.395124  0.970197  1
  B  B30  1  0.500000  0.105299  0.472006  1
  B  B31  1  0.500000  0.898767  0.530071  1
  Ru  Ru32  1  0.000000  0.360748  0.681035  1
  Ru  Ru33  1  0.000000  0.138216  0.178717  1
  Ru  Ru34  1  0.000000  0.861463  0.819987  1
  W  W35  1  0.000000  0.638070  0.320824  1
