# generated using pymatgen
data_Li8Y8SnSb7
_symmetry_space_group_name_H-M   'P 1'
_cell_length_a   9.47096200
_cell_length_b   9.47096277
_cell_length_c   7.02936800
_cell_angle_alpha   90.00000000
_cell_angle_beta   90.00000000
_cell_angle_gamma   120.00000430
_symmetry_Int_Tables_number   1
_chemical_formula_structural   Li8Y8SnSb7
_chemical_formula_sum   'Li8 Y8 Sn1 Sb7'
_cell_volume   546.05340093
_cell_formula_units_Z   1
loop_
 _symmetry_equiv_pos_site_id
 _symmetry_equiv_pos_as_xyz
  1  'x, y, z'
loop_
 _atom_site_type_symbol
 _atom_site_label
 _atom_site_symmetry_multiplicity
 _atom_site_fract_x
 _atom_site_fract_y
 _atom_site_fract_z
 _atom_site_occupancy
  Li  Li0  1  0.166876  0.833124  0.212602  1
  Li  Li1  1  0.333813  0.166907  0.711224  1
  Li  Li2  1  0.833093  0.666187  0.711224  1
  Li  Li3  1  0.166876  0.333750  0.212602  1
  Li  Li4  1  0.666250  0.833124  0.212602  1
  Li  Li5  1  0.833093  0.166907  0.711224  1
  Li  Li6  1  0.333333  0.666667  0.797281  1
  Li  Li7  1  0.666667  0.333333  0.292323  1
  Y  Y8  1  0.509093  0.490907  0.988942  1
  Y  Y9  1  0.014518  0.507259  0.490798  1
  Y  Y10  1  0.492741  0.985482  0.490798  1
  Y  Y11  1  0.509093  0.018185  0.988942  1
  Y  Y12  1  0.981815  0.490907  0.988942  1
  Y  Y13  1  0.492741  0.507259  0.490798  1
  Y  Y14  1  0.000000  0.000000  0.982609  1
  Y  Y15  1  0.000000  0.000000  0.483411  1
  Sn  Sn16  1  0.666667  0.333333  0.725635  1
  Sb  Sb17  1  0.166948  0.833052  0.745104  1
  Sb  Sb18  1  0.332774  0.166388  0.245173  1
  Sb  Sb19  1  0.833612  0.667226  0.245173  1
  Sb  Sb20  1  0.166948  0.333895  0.745104  1
  Sb  Sb21  1  0.666105  0.833052  0.745104  1
  Sb  Sb22  1  0.833612  0.166388  0.245173  1
  Sb  Sb23  1  0.333333  0.666667  0.227217  1
