# generated using pymatgen
data_Na11Ga2As5
_symmetry_space_group_name_H-M   'P 1'
_cell_length_a   8.42550461
_cell_length_b   10.14504070
_cell_length_c   11.02532511
_cell_angle_alpha   103.19928741
_cell_angle_beta   97.59139366
_cell_angle_gamma   107.60812788
_symmetry_Int_Tables_number   1
_chemical_formula_structural   Na11Ga2As5
_chemical_formula_sum   'Na22 Ga4 As10'
_cell_volume   853.72882281
_cell_formula_units_Z   2
loop_
 _symmetry_equiv_pos_site_id
 _symmetry_equiv_pos_as_xyz
  1  'x, y, z'
loop_
 _atom_site_type_symbol
 _atom_site_label
 _atom_site_symmetry_multiplicity
 _atom_site_fract_x
 _atom_site_fract_y
 _atom_site_fract_z
 _atom_site_occupancy
  Na  Na0  1  0.848843  0.571914  0.964961  1
  Na  Na1  1  0.151157  0.428086  0.035039  1
  Na  Na2  1  0.315504  0.894693  0.775817  1
  Na  Na3  1  0.684496  0.105307  0.224183  1
  Na  Na4  1  0.633626  0.165672  0.531514  1
  Na  Na5  1  0.366374  0.834328  0.468486  1
  Na  Na6  1  0.624735  0.669571  0.550669  1
  Na  Na7  1  0.375265  0.330429  0.449331  1
  Na  Na8  1  0.192247  0.557593  0.574001  1
  Na  Na9  1  0.807753  0.442407  0.425999  1
  Na  Na10  1  0.054322  0.705569  0.258590  1
  Na  Na11  1  0.945678  0.294431  0.741410  1
  Na  Na12  1  0.192040  0.075651  0.573316  1
  Na  Na13  1  0.807960  0.924349  0.426684  1
  Na  Na14  1  0.872752  0.095345  0.986137  1
  Na  Na15  1  0.127248  0.904655  0.013863  1
  Na  Na16  1  0.582514  0.224156  0.861883  1
  Na  Na17  1  0.417486  0.775844  0.138117  1
  Na  Na18  1  0.392094  0.247507  0.144224  1
  Na  Na19  1  0.607906  0.752493  0.855776  1
  Na  Na20  1  0.344199  0.411985  0.784361  1
  Na  Na21  1  0.655801  0.588015  0.215639  1
  Ga  Ga22  1  0.938826  0.922437  0.744005  1
  Ga  Ga23  1  0.061174  0.077563  0.255995  1
  Ga  Ga24  1  0.938215  0.669722  0.739047  1
  Ga  Ga25  1  0.061785  0.330278  0.260953  1
  As  As26  1  0.003642  0.758712  0.533301  1
  As  As27  1  0.996358  0.241288  0.466699  1
  As  As28  1  0.659246  0.456125  0.691547  1
  As  As29  1  0.340754  0.543875  0.308453  1
  As  As30  1  0.660579  0.971842  0.696261  1
  As  As31  1  0.339421  0.028158  0.303739  1
  As  As32  1  0.197661  0.147505  0.864770  1
  As  As33  1  0.802339  0.852495  0.135230  1
  As  As34  1  0.191362  0.634267  0.868615  1
  As  As35  1  0.808638  0.365733  0.131385  1
