# generated using pymatgen
data_La5PrZn4Pd12Rh
_symmetry_space_group_name_H-M   'P 1'
_cell_length_a   8.43306248
_cell_length_b   8.43306328
_cell_length_c   8.43306314
_cell_angle_alpha   109.53451466
_cell_angle_beta   109.53451912
_cell_angle_gamma   109.34470250
_symmetry_Int_Tables_number   1
_chemical_formula_structural   La5PrZn4Pd12Rh
_chemical_formula_sum   'La5 Pr1 Zn4 Pd12 Rh1'
_cell_volume   461.67095086
_cell_formula_units_Z   1
loop_
 _symmetry_equiv_pos_site_id
 _symmetry_equiv_pos_as_xyz
  1  'x, y, z'
loop_
 _atom_site_type_symbol
 _atom_site_label
 _atom_site_symmetry_multiplicity
 _atom_site_fract_x
 _atom_site_fract_y
 _atom_site_fract_z
 _atom_site_occupancy
  La  La0  1  0.298717  0.999781  0.298937  1
  La  La1  1  0.999781  0.298717  0.298937  1
  La  La2  1  0.299784  0.299784  0.000000  1
  La  La3  1  0.700844  0.999781  0.701063  1
  La  La4  1  0.999781  0.700844  0.701063  1
  Pr  Pr5  1  0.700379  0.700379  0.000000  1
  Zn  Zn6  1  0.999735  0.999735  0.499437  1
  Zn  Zn7  1  0.999735  0.500297  0.000000  1
  Zn  Zn8  1  0.500297  0.999735  0.000000  1
  Zn  Zn9  1  0.500297  0.500297  0.500563  1
  Pd  Pd10  1  0.331580  0.331580  0.663250  1
  Pd  Pd11  1  0.668427  0.999878  0.331451  1
  Pd  Pd12  1  0.999878  0.668427  0.331451  1
  Pd  Pd13  1  0.668331  0.331580  0.000000  1
  Pd  Pd14  1  0.331594  0.663185  0.331590  1
  Pd  Pd15  1  0.000004  0.331594  0.668410  1
  Pd  Pd16  1  0.331580  0.668331  0.000000  1
  Pd  Pd17  1  0.331594  0.000004  0.668410  1
  Pd  Pd18  1  0.663185  0.331594  0.331590  1
  Pd  Pd19  1  0.668331  0.668331  0.336750  1
  Pd  Pd20  1  0.668427  0.336974  0.668549  1
  Pd  Pd21  1  0.336974  0.668427  0.668549  1
  Rh  Rh22  1  0.000747  0.000747  0.000000  1
