# generated using pymatgen
data_Y3Ga2P4Rh9
_symmetry_space_group_name_H-M   'P 1'
_cell_length_a   3.99374200
_cell_length_b   11.35604700
_cell_length_c   12.88339100
_cell_angle_alpha   90.00000000
_cell_angle_beta   90.00000000
_cell_angle_gamma   90.00000000
_symmetry_Int_Tables_number   1
_chemical_formula_structural   Y3Ga2P4Rh9
_chemical_formula_sum   'Y6 Ga4 P8 Rh18'
_cell_volume   584.30200197
_cell_formula_units_Z   2
loop_
 _symmetry_equiv_pos_site_id
 _symmetry_equiv_pos_as_xyz
  1  'x, y, z'
loop_
 _atom_site_type_symbol
 _atom_site_label
 _atom_site_symmetry_multiplicity
 _atom_site_fract_x
 _atom_site_fract_y
 _atom_site_fract_z
 _atom_site_occupancy
  Y  Y0  1  0.000000  0.500000  0.522401  1
  Y  Y1  1  0.500000  0.000000  0.477599  1
  Y  Y2  1  0.500000  0.813851  0.207506  1
  Y  Y3  1  0.500000  0.186149  0.207506  1
  Y  Y4  1  0.000000  0.686149  0.792494  1
  Y  Y5  1  0.000000  0.313851  0.792494  1
  Ga  Ga6  1  0.500000  0.500000  0.874804  1
  Ga  Ga7  1  0.000000  0.000000  0.125196  1
  Ga  Ga8  1  0.500000  0.500000  0.345866  1
  Ga  Ga9  1  0.000000  0.000000  0.654134  1
  P  P10  1  0.500000  0.307858  0.617861  1
  P  P11  1  0.500000  0.692142  0.617861  1
  P  P12  1  0.000000  0.192142  0.382139  1
  P  P13  1  0.000000  0.807858  0.382139  1
  P  P14  1  0.500000  0.844152  0.896515  1
  P  P15  1  0.500000  0.155848  0.896515  1
  P  P16  1  0.000000  0.655848  0.103485  1
  P  P17  1  0.000000  0.344152  0.103485  1
  Rh  Rh18  1  0.500000  0.500000  0.154419  1
  Rh  Rh19  1  0.000000  0.000000  0.845581  1
  Rh  Rh20  1  0.500000  0.500000  0.683771  1
  Rh  Rh21  1  0.000000  0.000000  0.316229  1
  Rh  Rh22  1  0.000000  0.500000  0.992017  1
  Rh  Rh23  1  0.500000  0.000000  0.007983  1
  Rh  Rh24  1  0.500000  0.329619  0.996008  1
  Rh  Rh25  1  0.500000  0.670381  0.996008  1
  Rh  Rh26  1  0.000000  0.170381  0.003992  1
  Rh  Rh27  1  0.000000  0.829619  0.003992  1
  Rh  Rh28  1  0.500000  0.288784  0.431048  1
  Rh  Rh29  1  0.500000  0.711216  0.431048  1
  Rh  Rh30  1  0.000000  0.211216  0.568952  1
  Rh  Rh31  1  0.000000  0.788784  0.568952  1
  Rh  Rh32  1  0.500000  0.869151  0.716288  1
  Rh  Rh33  1  0.500000  0.130849  0.716288  1
  Rh  Rh34  1  0.000000  0.630849  0.283712  1
  Rh  Rh35  1  0.000000  0.369151  0.283712  1
