# generated using pymatgen
data_TbFe2(PIr)3
_symmetry_space_group_name_H-M   'P 1'
_cell_length_a   3.86568900
_cell_length_b   10.50487300
_cell_length_c   12.31719500
_cell_angle_alpha   90.00000000
_cell_angle_beta   90.00000000
_cell_angle_gamma   90.00000000
_symmetry_Int_Tables_number   1
_chemical_formula_structural   TbFe2(PIr)3
_chemical_formula_sum   'Tb4 Fe8 P12 Ir12'
_cell_volume   500.18370003
_cell_formula_units_Z   4
loop_
 _symmetry_equiv_pos_site_id
 _symmetry_equiv_pos_as_xyz
  1  'x, y, z'
loop_
 _atom_site_type_symbol
 _atom_site_label
 _atom_site_symmetry_multiplicity
 _atom_site_fract_x
 _atom_site_fract_y
 _atom_site_fract_z
 _atom_site_occupancy
  Tb  Tb0  1  0.250000  0.578932  0.712397  1
  Tb  Tb1  1  0.250000  0.921068  0.212397  1
  Tb  Tb2  1  0.750000  0.421068  0.287603  1
  Tb  Tb3  1  0.750000  0.078932  0.787603  1
  Fe  Fe4  1  0.250000  0.874907  0.697417  1
  Fe  Fe5  1  0.250000  0.625093  0.197417  1
  Fe  Fe6  1  0.750000  0.125093  0.302583  1
  Fe  Fe7  1  0.750000  0.374907  0.802583  1
  Fe  Fe8  1  0.250000  0.457521  0.936072  1
  Fe  Fe9  1  0.250000  0.042479  0.436072  1
  Fe  Fe10  1  0.750000  0.542479  0.063928  1
  Fe  Fe11  1  0.750000  0.957521  0.563928  1
  P  P12  1  0.250000  0.441872  0.111758  1
  P  P13  1  0.250000  0.058128  0.611758  1
  P  P14  1  0.750000  0.558128  0.888242  1
  P  P15  1  0.750000  0.941872  0.388242  1
  P  P16  1  0.250000  0.272120  0.863105  1
  P  P17  1  0.250000  0.227880  0.363105  1
  P  P18  1  0.750000  0.727880  0.136895  1
  P  P19  1  0.750000  0.772120  0.636895  1
  P  P20  1  0.250000  0.600899  0.377792  1
  P  P21  1  0.250000  0.899101  0.877792  1
  P  P22  1  0.750000  0.399101  0.622208  1
  P  P23  1  0.750000  0.100899  0.122208  1
  Ir  Ir24  1  0.250000  0.718261  0.990440  1
  Ir  Ir25  1  0.250000  0.781739  0.490440  1
  Ir  Ir26  1  0.750000  0.281739  0.009560  1
  Ir  Ir27  1  0.750000  0.218261  0.509560  1
  Ir  Ir28  1  0.250000  0.409148  0.475559  1
  Ir  Ir29  1  0.250000  0.090852  0.975559  1
  Ir  Ir30  1  0.750000  0.590852  0.524441  1
  Ir  Ir31  1  0.750000  0.909148  0.024441  1
  Ir  Ir32  1  0.250000  0.232101  0.173207  1
  Ir  Ir33  1  0.250000  0.267899  0.673207  1
  Ir  Ir34  1  0.750000  0.767899  0.826793  1
  Ir  Ir35  1  0.750000  0.732101  0.326793  1
