# generated using pymatgen
data_ErTm2Ag(Pt2O7)2
_symmetry_space_group_name_H-M   'P 1'
_cell_length_a   7.28358872
_cell_length_b   7.28299539
_cell_length_c   7.15271579
_cell_angle_alpha   59.37215651
_cell_angle_beta   59.39286664
_cell_angle_gamma   59.99730794
_symmetry_Int_Tables_number   1
_chemical_formula_structural   ErTm2Ag(Pt2O7)2
_chemical_formula_sum   'Er1 Tm2 Ag1 Pt4 O14'
_cell_volume   265.75755415
_cell_formula_units_Z   1
loop_
 _symmetry_equiv_pos_site_id
 _symmetry_equiv_pos_as_xyz
  1  'x, y, z'
loop_
 _atom_site_type_symbol
 _atom_site_label
 _atom_site_symmetry_multiplicity
 _atom_site_fract_x
 _atom_site_fract_y
 _atom_site_fract_z
 _atom_site_occupancy
  Er  Er0  1  0.625000  0.125000  0.625000  1
  Tm  Tm1  1  0.625000  0.625000  0.625000  1
  Tm  Tm2  1  0.125000  0.625000  0.625000  1
  Ag  Ag3  1  0.625000  0.625000  0.125000  1
  Pt  Pt4  1  0.125000  0.125000  0.125000  1
  Pt  Pt5  1  0.625000  0.125000  0.125000  1
  Pt  Pt6  1  0.125000  0.625000  0.125000  1
  Pt  Pt7  1  0.125000  0.125000  0.625000  1
  O  O8  1  0.030281  0.466842  0.472594  1
  O  O9  1  0.791387  0.791380  0.222322  1
  O  O10  1  0.791777  0.195268  0.221178  1
  O  O11  1  0.466583  0.029807  0.472425  1
  O  O12  1  0.031185  0.029807  0.472425  1
  O  O13  1  0.055089  0.458620  0.027678  1
  O  O14  1  0.747255  0.744796  0.760693  1
  O  O15  1  0.502745  0.505204  0.489307  1
  O  O16  1  0.783417  0.220193  0.777575  1
  O  O17  1  0.194911  0.791380  0.222322  1
  O  O18  1  0.218815  0.220193  0.777575  1
  O  O19  1  0.458223  0.054732  0.028822  1
  O  O20  1  0.458613  0.458620  0.027678  1
  O  O21  1  0.219719  0.783158  0.777406  1
