# generated using pymatgen
data_Ca3Ti2Al2SiO12
_symmetry_space_group_name_H-M   'P 1'
_cell_length_a   10.63299599
_cell_length_b   10.63299593
_cell_length_c   10.63299556
_cell_angle_alpha   109.18665817
_cell_angle_beta   109.18665440
_cell_angle_gamma   110.04186094
_symmetry_Int_Tables_number   1
_chemical_formula_structural   Ca3Ti2Al2SiO12
_chemical_formula_sum   'Ca12 Ti8 Al8 Si4 O48'
_cell_volume   925.36419403
_cell_formula_units_Z   4
loop_
 _symmetry_equiv_pos_site_id
 _symmetry_equiv_pos_as_xyz
  1  'x, y, z'
loop_
 _atom_site_type_symbol
 _atom_site_label
 _atom_site_symmetry_multiplicity
 _atom_site_fract_x
 _atom_site_fract_y
 _atom_site_fract_z
 _atom_site_occupancy
  Ca  Ca0  1  0.750000  0.750000  0.000000  1
  Ca  Ca1  1  0.875000  0.249026  0.874026  1
  Ca  Ca2  1  0.499026  0.125000  0.874026  1
  Ca  Ca3  1  0.250000  0.250000  0.000000  1
  Ca  Ca4  1  0.875000  0.749026  0.374026  1
  Ca  Ca5  1  0.250974  0.625000  0.125974  1
  Ca  Ca6  1  0.999026  0.125000  0.374026  1
  Ca  Ca7  1  0.000000  0.500000  0.500000  1
  Ca  Ca8  1  0.375000  0.000974  0.125974  1
  Ca  Ca9  1  0.750974  0.625000  0.625974  1
  Ca  Ca10  1  0.375000  0.500974  0.625974  1
  Ca  Ca11  1  0.500000  0.000000  0.500000  1
  Ti  Ti12  1  0.125000  0.375000  0.750000  1
  Ti  Ti13  1  0.625000  0.875000  0.250000  1
  Ti  Ti14  1  0.125000  0.875000  0.750000  1
  Ti  Ti15  1  0.625000  0.375000  0.250000  1
  Ti  Ti16  1  0.125000  0.375000  0.250000  1
  Ti  Ti17  1  0.125000  0.875000  0.250000  1
  Ti  Ti18  1  0.625000  0.875000  0.750000  1
  Ti  Ti19  1  0.625000  0.375000  0.750000  1
  Al  Al20  1  0.000925  0.625000  0.875925  1
  Al  Al21  1  0.375000  0.750925  0.875925  1
  Al  Al22  1  0.875000  0.499075  0.124075  1
  Al  Al23  1  0.749075  0.125000  0.124075  1
  Al  Al24  1  0.500925  0.625000  0.375925  1
  Al  Al25  1  0.375000  0.250925  0.375925  1
  Al  Al26  1  0.875000  0.999075  0.624075  1
  Al  Al27  1  0.249075  0.125000  0.624075  1
  Si  Si28  1  0.000000  0.000000  0.000000  1
  Si  Si29  1  0.500000  0.500000  0.000000  1
  Si  Si30  1  0.250000  0.750000  0.500000  1
  Si  Si31  1  0.750000  0.250000  0.500000  1
  O  O32  1  0.820621  0.870847  0.859302  1
  O  O33  1  0.025838  0.193320  0.767038  1
  O  O34  1  0.046594  0.476405  0.867424  1
  O  O35  1  0.806680  0.573717  0.832518  1
  O  O36  1  0.525838  0.758800  0.832518  1
  O  O37  1  0.538681  0.488454  0.859302  1
  O  O38  1  0.726405  0.358981  0.929811  1
  O  O39  1  0.926283  0.693320  0.167482  1
  O  O40  1  0.023595  0.453406  0.132576  1
  O  O41  1  0.038681  0.179379  0.050226  1
  O  O42  1  0.429169  0.796594  0.070189  1
  O  O43  1  0.241200  0.073717  0.767038  1
  O  O44  1  0.703406  0.070831  0.929811  1
  O  O45  1  0.320621  0.461319  0.949774  1
  O  O46  1  0.629153  0.679379  0.140698  1
  O  O47  1  0.511546  0.370847  0.050226  1
  O  O48  1  0.141019  0.773595  0.070189  1
  O  O49  1  0.320831  0.891019  0.867424  1
  O  O50  1  0.011546  0.961319  0.140698  1
  O  O51  1  0.823717  0.491200  0.267038  1
  O  O52  1  0.943320  0.275838  0.267038  1
  O  O53  1  0.608981  0.179169  0.132576  1
  O  O54  1  0.508800  0.775838  0.332518  1
  O  O55  1  0.129153  0.988454  0.949774  1
  O  O56  1  0.120847  0.761546  0.550226  1
  O  O57  1  0.741200  0.974162  0.167482  1
  O  O58  1  0.641019  0.570831  0.367424  1
  O  O59  1  0.306680  0.474162  0.232962  1
  O  O60  1  0.426283  0.258800  0.232962  1
  O  O61  1  0.238454  0.788681  0.359302  1
  O  O62  1  0.929169  0.858981  0.632576  1
  O  O63  1  0.108981  0.976405  0.429811  1
  O  O64  1  0.738454  0.379153  0.449774  1
  O  O65  1  0.620847  0.070621  0.359302  1
  O  O66  1  0.929379  0.288681  0.550226  1
  O  O67  1  0.546594  0.679169  0.570189  1
  O  O68  1  0.008800  0.676283  0.732962  1
  O  O69  1  0.820831  0.953406  0.429811  1
  O  O70  1  0.226405  0.296594  0.367424  1
  O  O71  1  0.211319  0.570621  0.449774  1
  O  O72  1  0.323717  0.056680  0.332518  1
  O  O73  1  0.523595  0.391019  0.570189  1
  O  O74  1  0.711319  0.261546  0.640698  1
  O  O75  1  0.724162  0.991200  0.667482  1
  O  O76  1  0.443320  0.176283  0.667482  1
  O  O77  1  0.203406  0.273595  0.632576  1
  O  O78  1  0.224162  0.556680  0.732962  1
  O  O79  1  0.429379  0.879153  0.640698  1
