# generated using pymatgen
data_Dy12Th4Mg3HgRu4
_symmetry_space_group_name_H-M   'P 1'
_cell_length_a   9.72750706
_cell_length_b   9.72750656
_cell_length_c   9.72750650
_cell_angle_alpha   60.13744771
_cell_angle_beta   60.13744904
_cell_angle_gamma   60.13745021
_symmetry_Int_Tables_number   1
_chemical_formula_structural   Dy12Th4Mg3HgRu4
_chemical_formula_sum   'Dy12 Th4 Mg3 Hg1 Ru4'
_cell_volume   652.88958087
_cell_formula_units_Z   1
loop_
 _symmetry_equiv_pos_site_id
 _symmetry_equiv_pos_as_xyz
  1  'x, y, z'
loop_
 _atom_site_type_symbol
 _atom_site_label
 _atom_site_symmetry_multiplicity
 _atom_site_fract_x
 _atom_site_fract_y
 _atom_site_fract_z
 _atom_site_occupancy
  Dy  Dy0  1  0.812282  0.187099  0.187099  1
  Dy  Dy1  1  0.186783  0.812056  0.812056  1
  Dy  Dy2  1  0.187099  0.812282  0.187099  1
  Dy  Dy3  1  0.812056  0.186783  0.812056  1
  Dy  Dy4  1  0.187099  0.187099  0.812282  1
  Dy  Dy5  1  0.812056  0.812056  0.186783  1
  Dy  Dy6  1  0.932572  0.563943  0.563943  1
  Dy  Dy7  1  0.562404  0.935878  0.935878  1
  Dy  Dy8  1  0.563943  0.932572  0.563943  1
  Dy  Dy9  1  0.935878  0.562404  0.935878  1
  Dy  Dy10  1  0.563943  0.563943  0.932572  1
  Dy  Dy11  1  0.935878  0.935878  0.562404  1
  Th  Th12  1  0.345823  0.345823  0.345823  1
  Th  Th13  1  0.347338  0.347338  0.958964  1
  Th  Th14  1  0.347338  0.958964  0.347338  1
  Th  Th15  1  0.958964  0.347338  0.347338  1
  Mg  Mg16  1  0.579651  0.579651  0.263651  1
  Mg  Mg17  1  0.579651  0.263651  0.579651  1
  Mg  Mg18  1  0.263651  0.579651  0.579651  1
  Hg  Hg19  1  0.583673  0.583673  0.583673  1
  Ru  Ru20  1  0.142964  0.142964  0.142964  1
  Ru  Ru21  1  0.144923  0.144923  0.569110  1
  Ru  Ru22  1  0.144923  0.569110  0.144923  1
  Ru  Ru23  1  0.569110  0.144923  0.144923  1
