# generated using pymatgen
data_Tb14LuTh(InIr)4
_symmetry_space_group_name_H-M   'P 1'
_cell_length_a   9.72844074
_cell_length_b   9.72147294
_cell_length_c   9.69961400
_cell_angle_alpha   60.07434585
_cell_angle_beta   60.09796480
_cell_angle_gamma   60.06996460
_symmetry_Int_Tables_number   1
_chemical_formula_structural   Tb14LuTh(InIr)4
_chemical_formula_sum   'Tb14 Lu1 Th1 In4 Ir4'
_cell_volume   649.84347451
_cell_formula_units_Z   1
loop_
 _symmetry_equiv_pos_site_id
 _symmetry_equiv_pos_as_xyz
  1  'x, y, z'
loop_
 _atom_site_type_symbol
 _atom_site_label
 _atom_site_symmetry_multiplicity
 _atom_site_fract_x
 _atom_site_fract_y
 _atom_site_fract_z
 _atom_site_occupancy
  Tb  Tb0  1  0.939560  0.559465  0.938809  1
  Tb  Tb1  1  0.310446  0.689632  0.311772  1
  Tb  Tb2  1  0.939560  0.559465  0.562166  1
  Tb  Tb3  1  0.310965  0.308897  0.690069  1
  Tb  Tb4  1  0.099103  0.099885  0.100291  1
  Tb  Tb5  1  0.561401  0.558959  0.939820  1
  Tb  Tb6  1  0.099103  0.099885  0.700722  1
  Tb  Tb7  1  0.691228  0.307865  0.689539  1
  Tb  Tb8  1  0.688998  0.688702  0.311150  1
  Tb  Tb9  1  0.691228  0.307865  0.311369  1
  Tb  Tb10  1  0.310446  0.689632  0.688150  1
  Tb  Tb11  1  0.560240  0.939984  0.559528  1
  Tb  Tb12  1  0.700060  0.101124  0.099408  1
  Tb  Tb13  1  0.560240  0.939984  0.940248  1
  Lu  Lu14  1  0.940983  0.939796  0.559611  1
  Th  Th15  1  0.096817  0.710736  0.096224  1
  In  In16  1  0.332548  0.333197  0.333004  1
  In  In17  1  0.001233  0.332982  0.332892  1
  In  In18  1  0.332630  0.000529  0.333420  1
  In  In19  1  0.332548  0.333197  0.001250  1
  Ir  Ir20  1  0.892594  0.891706  0.889603  1
  Ir  Ir21  1  0.892594  0.891706  0.326096  1
  Ir  Ir22  1  0.323871  0.891001  0.892563  1
  Ir  Ir23  1  0.891603  0.323806  0.892296  1
