# generated using pymatgen
data_Sr6LuV(BO3)6
_symmetry_space_group_name_H-M   'P 1'
_cell_length_a   7.75592266
_cell_length_b   7.75592061
_cell_length_c   7.75592067
_cell_angle_alpha   105.24672304
_cell_angle_beta   105.24671873
_cell_angle_gamma   105.24672435
_symmetry_Int_Tables_number   1
_chemical_formula_structural   Sr6LuV(BO3)6
_chemical_formula_sum   'Sr6 Lu1 V1 B6 O18'
_cell_volume   405.70132870
_cell_formula_units_Z   1
loop_
 _symmetry_equiv_pos_site_id
 _symmetry_equiv_pos_as_xyz
  1  'x, y, z'
loop_
 _atom_site_type_symbol
 _atom_site_label
 _atom_site_symmetry_multiplicity
 _atom_site_fract_x
 _atom_site_fract_y
 _atom_site_fract_z
 _atom_site_occupancy
  Sr  Sr0  1  0.349848  0.733805  0.837552  1
  Sr  Sr1  1  0.837552  0.349848  0.733805  1
  Sr  Sr2  1  0.733805  0.837552  0.349848  1
  Sr  Sr3  1  0.650152  0.266195  0.162448  1
  Sr  Sr4  1  0.162448  0.650152  0.266195  1
  Sr  Sr5  1  0.266195  0.162448  0.650152  1
  Lu  Lu6  1  0.000000  0.000000  0.000000  1
  V  V7  1  0.500000  0.500000  0.500000  1
  B  B8  1  0.708052  0.622632  0.954161  1
  B  B9  1  0.954161  0.708052  0.622632  1
  B  B10  1  0.622632  0.954161  0.708052  1
  B  B11  1  0.045839  0.291948  0.377368  1
  B  B12  1  0.377368  0.045839  0.291948  1
  B  B13  1  0.291948  0.377368  0.045839  1
  O  O14  1  0.070395  0.806429  0.547333  1
  O  O15  1  0.547333  0.070395  0.806429  1
  O  O16  1  0.428960  0.498859  0.225372  1
  O  O17  1  0.498859  0.225372  0.428960  1
  O  O18  1  0.225372  0.428960  0.498859  1
  O  O19  1  0.774628  0.571040  0.501141  1
  O  O20  1  0.571040  0.501141  0.774628  1
  O  O21  1  0.501141  0.774628  0.571040  1
  O  O22  1  0.266101  0.183158  0.984714  1
  O  O23  1  0.183158  0.984714  0.266101  1
  O  O24  1  0.984714  0.266101  0.183158  1
  O  O25  1  0.733899  0.816842  0.015286  1
  O  O26  1  0.816842  0.015286  0.733899  1
  O  O27  1  0.015286  0.733899  0.816842  1
  O  O28  1  0.193571  0.452667  0.929605  1
  O  O29  1  0.452667  0.929605  0.193571  1
  O  O30  1  0.929605  0.193571  0.452667  1
  O  O31  1  0.806429  0.547333  0.070395  1
