# generated using pymatgen
data_YbSb12Ru3Pt
_symmetry_space_group_name_H-M   'P 1'
_cell_length_a   8.14589118
_cell_length_b   8.14589074
_cell_length_c   8.17275000
_cell_angle_alpha   109.53802029
_cell_angle_beta   109.53801918
_cell_angle_gamma   109.40433715
_symmetry_Int_Tables_number   1
_chemical_formula_structural   YbSb12Ru3Pt
_chemical_formula_sum   'Yb1 Sb12 Ru3 Pt1'
_cell_volume   417.12366141
_cell_formula_units_Z   1
loop_
 _symmetry_equiv_pos_site_id
 _symmetry_equiv_pos_as_xyz
  1  'x, y, z'
loop_
 _atom_site_type_symbol
 _atom_site_label
 _atom_site_symmetry_multiplicity
 _atom_site_fract_x
 _atom_site_fract_y
 _atom_site_fract_z
 _atom_site_occupancy
  Yb  Yb0  1  0.000000  0.000000  0.000000  1
  Sb  Sb1  1  0.841556  0.653408  0.503912  1
  Sb  Sb2  1  0.158444  0.346592  0.496088  1
  Sb  Sb3  1  0.157477  0.662059  0.820533  1
  Sb  Sb4  1  0.842523  0.337941  0.179467  1
  Sb  Sb5  1  0.662059  0.504582  0.841527  1
  Sb  Sb6  1  0.337941  0.495418  0.158473  1
  Sb  Sb7  1  0.653408  0.811853  0.149496  1
  Sb  Sb8  1  0.346592  0.188147  0.850504  1
  Sb  Sb9  1  0.504582  0.842523  0.663055  1
  Sb  Sb10  1  0.495418  0.157477  0.336945  1
  Sb  Sb11  1  0.188147  0.841556  0.337644  1
  Sb  Sb12  1  0.811853  0.158444  0.662356  1
  Ru  Ru13  1  0.500000  0.500000  0.500000  1
  Ru  Ru14  1  0.500000  0.000000  0.000000  1
  Ru  Ru15  1  0.000000  0.500000  0.000000  1
  Pt  Pt16  1  0.000000  0.000000  0.500000  1
