# generated using pymatgen
data_YTm3OsWC4
_symmetry_space_group_name_H-M   'P 1'
_cell_length_a   5.05350900
_cell_length_b   6.56227376
_cell_length_c   9.80825039
_cell_angle_alpha   88.94832168
_cell_angle_beta   90.00000000
_cell_angle_gamma   90.00000000
_symmetry_Int_Tables_number   1
_chemical_formula_structural   YTm3OsWC4
_chemical_formula_sum   'Y2 Tm6 Os2 W2 C8'
_cell_volume   325.21140467
_cell_formula_units_Z   2
loop_
 _symmetry_equiv_pos_site_id
 _symmetry_equiv_pos_as_xyz
  1  'x, y, z'
loop_
 _atom_site_type_symbol
 _atom_site_label
 _atom_site_symmetry_multiplicity
 _atom_site_fract_x
 _atom_site_fract_y
 _atom_site_fract_z
 _atom_site_occupancy
  Y  Y0  1  0.750000  0.966225  0.715487  1
  Y  Y1  1  0.250000  0.033775  0.284513  1
  Tm  Tm2  1  0.250000  0.675123  0.558519  1
  Tm  Tm3  1  0.750000  0.324877  0.441481  1
  Tm  Tm4  1  0.750000  0.826139  0.059141  1
  Tm  Tm5  1  0.250000  0.173861  0.940859  1
  Tm  Tm6  1  0.250000  0.540174  0.218596  1
  Tm  Tm7  1  0.750000  0.459826  0.781404  1
  Os  Os8  1  0.750000  0.780044  0.368062  1
  Os  Os9  1  0.250000  0.219956  0.631938  1
  W  W10  1  0.250000  0.713659  0.869419  1
  W  W11  1  0.750000  0.286341  0.130581  1
  C  C12  1  0.250000  0.447446  0.758653  1
  C  C13  1  0.750000  0.552554  0.241347  1
  C  C14  1  0.750000  0.049201  0.259798  1
  C  C15  1  0.250000  0.950799  0.740202  1
  C  C16  1  0.250000  0.825391  0.055031  1
  C  C17  1  0.750000  0.174609  0.944969  1
  C  C18  1  0.750000  0.670269  0.550205  1
  C  C19  1  0.250000  0.329731  0.449795  1
