# generated using pymatgen
data_Mn3Fe3GeAs2
_symmetry_space_group_name_H-M   'P 1'
_cell_length_a   6.42146300
_cell_length_b   6.42146267
_cell_length_c   3.30458700
_cell_angle_alpha   90.00000000
_cell_angle_beta   90.00000000
_cell_angle_gamma   120.00000545
_symmetry_Int_Tables_number   1
_chemical_formula_structural   Mn3Fe3GeAs2
_chemical_formula_sum   'Mn3 Fe3 Ge1 As2'
_cell_volume   118.00916703
_cell_formula_units_Z   1
loop_
 _symmetry_equiv_pos_site_id
 _symmetry_equiv_pos_as_xyz
  1  'x, y, z'
loop_
 _atom_site_type_symbol
 _atom_site_label
 _atom_site_symmetry_multiplicity
 _atom_site_fract_x
 _atom_site_fract_y
 _atom_site_fract_z
 _atom_site_occupancy
  Mn  Mn0  1  0.600157  0.999511  0.500000  1
  Mn  Mn1  1  0.399354  0.399843  0.500000  1
  Mn  Mn2  1  0.000489  0.600646  0.500000  1
  Fe  Fe3  1  0.262160  0.003115  0.000000  1
  Fe  Fe4  1  0.740955  0.737840  0.000000  1
  Fe  Fe5  1  0.996885  0.259045  0.000000  1
  Ge  Ge6  1  0.333333  0.666667  0.000000  1
  As  As7  1  0.666667  0.333333  0.000000  1
  As  As8  1  0.000000  0.000000  0.500000  1
