# generated using pymatgen
data_HfZrCo5BIr
_symmetry_space_group_name_H-M   'P 1'
_cell_length_a   5.44106427
_cell_length_b   5.43002670
_cell_length_c   5.43002755
_cell_angle_alpha   60.20626536
_cell_angle_beta   59.93273901
_cell_angle_gamma   59.93272812
_symmetry_Int_Tables_number   1
_chemical_formula_structural   HfZrCo5BIr
_chemical_formula_sum   'Hf1 Zr1 Co5 B1 Ir1'
_cell_volume   113.50149697
_cell_formula_units_Z   1
loop_
 _symmetry_equiv_pos_site_id
 _symmetry_equiv_pos_as_xyz
  1  'x, y, z'
loop_
 _atom_site_type_symbol
 _atom_site_label
 _atom_site_symmetry_multiplicity
 _atom_site_fract_x
 _atom_site_fract_y
 _atom_site_fract_z
 _atom_site_occupancy
  Hf  Hf0  1  0.751851  0.748149  0.748149  1
  Zr  Zr1  1  0.251848  0.248152  0.248152  1
  Co  Co2  1  0.744434  0.738597  0.255554  1
  Co  Co3  1  0.261415  0.738597  0.255554  1
  Co  Co4  1  0.734948  0.265052  0.265052  1
  Co  Co5  1  0.261415  0.255554  0.738597  1
  Co  Co6  1  0.744434  0.255554  0.738597  1
  B  B7  1  0.988098  0.011902  0.011902  1
  Ir  Ir8  1  0.261557  0.738443  0.738443  1
