# generated using pymatgen
data_Lu3Al12CoRu3
_symmetry_space_group_name_H-M   'P 1'
_cell_length_a   8.70188900
_cell_length_b   8.70188967
_cell_length_c   9.46954400
_cell_angle_alpha   90.00000000
_cell_angle_beta   90.00000000
_cell_angle_gamma   119.99999364
_symmetry_Int_Tables_number   1
_chemical_formula_structural   Lu3Al12CoRu3
_chemical_formula_sum   'Lu6 Al24 Co2 Ru6'
_cell_volume   620.99319028
_cell_formula_units_Z   2
loop_
 _symmetry_equiv_pos_site_id
 _symmetry_equiv_pos_as_xyz
  1  'x, y, z'
loop_
 _atom_site_type_symbol
 _atom_site_label
 _atom_site_symmetry_multiplicity
 _atom_site_fract_x
 _atom_site_fract_y
 _atom_site_fract_z
 _atom_site_occupancy
  Lu  Lu0  1  0.195510  0.391021  0.250000  1
  Lu  Lu1  1  0.804490  0.608979  0.750000  1
  Lu  Lu2  1  0.608979  0.804490  0.250000  1
  Lu  Lu3  1  0.391021  0.195510  0.750000  1
  Lu  Lu4  1  0.195510  0.804490  0.250000  1
  Lu  Lu5  1  0.804490  0.195510  0.750000  1
  Al  Al6  1  0.333333  0.666667  0.017837  1
  Al  Al7  1  0.666667  0.333333  0.982163  1
  Al  Al8  1  0.666667  0.333333  0.517837  1
  Al  Al9  1  0.333333  0.666667  0.482163  1
  Al  Al10  1  0.159326  0.318651  0.577216  1
  Al  Al11  1  0.840674  0.681349  0.422784  1
  Al  Al12  1  0.681349  0.840674  0.577216  1
  Al  Al13  1  0.840674  0.681349  0.077216  1
  Al  Al14  1  0.318651  0.159326  0.422784  1
  Al  Al15  1  0.159326  0.318651  0.922784  1
  Al  Al16  1  0.159326  0.840674  0.577216  1
  Al  Al17  1  0.318651  0.159326  0.077216  1
  Al  Al18  1  0.840674  0.159326  0.422784  1
  Al  Al19  1  0.681349  0.840674  0.922784  1
  Al  Al20  1  0.840674  0.159326  0.077216  1
  Al  Al21  1  0.159326  0.840674  0.922784  1
  Al  Al22  1  0.560989  0.121979  0.250000  1
  Al  Al23  1  0.439011  0.878021  0.750000  1
  Al  Al24  1  0.878021  0.439011  0.250000  1
  Al  Al25  1  0.121979  0.560989  0.750000  1
  Al  Al26  1  0.560989  0.439011  0.250000  1
  Al  Al27  1  0.439011  0.560989  0.750000  1
  Al  Al28  1  0.000000  0.000000  0.250000  1
  Al  Al29  1  0.000000  0.000000  0.750000  1
  Co  Co30  1  0.000000  0.000000  0.000000  1
  Co  Co31  1  0.000000  0.000000  0.500000  1
  Ru  Ru32  1  0.500000  0.000000  0.000000  1
  Ru  Ru33  1  0.000000  0.500000  0.000000  1
  Ru  Ru34  1  0.500000  0.000000  0.500000  1
  Ru  Ru35  1  0.500000  0.500000  0.000000  1
  Ru  Ru36  1  0.000000  0.500000  0.500000  1
  Ru  Ru37  1  0.500000  0.500000  0.500000  1
