# generated using pymatgen
data_Th10InSn7
_symmetry_space_group_name_H-M   'P 1'
_cell_length_a   9.68405800
_cell_length_b   9.68405811
_cell_length_c   6.61582100
_cell_angle_alpha   90.00000000
_cell_angle_beta   90.00000000
_cell_angle_gamma   119.99988559
_symmetry_Int_Tables_number   1
_chemical_formula_structural   Th10InSn7
_chemical_formula_sum   'Th10 In1 Sn7'
_cell_volume   537.31584426
_cell_formula_units_Z   1
loop_
 _symmetry_equiv_pos_site_id
 _symmetry_equiv_pos_as_xyz
  1  'x, y, z'
loop_
 _atom_site_type_symbol
 _atom_site_label
 _atom_site_symmetry_multiplicity
 _atom_site_fract_x
 _atom_site_fract_y
 _atom_site_fract_z
 _atom_site_occupancy
  Th  Th0  1  0.333332  0.666668  0.500001  1
  Th  Th1  1  0.666667  0.333333  0.000000  1
  Th  Th2  1  0.666668  0.333332  0.500001  1
  Th  Th3  1  0.333333  0.666667  0.000000  1
  Th  Th4  1  0.999998  0.719350  0.749197  1
  Th  Th5  1  0.280651  0.280652  0.749192  1
  Th  Th6  1  0.719348  0.719348  0.250809  1
  Th  Th7  1  0.000002  0.280650  0.250804  1
  Th  Th8  1  0.719351  0.999999  0.749197  1
  Th  Th9  1  0.280650  0.000002  0.250804  1
  In  In10  1  0.000000  0.000000  0.000000  1
  Sn  Sn11  1  0.000001  0.378960  0.750405  1
  Sn  Sn12  1  0.621040  0.621040  0.750406  1
  Sn  Sn13  1  0.378960  0.378960  0.249595  1
  Sn  Sn14  1  0.999999  0.621040  0.249596  1
  Sn  Sn15  1  0.378960  0.000002  0.750405  1
  Sn  Sn16  1  0.621039  0.999998  0.249596  1
  Sn  Sn17  1  0.000000  0.000000  0.500001  1
