# generated using pymatgen
data_Ac7Sm13Sn16
_symmetry_space_group_name_H-M   'P 1'
_cell_length_a   8.43523483
_cell_length_b   8.50416791
_cell_length_c   16.26281017
_cell_angle_alpha   90.11867925
_cell_angle_beta   89.57304318
_cell_angle_gamma   90.32787292
_symmetry_Int_Tables_number   1
_chemical_formula_structural   Ac7Sm13Sn16
_chemical_formula_sum   'Ac7 Sm13 Sn16'
_cell_volume   1166.55315784
_cell_formula_units_Z   1
loop_
 _symmetry_equiv_pos_site_id
 _symmetry_equiv_pos_as_xyz
  1  'x, y, z'
loop_
 _atom_site_type_symbol
 _atom_site_label
 _atom_site_symmetry_multiplicity
 _atom_site_fract_x
 _atom_site_fract_y
 _atom_site_fract_z
 _atom_site_occupancy
  Ac  Ac0  1  0.980839  0.822988  0.904158  1
  Ac  Ac1  1  0.482769  0.678402  0.596661  1
  Ac  Ac2  1  0.519244  0.319297  0.097635  1
  Ac  Ac3  1  0.016415  0.178231  0.403076  1
  Ac  Ac4  1  0.983050  0.821121  0.596415  1
  Ac  Ac5  1  0.480876  0.679625  0.903991  1
  Ac  Ac6  1  0.517817  0.320504  0.400682  1
  Sm  Sm7  1  0.023826  0.178460  0.101006  1
  Sm  Sm8  1  0.864621  0.660516  0.375806  1
  Sm  Sm9  1  0.366570  0.840536  0.119756  1
  Sm  Sm10  1  0.635232  0.161208  0.621377  1
  Sm  Sm11  1  0.131093  0.338443  0.879509  1
  Sm  Sm12  1  0.135394  0.338323  0.622120  1
  Sm  Sm13  1  0.631870  0.159678  0.880964  1
  Sm  Sm14  1  0.363878  0.839114  0.377259  1
  Sm  Sm15  1  0.867287  0.661109  0.121431  1
  Sm  Sm16  1  0.298840  0.003517  0.751001  1
  Sm  Sm17  1  0.799449  0.497003  0.750491  1
  Sm  Sm18  1  0.200326  0.501698  0.248155  1
  Sm  Sm19  1  0.701174  0.997547  0.248496  1
  Sn  Sn20  1  0.803342  0.457466  0.543313  1
  Sn  Sn21  1  0.292657  0.047641  0.960054  1
  Sn  Sn22  1  0.696272  0.954950  0.455328  1
  Sn  Sn23  1  0.196390  0.535428  0.045482  1
  Sn  Sn24  1  0.196373  0.542454  0.454920  1
  Sn  Sn25  1  0.710409  0.965836  0.047352  1
  Sn  Sn26  1  0.303400  0.044078  0.543687  1
  Sn  Sn27  1  0.801911  0.457532  0.956694  1
  Sn  Sn28  1  0.173194  0.637545  0.750421  1
  Sn  Sn29  1  0.673753  0.864691  0.750472  1
  Sn  Sn30  1  0.319841  0.135745  0.248138  1
  Sn  Sn31  1  0.833070  0.357139  0.245975  1
  Sn  Sn32  1  0.933030  0.129427  0.750462  1
  Sn  Sn33  1  0.434691  0.369591  0.751366  1
  Sn  Sn34  1  0.564827  0.630593  0.248623  1
  Sn  Sn35  1  0.066271  0.872564  0.247723  1
