# generated using pymatgen
data_ReTc7
_symmetry_space_group_name_H-M   'P 1'
_cell_length_a   5.52571800
_cell_length_b   5.52571699
_cell_length_c   4.43432500
_cell_angle_alpha   90.00000000
_cell_angle_beta   90.00000000
_cell_angle_gamma   120.00000603
_symmetry_Int_Tables_number   1
_chemical_formula_structural   ReTc7
_chemical_formula_sum   'Re1 Tc7'
_cell_volume   117.25610968
_cell_formula_units_Z   1
loop_
 _symmetry_equiv_pos_site_id
 _symmetry_equiv_pos_as_xyz
  1  'x, y, z'
loop_
 _atom_site_type_symbol
 _atom_site_label
 _atom_site_symmetry_multiplicity
 _atom_site_fract_x
 _atom_site_fract_y
 _atom_site_fract_z
 _atom_site_occupancy
  Re  Re0  1  0.333333  0.666667  0.750000  1
  Tc  Tc1  1  0.666667  0.333333  0.250000  1
  Tc  Tc2  1  0.166569  0.333138  0.250000  1
  Tc  Tc3  1  0.666862  0.833431  0.250000  1
  Tc  Tc4  1  0.166569  0.833431  0.250000  1
  Tc  Tc5  1  0.832629  0.665258  0.750000  1
  Tc  Tc6  1  0.334742  0.167371  0.750000  1
  Tc  Tc7  1  0.832629  0.167371  0.750000  1
