# generated using pymatgen
data_Pr4Al18Ir3Pd2Pt
_symmetry_space_group_name_H-M   'P 1'
_cell_length_a   7.67179758
_cell_length_b   7.67179686
_cell_length_c   9.62713485
_cell_angle_alpha   90.00079165
_cell_angle_beta   90.00079883
_cell_angle_gamma   119.69239082
_symmetry_Int_Tables_number   1
_chemical_formula_structural   Pr4Al18Ir3Pd2Pt
_chemical_formula_sum   'Pr4 Al18 Ir3 Pd2 Pt1'
_cell_volume   492.22057120
_cell_formula_units_Z   1
loop_
 _symmetry_equiv_pos_site_id
 _symmetry_equiv_pos_as_xyz
  1  'x, y, z'
loop_
 _atom_site_type_symbol
 _atom_site_label
 _atom_site_symmetry_multiplicity
 _atom_site_fract_x
 _atom_site_fract_y
 _atom_site_fract_z
 _atom_site_occupancy
  Pr  Pr0  1  0.996086  0.669049  0.250384  1
  Pr  Pr1  1  0.005412  0.332021  0.749741  1
  Pr  Pr2  1  0.667979  0.994588  0.250259  1
  Pr  Pr3  1  0.330951  0.003914  0.749616  1
  Al  Al4  1  0.128848  0.129648  0.250731  1
  Al  Al5  1  0.870352  0.871152  0.749269  1
  Al  Al6  1  0.003422  0.330589  0.074893  1
  Al  Al7  1  0.995854  0.669598  0.924577  1
  Al  Al8  1  0.994563  0.665387  0.572584  1
  Al  Al9  1  0.334613  0.005437  0.427416  1
  Al  Al10  1  0.998025  0.330389  0.427668  1
  Al  Al11  1  0.669611  0.001975  0.572332  1
  Al  Al12  1  0.669411  0.996578  0.925107  1
  Al  Al13  1  0.330402  0.004146  0.075423  1
  Al  Al14  1  0.334394  0.331057  0.548015  1
  Al  Al15  1  0.668943  0.665606  0.451985  1
  Al  Al16  1  0.667486  0.667489  0.053224  1
  Al  Al17  1  0.332511  0.332514  0.946776  1
  Al  Al18  1  0.340100  0.542774  0.250706  1
  Al  Al19  1  0.659133  0.454670  0.746486  1
  Al  Al20  1  0.545330  0.340867  0.253514  1
  Al  Al21  1  0.457226  0.659900  0.749294  1
  Ir  Ir22  1  0.670708  0.329292  0.500000  1
  Ir  Ir23  1  0.999876  0.000124  0.000000  1
  Ir  Ir24  1  0.000264  0.999736  0.500000  1
  Pd  Pd25  1  0.671101  0.328899  0.000000  1
  Pd  Pd26  1  0.328482  0.671518  0.000000  1
  Pt  Pt27  1  0.328921  0.671079  0.500000  1
