# generated using pymatgen
data_Tb16MgCd3(FeNi)2
_symmetry_space_group_name_H-M   'P 1'
_cell_length_a   9.57576631
_cell_length_b   9.57576622
_cell_length_c   9.60050643
_cell_angle_alpha   59.79800288
_cell_angle_beta   59.79800360
_cell_angle_gamma   59.69880658
_symmetry_Int_Tables_number   1
_chemical_formula_structural   Tb16MgCd3(FeNi)2
_chemical_formula_sum   'Tb16 Mg1 Cd3 Fe2 Ni2'
_cell_volume   619.15757126
_cell_formula_units_Z   1
loop_
 _symmetry_equiv_pos_site_id
 _symmetry_equiv_pos_as_xyz
  1  'x, y, z'
loop_
 _atom_site_type_symbol
 _atom_site_label
 _atom_site_symmetry_multiplicity
 _atom_site_fract_x
 _atom_site_fract_y
 _atom_site_fract_z
 _atom_site_occupancy
  Tb  Tb0  1  0.346162  0.346162  0.350644  1
  Tb  Tb1  1  0.346243  0.346243  0.960039  1
  Tb  Tb2  1  0.343520  0.963414  0.346840  1
  Tb  Tb3  1  0.963414  0.343520  0.346840  1
  Tb  Tb4  1  0.815953  0.187988  0.188650  1
  Tb  Tb5  1  0.184728  0.817218  0.808628  1
  Tb  Tb6  1  0.187988  0.815953  0.188650  1
  Tb  Tb7  1  0.817218  0.184728  0.808628  1
  Tb  Tb8  1  0.188360  0.188360  0.811311  1
  Tb  Tb9  1  0.811430  0.811430  0.188878  1
  Tb  Tb10  1  0.938327  0.558647  0.565698  1
  Tb  Tb11  1  0.557950  0.938252  0.939531  1
  Tb  Tb12  1  0.558647  0.938327  0.565698  1
  Tb  Tb13  1  0.938252  0.557950  0.939531  1
  Tb  Tb14  1  0.563029  0.563029  0.938718  1
  Tb  Tb15  1  0.938998  0.938998  0.561020  1
  Mg  Mg16  1  0.574280  0.574280  0.574258  1
  Cd  Cd17  1  0.579951  0.579951  0.256938  1
  Cd  Cd18  1  0.581763  0.255061  0.580111  1
  Cd  Cd19  1  0.255061  0.581763  0.580111  1
  Fe  Fe20  1  0.143409  0.143409  0.138253  1
  Fe  Fe21  1  0.144705  0.144705  0.578191  1
  Ni  Ni22  1  0.142756  0.577856  0.141416  1
  Ni  Ni23  1  0.577856  0.142756  0.141416  1
