# generated using pymatgen
data_Dy14YTm5Bi12
_symmetry_space_group_name_H-M   'P 1'
_cell_length_a   8.22764736
_cell_length_b   9.53075510
_cell_length_c   12.03965438
_cell_angle_alpha   89.98854239
_cell_angle_beta   90.01639104
_cell_angle_gamma   89.98946333
_symmetry_Int_Tables_number   1
_chemical_formula_structural   Dy14YTm5Bi12
_chemical_formula_sum   'Dy14 Y1 Tm5 Bi12'
_cell_volume   944.09775694
_cell_formula_units_Z   1
loop_
 _symmetry_equiv_pos_site_id
 _symmetry_equiv_pos_as_xyz
  1  'x, y, z'
loop_
 _atom_site_type_symbol
 _atom_site_label
 _atom_site_symmetry_multiplicity
 _atom_site_fract_x
 _atom_site_fract_y
 _atom_site_fract_z
 _atom_site_occupancy
  Dy  Dy0  1  0.186373  0.750000  0.719009  1
  Dy  Dy1  1  0.686658  0.750012  0.781043  1
  Dy  Dy2  1  0.813542  0.250085  0.280893  1
  Dy  Dy3  1  0.313616  0.250348  0.218790  1
  Dy  Dy4  1  0.806155  0.063503  0.559696  1
  Dy  Dy5  1  0.693213  0.936366  0.059360  1
  Dy  Dy6  1  0.193742  0.563512  0.440396  1
  Dy  Dy7  1  0.693957  0.563483  0.059649  1
  Dy  Dy8  1  0.193660  0.936430  0.440285  1
  Dy  Dy9  1  0.306422  0.063198  0.940718  1
  Dy  Dy10  1  0.806141  0.436559  0.559659  1
  Dy  Dy11  1  0.354586  0.750314  0.216202  1
  Dy  Dy12  1  0.854288  0.750154  0.283768  1
  Dy  Dy13  1  0.645234  0.250458  0.784026  1
  Y  Y14  1  0.146524  0.250608  0.716003  1
  Tm  Tm15  1  0.025658  0.750008  0.988773  1
  Tm  Tm16  1  0.525366  0.750153  0.511396  1
  Tm  Tm17  1  0.975015  0.250251  0.011240  1
  Tm  Tm18  1  0.474629  0.250055  0.488728  1
  Tm  Tm19  1  0.306231  0.434968  0.940598  1
  Bi  Bi20  1  0.433640  0.003747  0.672815  1
  Bi  Bi21  1  0.933739  0.496524  0.827573  1
  Bi  Bi22  1  0.566355  0.503802  0.327208  1
  Bi  Bi23  1  0.066559  0.996454  0.172604  1
  Bi  Bi24  1  0.566502  0.996393  0.327245  1
  Bi  Bi25  1  0.066498  0.503938  0.172456  1
  Bi  Bi26  1  0.433483  0.496587  0.672868  1
  Bi  Bi27  1  0.933335  0.003893  0.827491  1
  Bi  Bi28  1  0.406978  0.747747  0.957314  1
  Bi  Bi29  1  0.907813  0.750033  0.542285  1
  Bi  Bi30  1  0.592050  0.250454  0.042112  1
  Bi  Bi31  1  0.092042  0.249963  0.457798  1
