# generated using pymatgen
data_K4RbSrNbAs4
_symmetry_space_group_name_H-M   'P 1'
_cell_length_a   10.58416607
_cell_length_b   10.57993577
_cell_length_c   7.98484117
_cell_angle_alpha   88.79612773
_cell_angle_beta   88.14740066
_cell_angle_gamma   121.00968382
_symmetry_Int_Tables_number   1
_chemical_formula_structural   K4RbSrNbAs4
_chemical_formula_sum   'K8 Rb2 Sr2 Nb2 As8'
_cell_volume   765.20918115
_cell_formula_units_Z   2
loop_
 _symmetry_equiv_pos_site_id
 _symmetry_equiv_pos_as_xyz
  1  'x, y, z'
loop_
 _atom_site_type_symbol
 _atom_site_label
 _atom_site_symmetry_multiplicity
 _atom_site_fract_x
 _atom_site_fract_y
 _atom_site_fract_z
 _atom_site_occupancy
  K  K0  1  0.466404  0.526306  0.605875  1
  K  K1  1  0.057962  0.529684  0.609766  1
  K  K2  1  0.527049  0.465922  0.105268  1
  K  K3  1  0.528559  0.059081  0.110022  1
  K  K4  1  0.861144  0.143907  0.788761  1
  K  K5  1  0.295183  0.153327  0.828984  1
  K  K6  1  0.854215  0.713458  0.763314  1
  K  K7  1  0.144121  0.861605  0.289708  1
  Rb  Rb8  1  0.722693  0.857456  0.265039  1
  Rb  Rb9  1  0.152283  0.290322  0.336546  1
  Sr  Sr10  1  0.463754  0.937282  0.601619  1
  Sr  Sr11  1  0.936533  0.465133  0.101791  1
  Nb  Nb12  1  0.669734  0.330661  0.502433  1
  Nb  Nb13  1  0.329492  0.670633  0.997128  1
  As  As14  1  0.688122  0.340664  0.816283  1
  As  As15  1  0.338335  0.688506  0.310901  1
  As  As16  1  0.194341  0.794531  0.892946  1
  As  As17  1  0.587119  0.800646  0.866326  1
  As  As18  1  0.187475  0.402011  0.924905  1
  As  As19  1  0.791767  0.196266  0.394132  1
  As  As20  1  0.401997  0.185399  0.431195  1
  As  As21  1  0.801718  0.587202  0.371461  1
