# generated using pymatgen
data_Cs4Zr6NiI18
_symmetry_space_group_name_H-M   'P 1'
_cell_length_a   11.60463202
_cell_length_b   11.93273214
_cell_length_c   12.06154844
_cell_angle_alpha   118.52884104
_cell_angle_beta   100.27784447
_cell_angle_gamma   104.15948665
_symmetry_Int_Tables_number   1
_chemical_formula_structural   Cs4Zr6NiI18
_chemical_formula_sum   'Cs4 Zr6 Ni1 I18'
_cell_volume   1334.64515326
_cell_formula_units_Z   1
loop_
 _symmetry_equiv_pos_site_id
 _symmetry_equiv_pos_as_xyz
  1  'x, y, z'
loop_
 _atom_site_type_symbol
 _atom_site_label
 _atom_site_symmetry_multiplicity
 _atom_site_fract_x
 _atom_site_fract_y
 _atom_site_fract_z
 _atom_site_occupancy
  Cs  Cs0  1  0.656690  0.536970  0.229142  1
  Cs  Cs1  1  0.343310  0.463030  0.770858  1
  Cs  Cs2  1  0.692078  0.226925  0.564209  1
  Cs  Cs3  1  0.307922  0.773075  0.435791  1
  Zr  Zr4  1  0.144029  0.052265  0.220787  1
  Zr  Zr5  1  0.855971  0.947735  0.779213  1
  Zr  Zr6  1  0.866969  0.120068  0.126156  1
  Zr  Zr7  1  0.133031  0.879932  0.873844  1
  Zr  Zr8  1  0.139694  0.229777  0.042376  1
  Zr  Zr9  1  0.860306  0.770223  0.957624  1
  Ni  Ni10  1  0.000000  0.000000  0.000000  1
  I  I11  1  0.007822  0.396948  0.190354  1
  I  I12  1  0.992178  0.603052  0.809646  1
  I  I13  1  0.321998  0.322074  0.300315  1
  I  I14  1  0.678002  0.677926  0.699685  1
  I  I15  1  0.311315  0.507242  0.096727  1
  I  I16  1  0.688685  0.492758  0.903273  1
  I  I17  1  0.003438  0.800475  0.203323  1
  I  I18  1  0.996562  0.199525  0.796677  1
  I  I19  1  0.708961  0.261046  0.273822  1
  I  I20  1  0.291039  0.738954  0.726178  1
  I  I21  1  0.310751  0.125974  0.909288  1
  I  I22  1  0.689249  0.874026  0.090712  1
  I  I23  1  0.015011  0.198291  0.395344  1
  I  I24  1  0.984989  0.801709  0.604656  1
  I  I25  1  0.314777  0.928713  0.108725  1
  I  I26  1  0.685223  0.071287  0.891275  1
  I  I27  1  0.323501  0.118232  0.486237  1
  I  I28  1  0.676499  0.881768  0.513763  1
