# generated using pymatgen
data_Pr8Mn(Si4Ni)3
_symmetry_space_group_name_H-M   'P 1'
_cell_length_a   8.18598200
_cell_length_b   8.18598355
_cell_length_c   8.53825100
_cell_angle_alpha   90.00000000
_cell_angle_beta   90.00000000
_cell_angle_gamma   120.00000991
_symmetry_Int_Tables_number   1
_chemical_formula_structural   Pr8Mn(Si4Ni)3
_chemical_formula_sum   'Pr8 Mn1 Si12 Ni3'
_cell_volume   495.49714770
_cell_formula_units_Z   1
loop_
 _symmetry_equiv_pos_site_id
 _symmetry_equiv_pos_as_xyz
  1  'x, y, z'
loop_
 _atom_site_type_symbol
 _atom_site_label
 _atom_site_symmetry_multiplicity
 _atom_site_fract_x
 _atom_site_fract_y
 _atom_site_fract_z
 _atom_site_occupancy
  Pr  Pr0  1  0.499195  0.500805  0.750149  1
  Pr  Pr1  1  0.499797  0.500203  0.249936  1
  Pr  Pr2  1  0.001610  0.500805  0.750149  1
  Pr  Pr3  1  0.000406  0.500203  0.249936  1
  Pr  Pr4  1  0.499195  0.998390  0.750149  1
  Pr  Pr5  1  0.499797  0.999594  0.249936  1
  Pr  Pr6  1  0.000000  0.000000  0.751041  1
  Pr  Pr7  1  0.000000  0.000000  0.248877  1
  Mn  Mn8  1  0.666667  0.333333  0.502386  1
  Si  Si9  1  0.829451  0.170549  0.000170  1
  Si  Si10  1  0.170431  0.829569  0.000060  1
  Si  Si11  1  0.341098  0.170549  0.000170  1
  Si  Si12  1  0.172118  0.827882  0.499847  1
  Si  Si13  1  0.659137  0.829569  0.000060  1
  Si  Si14  1  0.833547  0.166453  0.499951  1
  Si  Si15  1  0.829451  0.658902  0.000170  1
  Si  Si16  1  0.655764  0.827882  0.499847  1
  Si  Si17  1  0.170431  0.340863  0.000060  1
  Si  Si18  1  0.332907  0.166453  0.499951  1
  Si  Si19  1  0.172118  0.344236  0.499847  1
  Si  Si20  1  0.833547  0.667093  0.499951  1
  Ni  Ni21  1  0.666667  0.333333  0.998275  1
  Ni  Ni22  1  0.333333  0.666667  0.000639  1
  Ni  Ni23  1  0.333333  0.666667  0.498451  1
