# generated using pymatgen
data_Er2TmAg(Pt2O7)2
_symmetry_space_group_name_H-M   'P 1'
_cell_length_a   7.29266576
_cell_length_b   7.29266533
_cell_length_c   7.16546156
_cell_angle_alpha   59.37736180
_cell_angle_beta   59.37736348
_cell_angle_gamma   59.98177511
_symmetry_Int_Tables_number   1
_chemical_formula_structural   Er2TmAg(Pt2O7)2
_chemical_formula_sum   'Er2 Tm1 Ag1 Pt4 O14'
_cell_volume   266.86467450
_cell_formula_units_Z   1
loop_
 _symmetry_equiv_pos_site_id
 _symmetry_equiv_pos_as_xyz
  1  'x, y, z'
loop_
 _atom_site_type_symbol
 _atom_site_label
 _atom_site_symmetry_multiplicity
 _atom_site_fract_x
 _atom_site_fract_y
 _atom_site_fract_z
 _atom_site_occupancy
  Er  Er0  1  0.625000  0.125000  0.625000  1
  Er  Er1  1  0.125000  0.625000  0.625000  1
  Tm  Tm2  1  0.625000  0.625000  0.625000  1
  Ag  Ag3  1  0.625000  0.625000  0.125000  1
  Pt  Pt4  1  0.125000  0.125000  0.125000  1
  Pt  Pt5  1  0.625000  0.125000  0.125000  1
  Pt  Pt6  1  0.125000  0.625000  0.125000  1
  Pt  Pt7  1  0.125000  0.125000  0.625000  1
  O  O8  1  0.029843  0.466562  0.472353  1
  O  O9  1  0.791447  0.791447  0.222424  1
  O  O10  1  0.791676  0.195201  0.221287  1
  O  O11  1  0.466562  0.029843  0.472353  1
  O  O12  1  0.030722  0.030722  0.472289  1
  O  O13  1  0.054799  0.458324  0.028713  1
  O  O14  1  0.745475  0.745475  0.761175  1
  O  O15  1  0.504525  0.504525  0.488825  1
  O  O16  1  0.783438  0.220157  0.777647  1
  O  O17  1  0.195201  0.791676  0.221287  1
  O  O18  1  0.219278  0.219278  0.777711  1
  O  O19  1  0.458324  0.054799  0.028713  1
  O  O20  1  0.458553  0.458553  0.027576  1
  O  O21  1  0.220157  0.783438  0.777647  1
