# generated using pymatgen
data_Er4Be3(BRu2)5
_symmetry_space_group_name_H-M   'P 1'
_cell_length_a   3.11404900
_cell_length_b   8.78890024
_cell_length_c   10.29029000
_cell_angle_alpha   90.36479159
_cell_angle_beta   90.00000000
_cell_angle_gamma   90.00000000
_symmetry_Int_Tables_number   1
_chemical_formula_structural   Er4Be3(BRu2)5
_chemical_formula_sum   'Er4 Be3 B5 Ru10'
_cell_volume   281.62991809
_cell_formula_units_Z   1
loop_
 _symmetry_equiv_pos_site_id
 _symmetry_equiv_pos_as_xyz
  1  'x, y, z'
loop_
 _atom_site_type_symbol
 _atom_site_label
 _atom_site_symmetry_multiplicity
 _atom_site_fract_x
 _atom_site_fract_y
 _atom_site_fract_z
 _atom_site_occupancy
  Er  Er0  1  0.500000  0.842158  0.183231  1
  Er  Er1  1  0.500000  0.159974  0.816035  1
  Er  Er2  1  0.500000  0.659910  0.680933  1
  Er  Er3  1  0.500000  0.343092  0.317516  1
  Be  Be4  1  0.500000  0.963729  0.593821  1
  Be  Be5  1  0.500000  0.037694  0.406892  1
  Be  Be6  1  0.500000  0.845256  0.902477  1
  B  B7  1  0.500000  0.146056  0.098638  1
  B  B8  1  0.500000  0.653377  0.403244  1
  B  B9  1  0.500000  0.347729  0.596030  1
  B  B10  1  0.500000  0.465147  0.911778  1
  B  B11  1  0.500000  0.532147  0.089404  1
  Ru  Ru12  1  0.000000  0.644326  0.960443  1
  Ru  Ru13  1  0.000000  0.340659  0.045424  1
  Ru  Ru14  1  0.000000  0.832461  0.447644  1
  Ru  Ru15  1  0.000000  0.169780  0.548604  1
  Ru  Ru16  1  0.000000  0.008585  0.001645  1
  Ru  Ru17  1  0.000000  0.408634  0.760833  1
  Ru  Ru18  1  0.000000  0.592599  0.239218  1
  Ru  Ru19  1  0.000000  0.500963  0.499817  1
  Ru  Ru20  1  0.000000  0.904286  0.744117  1
  Ru  Ru21  1  0.000000  0.101438  0.252256  1
