# generated using pymatgen
data_Y12Er4Cd4Co3Ni
_symmetry_space_group_name_H-M   'P 1'
_cell_length_a   9.55960355
_cell_length_b   9.54097061
_cell_length_c   9.54097000
_cell_angle_alpha   60.00000210
_cell_angle_beta   60.06445799
_cell_angle_gamma   60.06445637
_symmetry_Int_Tables_number   1
_chemical_formula_structural   Y12Er4Cd4Co3Ni
_chemical_formula_sum   'Y12 Er4 Cd4 Co3 Ni1'
_cell_volume   615.93149635
_cell_formula_units_Z   1
loop_
 _symmetry_equiv_pos_site_id
 _symmetry_equiv_pos_as_xyz
  1  'x, y, z'
loop_
 _atom_site_type_symbol
 _atom_site_label
 _atom_site_symmetry_multiplicity
 _atom_site_fract_x
 _atom_site_fract_y
 _atom_site_fract_z
 _atom_site_occupancy
  Y  Y0  1  0.065081  0.438648  0.438648  1
  Y  Y1  1  0.438266  0.061596  0.061596  1
  Y  Y2  1  0.438266  0.061596  0.438541  1
  Y  Y3  1  0.065081  0.438648  0.057623  1
  Y  Y4  1  0.438266  0.438541  0.061596  1
  Y  Y5  1  0.065081  0.057623  0.438648  1
  Y  Y6  1  0.186559  0.812601  0.812601  1
  Y  Y7  1  0.810869  0.187870  0.187870  1
  Y  Y8  1  0.810869  0.187870  0.813391  1
  Y  Y9  1  0.186559  0.812601  0.188238  1
  Y  Y10  1  0.810869  0.813391  0.187870  1
  Y  Y11  1  0.186559  0.188238  0.812601  1
  Er  Er12  1  0.593594  0.597498  0.597498  1
  Er  Er13  1  0.593594  0.597498  0.211409  1
  Er  Er14  1  0.593594  0.211409  0.597498  1
  Er  Er15  1  0.214843  0.595052  0.595052  1
  Cd  Cd16  1  0.830517  0.829965  0.829965  1
  Cd  Cd17  1  0.830517  0.829965  0.509550  1
  Cd  Cd18  1  0.830517  0.509550  0.829965  1
  Cd  Cd19  1  0.508231  0.830590  0.830590  1
  Co  Co20  1  0.392980  0.392008  0.392008  1
  Co  Co21  1  0.392980  0.392008  0.823004  1
  Co  Co22  1  0.392980  0.823004  0.392008  1
  Ni  Ni23  1  0.823324  0.392226  0.392226  1
