# generated using pymatgen
data_Ba6Lu2TcO12
_symmetry_space_group_name_H-M   'P 1'
_cell_length_a   9.43789370
_cell_length_b   9.43789285
_cell_length_c   7.45634243
_cell_angle_alpha   67.76355359
_cell_angle_beta   67.76355658
_cell_angle_gamma   36.83056523
_symmetry_Int_Tables_number   1
_chemical_formula_structural   Ba6Lu2TcO12
_chemical_formula_sum   'Ba6 Lu2 Tc1 O12'
_cell_volume   365.09471340
_cell_formula_units_Z   1
loop_
 _symmetry_equiv_pos_site_id
 _symmetry_equiv_pos_as_xyz
  1  'x, y, z'
loop_
 _atom_site_type_symbol
 _atom_site_label
 _atom_site_symmetry_multiplicity
 _atom_site_fract_x
 _atom_site_fract_y
 _atom_site_fract_z
 _atom_site_occupancy
  Ba  Ba0  1  0.877041  0.877041  0.712999  1
  Ba  Ba1  1  0.218680  0.218680  0.707630  1
  Ba  Ba2  1  0.548637  0.548637  0.703926  1
  Ba  Ba3  1  0.451363  0.451363  0.296074  1
  Ba  Ba4  1  0.781320  0.781320  0.292370  1
  Ba  Ba5  1  0.122959  0.122959  0.287001  1
  Lu  Lu6  1  0.666088  0.666088  0.998643  1
  Lu  Lu7  1  0.333912  0.333912  0.001357  1
  Tc  Tc8  1  0.000000  0.000000  0.000000  1
  O  O9  1  0.952164  0.952164  0.289887  1
  O  O10  1  0.283400  0.283400  0.325897  1
  O  O11  1  0.606779  0.606779  0.325812  1
  O  O12  1  0.393221  0.393221  0.674188  1
  O  O13  1  0.716600  0.716600  0.674103  1
  O  O14  1  0.047836  0.047836  0.710113  1
  O  O15  1  0.500000  0.000000  0.000000  1
  O  O16  1  0.847832  0.305951  0.000999  1
  O  O17  1  0.152168  0.694049  0.999001  1
  O  O18  1  0.000000  0.500000  0.000000  1
  O  O19  1  0.305951  0.847832  0.000999  1
  O  O20  1  0.694049  0.152168  0.999001  1
