# generated using pymatgen
data_Er5(SiB4)2
_symmetry_space_group_name_H-M   'P 1'
_cell_length_a   7.18271000
_cell_length_b   7.18271000
_cell_length_c   7.99936600
_cell_angle_alpha   90.00000000
_cell_angle_beta   90.00000000
_cell_angle_gamma   90.00000000
_symmetry_Int_Tables_number   1
_chemical_formula_structural   Er5(SiB4)2
_chemical_formula_sum   'Er10 Si4 B16'
_cell_volume   412.69787465
_cell_formula_units_Z   2
loop_
 _symmetry_equiv_pos_site_id
 _symmetry_equiv_pos_as_xyz
  1  'x, y, z'
loop_
 _atom_site_type_symbol
 _atom_site_label
 _atom_site_symmetry_multiplicity
 _atom_site_fract_x
 _atom_site_fract_y
 _atom_site_fract_z
 _atom_site_occupancy
  Er  Er0  1  0.680182  0.180182  0.223844  1
  Er  Er1  1  0.319818  0.819818  0.776156  1
  Er  Er2  1  0.319818  0.819818  0.223844  1
  Er  Er3  1  0.819818  0.680182  0.223844  1
  Er  Er4  1  0.819818  0.680182  0.776156  1
  Er  Er5  1  0.680182  0.180182  0.776156  1
  Er  Er6  1  0.180182  0.319818  0.776156  1
  Er  Er7  1  0.180182  0.319818  0.223844  1
  Er  Er8  1  0.000000  0.000000  0.500000  1
  Er  Er9  1  0.500000  0.500000  0.500000  1
  Si  Si10  1  0.115744  0.615744  0.500000  1
  Si  Si11  1  0.884256  0.384256  0.500000  1
  Si  Si12  1  0.384256  0.115744  0.500000  1
  Si  Si13  1  0.615744  0.884256  0.500000  1
  B  B14  1  0.172925  0.039164  0.000000  1
  B  B15  1  0.827075  0.960836  0.000000  1
  B  B16  1  0.960836  0.172925  0.000000  1
  B  B17  1  0.327075  0.539164  0.000000  1
  B  B18  1  0.039164  0.827075  0.000000  1
  B  B19  1  0.672925  0.460836  0.000000  1
  B  B20  1  0.539164  0.672925  0.000000  1
  B  B21  1  0.460836  0.327075  0.000000  1
  B  B22  1  0.089523  0.589523  0.000000  1
  B  B23  1  0.910477  0.410477  0.000000  1
  B  B24  1  0.410477  0.089523  0.000000  1
  B  B25  1  0.589523  0.910477  0.000000  1
  B  B26  1  0.000000  0.000000  0.164970  1
  B  B27  1  0.000000  0.000000  0.835030  1
  B  B28  1  0.500000  0.500000  0.835030  1
  B  B29  1  0.500000  0.500000  0.164970  1
