# generated using pymatgen
data_Sr6MnFe2RuO14
_symmetry_space_group_name_H-M   'P 1'
_cell_length_a   10.63501752
_cell_length_b   10.63501788
_cell_length_c   5.55951507
_cell_angle_alpha   90.00248082
_cell_angle_beta   90.00248089
_cell_angle_gamma   149.58031810
_symmetry_Int_Tables_number   1
_chemical_formula_structural   Sr6MnFe2RuO14
_chemical_formula_sum   'Sr6 Mn1 Fe2 Ru1 O14'
_cell_volume   318.38090799
_cell_formula_units_Z   1
loop_
 _symmetry_equiv_pos_site_id
 _symmetry_equiv_pos_as_xyz
  1  'x, y, z'
loop_
 _atom_site_type_symbol
 _atom_site_label
 _atom_site_symmetry_multiplicity
 _atom_site_fract_x
 _atom_site_fract_y
 _atom_site_fract_z
 _atom_site_occupancy
  Sr  Sr0  1  0.187194  0.812806  0.000000  1
  Sr  Sr1  1  0.818056  0.181944  0.000000  1
  Sr  Sr2  1  0.319344  0.680656  0.500000  1
  Sr  Sr3  1  0.993673  0.006327  0.000000  1
  Sr  Sr4  1  0.687087  0.312913  0.500000  1
  Sr  Sr5  1  0.494120  0.505880  0.500000  1
  Mn  Mn6  1  0.900042  0.099958  0.500000  1
  Fe  Fe7  1  0.401669  0.598331  0.000000  1
  Fe  Fe8  1  0.596895  0.403105  0.000000  1
  Ru  Ru9  1  0.096108  0.903892  0.500000  1
  O  O10  1  0.153058  0.344755  0.259153  1
  O  O11  1  0.310934  0.117568  0.224725  1
  O  O12  1  0.655245  0.846942  0.740847  1
  O  O13  1  0.372772  0.179235  0.713315  1
  O  O14  1  0.806994  0.193006  0.500000  1
  O  O15  1  0.820765  0.627228  0.286685  1
  O  O16  1  0.194025  0.805975  0.500000  1
  O  O17  1  0.694259  0.305741  0.000000  1
  O  O18  1  0.662955  0.854818  0.251559  1
  O  O19  1  0.305398  0.694602  0.000000  1
  O  O20  1  0.000900  0.999100  0.500000  1
  O  O21  1  0.882432  0.689066  0.775275  1
  O  O22  1  0.500898  0.499102  0.000000  1
  O  O23  1  0.145182  0.337045  0.748441  1
