# generated using pymatgen
data_Sc12Al(Si4Os)3
_symmetry_space_group_name_H-M   'P 1'
_cell_length_a   4.01506700
_cell_length_b   10.36539281
_cell_length_c   11.67575028
_cell_angle_alpha   89.98603561
_cell_angle_beta   90.00000000
_cell_angle_gamma   90.00000000
_symmetry_Int_Tables_number   1
_chemical_formula_structural   Sc12Al(Si4Os)3
_chemical_formula_sum   'Sc12 Al1 Si12 Os3'
_cell_volume   485.91840249
_cell_formula_units_Z   1
loop_
 _symmetry_equiv_pos_site_id
 _symmetry_equiv_pos_as_xyz
  1  'x, y, z'
loop_
 _atom_site_type_symbol
 _atom_site_label
 _atom_site_symmetry_multiplicity
 _atom_site_fract_x
 _atom_site_fract_y
 _atom_site_fract_z
 _atom_site_occupancy
  Sc  Sc0  1  0.250000  0.876859  0.020921  1
  Sc  Sc1  1  0.250000  0.624139  0.515614  1
  Sc  Sc2  1  0.750000  0.125775  0.982393  1
  Sc  Sc3  1  0.750000  0.377851  0.479552  1
  Sc  Sc4  1  0.250000  0.919948  0.605105  1
  Sc  Sc5  1  0.250000  0.578723  0.104956  1
  Sc  Sc6  1  0.750000  0.079343  0.395530  1
  Sc  Sc7  1  0.750000  0.421495  0.899645  1
  Sc  Sc8  1  0.250000  0.651289  0.798343  1
  Sc  Sc9  1  0.250000  0.843978  0.297768  1
  Sc  Sc10  1  0.750000  0.343357  0.202037  1
  Sc  Sc11  1  0.750000  0.168823  0.699218  1
  Al  Al12  1  0.750000  0.884828  0.825150  1
  Si  Si13  1  0.250000  0.028442  0.825983  1
  Si  Si14  1  0.250000  0.484494  0.321552  1
  Si  Si15  1  0.750000  0.985082  0.173256  1
  Si  Si16  1  0.750000  0.512172  0.676688  1
  Si  Si17  1  0.250000  0.257118  0.843192  1
  Si  Si18  1  0.250000  0.249158  0.341619  1
  Si  Si19  1  0.750000  0.749803  0.158660  1
  Si  Si20  1  0.750000  0.744305  0.650503  1
  Si  Si21  1  0.250000  0.195947  0.543961  1
  Si  Si22  1  0.250000  0.304358  0.048201  1
  Si  Si23  1  0.750000  0.806414  0.451542  1
  Si  Si24  1  0.750000  0.678177  0.960488  1
  Os  Os25  1  0.250000  0.390005  0.676049  1
  Os  Os26  1  0.250000  0.109205  0.178907  1
  Os  Os27  1  0.750000  0.608910  0.323169  1
