# generated using pymatgen
data_PrY2(Co3P2)3
_symmetry_space_group_name_H-M   'P 1'
_cell_length_a   3.73267800
_cell_length_b   10.58530600
_cell_length_c   12.26666400
_cell_angle_alpha   90.00000000
_cell_angle_beta   90.00000000
_cell_angle_gamma   90.00000000
_symmetry_Int_Tables_number   1
_chemical_formula_structural   PrY2(Co3P2)3
_chemical_formula_sum   'Pr2 Y4 Co18 P12'
_cell_volume   484.67477094
_cell_formula_units_Z   2
loop_
 _symmetry_equiv_pos_site_id
 _symmetry_equiv_pos_as_xyz
  1  'x, y, z'
loop_
 _atom_site_type_symbol
 _atom_site_label
 _atom_site_symmetry_multiplicity
 _atom_site_fract_x
 _atom_site_fract_y
 _atom_site_fract_z
 _atom_site_occupancy
  Pr  Pr0  1  0.000000  0.500000  0.522171  1
  Pr  Pr1  1  0.500000  0.000000  0.477829  1
  Y  Y2  1  0.500000  0.817206  0.204424  1
  Y  Y3  1  0.500000  0.182794  0.204424  1
  Y  Y4  1  0.000000  0.682794  0.795576  1
  Y  Y5  1  0.000000  0.317206  0.795576  1
  Co  Co6  1  0.500000  0.500000  0.155855  1
  Co  Co7  1  0.000000  0.000000  0.844145  1
  Co  Co8  1  0.500000  0.500000  0.706985  1
  Co  Co9  1  0.000000  0.000000  0.293015  1
  Co  Co10  1  0.000000  0.500000  0.986877  1
  Co  Co11  1  0.500000  0.000000  0.013123  1
  Co  Co12  1  0.500000  0.333349  0.995091  1
  Co  Co13  1  0.500000  0.666651  0.995091  1
  Co  Co14  1  0.000000  0.166651  0.004909  1
  Co  Co15  1  0.000000  0.833349  0.004909  1
  Co  Co16  1  0.500000  0.296802  0.428585  1
  Co  Co17  1  0.500000  0.703198  0.428585  1
  Co  Co18  1  0.000000  0.203198  0.571415  1
  Co  Co19  1  0.000000  0.796802  0.571415  1
  Co  Co20  1  0.500000  0.880037  0.713500  1
  Co  Co21  1  0.500000  0.119963  0.713500  1
  Co  Co22  1  0.000000  0.619963  0.286500  1
  Co  Co23  1  0.000000  0.380037  0.286500  1
  P  P24  1  0.500000  0.500000  0.884336  1
  P  P25  1  0.000000  0.000000  0.115664  1
  P  P26  1  0.500000  0.500000  0.338256  1
  P  P27  1  0.000000  0.000000  0.661744  1
  P  P28  1  0.500000  0.306441  0.617674  1
  P  P29  1  0.500000  0.693559  0.617674  1
  P  P30  1  0.000000  0.193559  0.382326  1
  P  P31  1  0.000000  0.806441  0.382326  1
  P  P32  1  0.500000  0.846841  0.894774  1
  P  P33  1  0.500000  0.153159  0.894774  1
  P  P34  1  0.000000  0.653159  0.105226  1
  P  P35  1  0.000000  0.346841  0.105226  1
