# generated using pymatgen
data_Tb16Zn3In(IrRh)2
_symmetry_space_group_name_H-M   'P 1'
_cell_length_a   9.59663504
_cell_length_b   9.59663421
_cell_length_c   9.55372334
_cell_angle_alpha   59.86235640
_cell_angle_beta   59.86235366
_cell_angle_gamma   60.03305151
_symmetry_Int_Tables_number   1
_chemical_formula_structural   Tb16Zn3In(IrRh)2
_chemical_formula_sum   'Tb16 Zn3 In1 Ir2 Rh2'
_cell_volume   621.00743748
_cell_formula_units_Z   1
loop_
 _symmetry_equiv_pos_site_id
 _symmetry_equiv_pos_as_xyz
  1  'x, y, z'
loop_
 _atom_site_type_symbol
 _atom_site_label
 _atom_site_symmetry_multiplicity
 _atom_site_fract_x
 _atom_site_fract_y
 _atom_site_fract_z
 _atom_site_occupancy
  Tb  Tb0  1  0.102813  0.693570  0.103592  1
  Tb  Tb1  1  0.941859  0.941859  0.557915  1
  Tb  Tb2  1  0.943144  0.556723  0.941521  1
  Tb  Tb3  1  0.315099  0.688843  0.310552  1
  Tb  Tb4  1  0.939989  0.557846  0.559072  1
  Tb  Tb5  1  0.313194  0.313194  0.683349  1
  Tb  Tb6  1  0.100396  0.100396  0.101994  1
  Tb  Tb7  1  0.557611  0.557611  0.940423  1
  Tb  Tb8  1  0.103923  0.103923  0.691525  1
  Tb  Tb9  1  0.692906  0.312814  0.682078  1
  Tb  Tb10  1  0.687426  0.687426  0.311192  1
  Tb  Tb11  1  0.688843  0.315099  0.310552  1
  Tb  Tb12  1  0.312814  0.692906  0.682078  1
  Tb  Tb13  1  0.557846  0.939989  0.559072  1
  Tb  Tb14  1  0.693570  0.102813  0.103592  1
  Tb  Tb15  1  0.556723  0.943144  0.941521  1
  Zn  Zn16  1  0.328507  0.328507  0.333158  1
  Zn  Zn17  1  0.006910  0.329153  0.333471  1
  Zn  Zn18  1  0.329153  0.006910  0.333471  1
  In  In19  1  0.326819  0.326819  0.016639  1
  Ir  Ir20  1  0.322658  0.892579  0.893517  1
  Ir  Ir21  1  0.892579  0.322658  0.893517  1
  Rh  Rh22  1  0.892676  0.892676  0.892590  1
  Rh  Rh23  1  0.892542  0.892542  0.323608  1
