# generated using pymatgen
data_Dy5MgMo2(P3Ir4)4
_symmetry_space_group_name_H-M   'P 1'
_cell_length_a   12.73032081
_cell_length_b   12.68765205
_cell_length_c   3.99147600
_cell_angle_alpha   90.00000000
_cell_angle_beta   90.00000000
_cell_angle_gamma   119.88918725
_symmetry_Int_Tables_number   1
_chemical_formula_structural   Dy5MgMo2(P3Ir4)4
_chemical_formula_sum   'Dy5 Mg1 Mo2 P12 Ir16'
_cell_volume   558.94441735
_cell_formula_units_Z   1
loop_
 _symmetry_equiv_pos_site_id
 _symmetry_equiv_pos_as_xyz
  1  'x, y, z'
loop_
 _atom_site_type_symbol
 _atom_site_label
 _atom_site_symmetry_multiplicity
 _atom_site_fract_x
 _atom_site_fract_y
 _atom_site_fract_z
 _atom_site_occupancy
  Dy  Dy0  1  0.335147  0.666690  0.500000  1
  Dy  Dy1  1  0.664853  0.331542  0.500000  1
  Dy  Dy2  1  0.000000  0.814144  0.000000  1
  Dy  Dy3  1  0.189353  0.186072  0.000000  1
  Dy  Dy4  1  0.810647  0.996720  0.000000  1
  Mg  Mg5  1  0.000000  0.446872  0.500000  1
  Mo  Mo6  1  0.547528  0.546804  0.500000  1
  Mo  Mo7  1  0.452472  0.999277  0.500000  1
  P  P8  1  0.000000  0.644208  0.500000  1
  P  P9  1  0.362741  0.362594  0.500000  1
  P  P10  1  0.637259  0.999853  0.500000  1
  P  P11  1  0.515985  0.683827  0.000000  1
  P  P12  1  0.315372  0.832699  0.000000  1
  P  P13  1  0.172298  0.485092  0.000000  1
  P  P14  1  0.484015  0.167842  0.000000  1
  P  P15  1  0.684628  0.517327  0.000000  1
  P  P16  1  0.827702  0.312794  0.000000  1
  P  P17  1  0.000000  0.178100  0.500000  1
  P  P18  1  0.822697  0.823897  0.500000  1
  P  P19  1  0.177303  0.001200  0.500000  1
  Ir  Ir20  1  0.507909  0.865609  0.000000  1
  Ir  Ir21  1  0.134489  0.644499  0.000000  1
  Ir  Ir22  1  0.359321  0.489596  0.000000  1
  Ir  Ir23  1  0.492091  0.357699  0.000000  1
  Ir  Ir24  1  0.865511  0.510009  0.000000  1
  Ir  Ir25  1  0.640679  0.130275  0.000000  1
  Ir  Ir26  1  0.000000  0.281772  0.000000  1
  Ir  Ir27  1  0.712551  0.714324  0.000000  1
  Ir  Ir28  1  0.287449  0.001773  0.000000  1
  Ir  Ir29  1  0.626259  0.805579  0.500000  1
  Ir  Ir30  1  0.195211  0.823985  0.500000  1
  Ir  Ir31  1  0.180099  0.373898  0.500000  1
  Ir  Ir32  1  0.373741  0.179320  0.500000  1
  Ir  Ir33  1  0.804789  0.628774  0.500000  1
  Ir  Ir34  1  0.819901  0.193799  0.500000  1
  Ir  Ir35  1  0.000000  0.001531  0.500000  1
