# generated using pymatgen
data_Nd6TiMn2VC12
_symmetry_space_group_name_H-M   'P 1'
_cell_length_a   8.34075200
_cell_length_b   8.34075053
_cell_length_c   5.19004600
_cell_angle_alpha   90.00000000
_cell_angle_beta   90.00000000
_cell_angle_gamma   120.00000476
_symmetry_Int_Tables_number   1
_chemical_formula_structural   Nd6TiMn2VC12
_chemical_formula_sum   'Nd6 Ti1 Mn2 V1 C12'
_cell_volume   312.68867918
_cell_formula_units_Z   1
loop_
 _symmetry_equiv_pos_site_id
 _symmetry_equiv_pos_as_xyz
  1  'x, y, z'
loop_
 _atom_site_type_symbol
 _atom_site_label
 _atom_site_symmetry_multiplicity
 _atom_site_fract_x
 _atom_site_fract_y
 _atom_site_fract_z
 _atom_site_occupancy
  Nd  Nd0  1  0.612963  0.680849  0.750577  1
  Nd  Nd1  1  0.932116  0.612963  0.249423  1
  Nd  Nd2  1  0.680849  0.067884  0.249423  1
  Nd  Nd3  1  0.319151  0.932116  0.750577  1
  Nd  Nd4  1  0.067884  0.387037  0.750577  1
  Nd  Nd5  1  0.387037  0.319151  0.249423  1
  Ti  Ti6  1  0.000000  0.000000  0.000000  1
  Mn  Mn7  1  0.666667  0.333333  0.749390  1
  Mn  Mn8  1  0.333333  0.666667  0.250610  1
  V  V9  1  0.000000  0.000000  0.500000  1
  C  C10  1  0.955035  0.762647  0.745218  1
  C  C11  1  0.192389  0.955035  0.254782  1
  C  C12  1  0.762647  0.807611  0.254782  1
  C  C13  1  0.237353  0.192389  0.745218  1
  C  C14  1  0.807611  0.044965  0.745218  1
  C  C15  1  0.044965  0.237353  0.254782  1
  C  C16  1  0.856808  0.572508  0.746779  1
  C  C17  1  0.284299  0.856808  0.253221  1
  C  C18  1  0.572508  0.715701  0.253221  1
  C  C19  1  0.427492  0.284299  0.746779  1
  C  C20  1  0.143192  0.427492  0.253221  1
  C  C21  1  0.715701  0.143192  0.746779  1
