# generated using pymatgen
data_Nd2B2Ir5
_symmetry_space_group_name_H-M   'P 1'
_cell_length_a   11.13105712
_cell_length_b   11.13105700
_cell_length_c   11.13105760
_cell_angle_alpha   28.83451833
_cell_angle_beta   28.83451887
_cell_angle_gamma   28.83452067
_symmetry_Int_Tables_number   1
_chemical_formula_structural   Nd2B2Ir5
_chemical_formula_sum   'Nd4 B4 Ir10'
_cell_volume   283.66170348
_cell_formula_units_Z   2
loop_
 _symmetry_equiv_pos_site_id
 _symmetry_equiv_pos_as_xyz
  1  'x, y, z'
loop_
 _atom_site_type_symbol
 _atom_site_label
 _atom_site_symmetry_multiplicity
 _atom_site_fract_x
 _atom_site_fract_y
 _atom_site_fract_z
 _atom_site_occupancy
  Nd  Nd0  1  0.151818  0.151818  0.151818  1
  Nd  Nd1  1  0.950162  0.950162  0.950162  1
  Nd  Nd2  1  0.848182  0.848182  0.848182  1
  Nd  Nd3  1  0.049838  0.049838  0.049838  1
  B  B4  1  0.618074  0.618074  0.618074  1
  B  B5  1  0.716341  0.716341  0.716341  1
  B  B6  1  0.381926  0.381926  0.381926  1
  B  B7  1  0.283659  0.283659  0.283659  1
  Ir  Ir8  1  0.408150  0.898243  0.408150  1
  Ir  Ir9  1  0.898243  0.408150  0.408150  1
  Ir  Ir10  1  0.500000  0.500000  0.000000  1
  Ir  Ir11  1  0.500000  0.000000  0.500000  1
  Ir  Ir12  1  0.000000  0.500000  0.500000  1
  Ir  Ir13  1  0.500000  0.500000  0.500000  1
  Ir  Ir14  1  0.591850  0.101757  0.591850  1
  Ir  Ir15  1  0.591850  0.591850  0.101757  1
  Ir  Ir16  1  0.101757  0.591850  0.591850  1
  Ir  Ir17  1  0.408150  0.408150  0.898243  1
