# generated using pymatgen
data_Tm4Ga3Co4Si
_symmetry_space_group_name_H-M   'P 1'
_cell_length_a   4.30456300
_cell_length_b   6.86770992
_cell_length_c   6.88045317
_cell_angle_alpha   89.88532488
_cell_angle_beta   90.00000000
_cell_angle_gamma   90.00000000
_symmetry_Int_Tables_number   1
_chemical_formula_structural   Tm4Ga3Co4Si
_chemical_formula_sum   'Tm4 Ga3 Co4 Si1'
_cell_volume   203.40292052
_cell_formula_units_Z   1
loop_
 _symmetry_equiv_pos_site_id
 _symmetry_equiv_pos_as_xyz
  1  'x, y, z'
loop_
 _atom_site_type_symbol
 _atom_site_label
 _atom_site_symmetry_multiplicity
 _atom_site_fract_x
 _atom_site_fract_y
 _atom_site_fract_z
 _atom_site_occupancy
  Tm  Tm0  1  0.750000  0.515184  0.806429  1
  Tm  Tm1  1  0.750000  0.021411  0.694749  1
  Tm  Tm2  1  0.250000  0.482550  0.196321  1
  Tm  Tm3  1  0.250000  0.985990  0.304601  1
  Ga  Ga4  1  0.750000  0.199615  0.104807  1
  Ga  Ga5  1  0.750000  0.698647  0.395983  1
  Ga  Ga6  1  0.250000  0.804010  0.893913  1
  Co  Co7  1  0.750000  0.340927  0.445736  1
  Co  Co8  1  0.750000  0.843264  0.064145  1
  Co  Co9  1  0.250000  0.640221  0.563811  1
  Co  Co10  1  0.250000  0.165254  0.924084  1
  Si  Si11  1  0.250000  0.302929  0.605423  1
