# generated using pymatgen
data_Pr11In9CuIr3
_symmetry_space_group_name_H-M   'P 1'
_cell_length_a   13.48529723
_cell_length_b   13.48178886
_cell_length_c   3.88685400
_cell_angle_alpha   90.00000000
_cell_angle_beta   90.00000000
_cell_angle_gamma   111.60279721
_symmetry_Int_Tables_number   1
_chemical_formula_structural   Pr11In9CuIr3
_chemical_formula_sum   'Pr11 In9 Cu1 Ir3'
_cell_volume   657.01674115
_cell_formula_units_Z   1
loop_
 _symmetry_equiv_pos_site_id
 _symmetry_equiv_pos_as_xyz
  1  'x, y, z'
loop_
 _atom_site_type_symbol
 _atom_site_label
 _atom_site_symmetry_multiplicity
 _atom_site_fract_x
 _atom_site_fract_y
 _atom_site_fract_z
 _atom_site_occupancy
  Pr  Pr0  1  0.500379  0.501173  0.500000  1
  Pr  Pr1  1  0.816718  0.807625  0.500000  1
  Pr  Pr2  1  0.187754  0.186762  0.500000  1
  Pr  Pr3  1  0.572754  0.917055  0.500000  1
  Pr  Pr4  1  0.420894  0.079200  0.500000  1
  Pr  Pr5  1  0.919024  0.578543  0.500000  1
  Pr  Pr6  1  0.080957  0.421261  0.500000  1
  Pr  Pr7  1  0.127650  0.875143  0.500000  1
  Pr  Pr8  1  0.878138  0.133957  0.500000  1
  Pr  Pr9  1  0.341314  0.660251  0.500000  1
  Pr  Pr10  1  0.660065  0.340675  0.500000  1
  In  In11  1  0.338047  0.865042  0.000000  1
  In  In12  1  0.659931  0.133284  0.000000  1
  In  In13  1  0.864341  0.337425  0.000000  1
  In  In14  1  0.135562  0.662015  0.000000  1
  In  In15  1  0.576803  0.720198  0.000000  1
  In  In16  1  0.421394  0.280357  0.000000  1
  In  In17  1  0.719921  0.578728  0.000000  1
  In  In18  1  0.280111  0.421200  0.000000  1
  In  In19  1  0.998832  0.000536  0.000000  1
  Cu  Cu20  1  0.749621  0.952390  0.000000  1
  Ir  Ir21  1  0.254398  0.048043  0.000000  1
  Ir  Ir22  1  0.950109  0.746865  0.000000  1
  Ir  Ir23  1  0.045282  0.252273  0.000000  1
