# generated using pymatgen
data_Hg(Se2Br3)2
_symmetry_space_group_name_H-M   'P 1'
_cell_length_a   6.26580735
_cell_length_b   9.44016783
_cell_length_c   7.28863404
_cell_angle_alpha   95.93924867
_cell_angle_beta   95.01010324
_cell_angle_gamma   108.32071257
_symmetry_Int_Tables_number   1
_chemical_formula_structural   Hg(Se2Br3)2
_chemical_formula_sum   'Hg1 Se4 Br6'
_cell_volume   403.78193077
_cell_formula_units_Z   1
loop_
 _symmetry_equiv_pos_site_id
 _symmetry_equiv_pos_as_xyz
  1  'x, y, z'
loop_
 _atom_site_type_symbol
 _atom_site_label
 _atom_site_symmetry_multiplicity
 _atom_site_fract_x
 _atom_site_fract_y
 _atom_site_fract_z
 _atom_site_occupancy
  Hg  Hg0  1  0.000000  0.000000  0.000000  1
  Se  Se1  1  0.605707  0.370339  0.371897  1
  Se  Se2  1  0.751230  0.636057  0.439879  1
  Se  Se3  1  0.248770  0.363943  0.560121  1
  Se  Se4  1  0.394293  0.629662  0.628104  1
  Br  Br5  1  0.598861  0.716545  0.163846  1
  Br  Br6  1  0.945328  0.352239  0.206657  1
  Br  Br7  1  0.256589  0.014839  0.284296  1
  Br  Br8  1  0.743411  0.985162  0.715705  1
  Br  Br9  1  0.054672  0.647761  0.793343  1
  Br  Br10  1  0.401139  0.283455  0.836153  1
