# generated using pymatgen
data_Ca8InAg3Pb4
_symmetry_space_group_name_H-M   'P 1'
_cell_length_a   7.59548002
_cell_length_b   5.45857401
_cell_length_c   10.92416600
_cell_angle_alpha   90.00094445
_cell_angle_beta   90.00216673
_cell_angle_gamma   89.99202382
_symmetry_Int_Tables_number   1
_chemical_formula_structural   Ca8InAg3Pb4
_chemical_formula_sum   'Ca8 In1 Ag3 Pb4'
_cell_volume   452.92126894
_cell_formula_units_Z   1
loop_
 _symmetry_equiv_pos_site_id
 _symmetry_equiv_pos_as_xyz
  1  'x, y, z'
loop_
 _atom_site_type_symbol
 _atom_site_label
 _atom_site_symmetry_multiplicity
 _atom_site_fract_x
 _atom_site_fract_y
 _atom_site_fract_z
 _atom_site_occupancy
  Ca  Ca0  1  0.008139  0.750044  0.125021  1
  Ca  Ca1  1  0.492095  0.749955  0.125164  1
  Ca  Ca2  1  0.004458  0.250002  0.381070  1
  Ca  Ca3  1  0.495752  0.249998  0.381125  1
  Ca  Ca4  1  0.499598  0.749978  0.625006  1
  Ca  Ca5  1  0.000100  0.750019  0.625111  1
  Ca  Ca6  1  0.495482  0.249997  0.868784  1
  Ca  Ca7  1  0.004283  0.250004  0.868790  1
  In  In8  1  0.750400  0.250001  0.124650  1
  Ag  Ag9  1  0.249984  0.749998  0.378500  1
  Ag  Ag10  1  0.749853  0.249998  0.624947  1
  Ag  Ag11  1  0.249913  0.750000  0.871771  1
  Pb  Pb12  1  0.250020  0.250002  0.124913  1
  Pb  Pb13  1  0.750106  0.749985  0.372385  1
  Pb  Pb14  1  0.249946  0.250000  0.624968  1
  Pb  Pb15  1  0.749871  0.750012  0.877797  1
