# generated using pymatgen
data_Nd10Cd3Hg5Pt4
_symmetry_space_group_name_H-M   'P 1'
_cell_length_a   3.80522900
_cell_length_b   8.20545722
_cell_length_c   18.74981901
_cell_angle_alpha   90.08400741
_cell_angle_beta   90.00000000
_cell_angle_gamma   90.00000000
_symmetry_Int_Tables_number   1
_chemical_formula_structural   Nd10Cd3Hg5Pt4
_chemical_formula_sum   'Nd10 Cd3 Hg5 Pt4'
_cell_volume   585.43704010
_cell_formula_units_Z   1
loop_
 _symmetry_equiv_pos_site_id
 _symmetry_equiv_pos_as_xyz
  1  'x, y, z'
loop_
 _atom_site_type_symbol
 _atom_site_label
 _atom_site_symmetry_multiplicity
 _atom_site_fract_x
 _atom_site_fract_y
 _atom_site_fract_z
 _atom_site_occupancy
  Nd  Nd0  1  0.000000  0.110481  0.414193  1
  Nd  Nd1  1  0.000000  0.890380  0.586395  1
  Nd  Nd2  1  0.000000  0.390486  0.913884  1
  Nd  Nd3  1  0.000000  0.612232  0.088030  1
  Nd  Nd4  1  0.000000  0.233942  0.215044  1
  Nd  Nd5  1  0.000000  0.761172  0.784038  1
  Nd  Nd6  1  0.000000  0.260728  0.716143  1
  Nd  Nd7  1  0.000000  0.740181  0.283161  1
  Nd  Nd8  1  0.000000  0.999713  0.001356  1
  Nd  Nd9  1  0.000000  0.500496  0.500039  1
  Cd  Cd10  1  0.500000  0.421321  0.350746  1
  Cd  Cd11  1  0.500000  0.578485  0.649050  1
  Cd  Cd12  1  0.500000  0.078297  0.851663  1
  Hg  Hg13  1  0.500000  0.921744  0.146439  1
  Hg  Hg14  1  0.500000  0.287629  0.063619  1
  Hg  Hg15  1  0.500000  0.717693  0.934646  1
  Hg  Hg16  1  0.500000  0.218122  0.564912  1
  Hg  Hg17  1  0.500000  0.781946  0.434925  1
  Pt  Pt18  1  0.500000  0.027275  0.302853  1
  Pt  Pt19  1  0.500000  0.972944  0.698290  1
  Pt  Pt20  1  0.500000  0.473328  0.801890  1
  Pt  Pt21  1  0.500000  0.521407  0.198684  1
