# generated using pymatgen
data_SmDyTmTaO7
_symmetry_space_group_name_H-M   'P 1'
_cell_length_a   6.45279865
_cell_length_b   6.45279759
_cell_length_c   7.54956100
_cell_angle_alpha   90.00000000
_cell_angle_beta   90.00000000
_cell_angle_gamma   109.34127154
_symmetry_Int_Tables_number   1
_chemical_formula_structural   SmDyTmTaO7
_chemical_formula_sum   'Sm2 Dy2 Tm2 Ta2 O14'
_cell_volume   296.61191071
_cell_formula_units_Z   2
loop_
 _symmetry_equiv_pos_site_id
 _symmetry_equiv_pos_as_xyz
  1  'x, y, z'
loop_
 _atom_site_type_symbol
 _atom_site_label
 _atom_site_symmetry_multiplicity
 _atom_site_fract_x
 _atom_site_fract_y
 _atom_site_fract_z
 _atom_site_occupancy
  Sm  Sm0  1  0.501661  0.501661  0.500000  1
  Sm  Sm1  1  0.501661  0.501661  0.000000  1
  Dy  Dy2  1  0.465979  0.999335  0.250000  1
  Dy  Dy3  1  0.999335  0.465979  0.750000  1
  Tm  Tm4  1  0.532962  0.001362  0.750000  1
  Tm  Tm5  1  0.001362  0.532962  0.250000  1
  Ta  Ta6  1  0.000093  0.000093  0.500000  1
  Ta  Ta7  1  0.000093  0.000093  0.000000  1
  O  O8  1  0.677084  0.929069  0.469807  1
  O  O9  1  0.929069  0.677084  0.530193  1
  O  O10  1  0.677084  0.929069  0.030193  1
  O  O11  1  0.929069  0.677084  0.969807  1
  O  O12  1  0.321218  0.069664  0.535115  1
  O  O13  1  0.069664  0.321218  0.464885  1
  O  O14  1  0.321218  0.069664  0.964885  1
  O  O15  1  0.069664  0.321218  0.035115  1
  O  O16  1  0.933651  0.065958  0.750000  1
  O  O17  1  0.065958  0.933651  0.250000  1
  O  O18  1  0.368556  0.638372  0.750000  1
  O  O19  1  0.638372  0.368556  0.250000  1
  O  O20  1  0.639817  0.356429  0.750000  1
  O  O21  1  0.356429  0.639817  0.250000  1
