# generated using pymatgen
data_Ba4Lu2IrWO12
_symmetry_space_group_name_H-M   'P 1'
_cell_length_a   5.91663015
_cell_length_b   5.91650134
_cell_length_c   8.43251365
_cell_angle_alpha   90.00809999
_cell_angle_beta   90.00814623
_cell_angle_gamma   90.03824949
_symmetry_Int_Tables_number   1
_chemical_formula_structural   Ba4Lu2IrWO12
_chemical_formula_sum   'Ba4 Lu2 Ir1 W1 O12'
_cell_volume   295.18639502
_cell_formula_units_Z   1
loop_
 _symmetry_equiv_pos_site_id
 _symmetry_equiv_pos_as_xyz
  1  'x, y, z'
loop_
 _atom_site_type_symbol
 _atom_site_label
 _atom_site_symmetry_multiplicity
 _atom_site_fract_x
 _atom_site_fract_y
 _atom_site_fract_z
 _atom_site_occupancy
  Ba  Ba0  1  0.500053  0.499985  0.262377  1
  Ba  Ba1  1  0.000007  0.999945  0.262389  1
  Ba  Ba2  1  0.999991  0.000045  0.737613  1
  Ba  Ba3  1  0.499947  0.500020  0.737623  1
  Lu  Lu4  1  0.999995  0.500002  0.000003  1
  Lu  Lu5  1  0.499977  0.999975  0.500002  1
  Ir  Ir6  1  0.000017  0.500010  0.499996  1
  W  W7  1  0.500012  0.000012  0.999998  1
  O  O8  1  0.730049  0.237440  0.999859  1
  O  O9  1  0.262658  0.229971  0.000167  1
  O  O10  1  0.500284  0.999986  0.233564  1
  O  O11  1  0.999706  0.500049  0.254016  1
  O  O12  1  0.244815  0.739030  0.499843  1
  O  O13  1  0.760537  0.745245  0.500095  1
  O  O14  1  0.239465  0.254762  0.499903  1
  O  O15  1  0.755181  0.260966  0.500160  1
  O  O16  1  0.000292  0.499944  0.745985  1
  O  O17  1  0.499719  0.000017  0.766434  1
  O  O18  1  0.737347  0.770036  0.999831  1
  O  O19  1  0.269948  0.762561  0.000142  1
