# generated using pymatgen
data_La2MnAlPt8
_symmetry_space_group_name_H-M   'P 1'
_cell_length_a   5.30295273
_cell_length_b   5.30295220
_cell_length_c   8.89554000
_cell_angle_alpha   90.00000000
_cell_angle_beta   90.00000000
_cell_angle_gamma   115.88209291
_symmetry_Int_Tables_number   1
_chemical_formula_structural   La2MnAlPt8
_chemical_formula_sum   'La2 Mn1 Al1 Pt8'
_cell_volume   225.06228873
_cell_formula_units_Z   1
loop_
 _symmetry_equiv_pos_site_id
 _symmetry_equiv_pos_as_xyz
  1  'x, y, z'
loop_
 _atom_site_type_symbol
 _atom_site_label
 _atom_site_symmetry_multiplicity
 _atom_site_fract_x
 _atom_site_fract_y
 _atom_site_fract_z
 _atom_site_occupancy
  La  La0  1  0.000000  0.000000  0.755868  1
  La  La1  1  0.000000  0.000000  0.244132  1
  Mn  Mn2  1  0.500000  0.500000  0.000000  1
  Al  Al3  1  0.500000  0.500000  0.500000  1
  Pt  Pt4  1  0.660724  0.339276  0.749127  1
  Pt  Pt5  1  0.660724  0.339276  0.250873  1
  Pt  Pt6  1  0.339276  0.660724  0.749127  1
  Pt  Pt7  1  0.500000  0.000000  0.500000  1
  Pt  Pt8  1  0.000000  0.500000  0.000000  1
  Pt  Pt9  1  0.500000  0.000000  0.000000  1
  Pt  Pt10  1  0.339276  0.660724  0.250873  1
  Pt  Pt11  1  0.000000  0.500000  0.500000  1
