# generated using pymatgen
data_K4Ag3AuO4
_symmetry_space_group_name_H-M   'P 1'
_cell_length_a   7.55381141
_cell_length_b   7.55381101
_cell_length_c   7.65206793
_cell_angle_alpha   97.75348392
_cell_angle_beta   97.75347645
_cell_angle_gamma   136.60780663
_symmetry_Int_Tables_number   1
_chemical_formula_structural   K4Ag3AuO4
_chemical_formula_sum   'K4 Ag3 Au1 O4'
_cell_volume   279.27063898
_cell_formula_units_Z   1
loop_
 _symmetry_equiv_pos_site_id
 _symmetry_equiv_pos_as_xyz
  1  'x, y, z'
loop_
 _atom_site_type_symbol
 _atom_site_label
 _atom_site_symmetry_multiplicity
 _atom_site_fract_x
 _atom_site_fract_y
 _atom_site_fract_z
 _atom_site_occupancy
  K  K0  1  0.498668  0.180724  0.679392  1
  K  K1  1  0.502572  0.819518  0.322090  1
  K  K2  1  0.819518  0.502572  0.322090  1
  K  K3  1  0.180724  0.498668  0.679392  1
  Ag  Ag4  1  0.148288  0.849970  0.998258  1
  Ag  Ag5  1  0.851813  0.851813  0.703625  1
  Ag  Ag6  1  0.849970  0.148288  0.998258  1
  Au  Au7  1  0.149203  0.149203  0.298407  1
  O  O8  1  0.293100  0.000539  0.293639  1
  O  O9  1  0.001357  0.704248  0.705605  1
  O  O10  1  0.000539  0.293100  0.293639  1
  O  O11  1  0.704248  0.001357  0.705605  1
