# generated using pymatgen
data_Mo6AsRh3N2
_symmetry_space_group_name_H-M   'P 1'
_cell_length_a   6.86023400
_cell_length_b   6.84224270
_cell_length_c   6.85344352
_cell_angle_alpha   89.42842164
_cell_angle_beta   90.00000000
_cell_angle_gamma   90.00000000
_symmetry_Int_Tables_number   1
_chemical_formula_structural   Mo6AsRh3N2
_chemical_formula_sum   'Mo12 As2 Rh6 N4'
_cell_volume   321.68042347
_cell_formula_units_Z   2
loop_
 _symmetry_equiv_pos_site_id
 _symmetry_equiv_pos_as_xyz
  1  'x, y, z'
loop_
 _atom_site_type_symbol
 _atom_site_label
 _atom_site_symmetry_multiplicity
 _atom_site_fract_x
 _atom_site_fract_y
 _atom_site_fract_z
 _atom_site_occupancy
  Mo  Mo0  1  0.620289  0.043979  0.543196  1
  Mo  Mo1  1  0.120289  0.956021  0.456804  1
  Mo  Mo2  1  0.865282  0.534347  0.943400  1
  Mo  Mo3  1  0.365282  0.465653  0.056600  1
  Mo  Mo4  1  0.201253  0.621566  0.695873  1
  Mo  Mo5  1  0.299682  0.128188  0.780390  1
  Mo  Mo6  1  0.799682  0.871812  0.219610  1
  Mo  Mo7  1  0.701253  0.378434  0.304127  1
  Mo  Mo8  1  0.048467  0.210124  0.132053  1
  Mo  Mo9  1  0.965024  0.304994  0.618665  1
  Mo  Mo10  1  0.548467  0.789876  0.867947  1
  Mo  Mo11  1  0.465024  0.695006  0.381335  1
  As  As12  1  0.686127  0.177269  0.935718  1
  As  As13  1  0.186127  0.822731  0.064282  1
  Rh  Rh14  1  0.811809  0.684809  0.568485  1
  Rh  Rh15  1  0.311809  0.315191  0.431515  1
  Rh  Rh16  1  0.062087  0.573458  0.296743  1
  Rh  Rh17  1  0.436189  0.061569  0.168666  1
  Rh  Rh18  1  0.562087  0.426542  0.703257  1
  Rh  Rh19  1  0.936189  0.938431  0.831334  1
  N  N20  1  0.375481  0.871558  0.620229  1
  N  N21  1  0.875481  0.128442  0.379771  1
  N  N22  1  0.128312  0.375835  0.874711  1
  N  N23  1  0.628312  0.624165  0.125289  1
