# generated using pymatgen
data_ScTa(Tc2W)2
_symmetry_space_group_name_H-M   'P 1'
_cell_length_a   4.47379600
_cell_length_b   6.31305100
_cell_length_c   13.51039100
_cell_angle_alpha   90.00000000
_cell_angle_beta   90.00000000
_cell_angle_gamma   90.00000000
_symmetry_Int_Tables_number   1
_chemical_formula_structural   ScTa(Tc2W)2
_chemical_formula_sum   'Sc3 Ta3 Tc12 W6'
_cell_volume   381.57805736
_cell_formula_units_Z   3
loop_
 _symmetry_equiv_pos_site_id
 _symmetry_equiv_pos_as_xyz
  1  'x, y, z'
loop_
 _atom_site_type_symbol
 _atom_site_label
 _atom_site_symmetry_multiplicity
 _atom_site_fract_x
 _atom_site_fract_y
 _atom_site_fract_z
 _atom_site_occupancy
  Sc  Sc0  1  0.500000  0.000000  0.501162  1
  Sc  Sc1  1  0.000000  0.500000  0.666674  1
  Sc  Sc2  1  0.499996  0.000000  0.832161  1
  Ta  Ta3  1  0.000000  0.500000  0.998482  1
  Ta  Ta4  1  0.500005  0.000000  0.166673  1
  Ta  Ta5  1  0.000000  0.500000  0.334853  1
  Tc  Tc6  1  0.500000  0.250664  0.002801  1
  Tc  Tc7  1  0.500000  0.749337  0.002801  1
  Tc  Tc8  1  0.000000  0.251174  0.166652  1
  Tc  Tc9  1  0.000000  0.748826  0.166652  1
  Tc  Tc10  1  0.500005  0.250668  0.330532  1
  Tc  Tc11  1  0.500005  0.749331  0.330532  1
  Tc  Tc12  1  0.000000  0.250477  0.497141  1
  Tc  Tc13  1  0.000000  0.749523  0.497141  1
  Tc  Tc14  1  0.499996  0.251473  0.666668  1
  Tc  Tc15  1  0.499996  0.748526  0.666668  1
  Tc  Tc16  1  0.000000  0.250470  0.836199  1
  Tc  Tc17  1  0.000000  0.749530  0.836199  1
  W  W18  1  0.000000  0.000000  0.997209  1
  W  W19  1  0.500005  0.500000  0.166664  1
  W  W20  1  0.000000  0.000000  0.336118  1
  W  W21  1  0.500000  0.500000  0.503105  1
  W  W22  1  0.000000  0.000000  0.666660  1
  W  W23  1  0.499996  0.500000  0.830252  1
