# generated using pymatgen
data_Nd2Al2Ga7Ir3
_symmetry_space_group_name_H-M   'P 1'
_cell_length_a   7.64738968
_cell_length_b   7.64739009
_cell_length_c   9.60689400
_cell_angle_alpha   90.00000000
_cell_angle_beta   90.00000000
_cell_angle_gamma   119.61784319
_symmetry_Int_Tables_number   1
_chemical_formula_structural   Nd2Al2Ga7Ir3
_chemical_formula_sum   'Nd4 Al4 Ga14 Ir6'
_cell_volume   488.42699274
_cell_formula_units_Z   2
loop_
 _symmetry_equiv_pos_site_id
 _symmetry_equiv_pos_as_xyz
  1  'x, y, z'
loop_
 _atom_site_type_symbol
 _atom_site_label
 _atom_site_symmetry_multiplicity
 _atom_site_fract_x
 _atom_site_fract_y
 _atom_site_fract_z
 _atom_site_occupancy
  Nd  Nd0  1  0.000939  0.669451  0.250000  1
  Nd  Nd1  1  0.999061  0.330549  0.750000  1
  Nd  Nd2  1  0.669451  0.000939  0.250000  1
  Nd  Nd3  1  0.330549  0.999061  0.750000  1
  Al  Al4  1  0.332630  0.332630  0.548752  1
  Al  Al5  1  0.667370  0.667370  0.451248  1
  Al  Al6  1  0.667370  0.667370  0.048752  1
  Al  Al7  1  0.332630  0.332630  0.951248  1
  Ga  Ga8  1  0.126485  0.126485  0.250000  1
  Ga  Ga9  1  0.873515  0.873515  0.750000  1
  Ga  Ga10  1  0.002485  0.335300  0.078370  1
  Ga  Ga11  1  0.997515  0.664700  0.921630  1
  Ga  Ga12  1  0.997515  0.664700  0.578370  1
  Ga  Ga13  1  0.335300  0.002485  0.421630  1
  Ga  Ga14  1  0.002485  0.335300  0.421630  1
  Ga  Ga15  1  0.664700  0.997515  0.578370  1
  Ga  Ga16  1  0.664700  0.997515  0.921630  1
  Ga  Ga17  1  0.335300  0.002485  0.078370  1
  Ga  Ga18  1  0.348065  0.549174  0.250000  1
  Ga  Ga19  1  0.651935  0.450826  0.750000  1
  Ga  Ga20  1  0.549174  0.348065  0.250000  1
  Ga  Ga21  1  0.450826  0.651935  0.750000  1
  Ir  Ir22  1  0.668427  0.331573  0.000000  1
  Ir  Ir23  1  0.331573  0.668427  0.000000  1
  Ir  Ir24  1  0.331573  0.668427  0.500000  1
  Ir  Ir25  1  0.668427  0.331573  0.500000  1
  Ir  Ir26  1  0.000000  0.000000  0.000000  1
  Ir  Ir27  1  0.000000  0.000000  0.500000  1
