# generated using pymatgen
data_DyHo10Hg9Pt4
_symmetry_space_group_name_H-M   'P 1'
_cell_length_a   3.66892700
_cell_length_b   13.19146232
_cell_length_c   13.19146300
_cell_angle_alpha   112.25800164
_cell_angle_beta   90.00000000
_cell_angle_gamma   90.00000000
_symmetry_Int_Tables_number   1
_chemical_formula_structural   DyHo10Hg9Pt4
_chemical_formula_sum   'Dy1 Ho10 Hg9 Pt4'
_cell_volume   590.87496152
_cell_formula_units_Z   1
loop_
 _symmetry_equiv_pos_site_id
 _symmetry_equiv_pos_as_xyz
  1  'x, y, z'
loop_
 _atom_site_type_symbol
 _atom_site_label
 _atom_site_symmetry_multiplicity
 _atom_site_fract_x
 _atom_site_fract_y
 _atom_site_fract_z
 _atom_site_occupancy
  Dy  Dy0  1  0.000000  0.000000  0.000000  1
  Ho  Ho1  1  0.000000  0.921292  0.583652  1
  Ho  Ho2  1  0.000000  0.078708  0.416348  1
  Ho  Ho3  1  0.000000  0.583652  0.921292  1
  Ho  Ho4  1  0.000000  0.416348  0.078708  1
  Ho  Ho5  1  0.000000  0.165887  0.834113  1
  Ho  Ho6  1  0.000000  0.834113  0.165887  1
  Ho  Ho7  1  0.000000  0.371136  0.628864  1
  Ho  Ho8  1  0.000000  0.628864  0.371136  1
  Ho  Ho9  1  0.000000  0.694368  0.694368  1
  Ho  Ho10  1  0.000000  0.305632  0.305632  1
  Hg  Hg11  1  0.500000  0.151577  0.632373  1
  Hg  Hg12  1  0.500000  0.848423  0.367627  1
  Hg  Hg13  1  0.500000  0.632373  0.151577  1
  Hg  Hg14  1  0.500000  0.367627  0.848423  1
  Hg  Hg15  1  0.500000  0.936492  0.786407  1
  Hg  Hg16  1  0.500000  0.063508  0.213593  1
  Hg  Hg17  1  0.500000  0.786407  0.936492  1
  Hg  Hg18  1  0.500000  0.213593  0.063508  1
  Hg  Hg19  1  0.500000  0.500000  0.500000  1
  Pt  Pt20  1  0.500000  0.749352  0.549386  1
  Pt  Pt21  1  0.500000  0.250648  0.450614  1
  Pt  Pt22  1  0.500000  0.549386  0.749352  1
  Pt  Pt23  1  0.500000  0.450614  0.250648  1
