# generated using pymatgen
data_Y10Tl4In4PdAu3
_symmetry_space_group_name_H-M   'P 1'
_cell_length_a   3.69466200
_cell_length_b   8.26984700
_cell_length_c   18.47529362
_cell_angle_alpha   90.02594382
_cell_angle_beta   90.00000000
_cell_angle_gamma   90.00000000
_symmetry_Int_Tables_number   1
_chemical_formula_structural   Y10Tl4In4PdAu3
_chemical_formula_sum   'Y10 Tl4 In4 Pd1 Au3'
_cell_volume   564.49941143
_cell_formula_units_Z   1
loop_
 _symmetry_equiv_pos_site_id
 _symmetry_equiv_pos_as_xyz
  1  'x, y, z'
loop_
 _atom_site_type_symbol
 _atom_site_label
 _atom_site_symmetry_multiplicity
 _atom_site_fract_x
 _atom_site_fract_y
 _atom_site_fract_z
 _atom_site_occupancy
  Y  Y0  1  0.000000  0.500813  0.499103  1
  Y  Y1  1  0.000000  0.000345  0.000740  1
  Y  Y2  1  0.000000  0.747403  0.284428  1
  Y  Y3  1  0.000000  0.262370  0.715057  1
  Y  Y4  1  0.000000  0.762189  0.784030  1
  Y  Y5  1  0.000000  0.232742  0.218353  1
  Y  Y6  1  0.000000  0.619567  0.082892  1
  Y  Y7  1  0.000000  0.380236  0.918698  1
  Y  Y8  1  0.000000  0.879886  0.580558  1
  Y  Y9  1  0.000000  0.115736  0.415141  1
  Tl  Tl10  1  0.500000  0.710735  0.935068  1
  Tl  Tl11  1  0.500000  0.289422  0.066589  1
  Tl  Tl12  1  0.500000  0.791160  0.432765  1
  Tl  Tl13  1  0.500000  0.210139  0.563726  1
  In  In14  1  0.500000  0.583676  0.647035  1
  In  In15  1  0.500000  0.413302  0.351761  1
  In  In16  1  0.500000  0.918372  0.149940  1
  In  In17  1  0.500000  0.084312  0.852577  1
  Pd  Pd18  1  0.500000  0.028885  0.302074  1
  Au  Au19  1  0.500000  0.529861  0.200062  1
  Au  Au20  1  0.500000  0.469437  0.801287  1
  Au  Au21  1  0.500000  0.969408  0.698111  1
