# generated using pymatgen
data_Ce4P7Rh8
_symmetry_space_group_name_H-M   'P 1'
_cell_length_a   4.00229800
_cell_length_b   12.76192975
_cell_length_c   13.19704800
_cell_angle_alpha   80.70577135
_cell_angle_beta   90.00000000
_cell_angle_gamma   90.00000000
_symmetry_Int_Tables_number   1
_chemical_formula_structural   Ce4P7Rh8
_chemical_formula_sum   'Ce8 P14 Rh16'
_cell_volume   665.21707801
_cell_formula_units_Z   2
loop_
 _symmetry_equiv_pos_site_id
 _symmetry_equiv_pos_as_xyz
  1  'x, y, z'
loop_
 _atom_site_type_symbol
 _atom_site_label
 _atom_site_symmetry_multiplicity
 _atom_site_fract_x
 _atom_site_fract_y
 _atom_site_fract_z
 _atom_site_occupancy
  Ce  Ce0  1  0.750000  0.790409  0.560664  1
  Ce  Ce1  1  0.250000  0.209591  0.439336  1
  Ce  Ce2  1  0.750000  0.482039  0.708440  1
  Ce  Ce3  1  0.250000  0.517961  0.291560  1
  Ce  Ce4  1  0.750000  0.722600  0.897167  1
  Ce  Ce5  1  0.250000  0.103907  0.785481  1
  Ce  Ce6  1  0.750000  0.896093  0.214519  1
  Ce  Ce7  1  0.250000  0.277400  0.102833  1
  P  P8  1  0.250000  0.909141  0.409632  1
  P  P9  1  0.750000  0.472579  0.126928  1
  P  P10  1  0.250000  0.527421  0.873072  1
  P  P11  1  0.750000  0.090859  0.590368  1
  P  P12  1  0.250000  0.741828  0.075956  1
  P  P13  1  0.750000  0.258172  0.924044  1
  P  P14  1  0.750000  0.158457  0.281676  1
  P  P15  1  0.250000  0.841543  0.718324  1
  P  P16  1  0.250000  0.051333  0.099677  1
  P  P17  1  0.750000  0.948667  0.900323  1
  P  P18  1  0.250000  0.313739  0.690534  1
  P  P19  1  0.750000  0.686261  0.309466  1
  P  P20  1  0.250000  0.607367  0.560922  1
  P  P21  1  0.750000  0.392633  0.439078  1
  Rh  Rh22  1  0.250000  0.727363  0.396571  1
  Rh  Rh23  1  0.750000  0.272637  0.603429  1
  Rh  Rh24  1  0.250000  0.340841  0.862278  1
  Rh  Rh25  1  0.750000  0.659159  0.137722  1
  Rh  Rh26  1  0.250000  0.988025  0.575226  1
  Rh  Rh27  1  0.750000  0.011975  0.424774  1
  Rh  Rh28  1  0.250000  0.659392  0.726164  1
  Rh  Rh29  1  0.750000  0.340608  0.273836  1
  Rh  Rh30  1  0.250000  0.553093  0.046413  1
  Rh  Rh31  1  0.750000  0.446907  0.953587  1
  Rh  Rh32  1  0.250000  0.061941  0.275454  1
  Rh  Rh33  1  0.750000  0.938059  0.724546  1
  Rh  Rh34  1  0.250000  0.425054  0.529544  1
  Rh  Rh35  1  0.750000  0.574946  0.470456  1
  Rh  Rh36  1  0.250000  0.918081  0.996742  1
  Rh  Rh37  1  0.750000  0.081919  0.003258  1
