# generated using pymatgen
data_Tm2Lu2AlPt
_symmetry_space_group_name_H-M   'P 1'
_cell_length_a   9.42359201
_cell_length_b   9.42359146
_cell_length_c   9.42643100
_cell_angle_alpha   59.99002831
_cell_angle_beta   59.99003024
_cell_angle_gamma   60.01994712
_symmetry_Int_Tables_number   1
_chemical_formula_structural   Tm2Lu2AlPt
_chemical_formula_sum   'Tm8 Lu8 Al4 Pt4'
_cell_volume   591.92292386
_cell_formula_units_Z   4
loop_
 _symmetry_equiv_pos_site_id
 _symmetry_equiv_pos_as_xyz
  1  'x, y, z'
loop_
 _atom_site_type_symbol
 _atom_site_label
 _atom_site_symmetry_multiplicity
 _atom_site_fract_x
 _atom_site_fract_y
 _atom_site_fract_z
 _atom_site_occupancy
  Tm  Tm0  1  0.191832  0.191832  0.808168  1
  Tm  Tm1  1  0.808168  0.808168  0.191832  1
  Tm  Tm2  1  0.936061  0.563939  0.563939  1
  Tm  Tm3  1  0.563939  0.936061  0.936061  1
  Tm  Tm4  1  0.563939  0.936061  0.563939  1
  Tm  Tm5  1  0.936061  0.563939  0.936061  1
  Tm  Tm6  1  0.563872  0.563872  0.936128  1
  Tm  Tm7  1  0.936128  0.936128  0.563872  1
  Lu  Lu8  1  0.354667  0.354667  0.354613  1
  Lu  Lu9  1  0.354667  0.354667  0.936055  1
  Lu  Lu10  1  0.354613  0.936055  0.354667  1
  Lu  Lu11  1  0.936055  0.354613  0.354667  1
  Lu  Lu12  1  0.807966  0.192034  0.192034  1
  Lu  Lu13  1  0.192034  0.807966  0.807966  1
  Lu  Lu14  1  0.192034  0.807966  0.192034  1
  Lu  Lu15  1  0.807966  0.192034  0.807966  1
  Al  Al16  1  0.578434  0.578434  0.578443  1
  Al  Al17  1  0.578434  0.578434  0.264689  1
  Al  Al18  1  0.578443  0.264689  0.578434  1
  Al  Al19  1  0.264689  0.578443  0.578434  1
  Pt  Pt20  1  0.143267  0.143267  0.144549  1
  Pt  Pt21  1  0.143267  0.143267  0.568917  1
  Pt  Pt22  1  0.144549  0.568917  0.143267  1
  Pt  Pt23  1  0.568917  0.144549  0.143267  1
