# generated using pymatgen
data_Tb3ErGa18Rh5Au
_symmetry_space_group_name_H-M   'P 1'
_cell_length_a   7.62295439
_cell_length_b   7.62171806
_cell_length_c   9.52171511
_cell_angle_alpha   89.97992890
_cell_angle_beta   89.97860337
_cell_angle_gamma   119.78859847
_symmetry_Int_Tables_number   1
_chemical_formula_structural   Tb3ErGa18Rh5Au
_chemical_formula_sum   'Tb3 Er1 Ga18 Rh5 Au1'
_cell_volume   480.11260763
_cell_formula_units_Z   1
loop_
 _symmetry_equiv_pos_site_id
 _symmetry_equiv_pos_as_xyz
  1  'x, y, z'
loop_
 _atom_site_type_symbol
 _atom_site_label
 _atom_site_symmetry_multiplicity
 _atom_site_fract_x
 _atom_site_fract_y
 _atom_site_fract_z
 _atom_site_occupancy
  Tb  Tb0  1  0.999850  0.330090  0.750028  1
  Tb  Tb1  1  0.670053  0.000235  0.250001  1
  Tb  Tb2  1  0.334564  0.006343  0.749575  1
  Er  Er3  1  0.993747  0.665499  0.250520  1
  Ga  Ga4  1  0.125198  0.121754  0.251194  1
  Ga  Ga5  1  0.877777  0.874588  0.748800  1
  Ga  Ga6  1  0.011505  0.335118  0.084147  1
  Ga  Ga7  1  0.010197  0.675067  0.917520  1
  Ga  Ga8  1  0.002649  0.666244  0.577679  1
  Ga  Ga9  1  0.333270  0.996869  0.421650  1
  Ga  Ga10  1  0.999751  0.334874  0.420701  1
  Ga  Ga11  1  0.665707  0.000283  0.578957  1
  Ga  Ga12  1  0.665422  0.988452  0.916180  1
  Ga  Ga13  1  0.324280  0.989142  0.083179  1
  Ga  Ga14  1  0.330003  0.331084  0.562960  1
  Ga  Ga15  1  0.669443  0.669983  0.436703  1
  Ga  Ga16  1  0.667768  0.674973  0.070051  1
  Ga  Ga17  1  0.324994  0.332769  0.930246  1
  Ga  Ga18  1  0.340258  0.550441  0.251637  1
  Ga  Ga19  1  0.661095  0.461234  0.741860  1
  Ga  Ga20  1  0.539161  0.339241  0.258141  1
  Ga  Ga21  1  0.449588  0.659408  0.748366  1
  Rh  Rh22  1  0.329835  0.670158  0.000249  1
  Rh  Rh23  1  0.328582  0.671345  0.499736  1
  Rh  Rh24  1  0.672463  0.327959  0.499754  1
  Rh  Rh25  1  0.000180  0.999619  0.000252  1
  Rh  Rh26  1  0.999820  0.999967  0.499766  1
  Au  Au27  1  0.672844  0.327258  0.000150  1
