# generated using pymatgen
data_Rb2YbHgBi2
_symmetry_space_group_name_H-M   'P 1'
_cell_length_a   5.12295600
_cell_length_b   5.12295600
_cell_length_c   9.04097100
_cell_angle_alpha   90.00000000
_cell_angle_beta   90.00000000
_cell_angle_gamma   90.00000000
_symmetry_Int_Tables_number   1
_chemical_formula_structural   Rb2YbHgBi2
_chemical_formula_sum   'Rb2 Yb1 Hg1 Bi2'
_cell_volume   237.27737431
_cell_formula_units_Z   1
loop_
 _symmetry_equiv_pos_site_id
 _symmetry_equiv_pos_as_xyz
  1  'x, y, z'
loop_
 _atom_site_type_symbol
 _atom_site_label
 _atom_site_symmetry_multiplicity
 _atom_site_fract_x
 _atom_site_fract_y
 _atom_site_fract_z
 _atom_site_occupancy
  Rb  Rb0  1  0.499999  0.000000  0.148560  1
  Rb  Rb1  1  0.000000  0.499999  0.851441  1
  Yb  Yb2  1  0.499999  0.499999  0.500000  1
  Hg  Hg3  1  0.000000  0.000000  0.500000  1
  Bi  Bi4  1  0.000000  0.499999  0.292783  1
  Bi  Bi5  1  0.499999  0.000000  0.707218  1
