# generated using pymatgen
data_Er5Tm5Pt18
_symmetry_space_group_name_H-M   'P 1'
_cell_length_a   9.70567762
_cell_length_b   9.70977762
_cell_length_c   5.75054500
_cell_angle_alpha   90.00000000
_cell_angle_beta   90.00000000
_cell_angle_gamma   90.04085420
_symmetry_Int_Tables_number   1
_chemical_formula_structural   Er5Tm5Pt18
_chemical_formula_sum   'Er5 Tm5 Pt18'
_cell_volume   541.93105789
_cell_formula_units_Z   1
loop_
 _symmetry_equiv_pos_site_id
 _symmetry_equiv_pos_as_xyz
  1  'x, y, z'
loop_
 _atom_site_type_symbol
 _atom_site_label
 _atom_site_symmetry_multiplicity
 _atom_site_fract_x
 _atom_site_fract_y
 _atom_site_fract_z
 _atom_site_occupancy
  Er  Er0  1  0.452412  0.809039  0.000000  1
  Er  Er1  1  0.547644  0.190959  0.000000  1
  Er  Er2  1  0.190930  0.547624  0.000000  1
  Er  Er3  1  0.809060  0.452408  0.000000  1
  Er  Er4  1  0.308969  0.047647  0.500000  1
  Tm  Tm5  1  0.500012  0.500015  0.500000  1
  Tm  Tm6  1  0.691093  0.952317  0.500000  1
  Tm  Tm7  1  0.952318  0.691047  0.500000  1
  Tm  Tm8  1  0.047617  0.308984  0.500000  1
  Tm  Tm9  1  0.999969  0.000005  0.000000  1
  Pt  Pt10  1  0.191500  0.808288  0.251130  1
  Pt  Pt11  1  0.808465  0.191557  0.748805  1
  Pt  Pt12  1  0.808465  0.191557  0.251195  1
  Pt  Pt13  1  0.191500  0.808288  0.748870  1
  Pt  Pt14  1  0.441456  0.782214  0.500000  1
  Pt  Pt15  1  0.558764  0.217708  0.500000  1
  Pt  Pt16  1  0.217578  0.558624  0.500000  1
  Pt  Pt17  1  0.782424  0.441385  0.500000  1
  Pt  Pt18  1  0.308184  0.308363  0.249135  1
  Pt  Pt19  1  0.691808  0.691803  0.750688  1
  Pt  Pt20  1  0.691808  0.691803  0.249312  1
  Pt  Pt21  1  0.308184  0.308363  0.750865  1
  Pt  Pt22  1  0.282146  0.058667  0.000000  1
  Pt  Pt23  1  0.717831  0.941343  0.000000  1
  Pt  Pt24  1  0.941327  0.717813  0.000000  1
  Pt  Pt25  1  0.058639  0.282161  0.000000  1
  Pt  Pt26  1  0.999880  0.000007  0.500000  1
  Pt  Pt27  1  0.500018  0.500011  0.000000  1
