# generated using pymatgen
data_Rb3Y(AsO4)2
_symmetry_space_group_name_H-M   'P 1'
_cell_length_a   6.02350800
_cell_length_b   6.02350805
_cell_length_c   8.03656600
_cell_angle_alpha   90.00000000
_cell_angle_beta   90.00000000
_cell_angle_gamma   119.99999975
_symmetry_Int_Tables_number   1
_chemical_formula_structural   Rb3Y(AsO4)2
_chemical_formula_sum   'Rb3 Y1 As2 O8'
_cell_volume   252.52253165
_cell_formula_units_Z   1
loop_
 _symmetry_equiv_pos_site_id
 _symmetry_equiv_pos_as_xyz
  1  'x, y, z'
loop_
 _atom_site_type_symbol
 _atom_site_label
 _atom_site_symmetry_multiplicity
 _atom_site_fract_x
 _atom_site_fract_y
 _atom_site_fract_z
 _atom_site_occupancy
  Rb  Rb0  1  0.333333  0.666667  0.711003  1
  Rb  Rb1  1  0.666667  0.333333  0.288997  1
  Rb  Rb2  1  0.000000  0.000000  0.000000  1
  Y  Y3  1  0.000000  0.000000  0.500000  1
  As  As4  1  0.333333  0.666667  0.258767  1
  As  As5  1  0.666667  0.333333  0.741233  1
  O  O6  1  0.333333  0.666667  0.049780  1
  O  O7  1  0.666667  0.333333  0.950220  1
  O  O8  1  0.177896  0.822104  0.337323  1
  O  O9  1  0.822104  0.177896  0.662677  1
  O  O10  1  0.177896  0.355793  0.337323  1
  O  O11  1  0.822104  0.644207  0.662677  1
  O  O12  1  0.644207  0.822104  0.337323  1
  O  O13  1  0.355793  0.177896  0.662677  1
