# generated using pymatgen
data_TbDy3Co10(Ni5P6)2
_symmetry_space_group_name_H-M   'P 1'
_cell_length_a   3.68436800
_cell_length_b   10.27890296
_cell_length_c   11.82313622
_cell_angle_alpha   89.92944877
_cell_angle_beta   90.00000000
_cell_angle_gamma   90.00000000
_symmetry_Int_Tables_number   1
_chemical_formula_structural   TbDy3Co10(Ni5P6)2
_chemical_formula_sum   'Tb1 Dy3 Co10 Ni10 P12'
_cell_volume   447.75674012
_cell_formula_units_Z   1
loop_
 _symmetry_equiv_pos_site_id
 _symmetry_equiv_pos_as_xyz
  1  'x, y, z'
loop_
 _atom_site_type_symbol
 _atom_site_label
 _atom_site_symmetry_multiplicity
 _atom_site_fract_x
 _atom_site_fract_y
 _atom_site_fract_z
 _atom_site_occupancy
  Tb  Tb0  1  0.750000  0.081332  0.796679  1
  Dy  Dy1  1  0.250000  0.581435  0.703978  1
  Dy  Dy2  1  0.250000  0.918427  0.203975  1
  Dy  Dy3  1  0.750000  0.418806  0.296746  1
  Co  Co4  1  0.750000  0.776843  0.824541  1
  Co  Co5  1  0.750000  0.723022  0.324446  1
  Co  Co6  1  0.250000  0.878886  0.697784  1
  Co  Co7  1  0.250000  0.620715  0.197976  1
  Co  Co8  1  0.750000  0.119528  0.301686  1
  Co  Co9  1  0.750000  0.380801  0.801751  1
  Co  Co10  1  0.250000  0.467052  0.933173  1
  Co  Co11  1  0.250000  0.033089  0.432848  1
  Co  Co12  1  0.750000  0.533574  0.067296  1
  Co  Co13  1  0.750000  0.966246  0.566873  1
  Ni  Ni14  1  0.250000  0.711045  0.988886  1
  Ni  Ni15  1  0.250000  0.788593  0.488735  1
  Ni  Ni16  1  0.750000  0.286056  0.009346  1
  Ni  Ni17  1  0.750000  0.214127  0.509287  1
  Ni  Ni18  1  0.250000  0.408530  0.486223  1
  Ni  Ni19  1  0.250000  0.091749  0.986600  1
  Ni  Ni20  1  0.750000  0.592271  0.514116  1
  Ni  Ni21  1  0.750000  0.907644  0.014318  1
  Ni  Ni22  1  0.250000  0.223752  0.176187  1
  Ni  Ni23  1  0.250000  0.276477  0.675906  1
  P  P24  1  0.250000  0.424757  0.113415  1
  P  P25  1  0.250000  0.075179  0.612913  1
  P  P26  1  0.750000  0.578718  0.886491  1
  P  P27  1  0.750000  0.921234  0.386293  1
  P  P28  1  0.250000  0.272339  0.867753  1
  P  P29  1  0.250000  0.228293  0.367661  1
  P  P30  1  0.750000  0.728713  0.134954  1
  P  P31  1  0.750000  0.771131  0.634939  1
  P  P32  1  0.250000  0.606703  0.387725  1
  P  P33  1  0.250000  0.892896  0.887848  1
  P  P34  1  0.750000  0.397596  0.610325  1
  P  P35  1  0.750000  0.102441  0.110331  1
