# generated using pymatgen
data_Ho6MgCo(P3Ir4)4
_symmetry_space_group_name_H-M   'P 1'
_cell_length_a   3.94481100
_cell_length_b   11.18072200
_cell_length_c   12.79799900
_cell_angle_alpha   90.00000000
_cell_angle_beta   90.00000000
_cell_angle_gamma   90.00000000
_symmetry_Int_Tables_number   1
_chemical_formula_structural   Ho6MgCo(P3Ir4)4
_chemical_formula_sum   'Ho6 Mg1 Co1 P12 Ir16'
_cell_volume   564.46643393
_cell_formula_units_Z   1
loop_
 _symmetry_equiv_pos_site_id
 _symmetry_equiv_pos_as_xyz
  1  'x, y, z'
loop_
 _atom_site_type_symbol
 _atom_site_label
 _atom_site_symmetry_multiplicity
 _atom_site_fract_x
 _atom_site_fract_y
 _atom_site_fract_z
 _atom_site_occupancy
  Ho  Ho0  1  0.000000  0.500000  0.519565  1
  Ho  Ho1  1  0.500000  0.000000  0.477992  1
  Ho  Ho2  1  0.500000  0.820394  0.203250  1
  Ho  Ho3  1  0.500000  0.179606  0.203250  1
  Ho  Ho4  1  0.000000  0.687249  0.798359  1
  Ho  Ho5  1  0.000000  0.312751  0.798359  1
  Mg  Mg6  1  0.500000  0.500000  0.157578  1
  Co  Co7  1  0.500000  0.000000  0.025231  1
  P  P8  1  0.500000  0.315262  0.618897  1
  P  P9  1  0.500000  0.684738  0.618897  1
  P  P10  1  0.000000  0.186014  0.382609  1
  P  P11  1  0.000000  0.813986  0.382609  1
  P  P12  1  0.500000  0.500000  0.877909  1
  P  P13  1  0.000000  0.000000  0.122094  1
  P  P14  1  0.500000  0.856507  0.895699  1
  P  P15  1  0.500000  0.143493  0.895699  1
  P  P16  1  0.000000  0.662784  0.106014  1
  P  P17  1  0.000000  0.337216  0.106014  1
  P  P18  1  0.500000  0.500000  0.355356  1
  P  P19  1  0.000000  0.000000  0.642438  1
  Ir  Ir20  1  0.000000  0.500000  0.979154  1
  Ir  Ir21  1  0.500000  0.289134  0.432146  1
  Ir  Ir22  1  0.500000  0.710866  0.432146  1
  Ir  Ir23  1  0.000000  0.205852  0.572844  1
  Ir  Ir24  1  0.000000  0.794148  0.572844  1
  Ir  Ir25  1  0.500000  0.870988  0.714352  1
  Ir  Ir26  1  0.500000  0.129012  0.714352  1
  Ir  Ir27  1  0.000000  0.628678  0.286108  1
  Ir  Ir28  1  0.000000  0.371322  0.286108  1
  Ir  Ir29  1  0.500000  0.328892  0.994501  1
  Ir  Ir30  1  0.500000  0.671108  0.994501  1
  Ir  Ir31  1  0.000000  0.156967  0.004712  1
  Ir  Ir32  1  0.000000  0.843033  0.004712  1
  Ir  Ir33  1  0.000000  0.000000  0.822534  1
  Ir  Ir34  1  0.500000  0.500000  0.700833  1
  Ir  Ir35  1  0.000000  0.000000  0.300337  1
