# generated using pymatgen
data_SmTlCu(P3Pd10)2
_symmetry_space_group_name_H-M   'P 1'
_cell_length_a   8.62979055
_cell_length_b   8.62979114
_cell_length_c   8.62979100
_cell_angle_alpha   60.00000438
_cell_angle_beta   60.00000209
_cell_angle_gamma   59.99999704
_symmetry_Int_Tables_number   1
_chemical_formula_structural   SmTlCu(P3Pd10)2
_chemical_formula_sum   'Sm1 Tl1 Cu1 P6 Pd20'
_cell_volume   454.44971117
_cell_formula_units_Z   1
loop_
 _symmetry_equiv_pos_site_id
 _symmetry_equiv_pos_as_xyz
  1  'x, y, z'
loop_
 _atom_site_type_symbol
 _atom_site_label
 _atom_site_symmetry_multiplicity
 _atom_site_fract_x
 _atom_site_fract_y
 _atom_site_fract_z
 _atom_site_occupancy
  Sm  Sm0  1  0.750000  0.750000  0.750000  1
  Tl  Tl1  1  0.250000  0.250000  0.250000  1
  Cu  Cu2  1  0.000000  0.000000  0.000000  1
  P  P3  1  0.736135  0.263865  0.263865  1
  P  P4  1  0.263865  0.736135  0.736135  1
  P  P5  1  0.263865  0.736135  0.263865  1
  P  P6  1  0.736135  0.263865  0.736135  1
  P  P7  1  0.263865  0.263865  0.736135  1
  P  P8  1  0.736135  0.736135  0.263865  1
  Pd  Pd9  1  0.383145  0.383145  0.383145  1
  Pd  Pd10  1  0.613490  0.613490  0.613490  1
  Pd  Pd11  1  0.383145  0.383145  0.850564  1
  Pd  Pd12  1  0.383145  0.850564  0.383145  1
  Pd  Pd13  1  0.613490  0.613490  0.159530  1
  Pd  Pd14  1  0.613490  0.159530  0.613490  1
  Pd  Pd15  1  0.850564  0.383145  0.383145  1
  Pd  Pd16  1  0.159530  0.613490  0.613490  1
  Pd  Pd17  1  0.343629  0.998154  0.998154  1
  Pd  Pd18  1  0.660064  0.998154  0.998154  1
  Pd  Pd19  1  0.998154  0.343629  0.660064  1
  Pd  Pd20  1  0.998154  0.660064  0.343629  1
  Pd  Pd21  1  0.998154  0.343629  0.998154  1
  Pd  Pd22  1  0.660064  0.998154  0.343629  1
  Pd  Pd23  1  0.998154  0.660064  0.998154  1
  Pd  Pd24  1  0.343629  0.998154  0.660064  1
  Pd  Pd25  1  0.998154  0.998154  0.343629  1
  Pd  Pd26  1  0.998154  0.998154  0.660064  1
  Pd  Pd27  1  0.660064  0.343629  0.998154  1
  Pd  Pd28  1  0.343629  0.660064  0.998154  1
