# generated using pymatgen
data_Dy3ErTm8Co5Bi
_symmetry_space_group_name_H-M   'P 1'
_cell_length_a   8.21899889
_cell_length_b   8.22254060
_cell_length_c   8.21943747
_cell_angle_alpha   111.14628858
_cell_angle_beta   110.72369270
_cell_angle_gamma   106.61862598
_symmetry_Int_Tables_number   1
_chemical_formula_structural   Dy3ErTm8Co5Bi
_chemical_formula_sum   'Dy3 Er1 Tm8 Co5 Bi1'
_cell_volume   426.60804033
_cell_formula_units_Z   1
loop_
 _symmetry_equiv_pos_site_id
 _symmetry_equiv_pos_as_xyz
  1  'x, y, z'
loop_
 _atom_site_type_symbol
 _atom_site_label
 _atom_site_symmetry_multiplicity
 _atom_site_fract_x
 _atom_site_fract_y
 _atom_site_fract_z
 _atom_site_occupancy
  Dy  Dy0  1  0.403373  0.208228  0.194724  1
  Dy  Dy1  1  0.986401  0.791611  0.194367  1
  Dy  Dy2  1  0.012119  0.208145  0.804459  1
  Er  Er3  1  0.817019  0.711441  0.529195  1
  Tm  Tm4  1  0.183693  0.289612  0.472661  1
  Tm  Tm5  1  0.184284  0.710549  0.894194  1
  Tm  Tm6  1  0.817080  0.287627  0.105433  1
  Tm  Tm7  1  0.687359  0.379106  0.690599  1
  Tm  Tm8  1  0.312870  0.622015  0.310653  1
  Tm  Tm9  1  0.687524  0.997164  0.308255  1
  Tm  Tm10  1  0.313276  0.002622  0.691105  1
  Tm  Tm11  1  0.596288  0.792180  0.804626  1
  Co  Co12  1  0.623820  0.000018  0.624925  1
  Co  Co13  1  0.376186  0.000444  0.375489  1
  Co  Co14  1  0.113100  0.611557  0.500978  1
  Co  Co15  1  0.888353  0.387851  0.499970  1
  Co  Co16  1  0.997604  0.999234  0.999100  1
  Bi  Bi17  1  0.499651  0.500596  0.999264  1
