# generated using pymatgen
data_Sr12CaAl6Si8O
_symmetry_space_group_name_H-M   'P 1'
_cell_length_a   4.76344151
_cell_length_b   11.69368535
_cell_length_c   14.60642295
_cell_angle_alpha   93.24806432
_cell_angle_beta   99.42335820
_cell_angle_gamma   101.76814169
_symmetry_Int_Tables_number   1
_chemical_formula_structural   Sr12CaAl6Si8O
_chemical_formula_sum   'Sr12 Ca1 Al6 Si8 O1'
_cell_volume   782.33660960
_cell_formula_units_Z   1
loop_
 _symmetry_equiv_pos_site_id
 _symmetry_equiv_pos_as_xyz
  1  'x, y, z'
loop_
 _atom_site_type_symbol
 _atom_site_label
 _atom_site_symmetry_multiplicity
 _atom_site_fract_x
 _atom_site_fract_y
 _atom_site_fract_z
 _atom_site_occupancy
  Sr  Sr0  1  0.293869  0.478903  0.109095  1
  Sr  Sr1  1  0.118717  0.117037  0.119719  1
  Sr  Sr2  1  0.954992  0.759103  0.148536  1
  Sr  Sr3  1  0.357410  0.354970  0.360034  1
  Sr  Sr4  1  0.537190  0.688096  0.385684  1
  Sr  Sr5  1  0.196225  0.002255  0.391272  1
  Sr  Sr6  1  0.803774  0.997745  0.608728  1
  Sr  Sr7  1  0.462811  0.311904  0.614316  1
  Sr  Sr8  1  0.642590  0.645030  0.639966  1
  Sr  Sr9  1  0.045008  0.240897  0.851465  1
  Sr  Sr10  1  0.881283  0.882963  0.880281  1
  Sr  Sr11  1  0.706132  0.521098  0.890905  1
  Ca  Ca12  1  0.000000  0.500000  0.500000  1
  Al  Al13  1  0.483553  0.913739  0.052489  1
  Al  Al14  1  0.756247  0.322515  0.191226  1
  Al  Al15  1  0.721507  0.149565  0.294884  1
  Al  Al16  1  0.278493  0.850435  0.705116  1
  Al  Al17  1  0.243752  0.677485  0.808774  1
  Al  Al18  1  0.516447  0.086261  0.947511  1
  Si  Si19  1  0.654820  0.294020  0.017212  1
  Si  Si20  1  0.583211  0.939918  0.228500  1
  Si  Si21  1  0.898170  0.526065  0.269106  1
  Si  Si22  1  0.833556  0.203067  0.465577  1
  Si  Si23  1  0.166444  0.796933  0.534423  1
  Si  Si24  1  0.101830  0.473935  0.730894  1
  Si  Si25  1  0.416788  0.060082  0.771500  1
  Si  Si26  1  0.345180  0.705980  0.982788  1
  O  O27  1  0.500000  0.500000  0.500000  1
