# generated using pymatgen
data_Ca6Cr2N6Cl
_symmetry_space_group_name_H-M   'P 1'
_cell_length_a   6.10770188
_cell_length_b   6.10770222
_cell_length_c   6.10770145
_cell_angle_alpha   96.09350601
_cell_angle_beta   96.09350829
_cell_angle_gamma   96.09350611
_symmetry_Int_Tables_number   1
_chemical_formula_structural   Ca6Cr2N6Cl
_chemical_formula_sum   'Ca6 Cr2 N6 Cl1'
_cell_volume   223.68028771
_cell_formula_units_Z   1
loop_
 _symmetry_equiv_pos_site_id
 _symmetry_equiv_pos_as_xyz
  1  'x, y, z'
loop_
 _atom_site_type_symbol
 _atom_site_label
 _atom_site_symmetry_multiplicity
 _atom_site_fract_x
 _atom_site_fract_y
 _atom_site_fract_z
 _atom_site_occupancy
  Ca  Ca0  1  0.610752  0.109840  0.780564  1
  Ca  Ca1  1  0.109840  0.780564  0.610752  1
  Ca  Ca2  1  0.780564  0.610752  0.109840  1
  Ca  Ca3  1  0.389248  0.890160  0.219436  1
  Ca  Ca4  1  0.890160  0.219436  0.389248  1
  Ca  Ca5  1  0.219436  0.389248  0.890160  1
  Cr  Cr6  1  0.621452  0.621452  0.621452  1
  Cr  Cr7  1  0.378548  0.378548  0.378548  1
  N  N8  1  0.724252  0.844184  0.470972  1
  N  N9  1  0.844184  0.470972  0.724252  1
  N  N10  1  0.470972  0.724252  0.844184  1
  N  N11  1  0.275748  0.155816  0.529028  1
  N  N12  1  0.155816  0.529028  0.275748  1
  N  N13  1  0.529028  0.275748  0.155816  1
  Cl  Cl14  1  0.000000  0.000000  0.000000  1
