# generated using pymatgen
data_Ba8Fe2CoIr2RhO20
_symmetry_space_group_name_H-M   'P 1'
_cell_length_a   7.27277000
_cell_length_b   7.27277019
_cell_length_c   13.17930900
_cell_angle_alpha   90.00000000
_cell_angle_beta   90.00000000
_cell_angle_gamma   132.54927578
_symmetry_Int_Tables_number   1
_chemical_formula_structural   Ba8Fe2CoIr2RhO20
_chemical_formula_sum   'Ba8 Fe2 Co1 Ir2 Rh1 O20'
_cell_volume   513.54758817
_cell_formula_units_Z   1
loop_
 _symmetry_equiv_pos_site_id
 _symmetry_equiv_pos_as_xyz
  1  'x, y, z'
loop_
 _atom_site_type_symbol
 _atom_site_label
 _atom_site_symmetry_multiplicity
 _atom_site_fract_x
 _atom_site_fract_y
 _atom_site_fract_z
 _atom_site_occupancy
  Ba  Ba0  1  0.483417  0.516583  0.890206  1
  Ba  Ba1  1  0.011784  0.988216  0.109725  1
  Ba  Ba2  1  0.515394  0.484606  0.381434  1
  Ba  Ba3  1  0.988395  0.011605  0.611221  1
  Ba  Ba4  1  0.281329  0.718671  0.637913  1
  Ba  Ba5  1  0.217703  0.782297  0.355045  1
  Ba  Ba6  1  0.717511  0.282489  0.133355  1
  Ba  Ba7  1  0.784697  0.215303  0.862329  1
  Fe  Fe8  1  0.612684  0.387317  0.651639  1
  Fe  Fe9  1  0.381427  0.618573  0.144138  1
  Co  Co10  1  0.252209  0.747791  0.003439  1
  Ir  Ir11  1  0.875594  0.124406  0.348063  1
  Ir  Ir12  1  0.127196  0.872804  0.852251  1
  Rh  Rh13  1  0.749000  0.251000  0.504203  1
  O  O14  1  0.783976  0.216024  0.653092  1
  O  O15  1  0.720241  0.279759  0.349151  1
  O  O16  1  0.218422  0.781578  0.145480  1
  O  O17  1  0.279291  0.720709  0.855217  1
  O  O18  1  0.411337  0.132423  0.534880  1
  O  O19  1  0.632234  0.908991  0.462254  1
  O  O20  1  0.130204  0.421814  0.029157  1
  O  O21  1  0.920842  0.632930  0.965113  1
  O  O22  1  0.091009  0.367766  0.462254  1
  O  O23  1  0.867577  0.588663  0.534880  1
  O  O24  1  0.367070  0.079158  0.965113  1
  O  O25  1  0.578186  0.869796  0.029157  1
  O  O26  1  0.471928  0.528072  0.664846  1
  O  O27  1  0.020712  0.979288  0.349216  1
  O  O28  1  0.524396  0.475604  0.157433  1
  O  O29  1  0.982632  0.017368  0.854714  1
  O  O30  1  0.370296  0.113480  0.752563  1
  O  O31  1  0.629968  0.885179  0.248983  1
  O  O32  1  0.114821  0.370032  0.248983  1
  O  O33  1  0.886520  0.629704  0.752563  1
