# generated using pymatgen
data_Pr8Ho11Si16Tc
_symmetry_space_group_name_H-M   'P 1'
_cell_length_a   7.42192390
_cell_length_b   7.76826848
_cell_length_c   14.67421600
_cell_angle_alpha   90.00000000
_cell_angle_beta   90.00000000
_cell_angle_gamma   89.99546979
_symmetry_Int_Tables_number   1
_chemical_formula_structural   Pr8Ho11Si16Tc
_chemical_formula_sum   'Pr8 Ho11 Si16 Tc1'
_cell_volume   846.04922155
_cell_formula_units_Z   1
loop_
 _symmetry_equiv_pos_site_id
 _symmetry_equiv_pos_as_xyz
  1  'x, y, z'
loop_
 _atom_site_type_symbol
 _atom_site_label
 _atom_site_symmetry_multiplicity
 _atom_site_fract_x
 _atom_site_fract_y
 _atom_site_fract_z
 _atom_site_occupancy
  Pr  Pr0  1  0.023950  0.180677  0.403508  1
  Pr  Pr1  1  0.522361  0.320599  0.406557  1
  Pr  Pr2  1  0.484310  0.684436  0.896977  1
  Pr  Pr3  1  0.484310  0.684436  0.603023  1
  Pr  Pr4  1  0.973646  0.826781  0.601564  1
  Pr  Pr5  1  0.973646  0.826781  0.898436  1
  Pr  Pr6  1  0.522361  0.320599  0.093443  1
  Pr  Pr7  1  0.023950  0.180677  0.096492  1
  Ho  Ho8  1  0.320109  0.169406  0.627595  1
  Ho  Ho9  1  0.679596  0.822896  0.380075  1
  Ho  Ho10  1  0.180936  0.678467  0.378095  1
  Ho  Ho11  1  0.816653  0.317604  0.873405  1
  Ho  Ho12  1  0.816653  0.317604  0.626595  1
  Ho  Ho13  1  0.849098  0.487476  0.250000  1
  Ho  Ho14  1  0.349024  0.011860  0.250000  1
  Ho  Ho15  1  0.320109  0.169406  0.872405  1
  Ho  Ho16  1  0.180936  0.678467  0.121905  1
  Ho  Ho17  1  0.679596  0.822896  0.119925  1
  Ho  Ho18  1  0.151613  0.511020  0.750000  1
  Si  Si19  1  0.286199  0.877208  0.750000  1
  Si  Si20  1  0.476028  0.614533  0.250000  1
  Si  Si21  1  0.008364  0.100197  0.750000  1
  Si  Si22  1  0.523582  0.380027  0.750000  1
  Si  Si23  1  0.147358  0.469302  0.541791  1
  Si  Si24  1  0.972273  0.883294  0.250000  1
  Si  Si25  1  0.730056  0.117839  0.250000  1
  Si  Si26  1  0.856828  0.531304  0.036793  1
  Si  Si27  1  0.354107  0.967923  0.036748  1
  Si  Si28  1  0.147358  0.469302  0.958209  1
  Si  Si29  1  0.643753  0.029374  0.550111  1
  Si  Si30  1  0.354107  0.967923  0.463252  1
  Si  Si31  1  0.856828  0.531304  0.463207  1
  Si  Si32  1  0.773015  0.632474  0.750000  1
  Si  Si33  1  0.233409  0.380517  0.250000  1
  Si  Si34  1  0.643753  0.029374  0.949889  1
  Tc  Tc35  1  0.640129  0.006014  0.750000  1
