# generated using pymatgen
data_CaHo6Er(B6Ru)4
_symmetry_space_group_name_H-M   'P 1'
_cell_length_a   3.64951000
_cell_length_b   9.12575919
_cell_length_c   11.51250400
_cell_angle_alpha   89.90277996
_cell_angle_beta   90.00000000
_cell_angle_gamma   90.00000000
_symmetry_Int_Tables_number   1
_chemical_formula_structural   CaHo6Er(B6Ru)4
_chemical_formula_sum   'Ca1 Ho6 Er1 B24 Ru4'
_cell_volume   383.41820635
_cell_formula_units_Z   1
loop_
 _symmetry_equiv_pos_site_id
 _symmetry_equiv_pos_as_xyz
  1  'x, y, z'
loop_
 _atom_site_type_symbol
 _atom_site_label
 _atom_site_symmetry_multiplicity
 _atom_site_fract_x
 _atom_site_fract_y
 _atom_site_fract_z
 _atom_site_occupancy
  Ca  Ca0  1  0.000000  0.322808  0.413942  1
  Ho  Ho1  1  0.000000  0.675752  0.585088  1
  Ho  Ho2  1  0.000000  0.822714  0.086146  1
  Ho  Ho3  1  0.000000  0.177864  0.914607  1
  Ho  Ho4  1  0.000000  0.943999  0.371064  1
  Ho  Ho5  1  0.000000  0.057665  0.628391  1
  Ho  Ho6  1  0.000000  0.443232  0.129313  1
  Er  Er7  1  0.000000  0.556095  0.872109  1
  B  B8  1  0.500000  0.554805  0.432694  1
  B  B9  1  0.500000  0.446194  0.567925  1
  B  B10  1  0.500000  0.053342  0.066370  1
  B  B11  1  0.500000  0.945648  0.932593  1
  B  B12  1  0.500000  0.748604  0.419278  1
  B  B13  1  0.500000  0.252016  0.581621  1
  B  B14  1  0.500000  0.247710  0.080176  1
  B  B15  1  0.500000  0.751433  0.919607  1
  B  B16  1  0.500000  0.791772  0.265804  1
  B  B17  1  0.500000  0.209450  0.734609  1
  B  B18  1  0.500000  0.289999  0.233050  1
  B  B19  1  0.500000  0.708739  0.766342  1
  B  B20  1  0.500000  0.632446  0.185517  1
  B  B21  1  0.500000  0.368516  0.815486  1
  B  B22  1  0.500000  0.130985  0.313592  1
  B  B23  1  0.500000  0.868141  0.685229  1
  B  B24  1  0.500000  0.983338  0.211567  1
  B  B25  1  0.500000  0.016270  0.787526  1
  B  B26  1  0.500000  0.484628  0.287403  1
  B  B27  1  0.500000  0.516568  0.713093  1
  B  B28  1  0.500000  0.608015  0.029643  1
  B  B29  1  0.500000  0.392533  0.970394  1
  B  B30  1  0.500000  0.103767  0.471320  1
  B  B31  1  0.500000  0.894425  0.529159  1
  Ru  Ru32  1  0.000000  0.640237  0.320161  1
  Ru  Ru33  1  0.000000  0.362134  0.681072  1
  Ru  Ru34  1  0.000000  0.136512  0.176952  1
  Ru  Ru35  1  0.000000  0.861642  0.821161  1
