# generated using pymatgen
data_Sr2DyHo(BO4)2
_symmetry_space_group_name_H-M   'P 1'
_cell_length_a   3.66993300
_cell_length_b   9.73980849
_cell_length_c   10.97719668
_cell_angle_alpha   89.93662247
_cell_angle_beta   90.00000000
_cell_angle_gamma   90.00000000
_symmetry_Int_Tables_number   1
_chemical_formula_structural   Sr2DyHo(BO4)2
_chemical_formula_sum   'Sr4 Dy2 Ho2 B4 O16'
_cell_volume   392.37355839
_cell_formula_units_Z   2
loop_
 _symmetry_equiv_pos_site_id
 _symmetry_equiv_pos_as_xyz
  1  'x, y, z'
loop_
 _atom_site_type_symbol
 _atom_site_label
 _atom_site_symmetry_multiplicity
 _atom_site_fract_x
 _atom_site_fract_y
 _atom_site_fract_z
 _atom_site_occupancy
  Sr  Sr0  1  0.250000  0.658644  0.083916  1
  Sr  Sr1  1  0.750000  0.341356  0.916084  1
  Sr  Sr2  1  0.750000  0.158863  0.416287  1
  Sr  Sr3  1  0.250000  0.841137  0.583713  1
  Dy  Dy4  1  0.250000  0.080958  0.110568  1
  Dy  Dy5  1  0.750000  0.919042  0.889432  1
  Ho  Ho6  1  0.750000  0.580606  0.389881  1
  Ho  Ho7  1  0.250000  0.419394  0.610119  1
  B  B8  1  0.250000  0.363131  0.204581  1
  B  B9  1  0.750000  0.636869  0.795419  1
  B  B10  1  0.750000  0.862730  0.295638  1
  B  B11  1  0.250000  0.137270  0.704362  1
  O  O12  1  0.250000  0.489066  0.263861  1
  O  O13  1  0.750000  0.510934  0.736139  1
  O  O14  1  0.750000  0.988866  0.236389  1
  O  O15  1  0.250000  0.011134  0.763611  1
  O  O16  1  0.250000  0.239946  0.269644  1
  O  O17  1  0.750000  0.760054  0.730356  1
  O  O18  1  0.750000  0.739458  0.230967  1
  O  O19  1  0.250000  0.260542  0.769033  1
  O  O20  1  0.250000  0.357986  0.077091  1
  O  O21  1  0.750000  0.642014  0.922909  1
  O  O22  1  0.750000  0.857789  0.423099  1
  O  O23  1  0.250000  0.142211  0.576901  1
  O  O24  1  0.250000  0.612505  0.499695  1
  O  O25  1  0.750000  0.387495  0.500305  1
  O  O26  1  0.750000  0.113183  0.999829  1
  O  O27  1  0.250000  0.886817  0.000171  1
