# generated using pymatgen
data_Sc5V3(Co4As3)4
_symmetry_space_group_name_H-M   'P 1'
_cell_length_a   12.36032700
_cell_length_b   12.36032573
_cell_length_c   3.71562400
_cell_angle_alpha   90.00000000
_cell_angle_beta   90.00000000
_cell_angle_gamma   120.00000073
_symmetry_Int_Tables_number   1
_chemical_formula_structural   Sc5V3(Co4As3)4
_chemical_formula_sum   'Sc5 V3 Co16 As12'
_cell_volume   491.61176093
_cell_formula_units_Z   1
loop_
 _symmetry_equiv_pos_site_id
 _symmetry_equiv_pos_as_xyz
  1  'x, y, z'
loop_
 _atom_site_type_symbol
 _atom_site_label
 _atom_site_symmetry_multiplicity
 _atom_site_fract_x
 _atom_site_fract_y
 _atom_site_fract_z
 _atom_site_occupancy
  Sc  Sc0  1  0.815673  0.000000  0.500000  1
  Sc  Sc1  1  0.000000  0.815673  0.500000  1
  Sc  Sc2  1  0.184327  0.184327  0.500000  1
  Sc  Sc3  1  0.333333  0.666667  0.000000  1
  Sc  Sc4  1  0.666667  0.333333  0.000000  1
  V  V5  1  0.444755  0.000000  0.000000  1
  V  V6  1  0.000000  0.444755  0.000000  1
  V  V7  1  0.555245  0.555245  0.000000  1
  Co  Co8  1  0.284677  0.000000  0.500000  1
  Co  Co9  1  0.000000  0.284677  0.500000  1
  Co  Co10  1  0.715323  0.715323  0.500000  1
  Co  Co11  1  0.624364  0.800004  0.000000  1
  Co  Co12  1  0.199996  0.824360  0.000000  1
  Co  Co13  1  0.175640  0.375636  0.000000  1
  Co  Co14  1  0.375636  0.175640  0.000000  1
  Co  Co15  1  0.800004  0.624364  0.000000  1
  Co  Co16  1  0.824360  0.199996  0.000000  1
  Co  Co17  1  0.522021  0.874431  0.500000  1
  Co  Co18  1  0.125569  0.647590  0.500000  1
  Co  Co19  1  0.352410  0.477979  0.500000  1
  Co  Co20  1  0.477979  0.352410  0.500000  1
  Co  Co21  1  0.874431  0.522021  0.500000  1
  Co  Co22  1  0.647590  0.125569  0.500000  1
  Co  Co23  1  0.000000  0.000000  0.000000  1
  As  As24  1  0.176521  0.000000  0.000000  1
  As  As25  1  0.000000  0.176521  0.000000  1
  As  As26  1  0.823479  0.823479  0.000000  1
  As  As27  1  0.512857  0.680620  0.500000  1
  As  As28  1  0.319380  0.832237  0.500000  1
  As  As29  1  0.167763  0.487143  0.500000  1
  As  As30  1  0.487143  0.167763  0.500000  1
  As  As31  1  0.680620  0.512857  0.500000  1
  As  As32  1  0.832237  0.319380  0.500000  1
  As  As33  1  0.644820  0.000000  0.000000  1
  As  As34  1  0.000000  0.644820  0.000000  1
  As  As35  1  0.355180  0.355180  0.000000  1
