# generated using pymatgen
data_Pr2Y2Al15(GaIr2)3
_symmetry_space_group_name_H-M   'P 1'
_cell_length_a   7.57721699
_cell_length_b   7.57657541
_cell_length_c   9.62350200
_cell_angle_alpha   90.00000000
_cell_angle_beta   90.00000000
_cell_angle_gamma   119.36612214
_symmetry_Int_Tables_number   1
_chemical_formula_structural   Pr2Y2Al15(GaIr2)3
_chemical_formula_sum   'Pr2 Y2 Al15 Ga3 Ir6'
_cell_volume   481.48765976
_cell_formula_units_Z   1
loop_
 _symmetry_equiv_pos_site_id
 _symmetry_equiv_pos_as_xyz
  1  'x, y, z'
loop_
 _atom_site_type_symbol
 _atom_site_label
 _atom_site_symmetry_multiplicity
 _atom_site_fract_x
 _atom_site_fract_y
 _atom_site_fract_z
 _atom_site_occupancy
  Pr  Pr0  1  0.998348  0.674549  0.250000  1
  Pr  Pr1  1  0.669425  0.990770  0.250000  1
  Y  Y2  1  0.005566  0.325183  0.750000  1
  Y  Y3  1  0.324505  0.003964  0.750000  1
  Al  Al4  1  0.003222  0.335188  0.067646  1
  Al  Al5  1  0.998707  0.663596  0.923781  1
  Al  Al6  1  0.998707  0.663596  0.576219  1
  Al  Al7  1  0.336272  0.005661  0.432029  1
  Al  Al8  1  0.003222  0.335188  0.432354  1
  Al  Al9  1  0.663692  0.999208  0.576051  1
  Al  Al10  1  0.663692  0.999208  0.923949  1
  Al  Al11  1  0.336272  0.005661  0.067971  1
  Al  Al12  1  0.334103  0.334298  0.558625  1
  Al  Al13  1  0.665192  0.664660  0.455692  1
  Al  Al14  1  0.665192  0.664660  0.044308  1
  Al  Al15  1  0.334103  0.334298  0.941375  1
  Al  Al16  1  0.662045  0.449330  0.750000  1
  Al  Al17  1  0.547376  0.339521  0.250000  1
  Al  Al18  1  0.449691  0.662062  0.750000  1
  Ga  Ga19  1  0.135285  0.136061  0.250000  1
  Ga  Ga20  1  0.864974  0.864871  0.750000  1
  Ga  Ga21  1  0.338677  0.542294  0.250000  1
  Ir  Ir22  1  0.670520  0.329375  0.997949  1
  Ir  Ir23  1  0.328708  0.671697  0.995763  1
  Ir  Ir24  1  0.328708  0.671697  0.504237  1
  Ir  Ir25  1  0.670520  0.329375  0.502051  1
  Ir  Ir26  1  0.001637  0.002013  0.996993  1
  Ir  Ir27  1  0.001637  0.002013  0.503007  1
