# generated using pymatgen
data_Tb5Mn4(P4Ir5)3
_symmetry_space_group_name_H-M   'P 1'
_cell_length_a   12.48738512
_cell_length_b   12.55950539
_cell_length_c   3.95914200
_cell_angle_alpha   90.00000000
_cell_angle_beta   90.00000000
_cell_angle_gamma   119.68866517
_symmetry_Int_Tables_number   1
_chemical_formula_structural   Tb5Mn4(P4Ir5)3
_chemical_formula_sum   'Tb5 Mn4 P12 Ir15'
_cell_volume   539.42329462
_cell_formula_units_Z   1
loop_
 _symmetry_equiv_pos_site_id
 _symmetry_equiv_pos_as_xyz
  1  'x, y, z'
loop_
 _atom_site_type_symbol
 _atom_site_label
 _atom_site_symmetry_multiplicity
 _atom_site_fract_x
 _atom_site_fract_y
 _atom_site_fract_z
 _atom_site_occupancy
  Tb  Tb0  1  0.673480  0.335764  0.000000  1
  Tb  Tb1  1  0.330927  0.665648  0.000000  1
  Tb  Tb2  1  0.815431  0.815481  0.500000  1
  Tb  Tb3  1  0.182830  0.001125  0.500000  1
  Tb  Tb4  1  0.999109  0.184291  0.500000  1
  Mn  Mn5  1  0.293018  0.293198  0.500000  1
  Mn  Mn6  1  0.706958  0.999388  0.500000  1
  Mn  Mn7  1  0.997682  0.707108  0.500000  1
  Mn  Mn8  1  0.878132  0.360100  0.500000  1
  P  P9  1  0.700338  0.177209  0.500000  1
  P  P10  1  0.840559  0.515218  0.500000  1
  P  P11  1  0.479122  0.310938  0.500000  1
  P  P12  1  0.164178  0.689236  0.500000  1
  P  P13  1  0.522944  0.834221  0.500000  1
  P  P14  1  0.308661  0.476264  0.500000  1
  P  P15  1  0.639320  0.638308  0.000000  1
  P  P16  1  0.360924  0.001047  0.000000  1
  P  P17  1  0.989828  0.360492  0.000000  1
  P  P18  1  0.182969  0.184273  0.000000  1
  P  P19  1  0.815327  0.998324  0.000000  1
  P  P20  1  0.997278  0.816406  0.000000  1
  Ir  Ir21  1  0.801377  0.176553  0.000000  1
  Ir  Ir22  1  0.819718  0.625395  0.000000  1
  Ir  Ir23  1  0.376850  0.197256  0.000000  1
  Ir  Ir24  1  0.178438  0.805757  0.000000  1
  Ir  Ir25  1  0.622918  0.818841  0.000000  1
  Ir  Ir26  1  0.191689  0.374287  0.000000  1
  Ir  Ir27  1  0.453490  0.453388  0.000000  1
  Ir  Ir28  1  0.544525  0.997704  0.000000  1
  Ir  Ir29  1  0.998939  0.548983  0.000000  1
  Ir  Ir30  1  0.640748  0.506769  0.500000  1
  Ir  Ir31  1  0.495681  0.131036  0.500000  1
  Ir  Ir32  1  0.360153  0.869601  0.500000  1
  Ir  Ir33  1  0.508159  0.637046  0.500000  1
  Ir  Ir34  1  0.127705  0.492163  0.500000  1
  Ir  Ir35  1  0.000597  0.001181  0.000000  1
