# generated using pymatgen
data_Ac5(Yb2Rh3)2
_symmetry_space_group_name_H-M   'P 1'
_cell_length_a   7.73170541
_cell_length_b   7.77547618
_cell_length_c   7.77015789
_cell_angle_alpha   70.13134511
_cell_angle_beta   70.39591494
_cell_angle_gamma   70.57152170
_symmetry_Int_Tables_number   1
_chemical_formula_structural   Ac5(Yb2Rh3)2
_chemical_formula_sum   'Ac5 Yb4 Rh6'
_cell_volume   401.05700986
_cell_formula_units_Z   1
loop_
 _symmetry_equiv_pos_site_id
 _symmetry_equiv_pos_as_xyz
  1  'x, y, z'
loop_
 _atom_site_type_symbol
 _atom_site_label
 _atom_site_symmetry_multiplicity
 _atom_site_fract_x
 _atom_site_fract_y
 _atom_site_fract_z
 _atom_site_occupancy
  Ac  Ac0  1  0.672287  0.156035  0.396960  1
  Ac  Ac1  1  0.395014  0.677436  0.149627  1
  Ac  Ac2  1  0.856591  0.602321  0.326929  1
  Ac  Ac3  1  0.320455  0.845563  0.606324  1
  Ac  Ac4  1  0.602969  0.319739  0.847326  1
  Yb  Yb5  1  0.001751  0.009359  0.993869  1
  Yb  Yb6  1  0.810482  0.801615  0.802845  1
  Yb  Yb7  1  0.192878  0.191861  0.193791  1
  Yb  Yb8  1  0.147610  0.394373  0.685217  1
  Rh  Rh9  1  0.958738  0.169618  0.587060  1
  Rh  Rh10  1  0.583890  0.956212  0.169444  1
  Rh  Rh11  1  0.167702  0.574668  0.957448  1
  Rh  Rh12  1  0.042466  0.840029  0.412222  1
  Rh  Rh13  1  0.415410  0.041797  0.828836  1
  Rh  Rh14  1  0.831755  0.419375  0.042100  1
