# generated using pymatgen
data_NaTiIO6
_symmetry_space_group_name_H-M   'P 1'
_cell_length_a   5.20991000
_cell_length_b   5.20990951
_cell_length_c   5.23545400
_cell_angle_alpha   90.00000000
_cell_angle_beta   90.00000000
_cell_angle_gamma   119.99997772
_symmetry_Int_Tables_number   1
_chemical_formula_structural   NaTiIO6
_chemical_formula_sum   'Na1 Ti1 I1 O6'
_cell_volume   123.06809512
_cell_formula_units_Z   1
loop_
 _symmetry_equiv_pos_site_id
 _symmetry_equiv_pos_as_xyz
  1  'x, y, z'
loop_
 _atom_site_type_symbol
 _atom_site_label
 _atom_site_symmetry_multiplicity
 _atom_site_fract_x
 _atom_site_fract_y
 _atom_site_fract_z
 _atom_site_occupancy
  Na  Na0  1  0.666667  0.333333  0.500000  1
  Ti  Ti1  1  0.333333  0.666667  0.000000  1
  I  I2  1  0.000000  0.000000  0.000000  1
  O  O3  1  0.042237  0.322162  0.794651  1
  O  O4  1  0.279925  0.957763  0.794651  1
  O  O5  1  0.279925  0.322162  0.205349  1
  O  O6  1  0.677838  0.720075  0.794651  1
  O  O7  1  0.677838  0.957763  0.205349  1
  O  O8  1  0.042237  0.720075  0.205349  1
