# generated using pymatgen
data_Nd20Tc3Bi8Rh
_symmetry_space_group_name_H-M   'P 1'
_cell_length_a   8.36383581
_cell_length_b   9.19245900
_cell_length_c   12.80091700
_cell_angle_alpha   90.00000000
_cell_angle_beta   90.32410190
_cell_angle_gamma   90.00000000
_symmetry_Int_Tables_number   1
_chemical_formula_structural   Nd20Tc3Bi8Rh
_chemical_formula_sum   'Nd20 Tc3 Bi8 Rh1'
_cell_volume   984.17274456
_cell_formula_units_Z   1
loop_
 _symmetry_equiv_pos_site_id
 _symmetry_equiv_pos_as_xyz
  1  'x, y, z'
loop_
 _atom_site_type_symbol
 _atom_site_label
 _atom_site_symmetry_multiplicity
 _atom_site_fract_x
 _atom_site_fract_y
 _atom_site_fract_z
 _atom_site_occupancy
  Nd  Nd0  1  0.842454  0.750000  0.789389  1
  Nd  Nd1  1  0.153457  0.250000  0.209702  1
  Nd  Nd2  1  0.344754  0.250000  0.709367  1
  Nd  Nd3  1  0.650619  0.750000  0.295670  1
  Nd  Nd4  1  0.378457  0.750000  0.693084  1
  Nd  Nd5  1  0.620310  0.250000  0.306730  1
  Nd  Nd6  1  0.879007  0.250000  0.808398  1
  Nd  Nd7  1  0.125109  0.750000  0.193058  1
  Nd  Nd8  1  0.947970  0.750000  0.502661  1
  Nd  Nd9  1  0.055578  0.250000  0.496504  1
  Nd  Nd10  1  0.441608  0.250000  0.997386  1
  Nd  Nd11  1  0.555841  0.750000  0.004478  1
  Nd  Nd12  1  0.675773  0.037783  0.566584  1
  Nd  Nd13  1  0.323486  0.962359  0.433211  1
  Nd  Nd14  1  0.178661  0.961057  0.931230  1
  Nd  Nd15  1  0.323486  0.537641  0.433211  1
  Nd  Nd16  1  0.821265  0.041456  0.065554  1
  Nd  Nd17  1  0.675773  0.462217  0.566584  1
  Nd  Nd18  1  0.821265  0.458544  0.065554  1
  Nd  Nd19  1  0.178661  0.538943  0.931230  1
  Tc  Tc20  1  0.585923  0.750000  0.513979  1
  Tc  Tc21  1  0.416669  0.250000  0.488554  1
  Tc  Tc22  1  0.080599  0.250000  0.990571  1
  Bi  Bi23  1  0.573356  0.493364  0.828793  1
  Bi  Bi24  1  0.426363  0.506199  0.172327  1
  Bi  Bi25  1  0.072398  0.506060  0.672375  1
  Bi  Bi26  1  0.426363  0.993801  0.172327  1
  Bi  Bi27  1  0.926312  0.494250  0.326472  1
  Bi  Bi28  1  0.573356  0.006636  0.828793  1
  Bi  Bi29  1  0.926312  0.005750  0.326472  1
  Bi  Bi30  1  0.072398  0.993940  0.672375  1
  Rh  Rh31  1  0.926414  0.750000  0.007376  1
