# generated using pymatgen
data_HoTm4Zr5Pb6
_symmetry_space_group_name_H-M   'P 1'
_cell_length_a   8.84239035
_cell_length_b   8.85005548
_cell_length_c   6.09000300
_cell_angle_alpha   90.00000000
_cell_angle_beta   90.00000000
_cell_angle_gamma   119.64811546
_symmetry_Int_Tables_number   1
_chemical_formula_structural   HoTm4Zr5Pb6
_chemical_formula_sum   'Ho1 Tm4 Zr5 Pb6'
_cell_volume   414.18355457
_cell_formula_units_Z   1
loop_
 _symmetry_equiv_pos_site_id
 _symmetry_equiv_pos_as_xyz
  1  'x, y, z'
loop_
 _atom_site_type_symbol
 _atom_site_label
 _atom_site_symmetry_multiplicity
 _atom_site_fract_x
 _atom_site_fract_y
 _atom_site_fract_z
 _atom_site_occupancy
  Ho  Ho0  1  0.237609  0.001009  0.250000  1
  Tm  Tm1  1  0.756216  0.756296  0.250000  1
  Tm  Tm2  1  0.001050  0.237839  0.250000  1
  Tm  Tm3  1  0.763831  0.001734  0.750000  1
  Tm  Tm4  1  0.001598  0.763565  0.750000  1
  Zr  Zr5  1  0.332635  0.665019  0.500294  1
  Zr  Zr6  1  0.664853  0.332433  0.500292  1
  Zr  Zr7  1  0.332635  0.665019  0.999706  1
  Zr  Zr8  1  0.246537  0.246702  0.750000  1
  Zr  Zr9  1  0.664853  0.332433  0.999708  1
  Pb  Pb10  1  0.601629  0.601567  0.750000  1
  Pb  Pb11  1  0.395204  0.002531  0.750000  1
  Pb  Pb12  1  0.602204  0.000186  0.250000  1
  Pb  Pb13  1  0.002535  0.395158  0.750000  1
  Pb  Pb14  1  0.396748  0.397097  0.250000  1
  Pb  Pb15  1  0.999862  0.601409  0.250000  1
