# generated using pymatgen
data_Ba7Cr6CoF34
_symmetry_space_group_name_H-M   'P 1'
_cell_length_a   10.37828045
_cell_length_b   10.37827999
_cell_length_c   7.81951100
_cell_angle_alpha   80.36749955
_cell_angle_beta   80.36749999
_cell_angle_gamma   67.96042366
_symmetry_Int_Tables_number   1
_chemical_formula_structural   Ba7Cr6CoF34
_chemical_formula_sum   'Ba7 Cr6 Co1 F34'
_cell_volume   764.62424214
_cell_formula_units_Z   1
loop_
 _symmetry_equiv_pos_site_id
 _symmetry_equiv_pos_as_xyz
  1  'x, y, z'
loop_
 _atom_site_type_symbol
 _atom_site_label
 _atom_site_symmetry_multiplicity
 _atom_site_fract_x
 _atom_site_fract_y
 _atom_site_fract_z
 _atom_site_occupancy
  Ba  Ba0  1  0.440515  0.840483  0.701490  1
  Ba  Ba1  1  0.159517  0.559485  0.298510  1
  Ba  Ba2  1  0.559485  0.159517  0.298510  1
  Ba  Ba3  1  0.840483  0.440515  0.701490  1
  Ba  Ba4  1  0.735277  0.735277  0.124937  1
  Ba  Ba5  1  0.264723  0.264723  0.875063  1
  Ba  Ba6  1  0.000000  0.000000  0.000000  1
  Cr  Cr7  1  0.351729  0.867871  0.202645  1
  Cr  Cr8  1  0.132129  0.648271  0.797355  1
  Cr  Cr9  1  0.648271  0.132129  0.797355  1
  Cr  Cr10  1  0.867871  0.351729  0.202645  1
  Cr  Cr11  1  0.826313  0.826313  0.542008  1
  Cr  Cr12  1  0.173687  0.173687  0.457992  1
  Co  Co13  1  0.500000  0.500000  0.500000  1
  F  F14  1  0.566133  0.566133  0.676927  1
  F  F15  1  0.433867  0.433867  0.323073  1
  F  F16  1  0.889569  0.889569  0.307486  1
  F  F17  1  0.110431  0.110431  0.692514  1
  F  F18  1  0.747899  0.747899  0.762447  1
  F  F19  1  0.252101  0.252101  0.237553  1
  F  F20  1  0.353548  0.120374  0.542232  1
  F  F21  1  0.879626  0.646452  0.457768  1
  F  F22  1  0.646452  0.879626  0.457768  1
  F  F23  1  0.120374  0.353548  0.542232  1
  F  F24  1  0.229891  0.984858  0.386349  1
  F  F25  1  0.015142  0.770109  0.613651  1
  F  F26  1  0.770109  0.015142  0.613651  1
  F  F27  1  0.984858  0.229891  0.386349  1
  F  F28  1  0.245658  0.516681  0.967541  1
  F  F29  1  0.483319  0.754342  0.032459  1
  F  F30  1  0.754342  0.483319  0.032459  1
  F  F31  1  0.516681  0.245658  0.967541  1
  F  F32  1  0.004642  0.264528  0.011496  1
  F  F33  1  0.735472  0.995358  0.988504  1
  F  F34  1  0.995358  0.735472  0.988504  1
  F  F35  1  0.264528  0.004642  0.011496  1
  F  F36  1  0.044541  0.513425  0.800262  1
  F  F37  1  0.486575  0.955459  0.199738  1
  F  F38  1  0.955459  0.486575  0.199738  1
  F  F39  1  0.513425  0.044541  0.800262  1
  F  F40  1  0.792562  0.207611  0.200490  1
  F  F41  1  0.792389  0.207438  0.799510  1
  F  F42  1  0.207438  0.792389  0.799510  1
  F  F43  1  0.207611  0.792562  0.200490  1
  F  F44  1  0.278606  0.555704  0.612451  1
  F  F45  1  0.444296  0.721394  0.387549  1
  F  F46  1  0.721394  0.444296  0.387549  1
  F  F47  1  0.555704  0.278606  0.612451  1
