# generated using pymatgen
data_Er7Tm3(SnSb)3
_symmetry_space_group_name_H-M   'P 1'
_cell_length_a   8.87732702
_cell_length_b   8.87142603
_cell_length_c   6.38031909
_cell_angle_alpha   90.01723325
_cell_angle_beta   89.99968927
_cell_angle_gamma   120.02952455
_symmetry_Int_Tables_number   1
_chemical_formula_structural   Er7Tm3(SnSb)3
_chemical_formula_sum   'Er7 Tm3 Sn3 Sb3'
_cell_volume   435.03016920
_cell_formula_units_Z   1
loop_
 _symmetry_equiv_pos_site_id
 _symmetry_equiv_pos_as_xyz
  1  'x, y, z'
loop_
 _atom_site_type_symbol
 _atom_site_label
 _atom_site_symmetry_multiplicity
 _atom_site_fract_x
 _atom_site_fract_y
 _atom_site_fract_z
 _atom_site_occupancy
  Er  Er0  1  0.001143  0.760463  0.749964  1
  Er  Er1  1  0.001258  0.242170  0.250020  1
  Er  Er2  1  0.759062  0.757852  0.250019  1
  Er  Er3  1  0.757654  0.999966  0.749959  1
  Er  Er4  1  0.240658  0.239560  0.749917  1
  Er  Er5  1  0.239269  0.999985  0.250062  1
  Er  Er6  1  0.332948  0.666367  0.000003  1
  Tm  Tm7  1  0.332794  0.666315  0.500108  1
  Tm  Tm8  1  0.666441  0.333657  0.999885  1
  Tm  Tm9  1  0.666454  0.333677  0.500109  1
  Sn  Sn10  1  0.394123  0.000170  0.749827  1
  Sn  Sn11  1  0.393261  0.393279  0.250186  1
  Sn  Sn12  1  0.999574  0.606478  0.250167  1
  Sb  Sb13  1  0.999057  0.391387  0.749727  1
  Sb  Sb14  1  0.608023  0.608361  0.749760  1
  Sb  Sb15  1  0.608280  0.000314  0.250285  1
