# generated using pymatgen
data_Zr6PaNi10
_symmetry_space_group_name_H-M   'P 1'
_cell_length_a   7.75430542
_cell_length_b   7.75430650
_cell_length_c   9.19648800
_cell_angle_alpha   90.00000000
_cell_angle_beta   90.00000000
_cell_angle_gamma   106.96941251
_symmetry_Int_Tables_number   1
_chemical_formula_structural   Zr6PaNi10
_chemical_formula_sum   'Zr12 Pa2 Ni20'
_cell_volume   528.90175216
_cell_formula_units_Z   2
loop_
 _symmetry_equiv_pos_site_id
 _symmetry_equiv_pos_as_xyz
  1  'x, y, z'
loop_
 _atom_site_type_symbol
 _atom_site_label
 _atom_site_symmetry_multiplicity
 _atom_site_fract_x
 _atom_site_fract_y
 _atom_site_fract_z
 _atom_site_occupancy
  Zr  Zr0  1  0.188276  0.811724  0.000000  1
  Zr  Zr1  1  0.688276  0.311724  0.500000  1
  Zr  Zr2  1  0.313527  0.313527  0.686224  1
  Zr  Zr3  1  0.686473  0.686473  0.313776  1
  Zr  Zr4  1  0.811724  0.188276  0.000000  1
  Zr  Zr5  1  0.001112  0.501112  0.750000  1
  Zr  Zr6  1  0.998888  0.498888  0.250000  1
  Zr  Zr7  1  0.813527  0.813527  0.813776  1
  Zr  Zr8  1  0.498888  0.998888  0.250000  1
  Zr  Zr9  1  0.311724  0.688276  0.500000  1
  Zr  Zr10  1  0.501112  0.001112  0.750000  1
  Zr  Zr11  1  0.186473  0.186473  0.186224  1
  Pa  Pa12  1  0.500000  0.500000  0.000000  1
  Pa  Pa13  1  0.000000  0.000000  0.500000  1
  Ni  Ni14  1  0.894241  0.894241  0.106161  1
  Ni  Ni15  1  0.637645  0.347522  0.205886  1
  Ni  Ni16  1  0.061537  0.351395  0.492353  1
  Ni  Ni17  1  0.652478  0.362355  0.794114  1
  Ni  Ni18  1  0.847522  0.137645  0.294114  1
  Ni  Ni19  1  0.137645  0.847522  0.294114  1
  Ni  Ni20  1  0.605759  0.605759  0.606161  1
  Ni  Ni21  1  0.438463  0.148605  0.992353  1
  Ni  Ni22  1  0.362355  0.652478  0.794114  1
  Ni  Ni23  1  0.152478  0.862355  0.705886  1
  Ni  Ni24  1  0.148605  0.438463  0.992353  1
  Ni  Ni25  1  0.561537  0.851395  0.007647  1
  Ni  Ni26  1  0.938463  0.648605  0.507647  1
  Ni  Ni27  1  0.648605  0.938463  0.507647  1
  Ni  Ni28  1  0.105759  0.105759  0.893839  1
  Ni  Ni29  1  0.394241  0.394241  0.393839  1
  Ni  Ni30  1  0.851395  0.561537  0.007647  1
  Ni  Ni31  1  0.351395  0.061537  0.492353  1
  Ni  Ni32  1  0.862355  0.152478  0.705886  1
  Ni  Ni33  1  0.347522  0.637645  0.205886  1
