# generated using pymatgen
data_TbDyAl20IrRu3
_symmetry_space_group_name_H-M   'P 1'
_cell_length_a   6.86273231
_cell_length_b   6.86626804
_cell_length_c   9.16278928
_cell_angle_alpha   90.06919062
_cell_angle_beta   90.05319130
_cell_angle_gamma   96.73673271
_symmetry_Int_Tables_number   1
_chemical_formula_structural   TbDyAl20IrRu3
_chemical_formula_sum   'Tb1 Dy1 Al20 Ir1 Ru3'
_cell_volume   428.78148189
_cell_formula_units_Z   1
loop_
 _symmetry_equiv_pos_site_id
 _symmetry_equiv_pos_as_xyz
  1  'x, y, z'
loop_
 _atom_site_type_symbol
 _atom_site_label
 _atom_site_symmetry_multiplicity
 _atom_site_fract_x
 _atom_site_fract_y
 _atom_site_fract_z
 _atom_site_occupancy
  Tb  Tb0  1  0.128571  0.872911  0.249792  1
  Dy  Dy1  1  0.871228  0.127228  0.750241  1
  Al  Al2  1  0.620611  0.376107  0.551227  1
  Al  Al3  1  0.379479  0.623808  0.448840  1
  Al  Al4  1  0.377276  0.623256  0.050267  1
  Al  Al5  1  0.622814  0.376655  0.949654  1
  Al  Al6  1  0.226848  0.223983  0.498853  1
  Al  Al7  1  0.773114  0.776069  0.501312  1
  Al  Al8  1  0.774140  0.774701  0.000453  1
  Al  Al9  1  0.225814  0.225334  0.999381  1
  Al  Al10  1  0.843618  0.157069  0.100236  1
  Al  Al11  1  0.156275  0.843033  0.899669  1
  Al  Al12  1  0.158052  0.844856  0.601930  1
  Al  Al13  1  0.841843  0.155269  0.398154  1
  Al  Al14  1  0.857439  0.587518  0.751523  1
  Al  Al15  1  0.142485  0.412273  0.248478  1
  Al  Al16  1  0.413442  0.141837  0.750278  1
  Al  Al17  1  0.586779  0.858229  0.249720  1
  Al  Al18  1  0.221679  0.481094  0.752238  1
  Al  Al19  1  0.778209  0.518725  0.247758  1
  Al  Al20  1  0.518683  0.779382  0.749737  1
  Al  Al21  1  0.481508  0.220728  0.250271  1
  Ir  Ir22  1  0.999985  0.499966  0.500105  1
  Ru  Ru23  1  0.999979  0.499929  0.999878  1
  Ru  Ru24  1  0.500063  0.000015  0.999869  1
  Ru  Ru25  1  0.500065  0.000024  0.500134  1
