# generated using pymatgen
data_Ca4Cd3InAg4
_symmetry_space_group_name_H-M   'P 1'
_cell_length_a   7.46322760
_cell_length_b   4.52920200
_cell_length_c   8.87960413
_cell_angle_alpha   90.00000000
_cell_angle_beta   89.83607674
_cell_angle_gamma   90.00000000
_symmetry_Int_Tables_number   1
_chemical_formula_structural   Ca4Cd3InAg4
_chemical_formula_sum   'Ca4 Cd3 In1 Ag4'
_cell_volume   300.15128265
_cell_formula_units_Z   1
loop_
 _symmetry_equiv_pos_site_id
 _symmetry_equiv_pos_as_xyz
  1  'x, y, z'
loop_
 _atom_site_type_symbol
 _atom_site_label
 _atom_site_symmetry_multiplicity
 _atom_site_fract_x
 _atom_site_fract_y
 _atom_site_fract_z
 _atom_site_occupancy
  Ca  Ca0  1  0.466804  0.250001  0.185915  1
  Ca  Ca1  1  0.965151  0.250001  0.315850  1
  Ca  Ca2  1  0.033523  0.750001  0.684266  1
  Ca  Ca3  1  0.534483  0.750001  0.814202  1
  Cd  Cd4  1  0.651463  0.750001  0.438327  1
  Cd  Cd5  1  0.348228  0.250001  0.560371  1
  Cd  Cd6  1  0.847940  0.250001  0.938084  1
  In  In7  1  0.150958  0.750001  0.060278  1
  Ag  Ag8  1  0.762297  0.750001  0.126801  1
  Ag  Ag9  1  0.261300  0.750001  0.373693  1
  Ag  Ag10  1  0.739029  0.250001  0.626807  1
  Ag  Ag11  1  0.238823  0.250001  0.875407  1
