# generated using pymatgen
data_Lu20Cd6SiRu
_symmetry_space_group_name_H-M   'P 1'
_cell_length_a   9.31560783
_cell_length_b   9.31725886
_cell_length_c   9.80565605
_cell_angle_alpha   90.00011413
_cell_angle_beta   89.99772113
_cell_angle_gamma   119.99810229
_symmetry_Int_Tables_number   1
_chemical_formula_structural   Lu20Cd6SiRu
_chemical_formula_sum   'Lu20 Cd6 Si1 Ru1'
_cell_volume   737.08054879
_cell_formula_units_Z   1
loop_
 _symmetry_equiv_pos_site_id
 _symmetry_equiv_pos_as_xyz
  1  'x, y, z'
loop_
 _atom_site_type_symbol
 _atom_site_label
 _atom_site_symmetry_multiplicity
 _atom_site_fract_x
 _atom_site_fract_y
 _atom_site_fract_z
 _atom_site_occupancy
  Lu  Lu0  1  0.000159  0.000157  0.500020  1
  Lu  Lu1  1  0.999818  0.999775  0.999842  1
  Lu  Lu2  1  0.208701  0.791301  0.454369  1
  Lu  Lu3  1  0.208782  0.417499  0.454485  1
  Lu  Lu4  1  0.582609  0.791322  0.454325  1
  Lu  Lu5  1  0.788723  0.211212  0.554712  1
  Lu  Lu6  1  0.788765  0.577563  0.554715  1
  Lu  Lu7  1  0.422499  0.211268  0.554672  1
  Lu  Lu8  1  0.788712  0.211170  0.945304  1
  Lu  Lu9  1  0.788718  0.577463  0.945361  1
  Lu  Lu10  1  0.422401  0.211199  0.945327  1
  Lu  Lu11  1  0.208651  0.791254  0.045630  1
  Lu  Lu12  1  0.208661  0.417284  0.045673  1
  Lu  Lu13  1  0.582525  0.791243  0.045581  1
  Lu  Lu14  1  0.542102  0.458205  0.250018  1
  Lu  Lu15  1  0.542016  0.083866  0.249992  1
  Lu  Lu16  1  0.916239  0.458049  0.250032  1
  Lu  Lu17  1  0.461609  0.538296  0.750035  1
  Lu  Lu18  1  0.461574  0.923371  0.749997  1
  Lu  Lu19  1  0.076392  0.538179  0.750042  1
  Cd  Cd20  1  0.886651  0.114158  0.250072  1
  Cd  Cd21  1  0.886639  0.772507  0.250204  1
  Cd  Cd22  1  0.227969  0.114202  0.249738  1
  Cd  Cd23  1  0.112353  0.886951  0.749818  1
  Cd  Cd24  1  0.112501  0.225444  0.750092  1
  Cd  Cd25  1  0.774379  0.887182  0.749763  1
  Si  Si26  1  0.333293  0.666598  0.250011  1
  Ru  Ru27  1  0.666559  0.333283  0.750170  1
