# generated using pymatgen
data_CsTmCr2O8
_symmetry_space_group_name_H-M   'P 1'
_cell_length_a   5.76763600
_cell_length_b   5.76763661
_cell_length_c   8.31101000
_cell_angle_alpha   90.00000000
_cell_angle_beta   90.00000000
_cell_angle_gamma   119.99999650
_symmetry_Int_Tables_number   1
_chemical_formula_structural   CsTmCr2O8
_chemical_formula_sum   'Cs1 Tm1 Cr2 O8'
_cell_volume   239.43089317
_cell_formula_units_Z   1
loop_
 _symmetry_equiv_pos_site_id
 _symmetry_equiv_pos_as_xyz
  1  'x, y, z'
loop_
 _atom_site_type_symbol
 _atom_site_label
 _atom_site_symmetry_multiplicity
 _atom_site_fract_x
 _atom_site_fract_y
 _atom_site_fract_z
 _atom_site_occupancy
  Cs  Cs0  1  0.000000  0.000000  0.500000  1
  Tm  Tm1  1  0.000000  0.000000  0.000000  1
  Cr  Cr2  1  0.666666  0.333333  0.228653  1
  Cr  Cr3  1  0.333334  0.666667  0.771347  1
  O  O4  1  0.349190  0.174595  0.163181  1
  O  O5  1  0.825405  0.174595  0.163181  1
  O  O6  1  0.825404  0.650810  0.163181  1
  O  O7  1  0.666666  0.333333  0.424228  1
  O  O8  1  0.333334  0.666667  0.575772  1
  O  O9  1  0.174595  0.349189  0.836819  1
  O  O10  1  0.174596  0.825405  0.836819  1
  O  O11  1  0.650809  0.825405  0.836819  1
