# generated using pymatgen
data_Dy2GaCoIr
_symmetry_space_group_name_H-M   'P 1'
_cell_length_a   4.15670227
_cell_length_b   5.57724969
_cell_length_c   5.43565476
_cell_angle_alpha   120.86550637
_cell_angle_beta   112.47965871
_cell_angle_gamma   90.00000588
_symmetry_Int_Tables_number   1
_chemical_formula_structural   Dy2GaCoIr
_chemical_formula_sum   'Dy2 Ga1 Co1 Ir1'
_cell_volume   96.84368354
_cell_formula_units_Z   1
loop_
 _symmetry_equiv_pos_site_id
 _symmetry_equiv_pos_as_xyz
  1  'x, y, z'
loop_
 _atom_site_type_symbol
 _atom_site_label
 _atom_site_symmetry_multiplicity
 _atom_site_fract_x
 _atom_site_fract_y
 _atom_site_fract_z
 _atom_site_occupancy
  Dy  Dy0  1  0.794865  0.291933  0.589730  1
  Dy  Dy1  1  0.205135  0.702202  0.410270  1
  Ga  Ga2  1  0.000000  0.984275  0.000000  1
  Co  Co3  1  0.500000  0.735980  0.000000  1
  Ir  Ir4  1  0.500000  0.285610  0.000000  1
