# generated using pymatgen
data_Ta5Nb3V2(SiB2)2
_symmetry_space_group_name_H-M   'P 1'
_cell_length_a   7.23224260
_cell_length_b   7.23265936
_cell_length_c   7.23367180
_cell_angle_alpha   129.80139308
_cell_angle_beta   129.79985517
_cell_angle_gamma   73.71279495
_symmetry_Int_Tables_number   1
_chemical_formula_structural   Ta5Nb3V2(SiB2)2
_chemical_formula_sum   'Ta5 Nb3 V2 Si2 B4'
_cell_volume   217.91469635
_cell_formula_units_Z   1
loop_
 _symmetry_equiv_pos_site_id
 _symmetry_equiv_pos_as_xyz
  1  'x, y, z'
loop_
 _atom_site_type_symbol
 _atom_site_label
 _atom_site_symmetry_multiplicity
 _atom_site_fract_x
 _atom_site_fract_y
 _atom_site_fract_z
 _atom_site_occupancy
  Ta  Ta0  1  0.966479  0.466670  0.161010  1
  Ta  Ta1  1  0.194861  0.033177  0.500000  1
  Ta  Ta2  1  0.466012  0.305467  0.500000  1
  Ta  Ta3  1  0.805449  0.966058  0.500000  1
  Ta  Ta4  1  0.305469  0.805660  0.838990  1
  Nb  Nb5  1  0.533014  0.694192  0.500000  1
  Nb  Nb6  1  0.033370  0.533093  0.839041  1
  Nb  Nb7  1  0.694329  0.194053  0.160959  1
  V  V8  1  0.999536  0.999723  0.999795  1
  V  V9  1  0.499742  0.499929  0.000205  1
  Si  Si10  1  0.249731  0.249751  0.999866  1
  Si  Si11  1  0.749866  0.749886  0.000134  1
  B  B12  1  0.620333  0.121049  0.740364  1
  B  B13  1  0.121375  0.379598  0.500000  1
  B  B14  1  0.880467  0.621011  0.500000  1
  B  B15  1  0.379968  0.880684  0.259636  1
