# generated using pymatgen
data_Lu6Si24Os5Ru3
_symmetry_space_group_name_H-M   'P 1'
_cell_length_a   10.09182879
_cell_length_b   10.09182928
_cell_length_c   8.09771003
_cell_angle_alpha   90.00166221
_cell_angle_beta   90.00165686
_cell_angle_gamma   132.69315550
_symmetry_Int_Tables_number   1
_chemical_formula_structural   Lu6Si24Os5Ru3
_chemical_formula_sum   'Lu6 Si24 Os5 Ru3'
_cell_volume   606.15924050
_cell_formula_units_Z   1
loop_
 _symmetry_equiv_pos_site_id
 _symmetry_equiv_pos_as_xyz
  1  'x, y, z'
loop_
 _atom_site_type_symbol
 _atom_site_label
 _atom_site_symmetry_multiplicity
 _atom_site_fract_x
 _atom_site_fract_y
 _atom_site_fract_z
 _atom_site_occupancy
  Lu  Lu0  1  0.499515  0.499515  0.500034  1
  Lu  Lu1  1  0.999926  0.999926  0.999375  1
  Lu  Lu2  1  0.501493  0.001752  0.749424  1
  Lu  Lu3  1  0.998371  0.498063  0.250509  1
  Lu  Lu4  1  0.498063  0.998371  0.250509  1
  Lu  Lu5  1  0.001752  0.501493  0.749424  1
  Si  Si6  1  0.796084  0.204638  0.500396  1
  Si  Si7  1  0.295901  0.703626  0.000492  1
  Si  Si8  1  0.204638  0.796084  0.500396  1
  Si  Si9  1  0.703626  0.295901  0.000492  1
  Si  Si10  1  0.333073  0.333073  0.833213  1
  Si  Si11  1  0.667713  0.667713  0.167248  1
  Si  Si12  1  0.166555  0.166555  0.330895  1
  Si  Si13  1  0.830880  0.830880  0.666145  1
  Si  Si14  1  0.120936  0.886474  0.728220  1
  Si  Si15  1  0.114089  0.880467  0.272042  1
  Si  Si16  1  0.611029  0.377913  0.228741  1
  Si  Si17  1  0.622313  0.388730  0.771691  1
  Si  Si18  1  0.880467  0.114089  0.272042  1
  Si  Si19  1  0.886474  0.120936  0.728220  1
  Si  Si20  1  0.388730  0.622313  0.771691  1
  Si  Si21  1  0.377913  0.611029  0.228741  1
  Si  Si22  1  0.345304  0.111453  0.503898  1
  Si  Si23  1  0.888304  0.655265  0.496192  1
  Si  Si24  1  0.388132  0.154839  0.005898  1
  Si  Si25  1  0.845047  0.612417  0.994217  1
  Si  Si26  1  0.655265  0.888304  0.496192  1
  Si  Si27  1  0.111453  0.345304  0.503898  1
  Si  Si28  1  0.612417  0.845047  0.994217  1
  Si  Si29  1  0.154839  0.388132  0.005898  1
  Os  Os30  1  0.670304  0.330167  0.500155  1
  Os  Os31  1  0.170286  0.829069  0.000269  1
  Os  Os32  1  0.330167  0.670304  0.500155  1
  Os  Os33  1  0.829069  0.170286  0.000269  1
  Os  Os34  1  0.127053  0.127053  0.627186  1
  Ru  Ru35  1  0.872967  0.872967  0.372153  1
  Ru  Ru36  1  0.371962  0.371962  0.128081  1
  Ru  Ru37  1  0.627890  0.627890  0.871383  1
