# generated using pymatgen
data_Dy3ErGa18Ir5Au
_symmetry_space_group_name_H-M   'P 1'
_cell_length_a   7.63224889
_cell_length_b   7.63543955
_cell_length_c   9.49515464
_cell_angle_alpha   89.99504801
_cell_angle_beta   90.02045114
_cell_angle_gamma   119.82151164
_symmetry_Int_Tables_number   1
_chemical_formula_structural   Dy3ErGa18Ir5Au
_chemical_formula_sum   'Dy3 Er1 Ga18 Ir5 Au1'
_cell_volume   480.06220178
_cell_formula_units_Z   1
loop_
 _symmetry_equiv_pos_site_id
 _symmetry_equiv_pos_as_xyz
  1  'x, y, z'
loop_
 _atom_site_type_symbol
 _atom_site_label
 _atom_site_symmetry_multiplicity
 _atom_site_fract_x
 _atom_site_fract_y
 _atom_site_fract_z
 _atom_site_occupancy
  Dy  Dy0  1  0.996526  0.672720  0.750946  1
  Dy  Dy1  1  0.003474  0.327264  0.249102  1
  Dy  Dy2  1  0.672625  0.996432  0.750905  1
  Er  Er3  1  0.327292  0.003598  0.248865  1
  Ga  Ga4  1  0.135842  0.135715  0.755698  1
  Ga  Ga5  1  0.864753  0.864514  0.244623  1
  Ga  Ga6  1  0.998937  0.343797  0.584249  1
  Ga  Ga7  1  0.001702  0.657003  0.415191  1
  Ga  Ga8  1  0.002770  0.665455  0.079216  1
  Ga  Ga9  1  0.335064  0.997813  0.921544  1
  Ga  Ga10  1  0.997801  0.335070  0.921248  1
  Ga  Ga11  1  0.664532  0.002216  0.079182  1
  Ga  Ga12  1  0.655766  0.001237  0.415087  1
  Ga  Ga13  1  0.343625  0.998887  0.583850  1
  Ga  Ga14  1  0.331950  0.331433  0.066419  1
  Ga  Ga15  1  0.668159  0.668123  0.934187  1
  Ga  Ga16  1  0.657711  0.657738  0.572505  1
  Ga  Ga17  1  0.341830  0.341319  0.426778  1
  Ga  Ga18  1  0.336482  0.547883  0.751116  1
  Ga  Ga19  1  0.663335  0.451755  0.248853  1
  Ga  Ga20  1  0.547830  0.336375  0.751137  1
  Ga  Ga21  1  0.452099  0.663635  0.248811  1
  Ir  Ir22  1  0.671058  0.328985  0.499785  1
  Ir  Ir23  1  0.329004  0.671058  0.499764  1
  Ir  Ir24  1  0.328863  0.671174  0.000195  1
  Ir  Ir25  1  0.671177  0.328845  0.000213  1
  Ir  Ir26  1  0.000155  0.000108  0.000277  1
  Au  Au27  1  0.999638  0.999847  0.500253  1
