# generated using pymatgen
data_NaTbPr5RhBr12
_symmetry_space_group_name_H-M   'P 1'
_cell_length_a   9.55733646
_cell_length_b   9.53305509
_cell_length_c   9.64169787
_cell_angle_alpha   107.31975622
_cell_angle_beta   106.56520230
_cell_angle_gamma   107.03746354
_symmetry_Int_Tables_number   1
_chemical_formula_structural   NaTbPr5RhBr12
_chemical_formula_sum   'Na1 Tb1 Pr5 Rh1 Br12'
_cell_volume   732.08113866
_cell_formula_units_Z   1
loop_
 _symmetry_equiv_pos_site_id
 _symmetry_equiv_pos_as_xyz
  1  'x, y, z'
loop_
 _atom_site_type_symbol
 _atom_site_label
 _atom_site_symmetry_multiplicity
 _atom_site_fract_x
 _atom_site_fract_y
 _atom_site_fract_z
 _atom_site_occupancy
  Na  Na0  1  0.500091  0.500485  0.499472  1
  Tb  Tb1  1  0.887823  0.969989  0.678661  1
  Pr  Pr2  1  0.315290  0.109375  0.027487  1
  Pr  Pr3  1  0.028674  0.316915  0.107923  1
  Pr  Pr4  1  0.114321  0.029648  0.329647  1
  Pr  Pr5  1  0.684412  0.890385  0.972994  1
  Pr  Pr6  1  0.969859  0.680955  0.887351  1
  Rh  Rh7  1  0.999100  0.998659  0.998870  1
  Br  Br8  1  0.683310  0.220146  0.073982  1
  Br  Br9  1  0.072808  0.681890  0.216490  1
  Br  Br10  1  0.207722  0.070682  0.682984  1
  Br  Br11  1  0.316569  0.779416  0.925397  1
  Br  Br12  1  0.924423  0.306770  0.775588  1
  Br  Br13  1  0.783478  0.927960  0.324852  1
  Br  Br14  1  0.451978  0.153433  0.368622  1
  Br  Br15  1  0.371157  0.454057  0.154062  1
  Br  Br16  1  0.153154  0.371324  0.451173  1
  Br  Br17  1  0.559421  0.852342  0.630975  1
  Br  Br18  1  0.628560  0.545521  0.845056  1
  Br  Br19  1  0.847849  0.640048  0.548414  1
