# generated using pymatgen
data_Nd10SiBCl15
_symmetry_space_group_name_H-M   'P 1'
_cell_length_a   9.08644635
_cell_length_b   9.82799679
_cell_length_c   10.68251600
_cell_angle_alpha   90.81710496
_cell_angle_beta   114.66281932
_cell_angle_gamma   110.98561741
_symmetry_Int_Tables_number   1
_chemical_formula_structural   Nd10SiBCl15
_chemical_formula_sum   'Nd10 Si1 B1 Cl15'
_cell_volume   794.23234291
_cell_formula_units_Z   1
loop_
 _symmetry_equiv_pos_site_id
 _symmetry_equiv_pos_as_xyz
  1  'x, y, z'
loop_
 _atom_site_type_symbol
 _atom_site_label
 _atom_site_symmetry_multiplicity
 _atom_site_fract_x
 _atom_site_fract_y
 _atom_site_fract_z
 _atom_site_occupancy
  Nd  Nd0  1  0.811435  0.421122  0.278732  1
  Nd  Nd1  1  0.176416  0.568197  0.712868  1
  Nd  Nd2  1  0.690360  0.738825  0.814176  1
  Nd  Nd3  1  0.319413  0.259447  0.179734  1
  Nd  Nd4  1  0.529875  0.689254  0.112758  1
  Nd  Nd5  1  0.473054  0.300864  0.898257  1
  Nd  Nd6  1  0.591040  0.039242  0.334009  1
  Nd  Nd7  1  0.403254  0.965179  0.651936  1
  Nd  Nd8  1  0.746858  0.089729  0.057198  1
  Nd  Nd9  1  0.256116  0.924847  0.952916  1
  Si  Si10  1  0.467560  0.823730  0.879401  1
  B  B11  1  0.535109  0.184607  0.126552  1
  Cl  Cl12  1  0.998865  0.001987  0.001463  1
  Cl  Cl13  1  0.635339  0.882679  0.582990  1
  Cl  Cl14  1  0.364198  0.119200  0.410891  1
  Cl  Cl15  1  0.880215  0.296379  0.522157  1
  Cl  Cl16  1  0.113679  0.698891  0.473088  1
  Cl  Cl17  1  0.299237  0.766172  0.184713  1
  Cl  Cl18  1  0.700598  0.235753  0.816103  1
  Cl  Cl19  1  0.063437  0.352311  0.231952  1
  Cl  Cl20  1  0.169712  0.060516  0.704985  1
  Cl  Cl21  1  0.829693  0.941466  0.296640  1
  Cl  Cl22  1  0.235584  0.408150  0.944576  1
  Cl  Cl23  1  0.763418  0.586436  0.053015  1
  Cl  Cl24  1  0.406357  0.464823  0.659383  1
  Cl  Cl25  1  0.597276  0.529358  0.348337  1
  Cl  Cl26  1  0.941899  0.650836  0.771170  1
