# generated using pymatgen
data_TbNd4DyCoBr10
_symmetry_space_group_name_H-M   'P 1'
_cell_length_a   7.49730123
_cell_length_b   9.34981367
_cell_length_c   9.50160925
_cell_angle_alpha   108.62089597
_cell_angle_beta   96.17133317
_cell_angle_gamma   105.35065852
_symmetry_Int_Tables_number   1
_chemical_formula_structural   TbNd4DyCoBr10
_chemical_formula_sum   'Tb1 Nd4 Dy1 Co1 Br10'
_cell_volume   595.07294918
_cell_formula_units_Z   1
loop_
 _symmetry_equiv_pos_site_id
 _symmetry_equiv_pos_as_xyz
  1  'x, y, z'
loop_
 _atom_site_type_symbol
 _atom_site_label
 _atom_site_symmetry_multiplicity
 _atom_site_fract_x
 _atom_site_fract_y
 _atom_site_fract_z
 _atom_site_occupancy
  Tb  Tb0  1  0.644807  0.868924  0.325826  1
  Nd  Nd1  1  0.029883  0.712256  0.408652  1
  Nd  Nd2  1  0.970632  0.287934  0.591665  1
  Nd  Nd3  1  0.872615  0.952774  0.747295  1
  Nd  Nd4  1  0.128150  0.047670  0.252996  1
  Dy  Dy5  1  0.354047  0.130625  0.673585  1
  Co  Co6  1  0.000163  0.000104  0.500020  1
  Br  Br7  1  0.451235  0.825870  0.580606  1
  Br  Br8  1  0.548705  0.175220  0.420639  1
  Br  Br9  1  0.913961  0.630402  0.672912  1
  Br  Br10  1  0.086094  0.369705  0.327202  1
  Br  Br11  1  0.257075  0.085573  0.947365  1
  Br  Br12  1  0.743876  0.914745  0.051981  1
  Br  Br13  1  0.358657  0.445885  0.770253  1
  Br  Br14  1  0.642144  0.552850  0.229921  1
  Br  Br15  1  0.769973  0.252795  0.843702  1
  Br  Br16  1  0.227983  0.746668  0.155380  1
