# generated using pymatgen
data_Tb2Dy6Ti3Si16Tc9
_symmetry_space_group_name_H-M   'P 1'
_cell_length_a   6.79367720
_cell_length_b   6.79357964
_cell_length_c   12.97442375
_cell_angle_alpha   89.95219496
_cell_angle_beta   90.04841211
_cell_angle_gamma   89.37130542
_symmetry_Int_Tables_number   1
_chemical_formula_structural   Tb2Dy6Ti3Si16Tc9
_chemical_formula_sum   'Tb2 Dy6 Ti3 Si16 Tc9'
_cell_volume   598.77712658
_cell_formula_units_Z   1
loop_
 _symmetry_equiv_pos_site_id
 _symmetry_equiv_pos_as_xyz
  1  'x, y, z'
loop_
 _atom_site_type_symbol
 _atom_site_label
 _atom_site_symmetry_multiplicity
 _atom_site_fract_x
 _atom_site_fract_y
 _atom_site_fract_z
 _atom_site_occupancy
  Tb  Tb0  1  0.003056  0.336884  0.528750  1
  Tb  Tb1  1  0.997599  0.662463  0.028111  1
  Dy  Dy2  1  0.337357  0.002561  0.471302  1
  Dy  Dy3  1  0.509614  0.823539  0.716866  1
  Dy  Dy4  1  0.487851  0.179293  0.216666  1
  Dy  Dy5  1  0.823557  0.509580  0.283206  1
  Dy  Dy6  1  0.179315  0.487810  0.783398  1
  Dy  Dy7  1  0.661770  0.998374  0.971923  1
  Ti  Ti8  1  0.155471  0.845059  0.249103  1
  Ti  Ti9  1  0.845094  0.155483  0.751071  1
  Ti  Ti10  1  0.666194  0.666149  0.499960  1
  Si  Si11  1  0.211692  0.117490  0.681167  1
  Si  Si12  1  0.398042  0.680836  0.940535  1
  Si  Si13  1  0.610399  0.309124  0.438260  1
  Si  Si14  1  0.680665  0.397315  0.059430  1
  Si  Si15  1  0.309320  0.611259  0.561682  1
  Si  Si16  1  0.786798  0.884183  0.182733  1
  Si  Si17  1  0.117873  0.211317  0.318817  1
  Si  Si18  1  0.883851  0.787169  0.817240  1
  Si  Si19  1  0.262730  0.985762  0.055354  1
  Si  Si20  1  0.525309  0.803591  0.314150  1
  Si  Si21  1  0.471857  0.197860  0.815319  1
  Si  Si22  1  0.803312  0.525406  0.685932  1
  Si  Si23  1  0.198099  0.471643  0.184744  1
  Si  Si24  1  0.731017  0.022450  0.557480  1
  Si  Si25  1  0.985637  0.262038  0.944633  1
  Si  Si26  1  0.022590  0.731800  0.442500  1
  Tc  Tc27  1  0.334099  0.333788  0.999972  1
  Tc  Tc28  1  0.182507  0.981757  0.864470  1
  Tc  Tc29  1  0.473864  0.693142  0.132113  1
  Tc  Tc30  1  0.523781  0.314637  0.632773  1
  Tc  Tc31  1  0.692894  0.473384  0.867824  1
  Tc  Tc32  1  0.315028  0.524360  0.367123  1
  Tc  Tc33  1  0.817946  0.012044  0.363740  1
  Tc  Tc34  1  0.981786  0.182213  0.135472  1
  Tc  Tc35  1  0.012027  0.818235  0.636182  1
