# generated using pymatgen
data_Co6Si2Tc3W
_symmetry_space_group_name_H-M   'P 1'
_cell_length_a   4.72139500
_cell_length_b   4.72139474
_cell_length_c   7.35742800
_cell_angle_alpha   90.00000000
_cell_angle_beta   90.00000000
_cell_angle_gamma   119.99999481
_symmetry_Int_Tables_number   1
_chemical_formula_structural   Co6Si2Tc3W
_chemical_formula_sum   'Co6 Si2 Tc3 W1'
_cell_volume   142.03563683
_cell_formula_units_Z   1
loop_
 _symmetry_equiv_pos_site_id
 _symmetry_equiv_pos_as_xyz
  1  'x, y, z'
loop_
 _atom_site_type_symbol
 _atom_site_label
 _atom_site_symmetry_multiplicity
 _atom_site_fract_x
 _atom_site_fract_y
 _atom_site_fract_z
 _atom_site_occupancy
  Co  Co0  1  0.828143  0.171857  0.249185  1
  Co  Co1  1  0.828143  0.656285  0.249185  1
  Co  Co2  1  0.343715  0.171857  0.249185  1
  Co  Co3  1  0.171188  0.828812  0.750126  1
  Co  Co4  1  0.171188  0.342377  0.750126  1
  Co  Co5  1  0.657623  0.828812  0.750126  1
  Si  Si6  1  0.000000  0.000000  0.498500  1
  Si  Si7  1  0.000000  0.000000  0.999483  1
  Tc  Tc8  1  0.333333  0.666667  0.433452  1
  Tc  Tc9  1  0.666667  0.333333  0.567991  1
  Tc  Tc10  1  0.666667  0.333333  0.930622  1
  W  W11  1  0.333333  0.666667  0.072021  1
