# generated using pymatgen
data_Th6In8HgAs
_symmetry_space_group_name_H-M   'P 1'
_cell_length_a   8.56994040
_cell_length_b   8.56990850
_cell_length_c   8.56993400
_cell_angle_alpha   119.79669966
_cell_angle_beta   119.79685487
_cell_angle_gamma   90.35243362
_symmetry_Int_Tables_number   1
_chemical_formula_structural   Th6In8HgAs
_chemical_formula_sum   'Th6 In8 Hg1 As1'
_cell_volume   446.41548526
_cell_formula_units_Z   1
loop_
 _symmetry_equiv_pos_site_id
 _symmetry_equiv_pos_as_xyz
  1  'x, y, z'
loop_
 _atom_site_type_symbol
 _atom_site_label
 _atom_site_symmetry_multiplicity
 _atom_site_fract_x
 _atom_site_fract_y
 _atom_site_fract_z
 _atom_site_occupancy
  Th  Th0  1  0.761427  0.761449  0.000010  1
  Th  Th1  1  0.238573  0.238551  0.999990  1
  Th  Th2  1  0.673661  0.146749  0.820401  1
  Th  Th3  1  0.326339  0.853251  0.179599  1
  Th  Th4  1  0.146748  0.326481  0.473185  1
  Th  Th5  1  0.853252  0.673519  0.526815  1
  In  In6  1  0.334847  0.817020  0.789017  1
  In  In7  1  0.665153  0.182980  0.210983  1
  In  In8  1  0.027999  0.545835  0.210980  1
  In  In9  1  0.817017  0.027988  0.482181  1
  In  In10  1  0.454188  0.665177  0.482188  1
  In  In11  1  0.972001  0.454165  0.789020  1
  In  In12  1  0.182983  0.972012  0.517819  1
  In  In13  1  0.545812  0.334823  0.517812  1
  Hg  Hg14  1  0.500000  0.500000  0.000000  1
  As  As15  1  0.000000  0.000000  0.000000  1
