# generated using pymatgen
data_Hf4TiCrRe6
_symmetry_space_group_name_H-M   'P 1'
_cell_length_a   5.29995600
_cell_length_b   5.29995640
_cell_length_c   8.49267400
_cell_angle_alpha   90.00000000
_cell_angle_beta   90.00000000
_cell_angle_gamma   119.99999749
_symmetry_Int_Tables_number   1
_chemical_formula_structural   Hf4TiCrRe6
_chemical_formula_sum   'Hf4 Ti1 Cr1 Re6'
_cell_volume   206.59492911
_cell_formula_units_Z   1
loop_
 _symmetry_equiv_pos_site_id
 _symmetry_equiv_pos_as_xyz
  1  'x, y, z'
loop_
 _atom_site_type_symbol
 _atom_site_label
 _atom_site_symmetry_multiplicity
 _atom_site_fract_x
 _atom_site_fract_y
 _atom_site_fract_z
 _atom_site_occupancy
  Hf  Hf0  1  0.333333  0.666667  0.059484  1
  Hf  Hf1  1  0.666667  0.333333  0.564378  1
  Hf  Hf2  1  0.666667  0.333333  0.940516  1
  Hf  Hf3  1  0.333333  0.666667  0.435622  1
  Ti  Ti4  1  0.000000  0.000000  0.500000  1
  Cr  Cr5  1  0.000000  0.000000  0.000000  1
  Re  Re6  1  0.831019  0.662039  0.244439  1
  Re  Re7  1  0.168981  0.831019  0.755561  1
  Re  Re8  1  0.662039  0.831019  0.755561  1
  Re  Re9  1  0.337961  0.168981  0.244439  1
  Re  Re10  1  0.831019  0.168981  0.244439  1
  Re  Re11  1  0.168981  0.337961  0.755561  1
