# generated using pymatgen
data_HoEr11Lu8(CoSb2)4
_symmetry_space_group_name_H-M   'P 1'
_cell_length_a   7.72330900
_cell_length_b   8.73060100
_cell_length_c   12.06078300
_cell_angle_alpha   90.00000000
_cell_angle_beta   90.00309917
_cell_angle_gamma   90.00000000
_symmetry_Int_Tables_number   1
_chemical_formula_structural   HoEr11Lu8(CoSb2)4
_chemical_formula_sum   'Ho1 Er11 Lu8 Co4 Sb8'
_cell_volume   813.24809551
_cell_formula_units_Z   1
loop_
 _symmetry_equiv_pos_site_id
 _symmetry_equiv_pos_as_xyz
  1  'x, y, z'
loop_
 _atom_site_type_symbol
 _atom_site_label
 _atom_site_symmetry_multiplicity
 _atom_site_fract_x
 _atom_site_fract_y
 _atom_site_fract_z
 _atom_site_occupancy
  Ho  Ho0  1  0.876749  0.750000  0.808528  1
  Er  Er1  1  0.155381  0.750000  0.203945  1
  Er  Er2  1  0.655420  0.250000  0.296091  1
  Er  Er3  1  0.844594  0.250000  0.796052  1
  Er  Er4  1  0.344625  0.750000  0.703974  1
  Er  Er5  1  0.450506  0.750000  0.997754  1
  Er  Er6  1  0.950515  0.250000  0.502241  1
  Er  Er7  1  0.549456  0.250000  0.002264  1
  Er  Er8  1  0.049528  0.750000  0.497743  1
  Er  Er9  1  0.623031  0.750000  0.308773  1
  Er  Er10  1  0.123037  0.250000  0.191239  1
  Er  Er11  1  0.376968  0.250000  0.691229  1
  Lu  Lu12  1  0.825202  0.963230  0.065202  1
  Lu  Lu13  1  0.325213  0.036804  0.434869  1
  Lu  Lu14  1  0.174861  0.463093  0.934884  1
  Lu  Lu15  1  0.674788  0.536830  0.565123  1
  Lu  Lu16  1  0.174861  0.036907  0.934884  1
  Lu  Lu17  1  0.674788  0.963170  0.565123  1
  Lu  Lu18  1  0.825202  0.536770  0.065202  1
  Lu  Lu19  1  0.325213  0.463196  0.434869  1
  Co  Co20  1  0.433348  0.750000  0.491072  1
  Co  Co21  1  0.933387  0.250000  0.008917  1
  Co  Co22  1  0.566628  0.250000  0.508902  1
  Co  Co23  1  0.066707  0.750000  0.991182  1
  Sb  Sb24  1  0.931596  0.992051  0.327385  1
  Sb  Sb25  1  0.431594  0.007945  0.172611  1
  Sb  Sb26  1  0.068515  0.491964  0.672576  1
  Sb  Sb27  1  0.568291  0.507867  0.827398  1
  Sb  Sb28  1  0.068515  0.008036  0.672576  1
  Sb  Sb29  1  0.568291  0.992133  0.827398  1
  Sb  Sb30  1  0.931596  0.507949  0.327385  1
  Sb  Sb31  1  0.431594  0.492055  0.172611  1
