# generated using pymatgen
data_Dy4Ho6Os3Ru
_symmetry_space_group_name_H-M   'P 1'
_cell_length_a   6.35527015
_cell_length_b   7.31715671
_cell_length_c   8.42443757
_cell_angle_alpha   96.95699902
_cell_angle_beta   112.15701922
_cell_angle_gamma   89.84469775
_symmetry_Int_Tables_number   1
_chemical_formula_structural   Dy4Ho6Os3Ru
_chemical_formula_sum   'Dy4 Ho6 Os3 Ru1'
_cell_volume   359.76263611
_cell_formula_units_Z   1
loop_
 _symmetry_equiv_pos_site_id
 _symmetry_equiv_pos_as_xyz
  1  'x, y, z'
loop_
 _atom_site_type_symbol
 _atom_site_label
 _atom_site_symmetry_multiplicity
 _atom_site_fract_x
 _atom_site_fract_y
 _atom_site_fract_z
 _atom_site_occupancy
  Dy  Dy0  1  0.977672  0.915909  0.185130  1
  Dy  Dy1  1  0.791875  0.583572  0.814432  1
  Dy  Dy2  1  0.021796  0.083890  0.813305  1
  Dy  Dy3  1  0.207942  0.415595  0.185276  1
  Ho  Ho4  1  0.639506  0.815514  0.435025  1
  Ho  Ho5  1  0.204708  0.684674  0.565193  1
  Ho  Ho6  1  0.359733  0.185059  0.565810  1
  Ho  Ho7  1  0.796715  0.315957  0.435257  1
  Ho  Ho8  1  0.422131  0.749334  0.999500  1
  Ho  Ho9  1  0.578162  0.250685  0.999645  1
  Os  Os10  1  0.822751  0.576875  0.220117  1
  Os  Os11  1  0.602236  0.924357  0.779639  1
  Os  Os12  1  0.177549  0.423004  0.780398  1
  Ru  Ru13  1  0.397225  0.075576  0.221272  1
