# generated using pymatgen
data_TbY3(B10Pt)2
_symmetry_space_group_name_H-M   'P 1'
_cell_length_a   4.17449000
_cell_length_b   5.69763200
_cell_length_c   11.38753500
_cell_angle_alpha   89.99763099
_cell_angle_beta   90.00000000
_cell_angle_gamma   90.00000000
_symmetry_Int_Tables_number   1
_chemical_formula_structural   TbY3(B10Pt)2
_chemical_formula_sum   'Tb1 Y3 B20 Pt2'
_cell_volume   270.84919251
_cell_formula_units_Z   1
loop_
 _symmetry_equiv_pos_site_id
 _symmetry_equiv_pos_as_xyz
  1  'x, y, z'
loop_
 _atom_site_type_symbol
 _atom_site_label
 _atom_site_symmetry_multiplicity
 _atom_site_fract_x
 _atom_site_fract_y
 _atom_site_fract_z
 _atom_site_occupancy
  Tb  Tb0  1  0.500000  0.684879  0.141257  1
  Y  Y1  1  0.500000  0.184651  0.358709  1
  Y  Y2  1  0.500000  0.815351  0.641299  1
  Y  Y3  1  0.500000  0.315352  0.858688  1
  B  B4  1  0.000000  0.383704  0.044008  1
  B  B5  1  0.000000  0.616366  0.956034  1
  B  B6  1  0.000000  0.116323  0.543985  1
  B  B7  1  0.000000  0.883659  0.456029  1
  B  B8  1  0.000000  0.359903  0.197853  1
  B  B9  1  0.000000  0.640163  0.802107  1
  B  B10  1  0.000000  0.140157  0.697870  1
  B  B11  1  0.000000  0.859784  0.302103  1
  B  B12  1  0.000000  0.052608  0.193618  1
  B  B13  1  0.000000  0.947312  0.806347  1
  B  B14  1  0.000000  0.447323  0.693651  1
  B  B15  1  0.000000  0.552709  0.306334  1
  B  B16  1  0.303113  0.218140  0.120728  1
  B  B17  1  0.696877  0.781731  0.879324  1
  B  B18  1  0.303123  0.781731  0.879324  1
  B  B19  1  0.696883  0.281760  0.620706  1
  B  B20  1  0.696887  0.218140  0.120728  1
  B  B21  1  0.303113  0.718220  0.379297  1
  B  B22  1  0.696887  0.718220  0.379297  1
  B  B23  1  0.303117  0.281760  0.620706  1
  Pt  Pt24  1  0.000000  0.000037  0.999965  1
  Pt  Pt25  1  0.000000  0.500014  0.500031  1
