# generated using pymatgen
data_Cs4Zr2Ti4BBr17
_symmetry_space_group_name_H-M   'P 1'
_cell_length_a   12.69820200
_cell_length_b   12.69820200
_cell_length_c   11.69825900
_cell_angle_alpha   90.00000000
_cell_angle_beta   90.00000000
_cell_angle_gamma   90.00000000
_symmetry_Int_Tables_number   1
_chemical_formula_structural   Cs4Zr2Ti4BBr17
_chemical_formula_sum   'Cs8 Zr4 Ti8 B2 Br34'
_cell_volume   1886.27798180
_cell_formula_units_Z   2
loop_
 _symmetry_equiv_pos_site_id
 _symmetry_equiv_pos_as_xyz
  1  'x, y, z'
loop_
 _atom_site_type_symbol
 _atom_site_label
 _atom_site_symmetry_multiplicity
 _atom_site_fract_x
 _atom_site_fract_y
 _atom_site_fract_z
 _atom_site_occupancy
  Cs  Cs0  1  0.479303  0.722005  0.339726  1
  Cs  Cs1  1  0.020697  0.222005  0.660274  1
  Cs  Cs2  1  0.520697  0.277995  0.339726  1
  Cs  Cs3  1  0.979303  0.777995  0.660274  1
  Cs  Cs4  1  0.722005  0.520697  0.660274  1
  Cs  Cs5  1  0.777995  0.020697  0.339726  1
  Cs  Cs6  1  0.277995  0.479303  0.660274  1
  Cs  Cs7  1  0.222005  0.979303  0.339726  1
  Zr  Zr8  1  0.869691  0.630309  0.158801  1
  Zr  Zr9  1  0.630309  0.130309  0.841199  1
  Zr  Zr10  1  0.130309  0.369691  0.158801  1
  Zr  Zr11  1  0.369691  0.869691  0.841199  1
  Ti  Ti12  1  0.588077  0.911923  0.704359  1
  Ti  Ti13  1  0.911923  0.411923  0.295641  1
  Ti  Ti14  1  0.411923  0.088077  0.704359  1
  Ti  Ti15  1  0.088077  0.588077  0.295641  1
  Ti  Ti16  1  0.587526  0.912474  0.971160  1
  Ti  Ti17  1  0.912474  0.412474  0.028840  1
  Ti  Ti18  1  0.412474  0.087526  0.971160  1
  Ti  Ti19  1  0.087526  0.587526  0.028840  1
  B  B20  1  0.000000  0.500000  0.162530  1
  B  B21  1  0.500000  0.000000  0.837470  1
  Br  Br22  1  0.000000  0.500000  0.849165  1
  Br  Br23  1  0.500000  0.000000  0.150835  1
  Br  Br24  1  0.706696  0.793304  0.156854  1
  Br  Br25  1  0.793304  0.293304  0.843146  1
  Br  Br26  1  0.293304  0.206696  0.156854  1
  Br  Br27  1  0.206696  0.706696  0.843146  1
  Br  Br28  1  0.460583  0.752537  0.679636  1
  Br  Br29  1  0.039417  0.252537  0.320364  1
  Br  Br30  1  0.539417  0.247463  0.679636  1
  Br  Br31  1  0.960583  0.747463  0.320364  1
  Br  Br32  1  0.752537  0.539417  0.320364  1
  Br  Br33  1  0.747463  0.039417  0.679636  1
  Br  Br34  1  0.247463  0.460583  0.320364  1
  Br  Br35  1  0.252537  0.960583  0.679636  1
  Br  Br36  1  0.701009  0.798991  0.535509  1
  Br  Br37  1  0.798991  0.298991  0.464491  1
  Br  Br38  1  0.298991  0.201009  0.535509  1
  Br  Br39  1  0.201009  0.701009  0.464491  1
  Br  Br40  1  0.000000  0.500000  0.473366  1
  Br  Br41  1  0.500000  0.000000  0.526634  1
  Br  Br42  1  0.464633  0.751310  0.000213  1
  Br  Br43  1  0.035367  0.251310  0.999787  1
  Br  Br44  1  0.535367  0.248690  0.000213  1
  Br  Br45  1  0.964633  0.748690  0.999787  1
  Br  Br46  1  0.751310  0.535367  0.999787  1
  Br  Br47  1  0.748690  0.035367  0.000213  1
  Br  Br48  1  0.248690  0.464633  0.999787  1
  Br  Br49  1  0.251310  0.964633  0.000213  1
  Br  Br50  1  0.700599  0.799401  0.838925  1
  Br  Br51  1  0.799401  0.299401  0.161075  1
  Br  Br52  1  0.299401  0.200599  0.838925  1
  Br  Br53  1  0.200599  0.700599  0.161075  1
  Br  Br54  1  0.500000  0.500000  0.500000  1
  Br  Br55  1  0.000000  0.000000  0.500000  1
