# generated using pymatgen
data_Er2Tm8Sn5Bi
_symmetry_space_group_name_H-M   'P 1'
_cell_length_a   8.88357463
_cell_length_b   8.88127621
_cell_length_c   6.44529700
_cell_angle_alpha   90.00000000
_cell_angle_beta   90.00000000
_cell_angle_gamma   119.84893600
_symmetry_Int_Tables_number   1
_chemical_formula_structural   Er2Tm8Sn5Bi
_chemical_formula_sum   'Er2 Tm8 Sn5 Bi1'
_cell_volume   441.05807707
_cell_formula_units_Z   1
loop_
 _symmetry_equiv_pos_site_id
 _symmetry_equiv_pos_as_xyz
  1  'x, y, z'
loop_
 _atom_site_type_symbol
 _atom_site_label
 _atom_site_symmetry_multiplicity
 _atom_site_fract_x
 _atom_site_fract_y
 _atom_site_fract_z
 _atom_site_occupancy
  Er  Er0  1  0.765227  0.999862  0.750000  1
  Er  Er1  1  0.235895  0.242374  0.750000  1
  Tm  Tm2  1  0.993430  0.757802  0.750000  1
  Tm  Tm3  1  0.000691  0.238825  0.250000  1
  Tm  Tm4  1  0.761963  0.761252  0.250000  1
  Tm  Tm5  1  0.237369  0.000065  0.250000  1
  Tm  Tm6  1  0.332416  0.662185  0.498206  1
  Tm  Tm7  1  0.671014  0.337815  0.001860  1
  Tm  Tm8  1  0.671014  0.337815  0.498140  1
  Tm  Tm9  1  0.332416  0.662185  0.001794  1
  Sn  Sn10  1  0.394960  0.392697  0.250000  1
  Sn  Sn11  1  0.002460  0.606718  0.250000  1
  Sn  Sn12  1  0.999042  0.396255  0.750000  1
  Sn  Sn13  1  0.603863  0.604443  0.750000  1
  Sn  Sn14  1  0.605540  0.000133  0.250000  1
  Bi  Bi15  1  0.392697  0.999575  0.750000  1
