# generated using pymatgen
data_La5Pr3(Al5Br2)2
_symmetry_space_group_name_H-M   'P 1'
_cell_length_a   11.82213974
_cell_length_b   11.82213911
_cell_length_c   4.34179600
_cell_angle_alpha   90.00000000
_cell_angle_beta   90.00000000
_cell_angle_gamma   93.78727397
_symmetry_Int_Tables_number   1
_chemical_formula_structural   La5Pr3(Al5Br2)2
_chemical_formula_sum   'La5 Pr3 Al10 Br4'
_cell_volume   605.49714968
_cell_formula_units_Z   1
loop_
 _symmetry_equiv_pos_site_id
 _symmetry_equiv_pos_as_xyz
  1  'x, y, z'
loop_
 _atom_site_type_symbol
 _atom_site_label
 _atom_site_symmetry_multiplicity
 _atom_site_fract_x
 _atom_site_fract_y
 _atom_site_fract_z
 _atom_site_occupancy
  La  La0  1  0.039438  0.677699  0.500000  1
  La  La1  1  0.959537  0.323443  0.500000  1
  La  La2  1  0.265906  0.265906  0.000000  1
  La  La3  1  0.677699  0.039438  0.500000  1
  La  La4  1  0.323443  0.959537  0.500000  1
  Pr  Pr5  1  0.732922  0.732922  0.000000  1
  Pr  Pr6  1  0.365482  0.635401  0.000000  1
  Pr  Pr7  1  0.635401  0.365482  0.000000  1
  Al  Al8  1  0.579846  0.579846  0.500000  1
  Al  Al9  1  0.420947  0.420947  0.500000  1
  Al  Al10  1  0.216958  0.481442  0.500000  1
  Al  Al11  1  0.782965  0.519432  0.500000  1
  Al  Al12  1  0.529373  0.896801  0.000000  1
  Al  Al13  1  0.519432  0.782965  0.500000  1
  Al  Al14  1  0.471698  0.102328  0.000000  1
  Al  Al15  1  0.102328  0.471698  0.000000  1
  Al  Al16  1  0.481442  0.216958  0.500000  1
  Al  Al17  1  0.896801  0.529373  0.000000  1
  Br  Br18  1  0.875805  0.875805  0.500000  1
  Br  Br19  1  0.173492  0.826503  0.000000  1
  Br  Br20  1  0.122580  0.122580  0.500000  1
  Br  Br21  1  0.826503  0.173492  0.000000  1
