# generated using pymatgen
data_Ce3(ThS4)5
_symmetry_space_group_name_H-M   'P 1'
_cell_length_a   7.57532608
_cell_length_b   7.60034744
_cell_length_c   10.24941694
_cell_angle_alpha   89.95724415
_cell_angle_beta   89.97539571
_cell_angle_gamma   89.94398214
_symmetry_Int_Tables_number   1
_chemical_formula_structural   Ce3(ThS4)5
_chemical_formula_sum   'Ce3 Th5 S20'
_cell_volume   590.11080928
_cell_formula_units_Z   1
loop_
 _symmetry_equiv_pos_site_id
 _symmetry_equiv_pos_as_xyz
  1  'x, y, z'
loop_
 _atom_site_type_symbol
 _atom_site_label
 _atom_site_symmetry_multiplicity
 _atom_site_fract_x
 _atom_site_fract_y
 _atom_site_fract_z
 _atom_site_occupancy
  Ce  Ce0  1  0.235196  0.015560  0.850880  1
  Ce  Ce1  1  0.265624  0.517167  0.648211  1
  Ce  Ce2  1  0.734154  0.983141  0.648210  1
  Th  Th3  1  0.765238  0.482674  0.852165  1
  Th  Th4  1  0.765650  0.982912  0.145787  1
  Th  Th5  1  0.734456  0.483012  0.355012  1
  Th  Th6  1  0.265204  0.016939  0.354801  1
  Th  Th7  1  0.234766  0.517566  0.145766  1
  S  S8  1  0.362689  0.388264  0.394313  1
  S  S9  1  0.138298  0.889542  0.105591  1
  S  S10  1  0.863523  0.612771  0.107853  1
  S  S11  1  0.637136  0.111627  0.394305  1
  S  S12  1  0.634339  0.615099  0.608197  1
  S  S13  1  0.864074  0.112391  0.890210  1
  S  S14  1  0.137093  0.386652  0.890245  1
  S  S15  1  0.363461  0.887132  0.610079  1
  S  S16  1  0.898983  0.851563  0.399953  1
  S  S17  1  0.599803  0.350678  0.101326  1
  S  S18  1  0.398184  0.147861  0.100342  1
  S  S19  1  0.101212  0.648664  0.399977  1
  S  S20  1  0.100325  0.148189  0.602482  1
  S  S21  1  0.399560  0.648995  0.897150  1
  S  S22  1  0.599625  0.851633  0.897202  1
  S  S23  1  0.901489  0.350108  0.601584  1
  S  S24  1  0.999978  0.250073  0.248285  1
  S  S25  1  0.499974  0.750081  0.251783  1
  S  S26  1  0.000726  0.750584  0.751086  1
  S  S27  1  0.499239  0.249122  0.747209  1
