# generated using pymatgen
data_RbLa(POs)4
_symmetry_space_group_name_H-M   'P 1'
_cell_length_a   4.08526000
_cell_length_b   4.08526000
_cell_length_c   12.21139000
_cell_angle_alpha   90.00000000
_cell_angle_beta   90.00000000
_cell_angle_gamma   90.00000000
_symmetry_Int_Tables_number   1
_chemical_formula_structural   RbLa(POs)4
_chemical_formula_sum   'Rb1 La1 P4 Os4'
_cell_volume   203.80015275
_cell_formula_units_Z   1
loop_
 _symmetry_equiv_pos_site_id
 _symmetry_equiv_pos_as_xyz
  1  'x, y, z'
loop_
 _atom_site_type_symbol
 _atom_site_label
 _atom_site_symmetry_multiplicity
 _atom_site_fract_x
 _atom_site_fract_y
 _atom_site_fract_z
 _atom_site_occupancy
  Rb  Rb0  1  0.500000  0.500000  0.500000  1
  La  La1  1  0.000000  0.000000  0.000000  1
  P  P2  1  0.000000  0.000000  0.682956  1
  P  P3  1  0.000000  0.000000  0.317044  1
  P  P4  1  0.500000  0.500000  0.870351  1
  P  P5  1  0.500000  0.500000  0.129649  1
  Os  Os6  1  0.500000  0.000000  0.779373  1
  Os  Os7  1  0.000000  0.500000  0.779373  1
  Os  Os8  1  0.500000  0.000000  0.220627  1
  Os  Os9  1  0.000000  0.500000  0.220627  1
