# generated using pymatgen
data_Pr2GdHo5(WO6)4
_symmetry_space_group_name_H-M   'P 1'
_cell_length_a   5.46554800
_cell_length_b   7.79165120
_cell_length_c   11.54561555
_cell_angle_alpha   75.67921077
_cell_angle_beta   90.00000000
_cell_angle_gamma   90.00000000
_symmetry_Int_Tables_number   1
_chemical_formula_structural   Pr2GdHo5(WO6)4
_chemical_formula_sum   'Pr2 Gd1 Ho5 W4 O24'
_cell_volume   476.39910628
_cell_formula_units_Z   1
loop_
 _symmetry_equiv_pos_site_id
 _symmetry_equiv_pos_as_xyz
  1  'x, y, z'
loop_
 _atom_site_type_symbol
 _atom_site_label
 _atom_site_symmetry_multiplicity
 _atom_site_fract_x
 _atom_site_fract_y
 _atom_site_fract_z
 _atom_site_occupancy
  Pr  Pr0  1  0.684518  0.500000  0.750000  1
  Pr  Pr1  1  0.314417  0.500000  0.250000  1
  Gd  Gd2  1  0.743457  0.000000  0.750000  1
  Ho  Ho3  1  0.257861  0.000000  0.250000  1
  Ho  Ho4  1  0.185454  0.796524  0.576420  1
  Ho  Ho5  1  0.815851  0.795741  0.077951  1
  Ho  Ho6  1  0.185454  0.203476  0.923580  1
  Ho  Ho7  1  0.815851  0.204259  0.422049  1
  W  W8  1  0.253828  0.726244  0.885213  1
  W  W9  1  0.745701  0.729807  0.383748  1
  W  W10  1  0.253828  0.273756  0.614787  1
  W  W11  1  0.745701  0.270193  0.116252  1
  O  O12  1  0.048072  0.940358  0.898272  1
  O  O13  1  0.535401  0.839887  0.932632  1
  O  O14  1  0.956335  0.942364  0.395331  1
  O  O15  1  0.451378  0.793810  0.727184  1
  O  O16  1  0.464323  0.845761  0.430254  1
  O  O17  1  0.986491  0.718830  0.770440  1
  O  O18  1  0.545309  0.796707  0.226561  1
  O  O19  1  0.852655  0.644482  0.545300  1
  O  O20  1  0.346762  0.492142  0.887878  1
  O  O21  1  0.014250  0.721235  0.269288  1
  O  O22  1  0.346762  0.507858  0.612122  1
  O  O23  1  0.852655  0.355518  0.954700  1
  O  O24  1  0.143652  0.639143  0.045951  1
  O  O25  1  0.654410  0.495387  0.386303  1
  O  O26  1  0.986491  0.281170  0.729560  1
  O  O27  1  0.654410  0.504613  0.113697  1
  O  O28  1  0.143652  0.360857  0.454049  1
  O  O29  1  0.451378  0.206190  0.772816  1
  O  O30  1  0.014250  0.278765  0.230712  1
  O  O31  1  0.535401  0.160113  0.567368  1
  O  O32  1  0.545309  0.203293  0.273439  1
  O  O33  1  0.048072  0.059642  0.601728  1
  O  O34  1  0.464323  0.154239  0.069746  1
  O  O35  1  0.956335  0.057636  0.104669  1
