# generated using pymatgen
data_YbErTm(BPt2)3
_symmetry_space_group_name_H-M   'P 1'
_cell_length_a   5.37293100
_cell_length_b   5.39312644
_cell_length_c   7.78391000
_cell_angle_alpha   90.00000000
_cell_angle_beta   90.00000000
_cell_angle_gamma   120.11669931
_symmetry_Int_Tables_number   1
_chemical_formula_structural   YbErTm(BPt2)3
_chemical_formula_sum   'Yb1 Er1 Tm1 B3 Pt6'
_cell_volume   195.10499879
_cell_formula_units_Z   1
loop_
 _symmetry_equiv_pos_site_id
 _symmetry_equiv_pos_as_xyz
  1  'x, y, z'
loop_
 _atom_site_type_symbol
 _atom_site_label
 _atom_site_symmetry_multiplicity
 _atom_site_fract_x
 _atom_site_fract_y
 _atom_site_fract_z
 _atom_site_occupancy
  Yb  Yb0  1  0.000000  0.500000  0.166694  1
  Er  Er1  1  0.500000  0.500000  0.835894  1
  Tm  Tm2  1  0.500000  0.000000  0.497414  1
  B  B3  1  0.500000  0.500000  0.331659  1
  B  B4  1  0.500000  0.000000  0.001692  1
  B  B5  1  0.000000  0.500000  0.666648  1
  Pt  Pt6  1  0.153497  0.853280  0.831645  1
  Pt  Pt7  1  0.153389  0.300098  0.501617  1
  Pt  Pt8  1  0.702821  0.851475  0.166738  1
  Pt  Pt9  1  0.846503  0.146720  0.831645  1
  Pt  Pt10  1  0.846611  0.699902  0.501617  1
  Pt  Pt11  1  0.297179  0.148525  0.166738  1
