# generated using pymatgen
data_Ce2Pr3NdSe10
_symmetry_space_group_name_H-M   'P 1'
_cell_length_a   7.91779535
_cell_length_b   8.49182638
_cell_length_c   12.58356200
_cell_angle_alpha   90.00000000
_cell_angle_beta   90.00000000
_cell_angle_gamma   90.03405596
_symmetry_Int_Tables_number   1
_chemical_formula_structural   Ce2Pr3NdSe10
_chemical_formula_sum   'Ce4 Pr6 Nd2 Se20'
_cell_volume   846.07506286
_cell_formula_units_Z   2
loop_
 _symmetry_equiv_pos_site_id
 _symmetry_equiv_pos_as_xyz
  1  'x, y, z'
loop_
 _atom_site_type_symbol
 _atom_site_label
 _atom_site_symmetry_multiplicity
 _atom_site_fract_x
 _atom_site_fract_y
 _atom_site_fract_z
 _atom_site_occupancy
  Ce  Ce0  1  0.073544  0.750106  0.491136  1
  Ce  Ce1  1  0.426456  0.749894  0.991136  1
  Ce  Ce2  1  0.926471  0.249904  0.508718  1
  Ce  Ce3  1  0.573529  0.250096  0.008718  1
  Pr  Pr4  1  0.521773  0.499434  0.321784  1
  Pr  Pr5  1  0.978227  0.000566  0.821784  1
  Pr  Pr6  1  0.478341  0.999398  0.678120  1
  Pr  Pr7  1  0.021659  0.500602  0.178120  1
  Pr  Pr8  1  0.478285  0.500685  0.678219  1
  Pr  Pr9  1  0.021715  0.999315  0.178219  1
  Nd  Nd10  1  0.521076  0.000962  0.321432  1
  Nd  Nd11  1  0.978924  0.499038  0.821432  1
  Se  Se12  1  0.837252  0.955790  0.597111  1
  Se  Se13  1  0.662748  0.544210  0.097111  1
  Se  Se14  1  0.162761  0.455769  0.402875  1
  Se  Se15  1  0.337239  0.044231  0.902875  1
  Se  Se16  1  0.163972  0.044355  0.402989  1
  Se  Se17  1  0.336028  0.455645  0.902989  1
  Se  Se18  1  0.837673  0.543994  0.597670  1
  Se  Se19  1  0.662327  0.956006  0.097670  1
  Se  Se20  1  0.826292  0.750637  0.314439  1
  Se  Se21  1  0.673708  0.749363  0.814439  1
  Se  Se22  1  0.172685  0.250735  0.685971  1
  Se  Se23  1  0.327315  0.249265  0.185971  1
  Se  Se24  1  0.458137  0.750812  0.498694  1
  Se  Se25  1  0.041863  0.749188  0.998694  1
  Se  Se26  1  0.542099  0.249219  0.500535  1
  Se  Se27  1  0.957901  0.250781  0.000535  1
  Se  Se28  1  0.197572  0.749103  0.714902  1
  Se  Se29  1  0.302428  0.750897  0.214902  1
  Se  Se30  1  0.801315  0.249233  0.285406  1
  Se  Se31  1  0.698685  0.250767  0.785406  1
