# generated using pymatgen
data_Tm16Ga6FeIr
_symmetry_space_group_name_H-M   'P 1'
_cell_length_a   9.87675400
_cell_length_b   9.87675375
_cell_length_c   6.90012400
_cell_angle_alpha   90.00000000
_cell_angle_beta   90.00000000
_cell_angle_gamma   120.00000755
_symmetry_Int_Tables_number   1
_chemical_formula_structural   Tm16Ga6FeIr
_chemical_formula_sum   'Tm16 Ga6 Fe1 Ir1'
_cell_volume   582.92939633
_cell_formula_units_Z   1
loop_
 _symmetry_equiv_pos_site_id
 _symmetry_equiv_pos_as_xyz
  1  'x, y, z'
loop_
 _atom_site_type_symbol
 _atom_site_label
 _atom_site_symmetry_multiplicity
 _atom_site_fract_x
 _atom_site_fract_y
 _atom_site_fract_z
 _atom_site_occupancy
  Tm  Tm0  1  0.173413  0.826587  0.990220  1
  Tm  Tm1  1  0.342556  0.171278  0.487979  1
  Tm  Tm2  1  0.828722  0.657444  0.487979  1
  Tm  Tm3  1  0.173413  0.346824  0.990220  1
  Tm  Tm4  1  0.653176  0.826587  0.990220  1
  Tm  Tm5  1  0.828722  0.171278  0.487979  1
  Tm  Tm6  1  0.333333  0.666667  0.668797  1
  Tm  Tm7  1  0.666667  0.333333  0.160471  1
  Tm  Tm8  1  0.462712  0.537288  0.292321  1
  Tm  Tm9  1  0.933144  0.466573  0.795234  1
  Tm  Tm10  1  0.533427  0.066856  0.795234  1
  Tm  Tm11  1  0.462712  0.925422  0.292321  1
  Tm  Tm12  1  0.074578  0.537288  0.292321  1
  Tm  Tm13  1  0.533427  0.466573  0.795234  1
  Tm  Tm14  1  0.000000  0.000000  0.264976  1
  Tm  Tm15  1  0.000000  0.000000  0.767247  1
  Ga  Ga16  1  0.163660  0.836340  0.542415  1
  Ga  Ga17  1  0.326708  0.163354  0.042299  1
  Ga  Ga18  1  0.836646  0.673292  0.042299  1
  Ga  Ga19  1  0.163660  0.327318  0.542415  1
  Ga  Ga20  1  0.672682  0.836340  0.542415  1
  Ga  Ga21  1  0.836646  0.163354  0.042299  1
  Fe  Fe22  1  0.333333  0.666667  0.054293  1
  Ir  Ir23  1  0.666667  0.333333  0.556816  1
