# generated using pymatgen
data_Li3Ta2Al(SbPt)6
_symmetry_space_group_name_H-M   'P 1'
_cell_length_a   7.66093889
_cell_length_b   7.68687066
_cell_length_c   7.65894254
_cell_angle_alpha   99.65311879
_cell_angle_beta   99.47740027
_cell_angle_gamma   120.01341678
_symmetry_Int_Tables_number   1
_chemical_formula_structural   Li3Ta2Al(SbPt)6
_chemical_formula_sum   'Li3 Ta2 Al1 Sb6 Pt6'
_cell_volume   368.33720934
_cell_formula_units_Z   1
loop_
 _symmetry_equiv_pos_site_id
 _symmetry_equiv_pos_as_xyz
  1  'x, y, z'
loop_
 _atom_site_type_symbol
 _atom_site_label
 _atom_site_symmetry_multiplicity
 _atom_site_fract_x
 _atom_site_fract_y
 _atom_site_fract_z
 _atom_site_occupancy
  Li  Li0  1  0.335479  0.163133  0.499166  1
  Li  Li1  1  0.995456  0.502627  0.499196  1
  Li  Li2  1  0.165317  0.330609  0.998691  1
  Ta  Ta3  1  0.664934  0.832004  0.499566  1
  Ta  Ta4  1  0.831731  0.668976  0.001682  1
  Al  Al5  1  0.504472  0.996069  0.001649  1
  Sb  Sb6  1  0.937604  0.105307  0.245657  1
  Sb  Sb7  1  0.245489  0.741100  0.259133  1
  Sb  Sb8  1  0.572467  0.411415  0.257845  1
  Sb  Sb9  1  0.098618  0.924460  0.742220  1
  Sb  Sb10  1  0.755487  0.263587  0.742404  1
  Sb  Sb11  1  0.394004  0.562922  0.751884  1
  Pt  Pt12  1  0.209111  0.020102  0.112019  1
  Pt  Pt13  1  0.851380  0.369402  0.112481  1
  Pt  Pt14  1  0.558166  0.726642  0.131553  1
  Pt  Pt15  1  0.021478  0.188189  0.614133  1
  Pt  Pt16  1  0.397633  0.879139  0.641691  1
  Pt  Pt17  1  0.711130  0.564278  0.639030  1
