# generated using pymatgen
data_La2MgSi5AsPd20
_symmetry_space_group_name_H-M   'P 1'
_cell_length_a   8.77911236
_cell_length_b   8.77911237
_cell_length_c   8.75359600
_cell_angle_alpha   60.09609179
_cell_angle_beta   60.09609175
_cell_angle_gamma   59.80781060
_symmetry_Int_Tables_number   1
_chemical_formula_structural   La2MgSi5AsPd20
_chemical_formula_sum   'La2 Mg1 Si5 As1 Pd20'
_cell_volume   477.05162768
_cell_formula_units_Z   1
loop_
 _symmetry_equiv_pos_site_id
 _symmetry_equiv_pos_as_xyz
  1  'x, y, z'
loop_
 _atom_site_type_symbol
 _atom_site_label
 _atom_site_symmetry_multiplicity
 _atom_site_fract_x
 _atom_site_fract_y
 _atom_site_fract_z
 _atom_site_occupancy
  La  La0  1  0.750045  0.750045  0.749955  1
  La  La1  1  0.250045  0.250045  0.249955  1
  Mg  Mg2  1  0.001287  0.001287  0.998713  1
  Si  Si3  1  0.265458  0.265458  0.734542  1
  Si  Si4  1  0.734961  0.265153  0.734847  1
  Si  Si5  1  0.265153  0.734961  0.265039  1
  Si  Si6  1  0.265153  0.734961  0.734847  1
  Si  Si7  1  0.734961  0.265153  0.265039  1
  As  As8  1  0.735253  0.735253  0.264747  1
  Pd  Pd9  1  0.611934  0.611934  0.620883  1
  Pd  Pd10  1  0.385139  0.385139  0.386157  1
  Pd  Pd11  1  0.156436  0.613843  0.614861  1
  Pd  Pd12  1  0.613843  0.156436  0.614861  1
  Pd  Pd13  1  0.844751  0.379117  0.388066  1
  Pd  Pd14  1  0.379117  0.844751  0.388066  1
  Pd  Pd15  1  0.611934  0.611934  0.155249  1
  Pd  Pd16  1  0.385139  0.385139  0.843564  1
  Pd  Pd17  1  0.000488  0.000488  0.655455  1
  Pd  Pd18  1  0.000488  0.000488  0.343570  1
  Pd  Pd19  1  0.344545  0.656430  0.999512  1
  Pd  Pd20  1  0.656430  0.344545  0.999512  1
  Pd  Pd21  1  0.006009  0.654412  0.993991  1
  Pd  Pd22  1  0.654412  0.006009  0.345588  1
  Pd  Pd23  1  0.999950  0.343348  0.000050  1
  Pd  Pd24  1  0.343348  0.999950  0.656652  1
  Pd  Pd25  1  0.654412  0.006009  0.993991  1
  Pd  Pd26  1  0.343348  0.999950  0.000050  1
  Pd  Pd27  1  0.006009  0.654412  0.345588  1
  Pd  Pd28  1  0.999950  0.343348  0.656652  1
