# generated using pymatgen
data_ErTm2Al3Zn2Cu
_symmetry_space_group_name_H-M   'P 1'
_cell_length_a   6.82799800
_cell_length_b   6.83771128
_cell_length_c   4.29115100
_cell_angle_alpha   90.00000000
_cell_angle_beta   90.00000000
_cell_angle_gamma   119.95301985
_symmetry_Int_Tables_number   1
_chemical_formula_structural   ErTm2Al3Zn2Cu
_chemical_formula_sum   'Er1 Tm2 Al3 Zn2 Cu1'
_cell_volume   173.58571181
_cell_formula_units_Z   1
loop_
 _symmetry_equiv_pos_site_id
 _symmetry_equiv_pos_as_xyz
  1  'x, y, z'
loop_
 _atom_site_type_symbol
 _atom_site_label
 _atom_site_symmetry_multiplicity
 _atom_site_fract_x
 _atom_site_fract_y
 _atom_site_fract_z
 _atom_site_occupancy
  Er  Er0  1  0.585113  0.000000  0.500000  1
  Tm  Tm1  1  0.999504  0.585293  0.500000  1
  Tm  Tm2  1  0.414211  0.414707  0.500000  1
  Al  Al3  1  0.765635  0.765404  0.000000  1
  Al  Al4  1  0.000232  0.234596  0.000000  1
  Al  Al5  1  0.234929  0.000000  0.000000  1
  Zn  Zn6  1  0.332604  0.665825  0.000000  1
  Zn  Zn7  1  0.666781  0.334175  0.000000  1
  Cu  Cu8  1  0.000991  0.000000  0.500000  1
