# generated using pymatgen
data_Nd4Y9Lu7Bi12
_symmetry_space_group_name_H-M   'P 1'
_cell_length_a   8.27682295
_cell_length_b   9.49481655
_cell_length_c   12.11748743
_cell_angle_alpha   89.99681340
_cell_angle_beta   90.07405975
_cell_angle_gamma   89.98642253
_symmetry_Int_Tables_number   1
_chemical_formula_structural   Nd4Y9Lu7Bi12
_chemical_formula_sum   'Nd4 Y9 Lu7 Bi12'
_cell_volume   952.27513735
_cell_formula_units_Z   1
loop_
 _symmetry_equiv_pos_site_id
 _symmetry_equiv_pos_as_xyz
  1  'x, y, z'
loop_
 _atom_site_type_symbol
 _atom_site_label
 _atom_site_symmetry_multiplicity
 _atom_site_fract_x
 _atom_site_fract_y
 _atom_site_fract_z
 _atom_site_occupancy
  Nd  Nd0  1  0.184215  0.750396  0.720416  1
  Nd  Nd1  1  0.684409  0.750742  0.780075  1
  Nd  Nd2  1  0.816171  0.249887  0.279900  1
  Nd  Nd3  1  0.315627  0.250303  0.220123  1
  Y  Y4  1  0.191738  0.564086  0.440022  1
  Y  Y5  1  0.693053  0.561638  0.059923  1
  Y  Y6  1  0.193228  0.937899  0.439363  1
  Y  Y7  1  0.306906  0.061486  0.940080  1
  Y  Y8  1  0.807191  0.438068  0.560245  1
  Y  Y9  1  0.355453  0.751890  0.216194  1
  Y  Y10  1  0.852498  0.750823  0.282748  1
  Y  Y11  1  0.646112  0.250717  0.783187  1
  Y  Y12  1  0.146902  0.250632  0.717076  1
  Lu  Lu13  1  0.024012  0.750394  0.989387  1
  Lu  Lu14  1  0.525051  0.750567  0.510732  1
  Lu  Lu15  1  0.976010  0.250500  0.010519  1
  Lu  Lu16  1  0.476188  0.250009  0.489392  1
  Lu  Lu17  1  0.307727  0.431365  0.940345  1
  Lu  Lu18  1  0.806551  0.067816  0.560287  1
  Lu  Lu19  1  0.692310  0.931604  0.059295  1
  Bi  Bi20  1  0.435351  0.007402  0.670377  1
  Bi  Bi21  1  0.934890  0.493220  0.829848  1
  Bi  Bi22  1  0.565391  0.507505  0.329460  1
  Bi  Bi23  1  0.064702  0.993191  0.170197  1
  Bi  Bi24  1  0.566092  0.993437  0.330210  1
  Bi  Bi25  1  0.065641  0.507894  0.169792  1
  Bi  Bi26  1  0.433990  0.493234  0.669988  1
  Bi  Bi27  1  0.934083  0.007890  0.830175  1
  Bi  Bi28  1  0.404204  0.745081  0.960834  1
  Bi  Bi29  1  0.904583  0.755011  0.538791  1
  Bi  Bi30  1  0.595733  0.245418  0.038906  1
  Bi  Bi31  1  0.093990  0.249899  0.462116  1
