# generated using pymatgen
data_CeYInNiPd
_symmetry_space_group_name_H-M   'P 1'
_cell_length_a   7.65733700
_cell_length_b   7.65306700
_cell_length_c   3.69118800
_cell_angle_alpha   90.00000000
_cell_angle_beta   90.00000000
_cell_angle_gamma   90.00000000
_symmetry_Int_Tables_number   1
_chemical_formula_structural   CeYInNiPd
_chemical_formula_sum   'Ce2 Y2 In2 Ni2 Pd2'
_cell_volume   216.31141666
_cell_formula_units_Z   2
loop_
 _symmetry_equiv_pos_site_id
 _symmetry_equiv_pos_as_xyz
  1  'x, y, z'
loop_
 _atom_site_type_symbol
 _atom_site_label
 _atom_site_symmetry_multiplicity
 _atom_site_fract_x
 _atom_site_fract_y
 _atom_site_fract_z
 _atom_site_occupancy
  Ce  Ce0  1  0.177347  0.316795  0.500000  1
  Ce  Ce1  1  0.677347  0.183205  0.500000  1
  Y  Y2  1  0.325508  0.833599  0.500000  1
  Y  Y3  1  0.825508  0.666401  0.500000  1
  In  In4  1  0.001266  0.997202  0.000000  1
  In  In5  1  0.501266  0.502798  0.000000  1
  Ni  Ni6  1  0.374190  0.142942  0.000000  1
  Ni  Ni7  1  0.874190  0.357058  0.000000  1
  Pd  Pd8  1  0.121690  0.614968  0.000000  1
  Pd  Pd9  1  0.621690  0.885032  0.000000  1
