# generated using pymatgen
data_Ce(Ga2Pd)2
_symmetry_space_group_name_H-M   'P 1'
_cell_length_a   4.36095700
_cell_length_b   6.64434500
_cell_length_c   17.41150600
_cell_angle_alpha   90.00000000
_cell_angle_beta   90.00000000
_cell_angle_gamma   90.00000000
_symmetry_Int_Tables_number   1
_chemical_formula_structural   Ce(Ga2Pd)2
_chemical_formula_sum   'Ce4 Ga16 Pd8'
_cell_volume   504.51062382
_cell_formula_units_Z   4
loop_
 _symmetry_equiv_pos_site_id
 _symmetry_equiv_pos_as_xyz
  1  'x, y, z'
loop_
 _atom_site_type_symbol
 _atom_site_label
 _atom_site_symmetry_multiplicity
 _atom_site_fract_x
 _atom_site_fract_y
 _atom_site_fract_z
 _atom_site_occupancy
  Ce  Ce0  1  0.750000  0.985304  0.639086  1
  Ce  Ce1  1  0.250000  0.485304  0.860914  1
  Ce  Ce2  1  0.750000  0.514696  0.139086  1
  Ce  Ce3  1  0.250000  0.014696  0.360914  1
  Ga  Ga4  1  0.250000  0.225612  0.190003  1
  Ga  Ga5  1  0.250000  0.487124  0.428647  1
  Ga  Ga6  1  0.250000  0.012876  0.928647  1
  Ga  Ga7  1  0.250000  0.824405  0.183599  1
  Ga  Ga8  1  0.250000  0.675595  0.683599  1
  Ga  Ga9  1  0.250000  0.274388  0.690003  1
  Ga  Ga10  1  0.250000  0.166741  0.537404  1
  Ga  Ga11  1  0.750000  0.987124  0.071353  1
  Ga  Ga12  1  0.750000  0.175595  0.816401  1
  Ga  Ga13  1  0.250000  0.333259  0.037404  1
  Ga  Ga14  1  0.750000  0.833259  0.462596  1
  Ga  Ga15  1  0.750000  0.666741  0.962596  1
  Ga  Ga16  1  0.750000  0.774388  0.809997  1
  Ga  Ga17  1  0.750000  0.512876  0.571353  1
  Ga  Ga18  1  0.750000  0.324405  0.316401  1
  Ga  Ga19  1  0.750000  0.725612  0.309997  1
  Pd  Pd20  1  0.250000  0.970566  0.782930  1
  Pd  Pd21  1  0.750000  0.029434  0.217070  1
  Pd  Pd22  1  0.250000  0.529434  0.282930  1
  Pd  Pd23  1  0.250000  0.752836  0.535454  1
  Pd  Pd24  1  0.250000  0.747164  0.035454  1
  Pd  Pd25  1  0.750000  0.247164  0.464546  1
  Pd  Pd26  1  0.750000  0.252836  0.964546  1
  Pd  Pd27  1  0.750000  0.470566  0.717070  1
