# generated using pymatgen
data_Nd8Y9Ho3Pb16
_symmetry_space_group_name_H-M   'P 1'
_cell_length_a   8.30140007
_cell_length_b   15.89531246
_cell_length_c   8.39634200
_cell_angle_alpha   90.00244390
_cell_angle_beta   90.00728155
_cell_angle_gamma   90.02440263
_symmetry_Int_Tables_number   1
_chemical_formula_structural   Nd8Y9Ho3Pb16
_chemical_formula_sum   'Nd8 Y9 Ho3 Pb16'
_cell_volume   1107.92532648
_cell_formula_units_Z   1
loop_
 _symmetry_equiv_pos_site_id
 _symmetry_equiv_pos_as_xyz
  1  'x, y, z'
loop_
 _atom_site_type_symbol
 _atom_site_label
 _atom_site_symmetry_multiplicity
 _atom_site_fract_x
 _atom_site_fract_y
 _atom_site_fract_z
 _atom_site_occupancy
  Nd  Nd0  1  0.473519  0.597915  0.677468  1
  Nd  Nd1  1  0.973720  0.901753  0.823147  1
  Nd  Nd2  1  0.526786  0.098160  0.322678  1
  Nd  Nd3  1  0.026384  0.401723  0.177019  1
  Nd  Nd4  1  0.526353  0.401644  0.322387  1
  Nd  Nd5  1  0.026322  0.098296  0.177116  1
  Nd  Nd6  1  0.473541  0.902081  0.677632  1
  Nd  Nd7  1  0.973595  0.598315  0.823034  1
  Y  Y8  1  0.631697  0.622037  0.158756  1
  Y  Y9  1  0.132013  0.877699  0.341187  1
  Y  Y10  1  0.367856  0.122059  0.841233  1
  Y  Y11  1  0.868219  0.377654  0.658792  1
  Y  Y12  1  0.367868  0.377815  0.841301  1
  Y  Y13  1  0.868437  0.122519  0.658613  1
  Y  Y14  1  0.632013  0.878089  0.158509  1
  Y  Y15  1  0.132141  0.622241  0.341208  1
  Y  Y16  1  0.798859  0.749977  0.495980  1
  Ho  Ho17  1  0.298733  0.749949  0.004676  1
  Ho  Ho18  1  0.201278  0.249994  0.504608  1
  Ho  Ho19  1  0.701045  0.250034  0.995308  1
  Pb  Pb20  1  0.708021  0.456614  0.961734  1
  Pb  Pb21  1  0.208047  0.043615  0.537433  1
  Pb  Pb22  1  0.291674  0.956470  0.038325  1
  Pb  Pb23  1  0.792114  0.543236  0.462093  1
  Pb  Pb24  1  0.291601  0.543447  0.038101  1
  Pb  Pb25  1  0.792246  0.956708  0.462296  1
  Pb  Pb26  1  0.708314  0.043577  0.961433  1
  Pb  Pb27  1  0.208021  0.456346  0.537452  1
  Pb  Pb28  1  0.436845  0.750102  0.371369  1
  Pb  Pb29  1  0.937158  0.749914  0.127581  1
  Pb  Pb30  1  0.562748  0.250041  0.628396  1
  Pb  Pb31  1  0.062750  0.250172  0.872252  1
  Pb  Pb32  1  0.661155  0.749998  0.849988  1
  Pb  Pb33  1  0.163007  0.750051  0.651123  1
  Pb  Pb34  1  0.338098  0.249722  0.150880  1
  Pb  Pb35  1  0.837820  0.250029  0.348891  1
