# generated using pymatgen
data_Er4Tm2Zn23P
_symmetry_space_group_name_H-M   'P 1'
_cell_length_a   9.00522519
_cell_length_b   9.00523396
_cell_length_c   9.00582100
_cell_angle_alpha   59.99791640
_cell_angle_beta   59.99803708
_cell_angle_gamma   60.00464951
_symmetry_Int_Tables_number   1
_chemical_formula_structural   Er4Tm2Zn23P
_chemical_formula_sum   'Er4 Tm2 Zn23 P1'
_cell_volume   516.41620964
_cell_formula_units_Z   1
loop_
 _symmetry_equiv_pos_site_id
 _symmetry_equiv_pos_as_xyz
  1  'x, y, z'
loop_
 _atom_site_type_symbol
 _atom_site_label
 _atom_site_symmetry_multiplicity
 _atom_site_fract_x
 _atom_site_fract_y
 _atom_site_fract_z
 _atom_site_occupancy
  Er  Er0  1  0.711537  0.711348  0.288558  1
  Er  Er1  1  0.288666  0.711334  0.711431  1
  Er  Er2  1  0.288670  0.711329  0.288566  1
  Er  Er3  1  0.288652  0.288462  0.711445  1
  Tm  Tm4  1  0.711251  0.288749  0.288843  1
  Tm  Tm5  1  0.711250  0.288751  0.711158  1
  Zn  Zn6  1  0.624345  0.125499  0.125076  1
  Zn  Zn7  1  0.125265  0.624139  0.125297  1
  Zn  Zn8  1  0.124959  0.125415  0.624244  1
  Zn  Zn9  1  0.124960  0.125416  0.125383  1
  Zn  Zn10  1  0.375861  0.874735  0.874702  1
  Zn  Zn11  1  0.874503  0.375655  0.874923  1
  Zn  Zn12  1  0.874585  0.875040  0.375757  1
  Zn  Zn13  1  0.874584  0.875039  0.874617  1
  Zn  Zn14  1  0.500129  0.000034  0.999886  1
  Zn  Zn15  1  0.500129  0.000035  0.499950  1
  Zn  Zn16  1  0.500180  0.499821  0.999998  1
  Zn  Zn17  1  0.999964  0.499871  0.500051  1
  Zn  Zn18  1  0.999964  0.499869  0.000115  1
  Zn  Zn19  1  0.999847  0.000153  0.500000  1
  Zn  Zn20  1  0.999987  0.000014  0.999999  1
  Zn  Zn21  1  0.009565  0.330028  0.330204  1
  Zn  Zn22  1  0.330024  0.009971  0.330004  1
  Zn  Zn23  1  0.330200  0.330006  0.009769  1
  Zn  Zn24  1  0.330201  0.330002  0.330026  1
  Zn  Zn25  1  0.990030  0.669975  0.669996  1
  Zn  Zn26  1  0.669970  0.990437  0.669797  1
  Zn  Zn27  1  0.669995  0.669801  0.990228  1
  Zn  Zn28  1  0.669996  0.669803  0.669974  1
  P  P29  1  0.500730  0.499270  0.500000  1
