# generated using pymatgen
data_Ba2SiAgBr
_symmetry_space_group_name_H-M   'P 1'
_cell_length_a   4.64758200
_cell_length_b   4.64758466
_cell_length_c   18.03695000
_cell_angle_alpha   90.00000000
_cell_angle_beta   90.00000000
_cell_angle_gamma   120.00000951
_symmetry_Int_Tables_number   1
_chemical_formula_structural   Ba2SiAgBr
_chemical_formula_sum   'Ba4 Si2 Ag2 Br2'
_cell_volume   337.40231844
_cell_formula_units_Z   2
loop_
 _symmetry_equiv_pos_site_id
 _symmetry_equiv_pos_as_xyz
  1  'x, y, z'
loop_
 _atom_site_type_symbol
 _atom_site_label
 _atom_site_symmetry_multiplicity
 _atom_site_fract_x
 _atom_site_fract_y
 _atom_site_fract_z
 _atom_site_occupancy
  Ba  Ba0  1  0.000000  0.000000  0.383512  1
  Ba  Ba1  1  0.000000  0.000000  0.883512  1
  Ba  Ba2  1  0.000000  0.000000  0.615995  1
  Ba  Ba3  1  0.000000  0.000000  0.115995  1
  Si  Si4  1  0.666667  0.333333  0.498999  1
  Si  Si5  1  0.333333  0.666667  0.998999  1
  Ag  Ag6  1  0.333333  0.666667  0.500388  1
  Ag  Ag7  1  0.666667  0.333333  0.000388  1
  Br  Br8  1  0.333333  0.666667  0.251106  1
  Br  Br9  1  0.666667  0.333333  0.751106  1
