# generated using pymatgen
data_Sm3Dy4Pa(ReB6)4
_symmetry_space_group_name_H-M   'P 1'
_cell_length_a   3.71859900
_cell_length_b   9.21865257
_cell_length_c   11.61814500
_cell_angle_alpha   90.17851410
_cell_angle_beta   90.00000000
_cell_angle_gamma   90.00000000
_symmetry_Int_Tables_number   1
_chemical_formula_structural   Sm3Dy4Pa(ReB6)4
_chemical_formula_sum   'Sm3 Dy4 Pa1 Re4 B24'
_cell_volume   398.27356377
_cell_formula_units_Z   1
loop_
 _symmetry_equiv_pos_site_id
 _symmetry_equiv_pos_as_xyz
  1  'x, y, z'
loop_
 _atom_site_type_symbol
 _atom_site_label
 _atom_site_symmetry_multiplicity
 _atom_site_fract_x
 _atom_site_fract_y
 _atom_site_fract_z
 _atom_site_occupancy
  Sm  Sm0  1  0.000000  0.678448  0.586523  1
  Sm  Sm1  1  0.000000  0.823467  0.085921  1
  Sm  Sm2  1  0.000000  0.176235  0.913444  1
  Dy  Dy3  1  0.000000  0.942703  0.371719  1
  Dy  Dy4  1  0.000000  0.055700  0.628901  1
  Dy  Dy5  1  0.000000  0.443203  0.128141  1
  Dy  Dy6  1  0.000000  0.557130  0.869570  1
  Pa  Pa7  1  0.000000  0.323622  0.413995  1
  Re  Re8  1  0.000000  0.634496  0.321889  1
  Re  Re9  1  0.000000  0.361794  0.675552  1
  Re  Re10  1  0.000000  0.142171  0.183484  1
  Re  Re11  1  0.000000  0.861448  0.820506  1
  B  B12  1  0.500000  0.551862  0.431104  1
  B  B13  1  0.500000  0.444524  0.566792  1
  B  B14  1  0.500000  0.054958  0.069336  1
  B  B15  1  0.500000  0.946378  0.932339  1
  B  B16  1  0.500000  0.747934  0.417447  1
  B  B17  1  0.500000  0.251311  0.580443  1
  B  B18  1  0.500000  0.248721  0.082827  1
  B  B19  1  0.500000  0.751204  0.917714  1
  B  B20  1  0.500000  0.790297  0.267043  1
  B  B21  1  0.500000  0.209006  0.732919  1
  B  B22  1  0.500000  0.291928  0.235159  1
  B  B23  1  0.500000  0.708935  0.766347  1
  B  B24  1  0.500000  0.630106  0.186186  1
  B  B25  1  0.500000  0.369745  0.812678  1
  B  B26  1  0.500000  0.132767  0.315335  1
  B  B27  1  0.500000  0.869253  0.686587  1
  B  B28  1  0.500000  0.984560  0.213594  1
  B  B29  1  0.500000  0.016449  0.787311  1
  B  B30  1  0.500000  0.482410  0.287683  1
  B  B31  1  0.500000  0.516106  0.712635  1
  B  B32  1  0.500000  0.599986  0.027501  1
  B  B33  1  0.500000  0.399947  0.971340  1
  B  B34  1  0.500000  0.106399  0.470653  1
  B  B35  1  0.500000  0.894798  0.529381  1
