# generated using pymatgen
data_La6Pr10Cd4Ir3Pd
_symmetry_space_group_name_H-M   'P 1'
_cell_length_a   10.05368240
_cell_length_b   10.09204062
_cell_length_c   10.09204110
_cell_angle_alpha   59.86286727
_cell_angle_beta   60.44472117
_cell_angle_gamma   60.44471344
_symmetry_Int_Tables_number   1
_chemical_formula_structural   La6Pr10Cd4Ir3Pd
_chemical_formula_sum   'La6 Pr10 Cd4 Ir3 Pd1'
_cell_volume   728.10989038
_cell_formula_units_Z   1
loop_
 _symmetry_equiv_pos_site_id
 _symmetry_equiv_pos_as_xyz
  1  'x, y, z'
loop_
 _atom_site_type_symbol
 _atom_site_label
 _atom_site_symmetry_multiplicity
 _atom_site_fract_x
 _atom_site_fract_y
 _atom_site_fract_z
 _atom_site_occupancy
  La  La0  1  0.343588  0.347306  0.347306  1
  La  La1  1  0.353312  0.350476  0.951634  1
  La  La2  1  0.353312  0.951634  0.350476  1
  La  La3  1  0.953115  0.352001  0.352001  1
  La  La4  1  0.804538  0.189019  0.189019  1
  La  La5  1  0.186838  0.812347  0.812347  1
  Pr  Pr6  1  0.191892  0.803812  0.191928  1
  Pr  Pr7  1  0.808140  0.191260  0.808183  1
  Pr  Pr8  1  0.191892  0.191928  0.803812  1
  Pr  Pr9  1  0.808140  0.808183  0.191260  1
  Pr  Pr10  1  0.937928  0.564172  0.564172  1
  Pr  Pr11  1  0.564175  0.936763  0.936763  1
  Pr  Pr12  1  0.562625  0.939095  0.563477  1
  Pr  Pr13  1  0.937914  0.564135  0.937558  1
  Pr  Pr14  1  0.562625  0.563477  0.939095  1
  Pr  Pr15  1  0.937914  0.937558  0.564135  1
  Cd  Cd16  1  0.581984  0.579656  0.579656  1
  Cd  Cd17  1  0.579765  0.581193  0.259200  1
  Cd  Cd18  1  0.579765  0.259200  0.581193  1
  Cd  Cd19  1  0.259028  0.579745  0.579745  1
  Ir  Ir20  1  0.143957  0.136538  0.573304  1
  Ir  Ir21  1  0.143957  0.573304  0.136538  1
  Ir  Ir22  1  0.573919  0.143959  0.143959  1
  Pd  Pd23  1  0.139673  0.143236  0.143236  1
