# generated using pymatgen
data_Tm2Hf2Ni10As7
_symmetry_space_group_name_H-M   'P 1'
_cell_length_a   9.71800106
_cell_length_b   9.47530601
_cell_length_c   3.85026500
_cell_angle_alpha   90.00000000
_cell_angle_beta   90.00000000
_cell_angle_gamma   120.28913138
_symmetry_Int_Tables_number   1
_chemical_formula_structural   Tm2Hf2Ni10As7
_chemical_formula_sum   'Tm2 Hf2 Ni10 As7'
_cell_volume   306.13906020
_cell_formula_units_Z   1
loop_
 _symmetry_equiv_pos_site_id
 _symmetry_equiv_pos_as_xyz
  1  'x, y, z'
loop_
 _atom_site_type_symbol
 _atom_site_label
 _atom_site_symmetry_multiplicity
 _atom_site_fract_x
 _atom_site_fract_y
 _atom_site_fract_z
 _atom_site_occupancy
  Tm  Tm0  1  0.347266  0.668575  0.000000  1
  Tm  Tm1  1  0.664321  0.339669  0.500001  1
  Hf  Hf2  1  0.217403  0.100106  0.500001  1
  Hf  Hf3  1  0.888809  0.112813  0.500001  1
  Ni  Ni4  1  0.424731  0.063330  0.000000  1
  Ni  Ni5  1  0.152400  0.283543  0.000000  1
  Ni  Ni6  1  0.937670  0.371285  0.000000  1
  Ni  Ni7  1  0.640001  0.574138  0.000000  1
  Ni  Ni8  1  0.129722  0.835183  0.000000  1
  Ni  Ni9  1  0.712117  0.877327  0.000000  1
  Ni  Ni10  1  0.387706  0.444080  0.500001  1
  Ni  Ni11  1  0.045799  0.612833  0.500001  1
  Ni  Ni12  1  0.878165  0.768526  0.500001  1
  Ni  Ni13  1  0.561043  0.941431  0.500001  1
  As  As14  1  0.990713  0.983261  0.000000  1
  As  As15  1  0.687421  0.117047  0.000000  1
  As  As16  1  0.418404  0.311401  0.000000  1
  As  As17  1  0.885709  0.589901  0.000000  1
  As  As18  1  0.129848  0.421295  0.500001  1
  As  As19  1  0.604238  0.712424  0.500001  1
  As  As20  1  0.296517  0.871833  0.500001  1
