# generated using pymatgen
data_Eu2Tc2C3
_symmetry_space_group_name_H-M   'P 1'
_cell_length_a   5.73311361
_cell_length_b   5.73311356
_cell_length_c   5.86576792
_cell_angle_alpha   76.36294760
_cell_angle_beta   76.36294725
_cell_angle_gamma   36.41923141
_symmetry_Int_Tables_number   1
_chemical_formula_structural   Eu2Tc2C3
_chemical_formula_sum   'Eu2 Tc2 C3'
_cell_volume   110.88126297
_cell_formula_units_Z   1
loop_
 _symmetry_equiv_pos_site_id
 _symmetry_equiv_pos_as_xyz
  1  'x, y, z'
loop_
 _atom_site_type_symbol
 _atom_site_label
 _atom_site_symmetry_multiplicity
 _atom_site_fract_x
 _atom_site_fract_y
 _atom_site_fract_z
 _atom_site_occupancy
  Eu  Eu0  1  0.395118  0.395118  0.827566  1
  Eu  Eu1  1  0.604882  0.604882  0.172434  1
  Tc  Tc2  1  0.155980  0.155980  0.604718  1
  Tc  Tc3  1  0.844020  0.844020  0.395282  1
  C  C4  1  0.000000  0.000000  0.500000  1
  C  C5  1  0.294088  0.294088  0.280207  1
  C  C6  1  0.705912  0.705912  0.719793  1
