# generated using pymatgen
data_Nd2LuSc7(Si5Ir2)4
_symmetry_space_group_name_H-M   'P 1'
_cell_length_a   12.48881601
_cell_length_b   12.49238941
_cell_length_c   4.16331000
_cell_angle_alpha   90.00000000
_cell_angle_beta   90.00000000
_cell_angle_gamma   90.01232314
_symmetry_Int_Tables_number   1
_chemical_formula_structural   Nd2LuSc7(Si5Ir2)4
_chemical_formula_sum   'Nd2 Lu1 Sc7 Si20 Ir8'
_cell_volume   649.53943094
_cell_formula_units_Z   1
loop_
 _symmetry_equiv_pos_site_id
 _symmetry_equiv_pos_as_xyz
  1  'x, y, z'
loop_
 _atom_site_type_symbol
 _atom_site_label
 _atom_site_symmetry_multiplicity
 _atom_site_fract_x
 _atom_site_fract_y
 _atom_site_fract_z
 _atom_site_occupancy
  Nd  Nd0  1  0.615473  0.115462  0.500000  1
  Nd  Nd1  1  0.884416  0.615795  0.500000  1
  Lu  Lu2  1  0.116048  0.384016  0.500000  1
  Sc  Sc3  1  0.499327  0.500673  0.000000  1
  Sc  Sc4  1  0.000848  0.000648  0.000000  1
  Sc  Sc5  1  0.672150  0.826207  0.500000  1
  Sc  Sc6  1  0.325498  0.172909  0.500000  1
  Sc  Sc7  1  0.175216  0.674341  0.500000  1
  Sc  Sc8  1  0.827147  0.326184  0.500000  1
  Sc  Sc9  1  0.383675  0.883663  0.500000  1
  Si  Si10  1  0.565978  0.931222  0.000000  1
  Si  Si11  1  0.431067  0.066244  0.000000  1
  Si  Si12  1  0.069007  0.567617  0.000000  1
  Si  Si13  1  0.933095  0.431561  0.000000  1
  Si  Si14  1  0.697092  0.666102  0.000000  1
  Si  Si15  1  0.299314  0.333880  0.000000  1
  Si  Si16  1  0.201796  0.834545  0.000000  1
  Si  Si17  1  0.802579  0.165876  0.000000  1
  Si  Si18  1  0.334266  0.699935  0.000000  1
  Si  Si19  1  0.665525  0.301004  0.000000  1
  Si  Si20  1  0.166474  0.198753  0.000000  1
  Si  Si21  1  0.834342  0.801121  0.000000  1
  Si  Si22  1  0.505165  0.652486  0.500000  1
  Si  Si23  1  0.491129  0.350025  0.500000  1
  Si  Si24  1  0.008512  0.850239  0.500000  1
  Si  Si25  1  0.993340  0.151502  0.500000  1
  Si  Si26  1  0.348462  0.507539  0.500000  1
  Si  Si27  1  0.649680  0.492160  0.500000  1
  Si  Si28  1  0.152596  0.006056  0.500000  1
  Si  Si29  1  0.850211  0.991782  0.500000  1
  Ir  Ir30  1  0.518166  0.745378  0.000000  1
  Ir  Ir31  1  0.477971  0.256849  0.000000  1
  Ir  Ir32  1  0.022291  0.757691  0.000000  1
  Ir  Ir33  1  0.981806  0.244684  0.000000  1
  Ir  Ir34  1  0.255532  0.519289  0.000000  1
  Ir  Ir35  1  0.742540  0.478972  0.000000  1
  Ir  Ir36  1  0.245387  0.018845  0.000000  1
  Ir  Ir37  1  0.756876  0.978738  0.000000  1
