# generated using pymatgen
data_KTm(NbCl3)6
_symmetry_space_group_name_H-M   'P 1'
_cell_length_a   10.16417135
_cell_length_b   10.16417131
_cell_length_c   10.16417131
_cell_angle_alpha   55.24649773
_cell_angle_beta   55.24649939
_cell_angle_gamma   55.24649928
_symmetry_Int_Tables_number   1
_chemical_formula_structural   KTm(NbCl3)6
_chemical_formula_sum   'K1 Tm1 Nb6 Cl18'
_cell_volume   660.47040559
_cell_formula_units_Z   1
loop_
 _symmetry_equiv_pos_site_id
 _symmetry_equiv_pos_as_xyz
  1  'x, y, z'
loop_
 _atom_site_type_symbol
 _atom_site_label
 _atom_site_symmetry_multiplicity
 _atom_site_fract_x
 _atom_site_fract_y
 _atom_site_fract_z
 _atom_site_occupancy
  K  K0  1  0.221761  0.221761  0.221761  1
  Tm  Tm1  1  0.498470  0.498470  0.498470  1
  Nb  Nb2  1  0.798767  0.150348  0.911976  1
  Nb  Nb3  1  0.911976  0.798767  0.150348  1
  Nb  Nb4  1  0.150348  0.911976  0.798767  1
  Nb  Nb5  1  0.202538  0.849966  0.086819  1
  Nb  Nb6  1  0.086819  0.202538  0.849966  1
  Nb  Nb7  1  0.849966  0.086819  0.202538  1
  Cl  Cl8  1  0.861703  0.416191  0.724938  1
  Cl  Cl9  1  0.724938  0.861703  0.416191  1
  Cl  Cl10  1  0.416191  0.724938  0.861703  1
  Cl  Cl11  1  0.138161  0.583105  0.276230  1
  Cl  Cl12  1  0.276230  0.138161  0.583105  1
  Cl  Cl13  1  0.583105  0.276230  0.138161  1
  Cl  Cl14  1  0.529118  0.344706  0.802612  1
  Cl  Cl15  1  0.802612  0.529118  0.344706  1
  Cl  Cl16  1  0.344706  0.802612  0.529118  1
  Cl  Cl17  1  0.467120  0.656354  0.200254  1
  Cl  Cl18  1  0.200254  0.467120  0.656354  1
  Cl  Cl19  1  0.656354  0.200254  0.467120  1
  Cl  Cl20  1  0.659275  0.938722  0.073239  1
  Cl  Cl21  1  0.073239  0.659275  0.938722  1
  Cl  Cl22  1  0.938722  0.073239  0.659275  1
  Cl  Cl23  1  0.341142  0.061762  0.925861  1
  Cl  Cl24  1  0.925861  0.341142  0.061762  1
  Cl  Cl25  1  0.061762  0.925861  0.341142  1
