# generated using pymatgen
data_Ba7Fe6O19
_symmetry_space_group_name_H-M   'P 1'
_cell_length_a   7.97251379
_cell_length_b   7.97251464
_cell_length_c   11.02209124
_cell_angle_alpha   81.63247603
_cell_angle_beta   81.63247350
_cell_angle_gamma   43.01123140
_symmetry_Int_Tables_number   1
_chemical_formula_structural   Ba7Fe6O19
_chemical_formula_sum   'Ba7 Fe6 O19'
_cell_volume   472.00950670
_cell_formula_units_Z   1
loop_
 _symmetry_equiv_pos_site_id
 _symmetry_equiv_pos_as_xyz
  1  'x, y, z'
loop_
 _atom_site_type_symbol
 _atom_site_label
 _atom_site_symmetry_multiplicity
 _atom_site_fract_x
 _atom_site_fract_y
 _atom_site_fract_z
 _atom_site_occupancy
  Ba  Ba0  1  0.500000  0.500000  0.500000  1
  Ba  Ba1  1  0.844723  0.844723  0.947441  1
  Ba  Ba2  1  0.155277  0.155277  0.052559  1
  Ba  Ba3  1  0.573684  0.573684  0.835056  1
  Ba  Ba4  1  0.426316  0.426316  0.164944  1
  Ba  Ba5  1  0.798743  0.798743  0.595304  1
  Ba  Ba6  1  0.201257  0.201257  0.404696  1
  Fe  Fe7  1  0.183617  0.183617  0.732000  1
  Fe  Fe8  1  0.816383  0.816383  0.268000  1
  Fe  Fe9  1  0.352172  0.352172  0.781912  1
  Fe  Fe10  1  0.647828  0.647828  0.218088  1
  Fe  Fe11  1  0.017781  0.017781  0.671482  1
  Fe  Fe12  1  0.982219  0.982219  0.328518  1
  O  O13  1  0.000000  0.000000  0.500000  1
  O  O14  1  0.702718  0.702718  0.376042  1
  O  O15  1  0.297282  0.297282  0.623958  1
  O  O16  1  0.070756  0.070756  0.840533  1
  O  O17  1  0.929244  0.929244  0.159467  1
  O  O18  1  0.384722  0.384722  0.937541  1
  O  O19  1  0.615278  0.615278  0.062459  1
  O  O20  1  0.820765  0.313874  0.279783  1
  O  O21  1  0.686126  0.179235  0.720217  1
  O  O22  1  0.179235  0.686126  0.720217  1
  O  O23  1  0.313874  0.820765  0.279783  1
  O  O24  1  0.541121  0.984932  0.175156  1
  O  O25  1  0.015068  0.458879  0.824844  1
  O  O26  1  0.647860  0.089715  0.363695  1
  O  O27  1  0.910285  0.352140  0.636305  1
  O  O28  1  0.352140  0.910285  0.636305  1
  O  O29  1  0.089715  0.647860  0.363695  1
  O  O30  1  0.984932  0.541121  0.175156  1
  O  O31  1  0.458879  0.015068  0.824844  1
