# generated using pymatgen
data_CeDyMnAl20Fe3
_symmetry_space_group_name_H-M   'P 1'
_cell_length_a   6.79112413
_cell_length_b   6.78525789
_cell_length_c   9.00511593
_cell_angle_alpha   89.95144841
_cell_angle_beta   89.79302362
_cell_angle_gamma   97.29733780
_symmetry_Int_Tables_number   1
_chemical_formula_structural   CeDyMnAl20Fe3
_chemical_formula_sum   'Ce1 Dy1 Mn1 Al20 Fe3'
_cell_volume   411.58749035
_cell_formula_units_Z   1
loop_
 _symmetry_equiv_pos_site_id
 _symmetry_equiv_pos_as_xyz
  1  'x, y, z'
loop_
 _atom_site_type_symbol
 _atom_site_label
 _atom_site_symmetry_multiplicity
 _atom_site_fract_x
 _atom_site_fract_y
 _atom_site_fract_z
 _atom_site_occupancy
  Ce  Ce0  1  0.127757  0.877994  0.248812  1
  Dy  Dy1  1  0.872803  0.122261  0.750198  1
  Mn  Mn2  1  0.498298  0.999696  0.000123  1
  Al  Al3  1  0.412582  0.131435  0.749908  1
  Al  Al4  1  0.132353  0.411300  0.250183  1
  Al  Al5  1  0.589508  0.868752  0.250369  1
  Al  Al6  1  0.867360  0.586842  0.750010  1
  Al  Al7  1  0.522169  0.778525  0.750575  1
  Al  Al8  1  0.780372  0.522499  0.251048  1
  Al  Al9  1  0.479505  0.222712  0.249854  1
  Al  Al10  1  0.218441  0.476001  0.748994  1
  Al  Al11  1  0.840514  0.160855  0.402896  1
  Al  Al12  1  0.159631  0.839047  0.597518  1
  Al  Al13  1  0.840652  0.159876  0.096539  1
  Al  Al14  1  0.159743  0.839605  0.902471  1
  Al  Al15  1  0.624569  0.374479  0.952148  1
  Al  Al16  1  0.376340  0.624654  0.051185  1
  Al  Al17  1  0.624205  0.375921  0.548657  1
  Al  Al18  1  0.376008  0.623958  0.447788  1
  Al  Al19  1  0.771442  0.772400  0.998789  1
  Al  Al20  1  0.772624  0.773422  0.500862  1
  Al  Al21  1  0.227542  0.228488  0.998736  1
  Al  Al22  1  0.226739  0.227659  0.500997  1
  Fe  Fe23  1  0.000150  0.501192  0.999868  1
  Fe  Fe24  1  0.498769  0.999652  0.500675  1
  Fe  Fe25  1  0.999925  0.500775  0.500797  1
