# generated using pymatgen
data_Ca5Dy(Si3Ru)8
_symmetry_space_group_name_H-M   'P 1'
_cell_length_a   10.17644818
_cell_length_b   10.17644766
_cell_length_c   8.17497919
_cell_angle_alpha   89.99016476
_cell_angle_beta   89.99017198
_cell_angle_gamma   132.63207955
_symmetry_Int_Tables_number   1
_chemical_formula_structural   Ca5Dy(Si3Ru)8
_chemical_formula_sum   'Ca5 Dy1 Si24 Ru8'
_cell_volume   622.85997203
_cell_formula_units_Z   1
loop_
 _symmetry_equiv_pos_site_id
 _symmetry_equiv_pos_as_xyz
  1  'x, y, z'
loop_
 _atom_site_type_symbol
 _atom_site_label
 _atom_site_symmetry_multiplicity
 _atom_site_fract_x
 _atom_site_fract_y
 _atom_site_fract_z
 _atom_site_occupancy
  Ca  Ca0  1  0.500000  0.500000  0.500000  1
  Ca  Ca1  1  0.501824  0.001757  0.749977  1
  Ca  Ca2  1  0.998243  0.498176  0.250023  1
  Ca  Ca3  1  0.498176  0.998243  0.250023  1
  Ca  Ca4  1  0.001757  0.501824  0.749977  1
  Dy  Dy5  1  0.000000  0.000000  0.000000  1
  Si  Si6  1  0.793905  0.206095  0.500000  1
  Si  Si7  1  0.293781  0.706219  0.000000  1
  Si  Si8  1  0.206095  0.793905  0.500000  1
  Si  Si9  1  0.706219  0.293781  0.000000  1
  Si  Si10  1  0.334902  0.334902  0.831609  1
  Si  Si11  1  0.665098  0.665098  0.168391  1
  Si  Si12  1  0.167478  0.167478  0.334188  1
  Si  Si13  1  0.832522  0.832522  0.665812  1
  Si  Si14  1  0.124194  0.890850  0.728492  1
  Si  Si15  1  0.109150  0.875806  0.271508  1
  Si  Si16  1  0.608680  0.376032  0.229719  1
  Si  Si17  1  0.623968  0.391320  0.770281  1
  Si  Si18  1  0.875806  0.109150  0.271508  1
  Si  Si19  1  0.890850  0.124194  0.728492  1
  Si  Si20  1  0.391320  0.623968  0.770281  1
  Si  Si21  1  0.376032  0.608680  0.229719  1
  Si  Si22  1  0.346210  0.113484  0.507458  1
  Si  Si23  1  0.886516  0.653790  0.492542  1
  Si  Si24  1  0.389339  0.155345  0.006912  1
  Si  Si25  1  0.844655  0.610661  0.993088  1
  Si  Si26  1  0.653790  0.886516  0.492542  1
  Si  Si27  1  0.113484  0.346210  0.507458  1
  Si  Si28  1  0.610661  0.844655  0.993088  1
  Si  Si29  1  0.155345  0.389339  0.006912  1
  Ru  Ru30  1  0.668777  0.331223  0.500000  1
  Ru  Ru31  1  0.167882  0.832118  0.000000  1
  Ru  Ru32  1  0.331223  0.668777  0.500000  1
  Ru  Ru33  1  0.832118  0.167882  0.000000  1
  Ru  Ru34  1  0.125059  0.125059  0.627350  1
  Ru  Ru35  1  0.874941  0.874941  0.372650  1
  Ru  Ru36  1  0.371417  0.371417  0.123837  1
  Ru  Ru37  1  0.628583  0.628583  0.876163  1
