# generated using pymatgen
data_Tb20IrPt2Rh9
_symmetry_space_group_name_H-M   'P 1'
_cell_length_a   11.00779609
_cell_length_b   11.00482602
_cell_length_c   6.36295791
_cell_angle_alpha   90.00292234
_cell_angle_beta   90.03153615
_cell_angle_gamma   89.99584716
_symmetry_Int_Tables_number   1
_chemical_formula_structural   Tb20IrPt2Rh9
_chemical_formula_sum   'Tb20 Ir1 Pt2 Rh9'
_cell_volume   770.80148045
_cell_formula_units_Z   1
loop_
 _symmetry_equiv_pos_site_id
 _symmetry_equiv_pos_as_xyz
  1  'x, y, z'
loop_
 _atom_site_type_symbol
 _atom_site_label
 _atom_site_symmetry_multiplicity
 _atom_site_fract_x
 _atom_site_fract_y
 _atom_site_fract_z
 _atom_site_occupancy
  Tb  Tb0  1  0.291128  0.087825  0.380353  1
  Tb  Tb1  1  0.290925  0.911545  0.880088  1
  Tb  Tb2  1  0.708892  0.089898  0.879436  1
  Tb  Tb3  1  0.708732  0.910921  0.379654  1
  Tb  Tb4  1  0.591054  0.792224  0.879269  1
  Tb  Tb5  1  0.590578  0.207750  0.379624  1
  Tb  Tb6  1  0.412069  0.792234  0.375656  1
  Tb  Tb7  1  0.411367  0.207845  0.875320  1
  Tb  Tb8  1  0.205661  0.410293  0.621712  1
  Tb  Tb9  1  0.206088  0.590081  0.124624  1
  Tb  Tb10  1  0.791970  0.409688  0.123651  1
  Tb  Tb11  1  0.792345  0.589894  0.620287  1
  Tb  Tb12  1  0.909693  0.708353  0.122203  1
  Tb  Tb13  1  0.910151  0.292027  0.618950  1
  Tb  Tb14  1  0.087574  0.707365  0.618447  1
  Tb  Tb15  1  0.087945  0.292241  0.121632  1
  Tb  Tb16  1  0.999596  0.999847  0.500420  1
  Tb  Tb17  1  0.999577  0.000116  0.000125  1
  Tb  Tb18  1  0.503081  0.500517  0.000019  1
  Tb  Tb19  1  0.502941  0.499494  0.500317  1
  Ir  Ir20  1  0.999721  0.500232  0.375007  1
  Pt  Pt21  1  0.346706  0.344814  0.249764  1
  Pt  Pt22  1  0.345883  0.654559  0.749766  1
  Rh  Rh23  1  0.844846  0.152604  0.250058  1
  Rh  Rh24  1  0.845483  0.846479  0.749705  1
  Rh  Rh25  1  0.154427  0.153885  0.749393  1
  Rh  Rh26  1  0.155125  0.846825  0.249487  1
  Rh  Rh27  1  0.653877  0.345567  0.749520  1
  Rh  Rh28  1  0.652848  0.655195  0.249653  1
  Rh  Rh29  1  0.499892  0.999979  0.124878  1
  Rh  Rh30  1  0.499989  0.000050  0.625354  1
  Rh  Rh31  1  0.999834  0.499652  0.875626  1
