# generated using pymatgen
data_Ba4NaLi3Si8
_symmetry_space_group_name_H-M   'P 1'
_cell_length_a   4.67649000
_cell_length_b   7.30813614
_cell_length_c   11.94043620
_cell_angle_alpha   90.29026567
_cell_angle_beta   90.00000000
_cell_angle_gamma   90.00000000
_symmetry_Int_Tables_number   1
_chemical_formula_structural   Ba4NaLi3Si8
_chemical_formula_sum   'Ba4 Na1 Li3 Si8'
_cell_volume   408.07619259
_cell_formula_units_Z   1
loop_
 _symmetry_equiv_pos_site_id
 _symmetry_equiv_pos_as_xyz
  1  'x, y, z'
loop_
 _atom_site_type_symbol
 _atom_site_label
 _atom_site_symmetry_multiplicity
 _atom_site_fract_x
 _atom_site_fract_y
 _atom_site_fract_z
 _atom_site_occupancy
  Ba  Ba0  1  0.250000  0.133110  0.137590  1
  Ba  Ba1  1  0.750000  0.867872  0.866068  1
  Ba  Ba2  1  0.250000  0.632157  0.356015  1
  Ba  Ba3  1  0.750000  0.366968  0.640341  1
  Na  Na4  1  0.750000  0.878505  0.557902  1
  Li  Li5  1  0.250000  0.119504  0.433494  1
  Li  Li6  1  0.250000  0.613349  0.062990  1
  Li  Li7  1  0.750000  0.385741  0.938750  1
  Si  Si8  1  0.750000  0.468077  0.165134  1
  Si  Si9  1  0.250000  0.532093  0.838793  1
  Si  Si10  1  0.750000  0.970064  0.324660  1
  Si  Si11  1  0.250000  0.033552  0.673086  1
  Si  Si12  1  0.750000  0.293027  0.338371  1
  Si  Si13  1  0.250000  0.705630  0.668692  1
  Si  Si14  1  0.750000  0.791346  0.154799  1
  Si  Si15  1  0.250000  0.209007  0.843315  1
