# generated using pymatgen
data_CaAc14Yb5Ir12
_symmetry_space_group_name_H-M   'P 1'
_cell_length_a   6.74091958
_cell_length_b   11.55435915
_cell_length_c   11.60782215
_cell_angle_alpha   89.93682618
_cell_angle_beta   90.36024896
_cell_angle_gamma   90.03031771
_symmetry_Int_Tables_number   1
_chemical_formula_structural   CaAc14Yb5Ir12
_chemical_formula_sum   'Ca1 Ac14 Yb5 Ir12'
_cell_volume   904.07996705
_cell_formula_units_Z   1
loop_
 _symmetry_equiv_pos_site_id
 _symmetry_equiv_pos_as_xyz
  1  'x, y, z'
loop_
 _atom_site_type_symbol
 _atom_site_label
 _atom_site_symmetry_multiplicity
 _atom_site_fract_x
 _atom_site_fract_y
 _atom_site_fract_z
 _atom_site_occupancy
  Ca  Ca0  1  0.607381  0.455752  0.339147  1
  Ac  Ac1  1  0.378890  0.843640  0.528430  1
  Ac  Ac2  1  0.879411  0.657062  0.529452  1
  Ac  Ac3  1  0.889301  0.838195  0.960678  1
  Ac  Ac4  1  0.389418  0.661760  0.960761  1
  Ac  Ac5  1  0.888033  0.534476  0.837182  1
  Ac  Ac6  1  0.388154  0.965472  0.837046  1
  Ac  Ac7  1  0.386429  0.538504  0.657610  1
  Ac  Ac8  1  0.886402  0.961495  0.657560  1
  Ac  Ac9  1  0.612089  0.165336  0.461991  1
  Ac  Ac10  1  0.111776  0.334127  0.462472  1
  Ac  Ac11  1  0.109565  0.159042  0.044245  1
  Ac  Ac12  1  0.608907  0.339943  0.044839  1
  Ac  Ac13  1  0.106594  0.466238  0.168850  1
  Ac  Ac14  1  0.607206  0.033452  0.169230  1
  Yb  Yb15  1  0.106096  0.045893  0.339615  1
  Yb  Yb16  1  0.510663  0.738870  0.250915  1
  Yb  Yb17  1  0.010549  0.761882  0.250995  1
  Yb  Yb18  1  0.005728  0.246878  0.752806  1
  Yb  Yb19  1  0.505554  0.253028  0.752478  1
  Ir  Ir20  1  0.258156  0.897109  0.093351  1
  Ir  Ir21  1  0.758635  0.603314  0.092866  1
  Ir  Ir22  1  0.753033  0.901519  0.402776  1
  Ir  Ir23  1  0.249800  0.600072  0.403250  1
  Ir  Ir24  1  0.751878  0.097762  0.904022  1
  Ir  Ir25  1  0.252432  0.402300  0.904120  1
  Ir  Ir26  1  0.253996  0.099982  0.599248  1
  Ir  Ir27  1  0.756042  0.400119  0.601461  1
  Ir  Ir28  1  0.117372  0.748922  0.744651  1
  Ir  Ir29  1  0.617467  0.751316  0.744536  1
  Ir  Ir30  1  0.874590  0.249038  0.251827  1
  Ir  Ir31  1  0.368451  0.247504  0.251595  1
