# generated using pymatgen
data_Sm(DySi2)2
_symmetry_space_group_name_H-M   'P 1'
_cell_length_a   3.90456677
_cell_length_b   4.27153137
_cell_length_c   9.22671300
_cell_angle_alpha   76.61600053
_cell_angle_beta   77.78441260
_cell_angle_gamma   90.00000485
_symmetry_Int_Tables_number   1
_chemical_formula_structural   Sm(DySi2)2
_chemical_formula_sum   'Sm1 Dy2 Si4'
_cell_volume   146.12415300
_cell_formula_units_Z   1
loop_
 _symmetry_equiv_pos_site_id
 _symmetry_equiv_pos_as_xyz
  1  'x, y, z'
loop_
 _atom_site_type_symbol
 _atom_site_label
 _atom_site_symmetry_multiplicity
 _atom_site_fract_x
 _atom_site_fract_y
 _atom_site_fract_z
 _atom_site_occupancy
  Sm  Sm0  1  0.000002  0.000002  0.999998  1
  Dy  Dy1  1  0.683063  0.183063  0.633873  1
  Dy  Dy2  1  0.316938  0.816938  0.366124  1
  Si  Si3  1  0.850373  0.350373  0.299256  1
  Si  Si4  1  0.149624  0.649624  0.700749  1
  Si  Si5  1  0.566674  0.566674  0.866654  1
  Si  Si6  1  0.433327  0.433327  0.133347  1
