# generated using pymatgen
data_Dy6InSn5Rh6
_symmetry_space_group_name_H-M   'P 1'
_cell_length_a   7.50084100
_cell_length_b   7.49419313
_cell_length_c   7.89887362
_cell_angle_alpha   90.00957645
_cell_angle_beta   90.00000000
_cell_angle_gamma   120.02935278
_symmetry_Int_Tables_number   1
_chemical_formula_structural   Dy6InSn5Rh6
_chemical_formula_sum   'Dy6 In1 Sn5 Rh6'
_cell_volume   384.41656942
_cell_formula_units_Z   1
loop_
 _symmetry_equiv_pos_site_id
 _symmetry_equiv_pos_as_xyz
  1  'x, y, z'
loop_
 _atom_site_type_symbol
 _atom_site_label
 _atom_site_symmetry_multiplicity
 _atom_site_fract_x
 _atom_site_fract_y
 _atom_site_fract_z
 _atom_site_occupancy
  Dy  Dy0  1  0.593046  0.000121  0.750545  1
  Dy  Dy1  1  0.407059  0.408365  0.750936  1
  Dy  Dy2  1  0.998144  0.591319  0.750852  1
  Dy  Dy3  1  0.592925  0.999879  0.249455  1
  Dy  Dy4  1  0.406824  0.408681  0.249148  1
  Dy  Dy5  1  0.998694  0.591635  0.249064  1
  In  In6  1  0.256690  0.000000  0.000000  1
  Sn  Sn7  1  0.739655  0.740251  0.499970  1
  Sn  Sn8  1  0.999404  0.259749  0.500030  1
  Sn  Sn9  1  0.999893  0.254652  0.000019  1
  Sn  Sn10  1  0.745241  0.745348  0.999981  1
  Sn  Sn11  1  0.260176  0.000000  0.500000  1
  Rh  Rh12  1  0.671648  0.336488  0.999773  1
  Rh  Rh13  1  0.667202  0.334285  0.499989  1
  Rh  Rh14  1  0.335159  0.663512  0.000227  1
  Rh  Rh15  1  0.332916  0.665715  0.500011  1
  Rh  Rh16  1  0.997652  0.999982  0.746043  1
  Rh  Rh17  1  0.997670  0.000018  0.253957  1
