# generated using pymatgen
data_KRbLiInAs2
_symmetry_space_group_name_H-M   'P 1'
_cell_length_a   6.51036900
_cell_length_b   10.38544211
_cell_length_c   10.39259735
_cell_angle_alpha   78.19162007
_cell_angle_beta   90.00000000
_cell_angle_gamma   90.00000000
_symmetry_Int_Tables_number   1
_chemical_formula_structural   KRbLiInAs2
_chemical_formula_sum   'K4 Rb4 Li4 In4 As8'
_cell_volume   687.80492424
_cell_formula_units_Z   4
loop_
 _symmetry_equiv_pos_site_id
 _symmetry_equiv_pos_as_xyz
  1  'x, y, z'
loop_
 _atom_site_type_symbol
 _atom_site_label
 _atom_site_symmetry_multiplicity
 _atom_site_fract_x
 _atom_site_fract_y
 _atom_site_fract_z
 _atom_site_occupancy
  K  K0  1  0.250156  0.075238  0.577373  1
  K  K1  1  0.225997  0.671283  0.671094  1
  K  K2  1  0.725998  0.828717  0.828906  1
  K  K3  1  0.750156  0.424763  0.922626  1
  Rb  Rb4  1  0.249972  0.572739  0.070953  1
  Rb  Rb5  1  0.274303  0.174733  0.174808  1
  Rb  Rb6  1  0.774303  0.325267  0.325192  1
  Rb  Rb7  1  0.749972  0.927260  0.429048  1
  Li  Li8  1  0.500560  0.879558  0.118943  1
  Li  Li9  1  0.000559  0.620442  0.381057  1
  Li  Li10  1  0.000633  0.380356  0.621198  1
  Li  Li11  1  0.500634  0.119644  0.878802  1
  In  In12  1  0.000508  0.868669  0.130098  1
  In  In13  1  0.500509  0.631331  0.369902  1
  In  In14  1  0.500606  0.368028  0.632972  1
  In  In15  1  0.000605  0.131972  0.867028  1
  As  As16  1  0.768874  0.094789  0.092203  1
  As  As17  1  0.748879  0.653269  0.151186  1
  As  As18  1  0.248879  0.846730  0.348815  1
  As  As19  1  0.268873  0.405210  0.407796  1
  As  As20  1  0.730107  0.595192  0.598037  1
  As  As21  1  0.749407  0.151100  0.653217  1
  As  As22  1  0.249407  0.348901  0.846782  1
  As  As23  1  0.230108  0.904807  0.901962  1
