# generated using pymatgen
data_Tm5Lu5(In2Sb)2
_symmetry_space_group_name_H-M   'P 1'
_cell_length_a   6.45017100
_cell_length_b   8.83301735
_cell_length_c   8.81433625
_cell_angle_alpha   119.84748492
_cell_angle_beta   90.00254244
_cell_angle_gamma   89.99897543
_symmetry_Int_Tables_number   1
_chemical_formula_structural   Tm5Lu5(In2Sb)2
_chemical_formula_sum   'Tm5 Lu5 In4 Sb2'
_cell_volume   435.57801428
_cell_formula_units_Z   1
loop_
 _symmetry_equiv_pos_site_id
 _symmetry_equiv_pos_as_xyz
  1  'x, y, z'
loop_
 _atom_site_type_symbol
 _atom_site_label
 _atom_site_symmetry_multiplicity
 _atom_site_fract_x
 _atom_site_fract_y
 _atom_site_fract_z
 _atom_site_occupancy
  Tm  Tm0  1  0.750003  0.232637  0.995299  1
  Tm  Tm1  1  0.750017  0.767156  0.762199  1
  Tm  Tm2  1  0.750047  0.999960  0.237527  1
  Tm  Tm3  1  0.250007  0.764148  0.000336  1
  Tm  Tm4  1  0.250023  0.235710  0.236170  1
  Lu  Lu5  1  0.495504  0.333822  0.668140  1
  Lu  Lu6  1  0.495787  0.666184  0.334469  1
  Lu  Lu7  1  0.004215  0.666246  0.334503  1
  Lu  Lu8  1  0.004445  0.333765  0.668115  1
  Lu  Lu9  1  0.249990  0.999920  0.764118  1
  In  In10  1  0.749952  0.000138  0.596212  1
  In  In11  1  0.250009  0.396638  0.001425  1
  In  In12  1  0.250059  0.603381  0.604768  1
  In  In13  1  0.249974  0.999982  0.400220  1
  Sb  Sb14  1  0.749986  0.604986  0.000657  1
  Sb  Sb15  1  0.749983  0.395329  0.395841  1
