# generated using pymatgen
data_K4MnFeF8
_symmetry_space_group_name_H-M   'P 1'
_cell_length_a   7.28742820
_cell_length_b   7.28742804
_cell_length_c   6.01249500
_cell_angle_alpha   90.00000000
_cell_angle_beta   90.00000000
_cell_angle_gamma   131.27360478
_symmetry_Int_Tables_number   1
_chemical_formula_structural   K4MnFeF8
_chemical_formula_sum   'K4 Mn1 Fe1 F8'
_cell_volume   239.97811528
_cell_formula_units_Z   1
loop_
 _symmetry_equiv_pos_site_id
 _symmetry_equiv_pos_as_xyz
  1  'x, y, z'
loop_
 _atom_site_type_symbol
 _atom_site_label
 _atom_site_symmetry_multiplicity
 _atom_site_fract_x
 _atom_site_fract_y
 _atom_site_fract_z
 _atom_site_occupancy
  K  K0  1  0.644245  0.355755  0.000000  1
  K  K1  1  0.144617  0.855383  0.500000  1
  K  K2  1  0.855383  0.144617  0.500000  1
  K  K3  1  0.355755  0.644245  0.000000  1
  Mn  Mn4  1  0.000000  0.000000  0.000000  1
  Fe  Fe5  1  0.500000  0.500000  0.500000  1
  F  F6  1  0.749727  0.749727  0.748855  1
  F  F7  1  0.250273  0.250273  0.251145  1
  F  F8  1  0.250273  0.250273  0.748855  1
  F  F9  1  0.749727  0.749727  0.251145  1
  F  F10  1  0.839364  0.160636  0.000000  1
  F  F11  1  0.345094  0.654906  0.500000  1
  F  F12  1  0.654906  0.345094  0.500000  1
  F  F13  1  0.160636  0.839364  0.000000  1
