# generated using pymatgen
data_Ce6TaTiSb10
_symmetry_space_group_name_H-M   'P 1'
_cell_length_a   9.39381800
_cell_length_b   9.39381884
_cell_length_c   6.21927600
_cell_angle_alpha   90.00000000
_cell_angle_beta   90.00000000
_cell_angle_gamma   119.99999703
_symmetry_Int_Tables_number   1
_chemical_formula_structural   Ce6TaTiSb10
_chemical_formula_sum   'Ce6 Ta1 Ti1 Sb10'
_cell_volume   475.28575441
_cell_formula_units_Z   1
loop_
 _symmetry_equiv_pos_site_id
 _symmetry_equiv_pos_as_xyz
  1  'x, y, z'
loop_
 _atom_site_type_symbol
 _atom_site_label
 _atom_site_symmetry_multiplicity
 _atom_site_fract_x
 _atom_site_fract_y
 _atom_site_fract_z
 _atom_site_occupancy
  Ce  Ce0  1  0.617661  0.000000  0.249656  1
  Ce  Ce1  1  0.382339  0.000000  0.750344  1
  Ce  Ce2  1  0.000000  0.617661  0.249656  1
  Ce  Ce3  1  0.000000  0.382339  0.750344  1
  Ce  Ce4  1  0.382339  0.382339  0.249656  1
  Ce  Ce5  1  0.617661  0.617661  0.750344  1
  Ta  Ta6  1  0.000000  0.000000  0.000000  1
  Ti  Ti7  1  0.000000  0.000000  0.500000  1
  Sb  Sb8  1  0.259147  0.000000  0.250653  1
  Sb  Sb9  1  0.740853  0.000000  0.749347  1
  Sb  Sb10  1  0.000000  0.259147  0.250653  1
  Sb  Sb11  1  0.000000  0.740853  0.749347  1
  Sb  Sb12  1  0.740853  0.740853  0.250653  1
  Sb  Sb13  1  0.259147  0.259147  0.749347  1
  Sb  Sb14  1  0.333333  0.666667  0.000000  1
  Sb  Sb15  1  0.666667  0.333333  0.000000  1
  Sb  Sb16  1  0.666667  0.333333  0.500000  1
  Sb  Sb17  1  0.333333  0.666667  0.500000  1
