# generated using pymatgen
data_Tb5TmMn2(Co4P3)4
_symmetry_space_group_name_H-M   'P 1'
_cell_length_a   3.69214100
_cell_length_b   10.54112803
_cell_length_c   12.20298403
_cell_angle_alpha   89.99205848
_cell_angle_beta   90.00000000
_cell_angle_gamma   90.00000000
_symmetry_Int_Tables_number   1
_chemical_formula_structural   Tb5TmMn2(Co4P3)4
_chemical_formula_sum   'Tb5 Tm1 Mn2 Co16 P12'
_cell_volume   474.93196968
_cell_formula_units_Z   1
loop_
 _symmetry_equiv_pos_site_id
 _symmetry_equiv_pos_as_xyz
  1  'x, y, z'
loop_
 _atom_site_type_symbol
 _atom_site_label
 _atom_site_symmetry_multiplicity
 _atom_site_fract_x
 _atom_site_fract_y
 _atom_site_fract_z
 _atom_site_occupancy
  Tb  Tb0  1  0.000000  0.499878  0.522796  1
  Tb  Tb1  1  0.500000  0.999980  0.477624  1
  Tb  Tb2  1  0.500000  0.818044  0.204802  1
  Tb  Tb3  1  0.500000  0.182004  0.205321  1
  Tb  Tb4  1  0.000000  0.681460  0.794832  1
  Tm  Tm5  1  0.000000  0.318194  0.795028  1
  Mn  Mn6  1  0.500000  0.499727  0.158626  1
  Mn  Mn7  1  0.000000  0.000607  0.841110  1
  Co  Co8  1  0.500000  0.498662  0.703668  1
  Co  Co9  1  0.000000  0.000254  0.296870  1
  Co  Co10  1  0.000000  0.499230  0.985863  1
  Co  Co11  1  0.500000  0.000692  0.012740  1
  Co  Co12  1  0.500000  0.333039  0.993309  1
  Co  Co13  1  0.500000  0.666175  0.993899  1
  Co  Co14  1  0.000000  0.167551  0.004927  1
  Co  Co15  1  0.000000  0.833146  0.005450  1
  Co  Co16  1  0.500000  0.296602  0.431264  1
  Co  Co17  1  0.500000  0.703269  0.430426  1
  Co  Co18  1  0.000000  0.203716  0.570801  1
  Co  Co19  1  0.000000  0.796375  0.569685  1
  Co  Co20  1  0.500000  0.880012  0.709304  1
  Co  Co21  1  0.500000  0.121405  0.710200  1
  Co  Co22  1  0.000000  0.620155  0.290470  1
  Co  Co23  1  0.000000  0.379799  0.290952  1
  P  P24  1  0.500000  0.498710  0.882569  1
  P  P25  1  0.000000  0.000368  0.116198  1
  P  P26  1  0.500000  0.500031  0.344733  1
  P  P27  1  0.000000  0.999935  0.655394  1
  P  P28  1  0.500000  0.310811  0.617635  1
  P  P29  1  0.500000  0.688959  0.615956  1
  P  P30  1  0.000000  0.189572  0.384761  1
  P  P31  1  0.000000  0.810623  0.384056  1
  P  P32  1  0.500000  0.847444  0.893022  1
  P  P33  1  0.500000  0.153886  0.892212  1
  P  P34  1  0.000000  0.652032  0.106492  1
  P  P35  1  0.000000  0.347654  0.107005  1
