# generated using pymatgen
data_Eu6NpWO14
_symmetry_space_group_name_H-M   'P 1'
_cell_length_a   6.65579212
_cell_length_b   6.65579301
_cell_length_c   7.93478493
_cell_angle_alpha   90.55563625
_cell_angle_beta   90.55563410
_cell_angle_gamma   110.39517082
_symmetry_Int_Tables_number   1
_chemical_formula_structural   Eu6NpWO14
_chemical_formula_sum   'Eu6 Np1 W1 O14'
_cell_volume   329.42450517
_cell_formula_units_Z   1
loop_
 _symmetry_equiv_pos_site_id
 _symmetry_equiv_pos_as_xyz
  1  'x, y, z'
loop_
 _atom_site_type_symbol
 _atom_site_label
 _atom_site_symmetry_multiplicity
 _atom_site_fract_x
 _atom_site_fract_y
 _atom_site_fract_z
 _atom_site_occupancy
  Eu  Eu0  1  0.050040  0.515086  0.256828  1
  Eu  Eu1  1  0.949960  0.484914  0.743172  1
  Eu  Eu2  1  0.515086  0.050040  0.256828  1
  Eu  Eu3  1  0.484914  0.949960  0.743172  1
  Eu  Eu4  1  0.000000  0.000000  0.000000  1
  Eu  Eu5  1  0.000000  0.000000  0.500000  1
  Np  Np6  1  0.500000  0.500000  0.000000  1
  W  W7  1  0.500000  0.500000  0.500000  1
  O  O8  1  0.430432  0.430432  0.262465  1
  O  O9  1  0.569568  0.569568  0.737535  1
  O  O10  1  0.884360  0.152780  0.252424  1
  O  O11  1  0.115640  0.847220  0.747576  1
  O  O12  1  0.152780  0.884360  0.252424  1
  O  O13  1  0.847220  0.115640  0.747576  1
  O  O14  1  0.818570  0.564420  0.027640  1
  O  O15  1  0.181430  0.435580  0.972360  1
  O  O16  1  0.195390  0.444374  0.533183  1
  O  O17  1  0.555626  0.804610  0.466817  1
  O  O18  1  0.804610  0.555626  0.466817  1
  O  O19  1  0.444374  0.195390  0.533183  1
  O  O20  1  0.435580  0.181430  0.972360  1
  O  O21  1  0.564420  0.818570  0.027640  1
