# generated using pymatgen
data_Cs2U(OF2)2
_symmetry_space_group_name_H-M   'P 1'
_cell_length_a   6.56347650
_cell_length_b   6.56347638
_cell_length_c   5.22107660
_cell_angle_alpha   87.60397335
_cell_angle_beta   87.60397478
_cell_angle_gamma   62.14812419
_symmetry_Int_Tables_number   1
_chemical_formula_structural   Cs2U(OF2)2
_chemical_formula_sum   'Cs2 U1 O2 F4'
_cell_volume   198.62779011
_cell_formula_units_Z   1
loop_
 _symmetry_equiv_pos_site_id
 _symmetry_equiv_pos_as_xyz
  1  'x, y, z'
loop_
 _atom_site_type_symbol
 _atom_site_label
 _atom_site_symmetry_multiplicity
 _atom_site_fract_x
 _atom_site_fract_y
 _atom_site_fract_z
 _atom_site_occupancy
  Cs  Cs0  1  0.332697  0.332697  0.314042  1
  Cs  Cs1  1  0.667303  0.667303  0.685958  1
  U  U2  1  0.000000  0.000000  0.000000  1
  O  O3  1  0.139285  0.139285  0.796337  1
  O  O4  1  0.860715  0.860715  0.203663  1
  F  F5  1  0.684170  0.161768  0.774820  1
  F  F6  1  0.161768  0.684170  0.774820  1
  F  F7  1  0.315830  0.838232  0.225180  1
  F  F8  1  0.838232  0.315830  0.225180  1
