# generated using pymatgen
data_PrNd7(Mg3Ag10)2
_symmetry_space_group_name_H-M   'P 1'
_cell_length_a   8.75787422
_cell_length_b   8.75787434
_cell_length_c   10.45625102
_cell_angle_alpha   89.99595605
_cell_angle_beta   89.99595588
_cell_angle_gamma   107.99036866
_symmetry_Int_Tables_number   1
_chemical_formula_structural   PrNd7(Mg3Ag10)2
_chemical_formula_sum   'Pr1 Nd7 Mg6 Ag20'
_cell_volume   762.78729350
_cell_formula_units_Z   1
loop_
 _symmetry_equiv_pos_site_id
 _symmetry_equiv_pos_as_xyz
  1  'x, y, z'
loop_
 _atom_site_type_symbol
 _atom_site_label
 _atom_site_symmetry_multiplicity
 _atom_site_fract_x
 _atom_site_fract_y
 _atom_site_fract_z
 _atom_site_occupancy
  Pr  Pr0  1  0.701609  0.298391  0.000000  1
  Nd  Nd1  1  0.298520  0.701480  0.000000  1
  Nd  Nd2  1  0.798546  0.201454  0.500000  1
  Nd  Nd3  1  0.201432  0.798568  0.500000  1
  Nd  Nd4  1  0.304232  0.304385  0.203424  1
  Nd  Nd5  1  0.695615  0.695768  0.796576  1
  Nd  Nd6  1  0.195681  0.195503  0.703186  1
  Nd  Nd7  1  0.804497  0.804319  0.296814  1
  Mg  Mg8  1  0.019532  0.519603  0.250074  1
  Mg  Mg9  1  0.980873  0.480700  0.749784  1
  Mg  Mg10  1  0.480397  0.980468  0.749926  1
  Mg  Mg11  1  0.519300  0.019127  0.250216  1
  Mg  Mg12  1  0.999851  0.000149  0.000000  1
  Mg  Mg13  1  0.499875  0.500125  0.500000  1
  Ag  Ag14  1  0.097647  0.097454  0.404237  1
  Ag  Ag15  1  0.902546  0.902353  0.595763  1
  Ag  Ag16  1  0.402263  0.402884  0.903755  1
  Ag  Ag17  1  0.597116  0.597737  0.096245  1
  Ag  Ag18  1  0.894438  0.172244  0.206030  1
  Ag  Ag19  1  0.106171  0.827297  0.794378  1
  Ag  Ag20  1  0.605769  0.327590  0.704825  1
  Ag  Ag21  1  0.672410  0.394231  0.295175  1
  Ag  Ag22  1  0.393602  0.672507  0.294642  1
  Ag  Ag23  1  0.327493  0.606398  0.705358  1
  Ag  Ag24  1  0.827756  0.105562  0.793970  1
  Ag  Ag25  1  0.172703  0.893829  0.205622  1
  Ag  Ag26  1  0.932459  0.659906  0.025179  1
  Ag  Ag27  1  0.068814  0.341192  0.974897  1
  Ag  Ag28  1  0.567975  0.841282  0.524937  1
  Ag  Ag29  1  0.158718  0.432025  0.475063  1
  Ag  Ag30  1  0.431952  0.158694  0.474854  1
  Ag  Ag31  1  0.841306  0.568048  0.525146  1
  Ag  Ag32  1  0.340094  0.067541  0.974821  1
  Ag  Ag33  1  0.658808  0.931186  0.025103  1
