# generated using pymatgen
data_Tb4Dy3Ho(B6Ru)4
_symmetry_space_group_name_H-M   'P 1'
_cell_length_a   3.66674000
_cell_length_b   9.16072802
_cell_length_c   11.53667603
_cell_angle_alpha   90.00818773
_cell_angle_beta   90.00000000
_cell_angle_gamma   90.00000000
_symmetry_Int_Tables_number   1
_chemical_formula_structural   Tb4Dy3Ho(B6Ru)4
_chemical_formula_sum   'Tb4 Dy3 Ho1 B24 Ru4'
_cell_volume   387.51703469
_cell_formula_units_Z   1
loop_
 _symmetry_equiv_pos_site_id
 _symmetry_equiv_pos_as_xyz
  1  'x, y, z'
loop_
 _atom_site_type_symbol
 _atom_site_label
 _atom_site_symmetry_multiplicity
 _atom_site_fract_x
 _atom_site_fract_y
 _atom_site_fract_z
 _atom_site_occupancy
  Tb  Tb0  1  0.000000  0.322976  0.414005  1
  Tb  Tb1  1  0.000000  0.677024  0.586083  1
  Tb  Tb2  1  0.000000  0.822873  0.085929  1
  Tb  Tb3  1  0.000000  0.177144  0.913964  1
  Dy  Dy4  1  0.000000  0.943838  0.372178  1
  Dy  Dy5  1  0.000000  0.056170  0.627859  1
  Dy  Dy6  1  0.000000  0.443890  0.127658  1
  Ho  Ho7  1  0.000000  0.556163  0.872177  1
  B  B8  1  0.500000  0.554417  0.432679  1
  B  B9  1  0.500000  0.445604  0.567398  1
  B  B10  1  0.500000  0.054394  0.067309  1
  B  B11  1  0.500000  0.945487  0.932650  1
  B  B12  1  0.500000  0.747952  0.419473  1
  B  B13  1  0.500000  0.252096  0.580549  1
  B  B14  1  0.500000  0.247998  0.080506  1
  B  B15  1  0.500000  0.751726  0.919447  1
  B  B16  1  0.500000  0.790934  0.266482  1
  B  B17  1  0.500000  0.209205  0.733559  1
  B  B18  1  0.500000  0.290954  0.233497  1
  B  B19  1  0.500000  0.708764  0.766572  1
  B  B20  1  0.500000  0.631898  0.185217  1
  B  B21  1  0.500000  0.368337  0.814847  1
  B  B22  1  0.500000  0.131927  0.314736  1
  B  B23  1  0.500000  0.867983  0.685321  1
  B  B24  1  0.500000  0.984211  0.212891  1
  B  B25  1  0.500000  0.015741  0.787121  1
  B  B26  1  0.500000  0.484192  0.287088  1
  B  B27  1  0.500000  0.515987  0.713146  1
  B  B28  1  0.500000  0.608124  0.029522  1
  B  B29  1  0.500000  0.392115  0.969987  1
  B  B30  1  0.500000  0.108360  0.470137  1
  B  B31  1  0.500000  0.891628  0.529875  1
  Ru  Ru32  1  0.000000  0.638145  0.320975  1
  Ru  Ru33  1  0.000000  0.362033  0.679159  1
  Ru  Ru34  1  0.000000  0.138193  0.178940  1
  Ru  Ru35  1  0.000000  0.861519  0.821063  1
