# generated using pymatgen
data_Rb8Tm2O7
_symmetry_space_group_name_H-M   'P 1'
_cell_length_a   18.84983900
_cell_length_b   7.23672288
_cell_length_c   7.29513625
_cell_angle_alpha   60.99568831
_cell_angle_beta   90.00000000
_cell_angle_gamma   90.00000000
_symmetry_Int_Tables_number   1
_chemical_formula_structural   Rb8Tm2O7
_chemical_formula_sum   'Rb16 Tm4 O14'
_cell_volume   870.33036530
_cell_formula_units_Z   2
loop_
 _symmetry_equiv_pos_site_id
 _symmetry_equiv_pos_as_xyz
  1  'x, y, z'
loop_
 _atom_site_type_symbol
 _atom_site_label
 _atom_site_symmetry_multiplicity
 _atom_site_fract_x
 _atom_site_fract_y
 _atom_site_fract_z
 _atom_site_occupancy
  Rb  Rb0  1  0.704525  0.548078  0.221908  1
  Rb  Rb1  1  0.589981  0.004571  0.643421  1
  Rb  Rb2  1  0.795475  0.048078  0.221908  1
  Rb  Rb3  1  0.295475  0.451922  0.778092  1
  Rb  Rb4  1  0.691739  0.454661  0.782527  1
  Rb  Rb5  1  0.410019  0.995429  0.356579  1
  Rb  Rb6  1  0.308261  0.545339  0.217473  1
  Rb  Rb7  1  0.504255  0.525130  0.241600  1
  Rb  Rb8  1  0.808261  0.954661  0.782527  1
  Rb  Rb9  1  0.995745  0.025130  0.241600  1
  Rb  Rb10  1  0.089981  0.495429  0.356579  1
  Rb  Rb11  1  0.004255  0.974870  0.758400  1
  Rb  Rb12  1  0.495745  0.474870  0.758400  1
  Rb  Rb13  1  0.910019  0.504571  0.643421  1
  Rb  Rb14  1  0.191739  0.045339  0.217473  1
  Rb  Rb15  1  0.204525  0.951922  0.778092  1
  Tm  Tm16  1  0.098029  0.499983  0.848203  1
  Tm  Tm17  1  0.401971  0.999983  0.848203  1
  Tm  Tm18  1  0.598029  0.000017  0.151797  1
  Tm  Tm19  1  0.901971  0.500017  0.151797  1
  O  O20  1  0.319299  0.001536  0.045191  1
  O  O21  1  0.399261  0.276318  0.552189  1
  O  O22  1  0.899261  0.223682  0.447811  1
  O  O23  1  0.100739  0.776318  0.552189  1
  O  O24  1  0.180701  0.501536  0.045191  1
  O  O25  1  0.393341  0.721348  0.822403  1
  O  O26  1  0.893341  0.778652  0.177597  1
  O  O27  1  0.600739  0.723682  0.447811  1
  O  O28  1  0.000000  0.500000  0.000000  1
  O  O29  1  0.606659  0.278652  0.177597  1
  O  O30  1  0.680701  0.998464  0.954809  1
  O  O31  1  0.819299  0.498464  0.954809  1
  O  O32  1  0.500000  0.000000  0.000000  1
  O  O33  1  0.106659  0.221348  0.822403  1
