# generated using pymatgen
data_Ti4Co9Tc(GeB2)2
_symmetry_space_group_name_H-M   'P 1'
_cell_length_a   8.40929900
_cell_length_b   8.50772021
_cell_length_c   3.03510400
_cell_angle_alpha   90.00000000
_cell_angle_beta   90.00000000
_cell_angle_gamma   89.68042084
_symmetry_Int_Tables_number   1
_chemical_formula_structural   Ti4Co9Tc(GeB2)2
_chemical_formula_sum   'Ti4 Co9 Tc1 Ge2 B4'
_cell_volume   217.13999087
_cell_formula_units_Z   1
loop_
 _symmetry_equiv_pos_site_id
 _symmetry_equiv_pos_as_xyz
  1  'x, y, z'
loop_
 _atom_site_type_symbol
 _atom_site_label
 _atom_site_symmetry_multiplicity
 _atom_site_fract_x
 _atom_site_fract_y
 _atom_site_fract_z
 _atom_site_occupancy
  Ti  Ti0  1  0.826268  0.324488  0.000000  1
  Ti  Ti1  1  0.324612  0.176258  0.000000  1
  Ti  Ti2  1  0.673551  0.825100  0.000000  1
  Ti  Ti3  1  0.176966  0.676469  0.000000  1
  Co  Co4  1  0.496535  0.000203  0.500000  1
  Co  Co5  1  0.001894  0.508921  0.500000  1
  Co  Co6  1  0.219374  0.920708  0.500000  1
  Co  Co7  1  0.774674  0.064543  0.500000  1
  Co  Co8  1  0.924430  0.780410  0.500000  1
  Co  Co9  1  0.434746  0.720204  0.500000  1
  Co  Co10  1  0.570550  0.279531  0.500000  1
  Co  Co11  1  0.719371  0.569991  0.500000  1
  Co  Co12  1  0.286487  0.439626  0.500000  1
  Tc  Tc13  1  0.068384  0.216384  0.500000  1
  Ge  Ge14  1  0.994884  0.986933  0.000000  1
  Ge  Ge15  1  0.502793  0.500641  0.000000  1
  B  B16  1  0.620162  0.119554  0.000000  1
  B  B17  1  0.126466  0.391431  0.000000  1
  B  B18  1  0.878965  0.620517  0.000000  1
  B  B19  1  0.378887  0.878090  0.000000  1
