# generated using pymatgen
data_Tb5Dy11MgTl(CdPt2)2
_symmetry_space_group_name_H-M   'P 1'
_cell_length_a   9.71958842
_cell_length_b   9.71837439
_cell_length_c   9.71837500
_cell_angle_alpha   60.05975467
_cell_angle_beta   60.05772009
_cell_angle_gamma   60.05771650
_symmetry_Int_Tables_number   1
_chemical_formula_structural   Tb5Dy11MgTl(CdPt2)2
_chemical_formula_sum   'Tb5 Dy11 Mg1 Tl1 Cd2 Pt4'
_cell_volume   649.97188718
_cell_formula_units_Z   1
loop_
 _symmetry_equiv_pos_site_id
 _symmetry_equiv_pos_as_xyz
  1  'x, y, z'
loop_
 _atom_site_type_symbol
 _atom_site_label
 _atom_site_symmetry_multiplicity
 _atom_site_fract_x
 _atom_site_fract_y
 _atom_site_fract_z
 _atom_site_occupancy
  Tb  Tb0  1  0.562973  0.938874  0.935217  1
  Tb  Tb1  1  0.566254  0.935972  0.565464  1
  Tb  Tb2  1  0.938853  0.562973  0.934893  1
  Tb  Tb3  1  0.565825  0.565509  0.934851  1
  Tb  Tb4  1  0.937055  0.936743  0.562940  1
  Dy  Dy5  1  0.349334  0.349471  0.350737  1
  Dy  Dy6  1  0.351608  0.351798  0.944980  1
  Dy  Dy7  1  0.352072  0.945136  0.352683  1
  Dy  Dy8  1  0.945201  0.352145  0.352568  1
  Dy  Dy9  1  0.809821  0.190548  0.191521  1
  Dy  Dy10  1  0.189000  0.812195  0.811503  1
  Dy  Dy11  1  0.190307  0.809827  0.191639  1
  Dy  Dy12  1  0.812143  0.189267  0.811351  1
  Dy  Dy13  1  0.190355  0.190727  0.810365  1
  Dy  Dy14  1  0.811533  0.811437  0.189853  1
  Dy  Dy15  1  0.936675  0.565740  0.565220  1
  Mg  Mg16  1  0.576197  0.576123  0.576609  1
  Tl  Tl17  1  0.582759  0.582744  0.250940  1
  Cd  Cd18  1  0.580992  0.252284  0.583611  1
  Cd  Cd19  1  0.251968  0.580995  0.583624  1
  Pt  Pt20  1  0.143791  0.143832  0.143225  1
  Pt  Pt21  1  0.141715  0.141992  0.571892  1
  Pt  Pt22  1  0.141818  0.571728  0.142270  1
  Pt  Pt23  1  0.571747  0.141934  0.142038  1
