# generated using pymatgen
data_Lu12AlFe3Au
_symmetry_space_group_name_H-M   'P 1'
_cell_length_a   8.05400306
_cell_length_b   8.05402591
_cell_length_c   8.05400300
_cell_angle_alpha   109.12116785
_cell_angle_beta   108.27523623
_cell_angle_gamma   111.02951610
_symmetry_Int_Tables_number   1
_chemical_formula_structural   Lu12AlFe3Au
_chemical_formula_sum   'Lu12 Al1 Fe3 Au1'
_cell_volume   401.93019664
_cell_formula_units_Z   1
loop_
 _symmetry_equiv_pos_site_id
 _symmetry_equiv_pos_as_xyz
  1  'x, y, z'
loop_
 _atom_site_type_symbol
 _atom_site_label
 _atom_site_symmetry_multiplicity
 _atom_site_fract_x
 _atom_site_fract_y
 _atom_site_fract_z
 _atom_site_occupancy
  Lu  Lu0  1  0.308171  0.309180  0.617353  1
  Lu  Lu1  1  0.691829  0.690820  0.382647  1
  Lu  Lu2  1  0.691827  0.309180  0.001009  1
  Lu  Lu3  1  0.308173  0.690820  0.998991  1
  Lu  Lu4  1  0.191465  0.444309  0.252844  1
  Lu  Lu5  1  0.808535  0.555691  0.747156  1
  Lu  Lu6  1  0.191468  0.938615  0.747147  1
  Lu  Lu7  1  0.954716  0.186774  0.767935  1
  Lu  Lu8  1  0.808532  0.061385  0.252853  1
  Lu  Lu9  1  0.045284  0.813226  0.232065  1
  Lu  Lu10  1  0.418839  0.186774  0.232057  1
  Lu  Lu11  1  0.581161  0.813226  0.767943  1
  Al  Al12  1  0.500000  0.000000  0.500000  1
  Fe  Fe13  1  0.380487  0.380406  0.999918  1
  Fe  Fe14  1  0.619513  0.619594  0.000082  1
  Fe  Fe15  1  0.000000  0.000000  0.000000  1
  Au  Au16  1  0.000000  0.500000  0.500000  1
