# generated using pymatgen
data_Tb7DyBePd24
_symmetry_space_group_name_H-M   'P 1'
_cell_length_a   8.33807766
_cell_length_b   8.33807732
_cell_length_c   8.33807700
_cell_angle_alpha   89.93939264
_cell_angle_beta   90.06060736
_cell_angle_gamma   90.06060959
_symmetry_Int_Tables_number   1
_chemical_formula_structural   Tb7DyBePd24
_chemical_formula_sum   'Tb7 Dy1 Be1 Pd24'
_cell_volume   579.69162645
_cell_formula_units_Z   1
loop_
 _symmetry_equiv_pos_site_id
 _symmetry_equiv_pos_as_xyz
  1  'x, y, z'
loop_
 _atom_site_type_symbol
 _atom_site_label
 _atom_site_symmetry_multiplicity
 _atom_site_fract_x
 _atom_site_fract_y
 _atom_site_fract_z
 _atom_site_occupancy
  Tb  Tb0  1  0.250362  0.250821  0.250821  1
  Tb  Tb1  1  0.749435  0.749657  0.749657  1
  Tb  Tb2  1  0.749179  0.749638  0.250821  1
  Tb  Tb3  1  0.749179  0.250821  0.749638  1
  Tb  Tb4  1  0.250343  0.250565  0.749657  1
  Tb  Tb5  1  0.250343  0.749657  0.250565  1
  Tb  Tb6  1  0.251213  0.748787  0.748787  1
  Dy  Dy7  1  0.748605  0.251395  0.251395  1
  Be  Be8  1  0.001307  0.998693  0.998693  1
  Pd  Pd9  1  0.253657  0.499673  0.000024  1
  Pd  Pd10  1  0.746324  0.499661  0.000947  1
  Pd  Pd11  1  0.999053  0.253676  0.499661  1
  Pd  Pd12  1  0.500339  0.253676  0.000947  1
  Pd  Pd13  1  0.999976  0.746343  0.499673  1
  Pd  Pd14  1  0.500327  0.746343  0.000024  1
  Pd  Pd15  1  0.500339  0.000947  0.253676  1
  Pd  Pd16  1  0.253657  0.000024  0.499673  1
  Pd  Pd17  1  0.500327  0.000024  0.746343  1
  Pd  Pd18  1  0.746324  0.000947  0.499661  1
  Pd  Pd19  1  0.999053  0.499661  0.253676  1
  Pd  Pd20  1  0.999976  0.499673  0.746343  1
  Pd  Pd21  1  0.250163  0.499825  0.499825  1
  Pd  Pd22  1  0.749284  0.500026  0.500026  1
  Pd  Pd23  1  0.499974  0.250716  0.500026  1
  Pd  Pd24  1  0.500175  0.749837  0.499825  1
  Pd  Pd25  1  0.499974  0.500026  0.250716  1
  Pd  Pd26  1  0.500175  0.499825  0.749837  1
  Pd  Pd27  1  0.269143  0.999657  0.999657  1
  Pd  Pd28  1  0.732841  0.000867  0.000867  1
  Pd  Pd29  1  0.999133  0.267159  0.000867  1
  Pd  Pd30  1  0.000343  0.730857  0.999657  1
  Pd  Pd31  1  0.999133  0.000867  0.267159  1
  Pd  Pd32  1  0.000343  0.999657  0.730857  1
