# generated using pymatgen
data_Tm8Lu12Bi5Sb7
_symmetry_space_group_name_H-M   'P 1'
_cell_length_a   8.02717516
_cell_length_b   9.26035015
_cell_length_c   11.73491214
_cell_angle_alpha   89.95244653
_cell_angle_beta   89.90359976
_cell_angle_gamma   89.96847431
_symmetry_Int_Tables_number   1
_chemical_formula_structural   Tm8Lu12Bi5Sb7
_chemical_formula_sum   'Tm8 Lu12 Bi5 Sb7'
_cell_volume   872.30660442
_cell_formula_units_Z   1
loop_
 _symmetry_equiv_pos_site_id
 _symmetry_equiv_pos_as_xyz
  1  'x, y, z'
loop_
 _atom_site_type_symbol
 _atom_site_label
 _atom_site_symmetry_multiplicity
 _atom_site_fract_x
 _atom_site_fract_y
 _atom_site_fract_z
 _atom_site_occupancy
  Tm  Tm0  1  0.351651  0.247609  0.286089  1
  Tm  Tm1  1  0.644723  0.755488  0.715143  1
  Tm  Tm2  1  0.145493  0.755448  0.784883  1
  Tm  Tm3  1  0.857881  0.246984  0.215634  1
  Tm  Tm4  1  0.186195  0.244304  0.782376  1
  Tm  Tm5  1  0.817669  0.752142  0.218400  1
  Tm  Tm6  1  0.312048  0.753529  0.283314  1
  Tm  Tm7  1  0.685307  0.244357  0.717779  1
  Lu  Lu8  1  0.028509  0.244941  0.511154  1
  Lu  Lu9  1  0.972539  0.755209  0.489007  1
  Lu  Lu10  1  0.470874  0.752736  0.009408  1
  Lu  Lu11  1  0.526807  0.247203  0.986815  1
  Lu  Lu12  1  0.189578  0.063831  0.058985  1
  Lu  Lu13  1  0.809315  0.936538  0.938194  1
  Lu  Lu14  1  0.308023  0.936799  0.559819  1
  Lu  Lu15  1  0.810150  0.565173  0.941423  1
  Lu  Lu16  1  0.693467  0.063442  0.442498  1
  Lu  Lu17  1  0.189512  0.434479  0.058123  1
  Lu  Lu18  1  0.690130  0.434649  0.441695  1
  Lu  Lu19  1  0.309833  0.565543  0.558476  1
  Bi  Bi20  1  0.933478  0.503535  0.673853  1
  Bi  Bi21  1  0.567093  0.003553  0.174212  1
  Bi  Bi22  1  0.066246  0.496456  0.326384  1
  Bi  Bi23  1  0.566585  0.496369  0.173846  1
  Bi  Bi24  1  0.433462  0.503639  0.825378  1
  Sb  Sb25  1  0.407181  0.250011  0.542094  1
  Sb  Sb26  1  0.593075  0.750013  0.458149  1
  Sb  Sb27  1  0.093181  0.750004  0.041670  1
  Sb  Sb28  1  0.906259  0.249999  0.958315  1
  Sb  Sb29  1  0.065992  0.004133  0.327019  1
  Sb  Sb30  1  0.933804  0.995896  0.672589  1
  Sb  Sb31  1  0.433942  0.995988  0.827279  1
