# generated using pymatgen
data_TbY18ErSn16
_symmetry_space_group_name_H-M   'P 1'
_cell_length_a   8.05083612
_cell_length_b   8.19660572
_cell_length_c   15.50249200
_cell_angle_alpha   90.00198521
_cell_angle_beta   89.99010772
_cell_angle_gamma   89.96296635
_symmetry_Int_Tables_number   1
_chemical_formula_structural   TbY18ErSn16
_chemical_formula_sum   'Tb1 Y18 Er1 Sn16'
_cell_volume   1023.00192156
_cell_formula_units_Z   1
loop_
 _symmetry_equiv_pos_site_id
 _symmetry_equiv_pos_as_xyz
  1  'x, y, z'
loop_
 _atom_site_type_symbol
 _atom_site_label
 _atom_site_symmetry_multiplicity
 _atom_site_fract_x
 _atom_site_fract_y
 _atom_site_fract_z
 _atom_site_occupancy
  Tb  Tb0  1  0.020355  0.179706  0.902172  1
  Y  Y1  1  0.367102  0.836206  0.877786  1
  Y  Y2  1  0.868010  0.663330  0.622205  1
  Y  Y3  1  0.632545  0.163628  0.378092  1
  Y  Y4  1  0.132458  0.336338  0.121632  1
  Y  Y5  1  0.632571  0.163642  0.121900  1
  Y  Y6  1  0.132432  0.336346  0.378352  1
  Y  Y7  1  0.367102  0.836255  0.622211  1
  Y  Y8  1  0.867977  0.663291  0.877772  1
  Y  Y9  1  0.520008  0.320767  0.902062  1
  Y  Y10  1  0.020586  0.179965  0.597960  1
  Y  Y11  1  0.479943  0.679756  0.402483  1
  Y  Y12  1  0.979734  0.820274  0.097686  1
  Y  Y13  1  0.479934  0.679763  0.097492  1
  Y  Y14  1  0.979728  0.820261  0.402294  1
  Y  Y15  1  0.519990  0.320723  0.597896  1
  Y  Y16  1  0.698542  0.997925  0.749962  1
  Y  Y17  1  0.800994  0.497665  0.249993  1
  Y  Y18  1  0.301151  0.002286  0.249989  1
  Er  Er19  1  0.199090  0.502776  0.749980  1
  Sn  Sn20  1  0.293212  0.035716  0.041415  1
  Sn  Sn21  1  0.792717  0.463878  0.458652  1
  Sn  Sn22  1  0.707130  0.963879  0.541891  1
  Sn  Sn23  1  0.207233  0.535738  0.957541  1
  Sn  Sn24  1  0.707001  0.963768  0.958139  1
  Sn  Sn25  1  0.207180  0.535708  0.542445  1
  Sn  Sn26  1  0.292999  0.035825  0.458645  1
  Sn  Sn27  1  0.792760  0.463820  0.041306  1
  Sn  Sn28  1  0.564539  0.618464  0.750015  1
  Sn  Sn29  1  0.065135  0.880892  0.750115  1
  Sn  Sn30  1  0.434409  0.381269  0.249997  1
  Sn  Sn31  1  0.934891  0.118663  0.250048  1
  Sn  Sn32  1  0.328918  0.148172  0.749987  1
  Sn  Sn33  1  0.830314  0.353449  0.749910  1
  Sn  Sn34  1  0.670564  0.853291  0.249978  1
  Sn  Sn35  1  0.170740  0.646567  0.249996  1
