# generated using pymatgen
data_TbSm3(CuP2)4
_symmetry_space_group_name_H-M   'P 1'
_cell_length_a   3.74329900
_cell_length_b   3.82198664
_cell_length_c   19.75051694
_cell_angle_alpha   89.97702266
_cell_angle_beta   90.00000000
_cell_angle_gamma   90.00000000
_symmetry_Int_Tables_number   1
_chemical_formula_structural   TbSm3(CuP2)4
_chemical_formula_sum   'Tb1 Sm3 Cu4 P8'
_cell_volume   282.56743899
_cell_formula_units_Z   1
loop_
 _symmetry_equiv_pos_site_id
 _symmetry_equiv_pos_as_xyz
  1  'x, y, z'
loop_
 _atom_site_type_symbol
 _atom_site_label
 _atom_site_symmetry_multiplicity
 _atom_site_fract_x
 _atom_site_fract_y
 _atom_site_fract_z
 _atom_site_occupancy
  Tb  Tb0  1  0.750000  0.212208  0.118270  1
  Sm  Sm1  1  0.250000  0.713210  0.380309  1
  Sm  Sm2  1  0.250000  0.786508  0.883868  1
  Sm  Sm3  1  0.750000  0.287601  0.618406  1
  Cu  Cu4  1  0.250000  0.213333  0.247510  1
  Cu  Cu5  1  0.750000  0.786527  0.751667  1
  Cu  Cu6  1  0.250000  0.286704  0.750983  1
  Cu  Cu7  1  0.750000  0.713495  0.247942  1
  P  P8  1  0.750000  0.813944  0.501672  1
  P  P9  1  0.750000  0.686456  0.004814  1
  P  P10  1  0.250000  0.187439  0.496965  1
  P  P11  1  0.250000  0.312526  0.000112  1
  P  P12  1  0.250000  0.712490  0.171897  1
  P  P13  1  0.750000  0.212911  0.323129  1
  P  P14  1  0.750000  0.286914  0.826555  1
  P  P15  1  0.250000  0.787734  0.675899  1
