# generated using pymatgen
data_DyTmZr2(Al3Rh)6
_symmetry_space_group_name_H-M   'P 1'
_cell_length_a   7.50372532
_cell_length_b   7.48650605
_cell_length_c   9.33629300
_cell_angle_alpha   90.00000000
_cell_angle_beta   90.00000000
_cell_angle_gamma   119.66710128
_symmetry_Int_Tables_number   1
_chemical_formula_structural   DyTmZr2(Al3Rh)6
_chemical_formula_sum   'Dy1 Tm1 Zr2 Al18 Rh6'
_cell_volume   455.73071940
_cell_formula_units_Z   1
loop_
 _symmetry_equiv_pos_site_id
 _symmetry_equiv_pos_as_xyz
  1  'x, y, z'
loop_
 _atom_site_type_symbol
 _atom_site_label
 _atom_site_symmetry_multiplicity
 _atom_site_fract_x
 _atom_site_fract_y
 _atom_site_fract_z
 _atom_site_occupancy
  Dy  Dy0  1  0.670441  0.993753  0.250000  1
  Tm  Tm1  1  0.329244  0.006176  0.750000  1
  Zr  Zr2  1  0.994964  0.671249  0.250000  1
  Zr  Zr3  1  0.005277  0.328834  0.750000  1
  Al  Al4  1  0.125098  0.123395  0.250000  1
  Al  Al5  1  0.875674  0.876859  0.750000  1
  Al  Al6  1  0.999349  0.337330  0.074755  1
  Al  Al7  1  0.001159  0.663160  0.924528  1
  Al  Al8  1  0.001159  0.663160  0.575472  1
  Al  Al9  1  0.332029  0.998084  0.422028  1
  Al  Al10  1  0.999349  0.337330  0.425245  1
  Al  Al11  1  0.667447  0.001971  0.579150  1
  Al  Al12  1  0.667447  0.001971  0.920850  1
  Al  Al13  1  0.332029  0.998084  0.077972  1
  Al  Al14  1  0.331010  0.333123  0.556009  1
  Al  Al15  1  0.669055  0.666442  0.444795  1
  Al  Al16  1  0.669055  0.666442  0.055205  1
  Al  Al17  1  0.331010  0.333123  0.943991  1
  Al  Al18  1  0.333832  0.548544  0.250000  1
  Al  Al19  1  0.665535  0.450680  0.750000  1
  Al  Al20  1  0.555827  0.343877  0.250000  1
  Al  Al21  1  0.443875  0.656458  0.750000  1
  Rh  Rh22  1  0.672041  0.327250  0.999108  1
  Rh  Rh23  1  0.327722  0.672633  0.000523  1
  Rh  Rh24  1  0.327722  0.672633  0.499477  1
  Rh  Rh25  1  0.672041  0.327250  0.500892  1
  Rh  Rh26  1  0.000304  0.000094  0.999803  1
  Rh  Rh27  1  0.000304  0.000094  0.500197  1
