# generated using pymatgen
data_Ca3(PrPb2)2
_symmetry_space_group_name_H-M   'P 1'
_cell_length_a   8.09957500
_cell_length_b   8.70115500
_cell_length_c   16.38718300
_cell_angle_alpha   90.00000000
_cell_angle_beta   90.00000000
_cell_angle_gamma   90.00000000
_symmetry_Int_Tables_number   1
_chemical_formula_structural   Ca3(PrPb2)2
_chemical_formula_sum   'Ca12 Pr8 Pb16'
_cell_volume   1154.89749665
_cell_formula_units_Z   4
loop_
 _symmetry_equiv_pos_site_id
 _symmetry_equiv_pos_as_xyz
  1  'x, y, z'
loop_
 _atom_site_type_symbol
 _atom_site_label
 _atom_site_symmetry_multiplicity
 _atom_site_fract_x
 _atom_site_fract_y
 _atom_site_fract_z
 _atom_site_occupancy
  Ca  Ca0  1  0.663346  0.168366  0.622937  1
  Ca  Ca1  1  0.163346  0.331634  0.877063  1
  Ca  Ca2  1  0.336654  0.831634  0.122937  1
  Ca  Ca3  1  0.836654  0.668366  0.377063  1
  Ca  Ca4  1  0.336654  0.831634  0.377063  1
  Ca  Ca5  1  0.836654  0.668366  0.122937  1
  Ca  Ca6  1  0.663346  0.168366  0.877063  1
  Ca  Ca7  1  0.163346  0.331634  0.622937  1
  Ca  Ca8  1  0.832175  0.497903  0.750000  1
  Ca  Ca9  1  0.332175  0.002097  0.750000  1
  Ca  Ca10  1  0.167825  0.502097  0.250000  1
  Ca  Ca11  1  0.667825  0.997903  0.250000  1
  Pr  Pr12  1  0.499906  0.686884  0.595366  1
  Pr  Pr13  1  0.999906  0.813116  0.904634  1
  Pr  Pr14  1  0.500094  0.313116  0.095366  1
  Pr  Pr15  1  0.000094  0.186884  0.404634  1
  Pr  Pr16  1  0.500094  0.313116  0.404634  1
  Pr  Pr17  1  0.000094  0.186884  0.095366  1
  Pr  Pr18  1  0.499906  0.686884  0.904634  1
  Pr  Pr19  1  0.999906  0.813116  0.595366  1
  Pb  Pb20  1  0.679005  0.964002  0.460313  1
  Pb  Pb21  1  0.179005  0.535998  0.039687  1
  Pb  Pb22  1  0.320995  0.035998  0.960313  1
  Pb  Pb23  1  0.820995  0.464002  0.539687  1
  Pb  Pb24  1  0.320995  0.035998  0.539687  1
  Pb  Pb25  1  0.820995  0.464002  0.960313  1
  Pb  Pb26  1  0.679005  0.964002  0.039687  1
  Pb  Pb27  1  0.179005  0.535998  0.460313  1
  Pb  Pb28  1  0.464431  0.394692  0.750000  1
  Pb  Pb29  1  0.964431  0.105308  0.750000  1
  Pb  Pb30  1  0.535569  0.605308  0.250000  1
  Pb  Pb31  1  0.035569  0.894692  0.250000  1
  Pb  Pb32  1  0.700893  0.852556  0.750000  1
  Pb  Pb33  1  0.200893  0.647444  0.750000  1
  Pb  Pb34  1  0.299107  0.147444  0.250000  1
  Pb  Pb35  1  0.799107  0.352556  0.250000  1
