# generated using pymatgen
data_LiLa8Ir5Rh
_symmetry_space_group_name_H-M   'P 1'
_cell_length_a   7.75357127
_cell_length_b   7.76921957
_cell_length_c   7.72632660
_cell_angle_alpha   69.96560368
_cell_angle_beta   69.66000263
_cell_angle_gamma   69.71489826
_symmetry_Int_Tables_number   1
_chemical_formula_structural   LiLa8Ir5Rh
_chemical_formula_sum   'Li1 La8 Ir5 Rh1'
_cell_volume   396.07577177
_cell_formula_units_Z   1
loop_
 _symmetry_equiv_pos_site_id
 _symmetry_equiv_pos_as_xyz
  1  'x, y, z'
loop_
 _atom_site_type_symbol
 _atom_site_label
 _atom_site_symmetry_multiplicity
 _atom_site_fract_x
 _atom_site_fract_y
 _atom_site_fract_z
 _atom_site_occupancy
  Li  Li0  1  0.999953  0.999541  0.001130  1
  La  La1  1  0.813010  0.812844  0.814820  1
  La  La2  1  0.185635  0.185645  0.184945  1
  La  La3  1  0.139223  0.383185  0.686282  1
  La  La4  1  0.683874  0.137062  0.381202  1
  La  La5  1  0.381548  0.684486  0.138402  1
  La  La6  1  0.860362  0.622259  0.313424  1
  La  La7  1  0.317687  0.858928  0.618339  1
  La  La8  1  0.616832  0.315464  0.862514  1
  Ir  Ir9  1  0.573606  0.948552  0.186668  1
  Ir  Ir10  1  0.187619  0.572334  0.947136  1
  Ir  Ir11  1  0.051543  0.814985  0.427950  1
  Ir  Ir12  1  0.426960  0.052845  0.812584  1
  Ir  Ir13  1  0.813802  0.425677  0.052399  1
  Rh  Rh14  1  0.948348  0.186192  0.572203  1
