# generated using pymatgen
data_Zr2ZnB2Ir4Ru
_symmetry_space_group_name_H-M   'P 1'
_cell_length_a   9.49842300
_cell_length_b   9.49842300
_cell_length_c   3.06379400
_cell_angle_alpha   90.00000000
_cell_angle_beta   90.00000000
_cell_angle_gamma   90.00000000
_symmetry_Int_Tables_number   1
_chemical_formula_structural   Zr2ZnB2Ir4Ru
_chemical_formula_sum   'Zr4 Zn2 B4 Ir8 Ru2'
_cell_volume   276.41561566
_cell_formula_units_Z   2
loop_
 _symmetry_equiv_pos_site_id
 _symmetry_equiv_pos_as_xyz
  1  'x, y, z'
loop_
 _atom_site_type_symbol
 _atom_site_label
 _atom_site_symmetry_multiplicity
 _atom_site_fract_x
 _atom_site_fract_y
 _atom_site_fract_z
 _atom_site_occupancy
  Zr  Zr0  1  0.673700  0.173700  0.000000  1
  Zr  Zr1  1  0.326300  0.826300  0.000000  1
  Zr  Zr2  1  0.173700  0.326300  0.000000  1
  Zr  Zr3  1  0.826300  0.673700  0.000000  1
  Zn  Zn4  1  0.000000  0.000000  0.000000  1
  Zn  Zn5  1  0.500000  0.500000  0.000000  1
  B  B6  1  0.124175  0.624175  0.000000  1
  B  B7  1  0.875825  0.375825  0.000000  1
  B  B8  1  0.624175  0.875825  0.000000  1
  B  B9  1  0.375825  0.124175  0.000000  1
  Ir  Ir10  1  0.216766  0.070376  0.500000  1
  Ir  Ir11  1  0.783234  0.929624  0.500000  1
  Ir  Ir12  1  0.070376  0.783234  0.500000  1
  Ir  Ir13  1  0.716766  0.429624  0.500000  1
  Ir  Ir14  1  0.929624  0.216766  0.500000  1
  Ir  Ir15  1  0.283234  0.570376  0.500000  1
  Ir  Ir16  1  0.570376  0.716766  0.500000  1
  Ir  Ir17  1  0.429624  0.283234  0.500000  1
  Ru  Ru18  1  0.500000  0.000000  0.500000  1
  Ru  Ru19  1  0.000000  0.500000  0.500000  1
