# generated using pymatgen
data_Ho9Er3Co4BiRh
_symmetry_space_group_name_H-M   'P 1'
_cell_length_a   8.28075827
_cell_length_b   8.28306859
_cell_length_c   8.28075896
_cell_angle_alpha   110.77576174
_cell_angle_beta   110.94432836
_cell_angle_gamma   106.71722865
_symmetry_Int_Tables_number   1
_chemical_formula_structural   Ho9Er3Co4BiRh
_chemical_formula_sum   'Ho9 Er3 Co4 Bi1 Rh1'
_cell_volume   436.53643129
_cell_formula_units_Z   1
loop_
 _symmetry_equiv_pos_site_id
 _symmetry_equiv_pos_as_xyz
  1  'x, y, z'
loop_
 _atom_site_type_symbol
 _atom_site_label
 _atom_site_symmetry_multiplicity
 _atom_site_fract_x
 _atom_site_fract_y
 _atom_site_fract_z
 _atom_site_occupancy
  Ho  Ho0  1  0.288055  0.184102  0.472396  1
  Ho  Ho1  1  0.712394  0.816071  0.528169  1
  Ho  Ho2  1  0.287901  0.816071  0.103676  1
  Ho  Ho3  1  0.711707  0.184102  0.896047  1
  Ho  Ho4  1  0.620017  0.310967  0.308665  1
  Ho  Ho5  1  0.380330  0.689198  0.691677  1
  Ho  Ho6  1  0.002303  0.310967  0.690950  1
  Ho  Ho7  1  0.997520  0.689198  0.308868  1
  Ho  Ho8  1  0.210446  0.408006  0.197561  1
  Er  Er9  1  0.789457  0.591887  0.802430  1
  Er  Er10  1  0.210418  0.012598  0.802179  1
  Er  Er11  1  0.789705  0.987387  0.197681  1
  Co  Co12  1  0.999813  0.376258  0.376445  1
  Co  Co13  1  0.000117  0.623963  0.623845  1
  Co  Co14  1  0.388870  0.889116  0.500246  1
  Co  Co15  1  0.611201  0.111107  0.499906  1
  Bi  Bi16  1  0.500171  0.499961  0.999790  1
  Rh  Rh17  1  0.999573  0.999042  0.999469  1
