# generated using pymatgen
data_Nd4Er3Tm(ReB6)4
_symmetry_space_group_name_H-M   'P 1'
_cell_length_a   3.71657700
_cell_length_b   9.22879500
_cell_length_c   11.69088200
_cell_angle_alpha   90.00247539
_cell_angle_beta   90.00000000
_cell_angle_gamma   90.00000000
_symmetry_Int_Tables_number   1
_chemical_formula_structural   Nd4Er3Tm(ReB6)4
_chemical_formula_sum   'Nd4 Er3 Tm1 Re4 B24'
_cell_volume   400.99172537
_cell_formula_units_Z   1
loop_
 _symmetry_equiv_pos_site_id
 _symmetry_equiv_pos_as_xyz
  1  'x, y, z'
loop_
 _atom_site_type_symbol
 _atom_site_label
 _atom_site_symmetry_multiplicity
 _atom_site_fract_x
 _atom_site_fract_y
 _atom_site_fract_z
 _atom_site_occupancy
  Nd  Nd0  1  0.000000  0.322840  0.414447  1
  Nd  Nd1  1  0.000000  0.677146  0.585621  1
  Nd  Nd2  1  0.000000  0.822763  0.085534  1
  Nd  Nd3  1  0.000000  0.177229  0.914428  1
  Er  Er4  1  0.000000  0.943139  0.369493  1
  Er  Er5  1  0.000000  0.056863  0.630535  1
  Er  Er6  1  0.000000  0.443187  0.130361  1
  Tm  Tm7  1  0.000000  0.556871  0.869413  1
  Re  Re8  1  0.000000  0.639769  0.318964  1
  Re  Re9  1  0.000000  0.360439  0.681225  1
  Re  Re10  1  0.000000  0.139807  0.180966  1
  Re  Re11  1  0.000000  0.859939  0.819026  1
  B  B12  1  0.500000  0.555340  0.430270  1
  B  B13  1  0.500000  0.444667  0.569776  1
  B  B14  1  0.500000  0.055327  0.069730  1
  B  B15  1  0.500000  0.944613  0.930250  1
  B  B16  1  0.500000  0.750581  0.415806  1
  B  B17  1  0.500000  0.249437  0.584216  1
  B  B18  1  0.500000  0.250585  0.084195  1
  B  B19  1  0.500000  0.749103  0.915819  1
  B  B20  1  0.500000  0.791927  0.265938  1
  B  B21  1  0.500000  0.208136  0.734072  1
  B  B22  1  0.500000  0.291936  0.234054  1
  B  B23  1  0.500000  0.707819  0.766004  1
  B  B24  1  0.500000  0.629584  0.186030  1
  B  B25  1  0.500000  0.370636  0.814119  1
  B  B26  1  0.500000  0.129581  0.313961  1
  B  B27  1  0.500000  0.870374  0.686072  1
  B  B28  1  0.500000  0.983838  0.213404  1
  B  B29  1  0.500000  0.016138  0.786603  1
  B  B30  1  0.500000  0.483825  0.286593  1
  B  B31  1  0.500000  0.516322  0.713577  1
  B  B32  1  0.500000  0.595890  0.026084  1
  B  B33  1  0.500000  0.404350  0.973408  1
  B  B34  1  0.500000  0.095915  0.473634  1
  B  B35  1  0.500000  0.904086  0.526375  1
