# generated using pymatgen
data_Y3FeCo7NiP6
_symmetry_space_group_name_H-M   'P 1'
_cell_length_a   3.70659100
_cell_length_b   10.49389900
_cell_length_c   12.19583000
_cell_angle_alpha   90.00000000
_cell_angle_beta   90.00000000
_cell_angle_gamma   90.00000000
_symmetry_Int_Tables_number   1
_chemical_formula_structural   Y3FeCo7NiP6
_chemical_formula_sum   'Y6 Fe2 Co14 Ni2 P12'
_cell_volume   474.37621859
_cell_formula_units_Z   2
loop_
 _symmetry_equiv_pos_site_id
 _symmetry_equiv_pos_as_xyz
  1  'x, y, z'
loop_
 _atom_site_type_symbol
 _atom_site_label
 _atom_site_symmetry_multiplicity
 _atom_site_fract_x
 _atom_site_fract_y
 _atom_site_fract_z
 _atom_site_occupancy
  Y  Y0  1  0.000000  0.500000  0.519543  1
  Y  Y1  1  0.500000  0.000000  0.480457  1
  Y  Y2  1  0.500000  0.815778  0.204569  1
  Y  Y3  1  0.500000  0.184222  0.204569  1
  Y  Y4  1  0.000000  0.684222  0.795431  1
  Y  Y5  1  0.000000  0.315778  0.795431  1
  Fe  Fe6  1  0.500000  0.500000  0.156607  1
  Fe  Fe7  1  0.000000  0.000000  0.843393  1
  Co  Co8  1  0.000000  0.500000  0.986011  1
  Co  Co9  1  0.500000  0.000000  0.013989  1
  Co  Co10  1  0.500000  0.333102  0.994434  1
  Co  Co11  1  0.500000  0.666898  0.994434  1
  Co  Co12  1  0.000000  0.166898  0.005566  1
  Co  Co13  1  0.000000  0.833102  0.005566  1
  Co  Co14  1  0.500000  0.297601  0.430926  1
  Co  Co15  1  0.500000  0.702399  0.430926  1
  Co  Co16  1  0.000000  0.202399  0.569074  1
  Co  Co17  1  0.000000  0.797601  0.569074  1
  Co  Co18  1  0.500000  0.878813  0.709813  1
  Co  Co19  1  0.500000  0.121187  0.709813  1
  Co  Co20  1  0.000000  0.621187  0.290187  1
  Co  Co21  1  0.000000  0.378813  0.290187  1
  Ni  Ni22  1  0.500000  0.500000  0.702090  1
  Ni  Ni23  1  0.000000  0.000000  0.297910  1
  P  P24  1  0.500000  0.500000  0.883175  1
  P  P25  1  0.000000  0.000000  0.116825  1
  P  P26  1  0.500000  0.500000  0.341813  1
  P  P27  1  0.000000  0.000000  0.658187  1
  P  P28  1  0.500000  0.309279  0.615230  1
  P  P29  1  0.500000  0.690721  0.615230  1
  P  P30  1  0.000000  0.190721  0.384770  1
  P  P31  1  0.000000  0.809279  0.384770  1
  P  P32  1  0.500000  0.847934  0.893168  1
  P  P33  1  0.500000  0.152066  0.893168  1
  P  P34  1  0.000000  0.652066  0.106832  1
  P  P35  1  0.000000  0.347934  0.106832  1
