# generated using pymatgen
data_Tb13Ce3(AlRu)4
_symmetry_space_group_name_H-M   'P 1'
_cell_length_a   9.60314528
_cell_length_b   9.51530037
_cell_length_c   9.48773070
_cell_angle_alpha   60.71434186
_cell_angle_beta   60.24142590
_cell_angle_gamma   60.52679269
_symmetry_Int_Tables_number   1
_chemical_formula_structural   Tb13Ce3(AlRu)4
_chemical_formula_sum   'Tb13 Ce3 Al4 Ru4'
_cell_volume   619.85816493
_cell_formula_units_Z   1
loop_
 _symmetry_equiv_pos_site_id
 _symmetry_equiv_pos_as_xyz
  1  'x, y, z'
loop_
 _atom_site_type_symbol
 _atom_site_label
 _atom_site_symmetry_multiplicity
 _atom_site_fract_x
 _atom_site_fract_y
 _atom_site_fract_z
 _atom_site_occupancy
  Tb  Tb0  1  0.313237  0.683687  0.313784  1
  Tb  Tb1  1  0.942659  0.552163  0.551103  1
  Tb  Tb2  1  0.314031  0.315129  0.684648  1
  Tb  Tb3  1  0.106646  0.102093  0.101869  1
  Tb  Tb4  1  0.552928  0.553833  0.942708  1
  Tb  Tb5  1  0.099735  0.103739  0.696889  1
  Tb  Tb6  1  0.687076  0.310779  0.685431  1
  Tb  Tb7  1  0.691541  0.683050  0.310295  1
  Tb  Tb8  1  0.691016  0.309204  0.311355  1
  Tb  Tb9  1  0.310568  0.688603  0.689644  1
  Tb  Tb10  1  0.550166  0.942920  0.556329  1
  Tb  Tb11  1  0.700079  0.100219  0.099607  1
  Tb  Tb12  1  0.547276  0.946070  0.946853  1
  Ce  Ce13  1  0.100406  0.713146  0.094586  1
  Ce  Ce14  1  0.937069  0.939579  0.558339  1
  Ce  Ce15  1  0.936846  0.556356  0.939030  1
  Al  Al16  1  0.325308  0.327929  0.325726  1
  Al  Al17  1  0.021884  0.330212  0.325545  1
  Al  Al18  1  0.328800  0.020125  0.325371  1
  Al  Al19  1  0.328764  0.326102  0.021144  1
  Ru  Ru20  1  0.903776  0.869801  0.875368  1
  Ru  Ru21  1  0.896076  0.900708  0.343095  1
  Ru  Ru22  1  0.318019  0.880013  0.898560  1
  Ru  Ru23  1  0.896091  0.344539  0.902718  1
