# generated using pymatgen
data_HoHgBPd6
_symmetry_space_group_name_H-M   'P 1'
_cell_length_a   5.87778241
_cell_length_b   5.87778385
_cell_length_c   5.87778400
_cell_angle_alpha   60.00001042
_cell_angle_beta   60.00000229
_cell_angle_gamma   60.00000640
_symmetry_Int_Tables_number   1
_chemical_formula_structural   HoHgBPd6
_chemical_formula_sum   'Ho1 Hg1 B1 Pd6'
_cell_volume   143.59053155
_cell_formula_units_Z   1
loop_
 _symmetry_equiv_pos_site_id
 _symmetry_equiv_pos_as_xyz
  1  'x, y, z'
loop_
 _atom_site_type_symbol
 _atom_site_label
 _atom_site_symmetry_multiplicity
 _atom_site_fract_x
 _atom_site_fract_y
 _atom_site_fract_z
 _atom_site_occupancy
  Ho  Ho0  1  0.750000  0.750000  0.750000  1
  Hg  Hg1  1  0.250000  0.250000  0.250000  1
  B  B2  1  0.499999  0.499999  0.499999  1
  Pd  Pd3  1  0.755155  0.244844  0.244844  1
  Pd  Pd4  1  0.244844  0.755155  0.244844  1
  Pd  Pd5  1  0.755155  0.755155  0.244844  1
  Pd  Pd6  1  0.244844  0.244844  0.755155  1
  Pd  Pd7  1  0.755155  0.244844  0.755155  1
  Pd  Pd8  1  0.244844  0.755155  0.755155  1
