# generated using pymatgen
data_YTh11(GePd)12
_symmetry_space_group_name_H-M   'P 1'
_cell_length_a   4.43598000
_cell_length_b   7.65966324
_cell_length_c   23.13900403
_cell_angle_alpha   89.96847785
_cell_angle_beta   90.00000000
_cell_angle_gamma   90.00000000
_symmetry_Int_Tables_number   1
_chemical_formula_structural   YTh11(GePd)12
_chemical_formula_sum   'Y1 Th11 Ge12 Pd12'
_cell_volume   786.21957354
_cell_formula_units_Z   1
loop_
 _symmetry_equiv_pos_site_id
 _symmetry_equiv_pos_as_xyz
  1  'x, y, z'
loop_
 _atom_site_type_symbol
 _atom_site_label
 _atom_site_symmetry_multiplicity
 _atom_site_fract_x
 _atom_site_fract_y
 _atom_site_fract_z
 _atom_site_occupancy
  Y  Y0  1  0.250000  0.748974  0.500156  1
  Th  Th1  1  0.250000  0.750498  0.335811  1
  Th  Th2  1  0.750000  0.248349  0.665220  1
  Th  Th3  1  0.750000  0.252158  0.166925  1
  Th  Th4  1  0.250000  0.748749  0.832818  1
  Th  Th5  1  0.250000  0.750399  0.167053  1
  Th  Th6  1  0.750000  0.250310  0.832898  1
  Th  Th7  1  0.750000  0.250760  0.334743  1
  Th  Th8  1  0.250000  0.749240  0.664175  1
  Th  Th9  1  0.250000  0.751591  0.999859  1
  Th  Th10  1  0.750000  0.249683  0.999979  1
  Th  Th11  1  0.750000  0.249010  0.500040  1
  Ge  Ge12  1  0.250000  0.084457  0.080542  1
  Ge  Ge13  1  0.750000  0.916624  0.919933  1
  Ge  Ge14  1  0.750000  0.586417  0.417780  1
  Ge  Ge15  1  0.250000  0.417736  0.583172  1
  Ge  Ge16  1  0.250000  0.084485  0.248995  1
  Ge  Ge17  1  0.750000  0.915226  0.752631  1
  Ge  Ge18  1  0.750000  0.585121  0.248717  1
  Ge  Ge19  1  0.250000  0.415746  0.751139  1
  Ge  Ge20  1  0.250000  0.080802  0.417586  1
  Ge  Ge21  1  0.750000  0.912469  0.583671  1
  Ge  Ge22  1  0.750000  0.584836  0.080060  1
  Ge  Ge23  1  0.250000  0.416286  0.919940  1
  Pd  Pd24  1  0.250000  0.418206  0.252359  1
  Pd  Pd25  1  0.750000  0.581878  0.747409  1
  Pd  Pd26  1  0.750000  0.918515  0.251490  1
  Pd  Pd27  1  0.250000  0.081977  0.747381  1
  Pd  Pd28  1  0.250000  0.416801  0.419415  1
  Pd  Pd29  1  0.750000  0.580323  0.580582  1
  Pd  Pd30  1  0.750000  0.918379  0.085981  1
  Pd  Pd31  1  0.250000  0.082589  0.913444  1
  Pd  Pd32  1  0.250000  0.418398  0.085264  1
  Pd  Pd33  1  0.750000  0.582823  0.914675  1
  Pd  Pd34  1  0.750000  0.918322  0.418411  1
  Pd  Pd35  1  0.250000  0.081866  0.579749  1
