# generated using pymatgen
data_Li2Ce(NdPt)3
_symmetry_space_group_name_H-M   'P 1'
_cell_length_a   7.73275000
_cell_length_b   7.69040483
_cell_length_c   4.12157800
_cell_angle_alpha   90.00000000
_cell_angle_beta   90.00000000
_cell_angle_gamma   120.18231252
_symmetry_Int_Tables_number   1
_chemical_formula_structural   Li2Ce(NdPt)3
_chemical_formula_sum   'Li2 Ce1 Nd3 Pt3'
_cell_volume   211.87345498
_cell_formula_units_Z   1
loop_
 _symmetry_equiv_pos_site_id
 _symmetry_equiv_pos_as_xyz
  1  'x, y, z'
loop_
 _atom_site_type_symbol
 _atom_site_label
 _atom_site_symmetry_multiplicity
 _atom_site_fract_x
 _atom_site_fract_y
 _atom_site_fract_z
 _atom_site_occupancy
  Li  Li0  1  0.007195  0.246374  0.500000  1
  Li  Li1  1  0.760820  0.753626  0.500000  1
  Ce  Ce2  1  0.241753  0.000000  0.500000  1
  Nd  Nd3  1  0.420579  0.447851  0.000000  1
  Nd  Nd4  1  0.617580  0.000000  0.000000  1
  Nd  Nd5  1  0.972728  0.552149  0.000000  1
  Pt  Pt6  1  0.653443  0.325058  0.500000  1
  Pt  Pt7  1  0.997518  0.000000  0.000000  1
  Pt  Pt8  1  0.328384  0.674942  0.500000  1
