# generated using pymatgen
data_Pr12POsI17
_symmetry_space_group_name_H-M   'P 1'
_cell_length_a   10.08218282
_cell_length_b   12.07540966
_cell_length_c   12.06821567
_cell_angle_alpha   93.59057419
_cell_angle_beta   104.71879353
_cell_angle_gamma   114.58176610
_symmetry_Int_Tables_number   1
_chemical_formula_structural   Pr12POsI17
_chemical_formula_sum   'Pr12 P1 Os1 I17'
_cell_volume   1268.37178447
_cell_formula_units_Z   1
loop_
 _symmetry_equiv_pos_site_id
 _symmetry_equiv_pos_as_xyz
  1  'x, y, z'
loop_
 _atom_site_type_symbol
 _atom_site_label
 _atom_site_symmetry_multiplicity
 _atom_site_fract_x
 _atom_site_fract_y
 _atom_site_fract_z
 _atom_site_occupancy
  Pr  Pr0  1  0.058565  0.513870  0.323832  1
  Pr  Pr1  1  0.987361  0.809315  0.581337  1
  Pr  Pr2  1  0.642464  0.240083  0.285814  1
  Pr  Pr3  1  0.011621  0.189004  0.419547  1
  Pr  Pr4  1  0.222293  0.669799  0.990012  1
  Pr  Pr5  1  0.262347  0.985914  0.895797  1
  Pr  Pr6  1  0.358119  0.759526  0.717900  1
  Pr  Pr7  1  0.942996  0.487862  0.675781  1
  Pr  Pr8  1  0.738258  0.010624  0.106410  1
  Pr  Pr9  1  0.153643  0.287692  0.149000  1
  Pr  Pr10  1  0.775513  0.330895  0.007151  1
  Pr  Pr11  1  0.849956  0.713309  0.851576  1
  P  P12  1  0.103832  0.737783  0.784258  1
  Os  Os13  1  0.895575  0.261929  0.213914  1
  I  I14  1  0.784954  0.531613  0.423084  1
  I  I15  1  0.643000  0.423235  0.753148  1
  I  I16  1  0.843085  0.892009  0.326842  1
  I  I17  1  0.326946  0.213059  0.371063  1
  I  I18  1  0.157908  0.100723  0.679252  1
  I  I19  1  0.579438  0.048182  0.838030  1
  I  I20  1  0.754728  0.182825  0.542031  1
  I  I21  1  0.541252  0.700049  0.950697  1
  I  I22  1  0.362171  0.584489  0.240873  1
  I  I23  1  0.216949  0.475085  0.586858  1
  I  I24  1  0.057843  0.372414  0.892831  1
  I  I25  1  0.449843  0.292184  0.043155  1
  I  I26  1  0.999145  0.996802  0.995131  1
  I  I27  1  0.248503  0.822666  0.467738  1
  I  I28  1  0.406574  0.942769  0.153734  1
  I  I29  1  0.677337  0.787226  0.632125  1
  I  I30  1  0.947781  0.637066  0.101079  1
