# generated using pymatgen
data_Tl(FeCl3)2
_symmetry_space_group_name_H-M   'P 1'
_cell_length_a   6.88267015
_cell_length_b   6.71618874
_cell_length_c   7.83008200
_cell_angle_alpha   77.83170053
_cell_angle_beta   79.82165981
_cell_angle_gamma   56.64553657
_symmetry_Int_Tables_number   1
_chemical_formula_structural   Tl(FeCl3)2
_chemical_formula_sum   'Tl1 Fe2 Cl6'
_cell_volume   294.71620534
_cell_formula_units_Z   1
loop_
 _symmetry_equiv_pos_site_id
 _symmetry_equiv_pos_as_xyz
  1  'x, y, z'
loop_
 _atom_site_type_symbol
 _atom_site_label
 _atom_site_symmetry_multiplicity
 _atom_site_fract_x
 _atom_site_fract_y
 _atom_site_fract_z
 _atom_site_occupancy
  Tl  Tl0  1  0.131778  0.976953  0.495548  1
  Fe  Fe1  1  0.899404  0.604358  0.285144  1
  Fe  Fe2  1  0.976542  0.820762  0.957801  1
  Cl  Cl3  1  0.602097  0.559998  0.348947  1
  Cl  Cl4  1  0.081460  0.425890  0.035689  1
  Cl  Cl5  1  0.140744  0.452892  0.493064  1
  Cl  Cl6  1  0.719598  0.019121  0.760651  1
  Cl  Cl7  1  0.304010  0.807474  0.874320  1
  Cl  Cl8  1  0.788368  0.000917  0.207160  1
