# generated using pymatgen
data_DyTi2BiF14
_symmetry_space_group_name_H-M   'P 1'
_cell_length_a   5.54957200
_cell_length_b   8.87858348
_cell_length_c   11.81417600
_cell_angle_alpha   62.90220001
_cell_angle_beta   90.00000000
_cell_angle_gamma   90.00000000
_symmetry_Int_Tables_number   1
_chemical_formula_structural   DyTi2BiF14
_chemical_formula_sum   'Dy2 Ti4 Bi2 F28'
_cell_volume   518.21380609
_cell_formula_units_Z   2
loop_
 _symmetry_equiv_pos_site_id
 _symmetry_equiv_pos_as_xyz
  1  'x, y, z'
loop_
 _atom_site_type_symbol
 _atom_site_label
 _atom_site_symmetry_multiplicity
 _atom_site_fract_x
 _atom_site_fract_y
 _atom_site_fract_z
 _atom_site_occupancy
  Dy  Dy0  1  0.242172  0.186096  0.235908  1
  Dy  Dy1  1  0.742172  0.813904  0.264092  1
  Ti  Ti2  1  0.755432  0.271555  0.962476  1
  Ti  Ti3  1  0.255432  0.728445  0.537524  1
  Ti  Ti4  1  0.242835  0.721384  0.047850  1
  Ti  Ti5  1  0.742835  0.278616  0.452150  1
  Bi  Bi6  1  0.761556  0.812703  0.762513  1
  Bi  Bi7  1  0.261556  0.187297  0.737487  1
  F  F8  1  0.434363  0.704584  0.924272  1
  F  F9  1  0.934363  0.295416  0.575728  1
  F  F10  1  0.557982  0.290476  0.084284  1
  F  F11  1  0.057982  0.709524  0.415716  1
  F  F12  1  0.453526  0.281682  0.537306  1
  F  F13  1  0.953526  0.718318  0.962694  1
  F  F14  1  0.544776  0.722538  0.452635  1
  F  F15  1  0.044776  0.277462  0.047365  1
  F  F16  1  0.778081  0.507040  0.867081  1
  F  F17  1  0.278081  0.492960  0.632919  1
  F  F18  1  0.228326  0.484368  0.141111  1
  F  F19  1  0.728326  0.515632  0.358889  1
  F  F20  1  0.759747  0.033449  0.053390  1
  F  F21  1  0.259747  0.966551  0.446610  1
  F  F22  1  0.241181  0.960683  0.952352  1
  F  F23  1  0.741181  0.039317  0.547648  1
  F  F24  1  0.974697  0.727767  0.627840  1
  F  F25  1  0.474697  0.272233  0.872160  1
  F  F26  1  0.015764  0.270423  0.360022  1
  F  F27  1  0.515764  0.729577  0.139978  1
  F  F28  1  0.047915  0.744340  0.172017  1
  F  F29  1  0.547915  0.255660  0.327983  1
  F  F30  1  0.938045  0.253349  0.833199  1
  F  F31  1  0.438045  0.746651  0.666801  1
  F  F32  1  0.415564  0.971257  0.229142  1
  F  F33  1  0.915564  0.028743  0.270858  1
  F  F34  1  0.608037  0.037177  0.775876  1
  F  F35  1  0.108037  0.962823  0.724124  1
