# generated using pymatgen
data_Y4HoLu5Bi6
_symmetry_space_group_name_H-M   'P 1'
_cell_length_a   8.19432100
_cell_length_b   9.41755618
_cell_length_c   11.99959423
_cell_angle_alpha   89.97740363
_cell_angle_beta   90.00000000
_cell_angle_gamma   90.00000000
_symmetry_Int_Tables_number   1
_chemical_formula_structural   Y4HoLu5Bi6
_chemical_formula_sum   'Y8 Ho2 Lu10 Bi12'
_cell_volume   926.01435557
_cell_formula_units_Z   2
loop_
 _symmetry_equiv_pos_site_id
 _symmetry_equiv_pos_as_xyz
  1  'x, y, z'
loop_
 _atom_site_type_symbol
 _atom_site_label
 _atom_site_symmetry_multiplicity
 _atom_site_fract_x
 _atom_site_fract_y
 _atom_site_fract_z
 _atom_site_occupancy
  Y  Y0  1  0.185903  0.749934  0.718439  1
  Y  Y1  1  0.685903  0.750066  0.781561  1
  Y  Y2  1  0.813882  0.250139  0.281387  1
  Y  Y3  1  0.313882  0.249861  0.218613  1
  Y  Y4  1  0.353144  0.749691  0.216443  1
  Y  Y5  1  0.853144  0.750309  0.283557  1
  Y  Y6  1  0.646503  0.250144  0.783447  1
  Y  Y7  1  0.146503  0.249856  0.716553  1
  Ho  Ho8  1  0.307754  0.434501  0.940924  1
  Ho  Ho9  1  0.807754  0.065499  0.559076  1
  Lu  Lu10  1  0.023367  0.750244  0.989564  1
  Lu  Lu11  1  0.523367  0.749756  0.510436  1
  Lu  Lu12  1  0.975853  0.249623  0.010715  1
  Lu  Lu13  1  0.475853  0.250377  0.489285  1
  Lu  Lu14  1  0.692373  0.933033  0.058980  1
  Lu  Lu15  1  0.192373  0.566967  0.441020  1
  Lu  Lu16  1  0.692160  0.567135  0.058941  1
  Lu  Lu17  1  0.192160  0.932865  0.441059  1
  Lu  Lu18  1  0.307736  0.066402  0.940956  1
  Lu  Lu19  1  0.807736  0.433598  0.559044  1
  Bi  Bi20  1  0.433911  0.003791  0.671740  1
  Bi  Bi21  1  0.933911  0.496209  0.828260  1
  Bi  Bi22  1  0.566072  0.503952  0.328400  1
  Bi  Bi23  1  0.066072  0.996048  0.171600  1
  Bi  Bi24  1  0.566216  0.996220  0.328190  1
  Bi  Bi25  1  0.066216  0.503780  0.171810  1
  Bi  Bi26  1  0.434118  0.496224  0.671680  1
  Bi  Bi27  1  0.934118  0.003776  0.828320  1
  Bi  Bi28  1  0.405038  0.751538  0.957699  1
  Bi  Bi29  1  0.905038  0.748462  0.542301  1
  Bi  Bi30  1  0.595970  0.249441  0.042749  1
  Bi  Bi31  1  0.095970  0.250559  0.457251  1
