# generated using pymatgen
data_Tb3Dy2HoRu2
_symmetry_space_group_name_H-M   'P 1'
_cell_length_a   6.32827376
_cell_length_b   7.30925800
_cell_length_c   9.22775703
_cell_angle_alpha   90.00000000
_cell_angle_beta   90.27592915
_cell_angle_gamma   90.00000000
_symmetry_Int_Tables_number   1
_chemical_formula_structural   Tb3Dy2HoRu2
_chemical_formula_sum   'Tb6 Dy4 Ho2 Ru4'
_cell_volume   426.82481872
_cell_formula_units_Z   2
loop_
 _symmetry_equiv_pos_site_id
 _symmetry_equiv_pos_as_xyz
  1  'x, y, z'
loop_
 _atom_site_type_symbol
 _atom_site_label
 _atom_site_symmetry_multiplicity
 _atom_site_fract_x
 _atom_site_fract_y
 _atom_site_fract_z
 _atom_site_occupancy
  Tb  Tb0  1  0.329746  0.677126  0.064906  1
  Tb  Tb1  1  0.170254  0.177126  0.435094  1
  Tb  Tb2  1  0.865267  0.539664  0.250285  1
  Tb  Tb3  1  0.634733  0.039664  0.249715  1
  Tb  Tb4  1  0.133553  0.460336  0.749882  1
  Tb  Tb5  1  0.366447  0.960335  0.750118  1
  Dy  Dy6  1  0.670014  0.323724  0.565345  1
  Dy  Dy7  1  0.829986  0.823724  0.934655  1
  Dy  Dy8  1  0.670019  0.323178  0.934446  1
  Dy  Dy9  1  0.829981  0.823178  0.565554  1
  Ho  Ho10  1  0.330415  0.675989  0.435205  1
  Ho  Ho11  1  0.169585  0.175989  0.064795  1
  Ru  Ru12  1  0.040485  0.885432  0.250001  1
  Ru  Ru13  1  0.459515  0.385432  0.249999  1
  Ru  Ru14  1  0.958325  0.114552  0.751900  1
  Ru  Ru15  1  0.541675  0.614552  0.748100  1
