# generated using pymatgen
data_Dy6Y14Ir11Ru
_symmetry_space_group_name_H-M   'P 1'
_cell_length_a   10.90295207
_cell_length_b   10.90301700
_cell_length_c   6.41057104
_cell_angle_alpha   89.99894724
_cell_angle_beta   90.01277011
_cell_angle_gamma   89.99872834
_symmetry_Int_Tables_number   1
_chemical_formula_structural   Dy6Y14Ir11Ru
_chemical_formula_sum   'Dy6 Y14 Ir11 Ru1'
_cell_volume   762.05707319
_cell_formula_units_Z   1
loop_
 _symmetry_equiv_pos_site_id
 _symmetry_equiv_pos_as_xyz
  1  'x, y, z'
loop_
 _atom_site_type_symbol
 _atom_site_label
 _atom_site_symmetry_multiplicity
 _atom_site_fract_x
 _atom_site_fract_y
 _atom_site_fract_z
 _atom_site_occupancy
  Dy  Dy0  1  0.088380  0.708596  0.620883  1
  Dy  Dy1  1  0.088219  0.291403  0.120566  1
  Dy  Dy2  1  0.000042  0.999965  0.499287  1
  Dy  Dy3  1  0.000038  0.000036  0.999245  1
  Dy  Dy4  1  0.499988  0.500069  0.999140  1
  Dy  Dy5  1  0.499986  0.499934  0.499180  1
  Y  Y6  1  0.292210  0.087445  0.377580  1
  Y  Y7  1  0.292583  0.912493  0.880286  1
  Y  Y8  1  0.707264  0.087411  0.880178  1
  Y  Y9  1  0.707614  0.912655  0.377480  1
  Y  Y10  1  0.587428  0.792710  0.880185  1
  Y  Y11  1  0.587366  0.207662  0.377489  1
  Y  Y12  1  0.412642  0.792343  0.377479  1
  Y  Y13  1  0.412580  0.207304  0.880172  1
  Y  Y14  1  0.209072  0.411498  0.621478  1
  Y  Y15  1  0.209065  0.588349  0.121154  1
  Y  Y16  1  0.791074  0.411638  0.120996  1
  Y  Y17  1  0.791068  0.588510  0.621326  1
  Y  Y18  1  0.911611  0.709064  0.121182  1
  Y  Y19  1  0.911461  0.290928  0.621516  1
  Ir  Ir20  1  0.848118  0.153180  0.249766  1
  Ir  Ir21  1  0.848172  0.847176  0.749540  1
  Ir  Ir22  1  0.152049  0.152942  0.750604  1
  Ir  Ir23  1  0.152105  0.846696  0.250813  1
  Ir  Ir24  1  0.652651  0.347875  0.749766  1
  Ir  Ir25  1  0.653015  0.652179  0.249996  1
  Ir  Ir26  1  0.346517  0.347718  0.249677  1
  Ir  Ir27  1  0.346876  0.652220  0.749440  1
  Ir  Ir28  1  0.499988  0.999984  0.624704  1
  Ir  Ir29  1  0.000412  0.499953  0.876553  1
  Ir  Ir30  1  0.000416  0.500052  0.376692  1
  Ru  Ru31  1  0.499989  0.000010  0.125649  1
