# generated using pymatgen
data_Li3Ho8Sc8Si16Os
_symmetry_space_group_name_H-M   'P 1'
_cell_length_a   6.85326311
_cell_length_b   7.31895899
_cell_length_c   13.91719700
_cell_angle_alpha   90.00000000
_cell_angle_beta   90.00000000
_cell_angle_gamma   90.21865544
_symmetry_Int_Tables_number   1
_chemical_formula_structural   Li3Ho8Sc8Si16Os
_chemical_formula_sum   'Li3 Ho8 Sc8 Si16 Os1'
_cell_volume   698.06414545
_cell_formula_units_Z   1
loop_
 _symmetry_equiv_pos_site_id
 _symmetry_equiv_pos_as_xyz
  1  'x, y, z'
loop_
 _atom_site_type_symbol
 _atom_site_label
 _atom_site_symmetry_multiplicity
 _atom_site_fract_x
 _atom_site_fract_y
 _atom_site_fract_z
 _atom_site_occupancy
  Li  Li0  1  0.843140  0.493227  0.250000  1
  Li  Li1  1  0.342122  0.006190  0.250000  1
  Li  Li2  1  0.659680  0.989023  0.750000  1
  Ho  Ho3  1  0.014675  0.183624  0.094863  1
  Ho  Ho4  1  0.988615  0.822368  0.901118  1
  Ho  Ho5  1  0.490289  0.679548  0.901867  1
  Ho  Ho6  1  0.988615  0.822368  0.598882  1
  Ho  Ho7  1  0.515390  0.318774  0.097535  1
  Ho  Ho8  1  0.014675  0.183624  0.405137  1
  Ho  Ho9  1  0.515390  0.318774  0.402465  1
  Ho  Ho10  1  0.490289  0.679548  0.598133  1
  Sc  Sc11  1  0.331180  0.175342  0.627204  1
  Sc  Sc12  1  0.671680  0.822366  0.374008  1
  Sc  Sc13  1  0.171261  0.675892  0.375919  1
  Sc  Sc14  1  0.671680  0.822366  0.125992  1
  Sc  Sc15  1  0.820806  0.323434  0.628906  1
  Sc  Sc16  1  0.331180  0.175342  0.872796  1
  Sc  Sc17  1  0.820806  0.323434  0.871094  1
  Sc  Sc18  1  0.171261  0.675892  0.124081  1
  Si  Si19  1  0.034299  0.120091  0.750000  1
  Si  Si20  1  0.974517  0.896118  0.250000  1
  Si  Si21  1  0.472418  0.601777  0.250000  1
  Si  Si22  1  0.512518  0.407653  0.750000  1
  Si  Si23  1  0.276888  0.860971  0.750000  1
  Si  Si24  1  0.723383  0.121318  0.250000  1
  Si  Si25  1  0.217340  0.379474  0.250000  1
  Si  Si26  1  0.795211  0.622211  0.750000  1
  Si  Si27  1  0.153354  0.466506  0.549987  1
  Si  Si28  1  0.840251  0.537939  0.467799  1
  Si  Si29  1  0.341592  0.961917  0.465835  1
  Si  Si30  1  0.840251  0.537939  0.032201  1
  Si  Si31  1  0.659805  0.036590  0.535545  1
  Si  Si32  1  0.153354  0.466506  0.950013  1
  Si  Si33  1  0.659805  0.036590  0.964455  1
  Si  Si34  1  0.341592  0.961917  0.034165  1
  Os  Os35  1  0.150681  0.493349  0.750000  1
