# generated using pymatgen
data_Sc2H6IrOs
_symmetry_space_group_name_H-M   'P 1'
_cell_length_a   5.79251876
_cell_length_b   5.79251875
_cell_length_c   4.55091100
_cell_angle_alpha   90.00000000
_cell_angle_beta   90.00000000
_cell_angle_gamma   143.81815502
_symmetry_Int_Tables_number   1
_chemical_formula_structural   Sc2H6IrOs
_chemical_formula_sum   'Sc2 H6 Ir1 Os1'
_cell_volume   90.14523247
_cell_formula_units_Z   1
loop_
 _symmetry_equiv_pos_site_id
 _symmetry_equiv_pos_as_xyz
  1  'x, y, z'
loop_
 _atom_site_type_symbol
 _atom_site_label
 _atom_site_symmetry_multiplicity
 _atom_site_fract_x
 _atom_site_fract_y
 _atom_site_fract_z
 _atom_site_occupancy
  Sc  Sc0  1  0.372909  0.627090  0.249999  1
  Sc  Sc1  1  0.625315  0.374684  0.750000  1
  H  H2  1  0.808094  0.191905  0.008353  1
  H  H3  1  0.587771  0.412227  0.249999  1
  H  H4  1  0.808094  0.191905  0.491645  1
  H  H5  1  0.192395  0.807604  0.510149  1
  H  H6  1  0.414228  0.585770  0.750000  1
  H  H7  1  0.192395  0.807604  0.989851  1
  Ir  Ir8  1  0.916240  0.083758  0.750000  1
  Os  Os9  1  0.082549  0.917449  0.249999  1
