# generated using pymatgen
data_Nd2Th(Ni3P2)3
_symmetry_space_group_name_H-M   'P 1'
_cell_length_a   3.85259600
_cell_length_b   10.57330500
_cell_length_c   12.46715000
_cell_angle_alpha   90.00000000
_cell_angle_beta   90.00000000
_cell_angle_gamma   90.00000000
_symmetry_Int_Tables_number   1
_chemical_formula_structural   Nd2Th(Ni3P2)3
_chemical_formula_sum   'Nd4 Th2 Ni18 P12'
_cell_volume   507.84527288
_cell_formula_units_Z   2
loop_
 _symmetry_equiv_pos_site_id
 _symmetry_equiv_pos_as_xyz
  1  'x, y, z'
loop_
 _atom_site_type_symbol
 _atom_site_label
 _atom_site_symmetry_multiplicity
 _atom_site_fract_x
 _atom_site_fract_y
 _atom_site_fract_z
 _atom_site_occupancy
  Nd  Nd0  1  0.500000  0.812876  0.205150  1
  Nd  Nd1  1  0.500000  0.187124  0.205150  1
  Nd  Nd2  1  0.000000  0.687124  0.794850  1
  Nd  Nd3  1  0.000000  0.312876  0.794850  1
  Th  Th4  1  0.000000  0.500000  0.519903  1
  Th  Th5  1  0.500000  0.000000  0.480097  1
  Ni  Ni6  1  0.500000  0.500000  0.153316  1
  Ni  Ni7  1  0.000000  0.000000  0.846684  1
  Ni  Ni8  1  0.500000  0.500000  0.696899  1
  Ni  Ni9  1  0.000000  0.000000  0.303101  1
  Ni  Ni10  1  0.000000  0.500000  0.981596  1
  Ni  Ni11  1  0.500000  0.000000  0.018404  1
  Ni  Ni12  1  0.500000  0.333481  0.995062  1
  Ni  Ni13  1  0.500000  0.666519  0.995062  1
  Ni  Ni14  1  0.000000  0.166519  0.004938  1
  Ni  Ni15  1  0.000000  0.833481  0.004938  1
  Ni  Ni16  1  0.500000  0.303829  0.426726  1
  Ni  Ni17  1  0.500000  0.696171  0.426726  1
  Ni  Ni18  1  0.000000  0.196171  0.573274  1
  Ni  Ni19  1  0.000000  0.803829  0.573274  1
  Ni  Ni20  1  0.500000  0.881726  0.713214  1
  Ni  Ni21  1  0.500000  0.118274  0.713214  1
  Ni  Ni22  1  0.000000  0.618274  0.286786  1
  Ni  Ni23  1  0.000000  0.381726  0.286786  1
  P  P24  1  0.500000  0.500000  0.876736  1
  P  P25  1  0.000000  0.000000  0.123264  1
  P  P26  1  0.500000  0.500000  0.335181  1
  P  P27  1  0.000000  0.000000  0.664819  1
  P  P28  1  0.500000  0.307764  0.612607  1
  P  P29  1  0.500000  0.692236  0.612607  1
  P  P30  1  0.000000  0.192236  0.387393  1
  P  P31  1  0.000000  0.807764  0.387393  1
  P  P32  1  0.500000  0.850613  0.897067  1
  P  P33  1  0.500000  0.149387  0.897067  1
  P  P34  1  0.000000  0.649387  0.102933  1
  P  P35  1  0.000000  0.350613  0.102933  1
