# generated using pymatgen
data_Ca13Ho7Si15Hg
_symmetry_space_group_name_H-M   'P 1'
_cell_length_a   7.49987225
_cell_length_b   7.79894105
_cell_length_c   15.27538596
_cell_angle_alpha   90.25116765
_cell_angle_beta   89.20006122
_cell_angle_gamma   90.28103742
_symmetry_Int_Tables_number   1
_chemical_formula_structural   Ca13Ho7Si15Hg
_chemical_formula_sum   'Ca13 Ho7 Si15 Hg1'
_cell_volume   893.36739450
_cell_formula_units_Z   1
loop_
 _symmetry_equiv_pos_site_id
 _symmetry_equiv_pos_as_xyz
  1  'x, y, z'
loop_
 _atom_site_type_symbol
 _atom_site_label
 _atom_site_symmetry_multiplicity
 _atom_site_fract_x
 _atom_site_fract_y
 _atom_site_fract_z
 _atom_site_occupancy
  Ca  Ca0  1  0.650056  0.982236  0.251765  1
  Ca  Ca1  1  0.154246  0.516756  0.250579  1
  Ca  Ca2  1  0.846571  0.486452  0.746191  1
  Ca  Ca3  1  0.350089  0.016099  0.747435  1
  Ca  Ca4  1  0.986424  0.823379  0.101150  1
  Ca  Ca5  1  0.472931  0.683132  0.404610  1
  Ca  Ca6  1  0.506257  0.316887  0.900997  1
  Ca  Ca7  1  0.027683  0.183756  0.595422  1
  Ca  Ca8  1  0.027926  0.173590  0.901622  1
  Ca  Ca9  1  0.528103  0.316511  0.595531  1
  Ca  Ca10  1  0.476034  0.681325  0.096770  1
  Ca  Ca11  1  0.973121  0.816618  0.404040  1
  Ca  Ca12  1  0.670003  0.829773  0.873394  1
  Ho  Ho13  1  0.181518  0.677370  0.620024  1
  Ho  Ho14  1  0.826096  0.316757  0.128871  1
  Ho  Ho15  1  0.318869  0.176613  0.380253  1
  Ho  Ho16  1  0.323243  0.179596  0.123669  1
  Ho  Ho17  1  0.817755  0.323664  0.380064  1
  Ho  Ho18  1  0.189044  0.675519  0.877531  1
  Ho  Ho19  1  0.681808  0.823780  0.620302  1
  Si  Si20  1  0.758588  0.604841  0.250825  1
  Si  Si21  1  0.258434  0.895013  0.252201  1
  Si  Si22  1  0.746814  0.111339  0.744830  1
  Si  Si23  1  0.235977  0.392424  0.747820  1
  Si  Si24  1  0.030645  0.115236  0.251713  1
  Si  Si25  1  0.530892  0.382072  0.253982  1
  Si  Si26  1  0.466866  0.611905  0.744098  1
  Si  Si27  1  0.973823  0.885926  0.748482  1
  Si  Si28  1  0.359459  0.965621  0.537694  1
  Si  Si29  1  0.644719  0.039445  0.037999  1
  Si  Si30  1  0.140345  0.465819  0.461209  1
  Si  Si31  1  0.156342  0.463469  0.039775  1
  Si  Si32  1  0.640998  0.034429  0.461534  1
  Si  Si33  1  0.353426  0.967059  0.966517  1
  Si  Si34  1  0.859912  0.535864  0.537261  1
  Hg  Hg35  1  0.834983  0.529726  0.963841  1
