# generated using pymatgen
data_Na2Se21
_symmetry_space_group_name_H-M   'P 1'
_cell_length_a   17.29538275
_cell_length_b   17.29538288
_cell_length_c   10.25801284
_cell_angle_alpha   82.04669335
_cell_angle_beta   82.04669342
_cell_angle_gamma   13.62060430
_symmetry_Int_Tables_number   1
_chemical_formula_structural   Na2Se21
_chemical_formula_sum   'Na2 Se21'
_cell_volume   715.55163553
_cell_formula_units_Z   1
loop_
 _symmetry_equiv_pos_site_id
 _symmetry_equiv_pos_as_xyz
  1  'x, y, z'
loop_
 _atom_site_type_symbol
 _atom_site_label
 _atom_site_symmetry_multiplicity
 _atom_site_fract_x
 _atom_site_fract_y
 _atom_site_fract_z
 _atom_site_occupancy
  Na  Na0  1  0.385233  0.385233  0.047333  1
  Na  Na1  1  0.614767  0.614767  0.952667  1
  Se  Se2  1  0.441589  0.441589  0.322482  1
  Se  Se3  1  0.696082  0.696082  0.174870  1
  Se  Se4  1  0.303918  0.303918  0.825130  1
  Se  Se5  1  0.944521  0.944521  0.695743  1
  Se  Se6  1  0.055479  0.055479  0.304257  1
  Se  Se7  1  0.833180  0.833180  0.407865  1
  Se  Se8  1  0.166820  0.166820  0.592135  1
  Se  Se9  1  0.558411  0.558411  0.677518  1
  Se  Se10  1  0.161887  0.161887  0.187394  1
  Se  Se11  1  0.000000  0.000000  0.500000  1
  Se  Se12  1  0.697650  0.697650  0.872600  1
  Se  Se13  1  0.302350  0.302350  0.127400  1
  Se  Se14  1  0.838113  0.838113  0.812606  1
  Se  Se15  1  0.382625  0.382625  0.477266  1
  Se  Se16  1  0.708553  0.708553  0.638867  1
  Se  Se17  1  0.291447  0.291447  0.361133  1
  Se  Se18  1  0.617375  0.617375  0.522734  1
  Se  Se19  1  0.454792  0.454792  0.806089  1
  Se  Se20  1  0.545208  0.545208  0.193911  1
  Se  Se21  1  0.936612  0.936612  0.197873  1
  Se  Se22  1  0.063388  0.063388  0.802127  1
