# generated using pymatgen
data_Li4ZrCoNi8P7
_symmetry_space_group_name_H-M   'P 1'
_cell_length_a   9.03936090
_cell_length_b   9.02615489
_cell_length_c   3.63352100
_cell_angle_alpha   90.00000000
_cell_angle_beta   90.00000000
_cell_angle_gamma   120.26357840
_symmetry_Int_Tables_number   1
_chemical_formula_structural   Li4ZrCoNi8P7
_chemical_formula_sum   'Li4 Zr1 Co1 Ni8 P7'
_cell_volume   256.05849834
_cell_formula_units_Z   1
loop_
 _symmetry_equiv_pos_site_id
 _symmetry_equiv_pos_as_xyz
  1  'x, y, z'
loop_
 _atom_site_type_symbol
 _atom_site_label
 _atom_site_symmetry_multiplicity
 _atom_site_fract_x
 _atom_site_fract_y
 _atom_site_fract_z
 _atom_site_occupancy
  Li  Li0  1  0.886306  0.784244  0.500000  1
  Li  Li1  1  0.897840  0.113367  0.500000  1
  Li  Li2  1  0.215995  0.102163  0.500000  1
  Li  Li3  1  0.666453  0.333044  0.500000  1
  Zr  Zr4  1  0.333018  0.666993  0.000000  1
  Co  Co5  1  0.563897  0.955126  0.500000  1
  Ni  Ni6  1  0.712635  0.880068  0.000000  1
  Ni  Ni7  1  0.167548  0.287067  0.000000  1
  Ni  Ni8  1  0.119621  0.832090  0.000000  1
  Ni  Ni9  1  0.626400  0.569571  0.000000  1
  Ni  Ni10  1  0.942905  0.373178  0.000000  1
  Ni  Ni11  1  0.429455  0.056426  0.000000  1
  Ni  Ni12  1  0.392412  0.436993  0.500000  1
  Ni  Ni13  1  0.044526  0.608164  0.500000  1
  P  P14  1  0.587353  0.716196  0.500000  1
  P  P15  1  0.126138  0.413263  0.500000  1
  P  P16  1  0.290714  0.876217  0.500000  1
  P  P17  1  0.000161  0.999553  0.000000  1
  P  P18  1  0.877482  0.577406  0.000000  1
  P  P19  1  0.697202  0.119145  0.000000  1
  P  P20  1  0.421936  0.299728  0.000000  1
