# generated using pymatgen
data_PrLuS2
_symmetry_space_group_name_H-M   'P 1'
_cell_length_a   7.00354212
_cell_length_b   7.00354202
_cell_length_c   7.00354107
_cell_angle_alpha   32.36083865
_cell_angle_beta   32.36084497
_cell_angle_gamma   32.36083950
_symmetry_Int_Tables_number   1
_chemical_formula_structural   PrLuS2
_chemical_formula_sum   'Pr1 Lu1 S2'
_cell_volume   87.49198820
_cell_formula_units_Z   1
loop_
 _symmetry_equiv_pos_site_id
 _symmetry_equiv_pos_as_xyz
  1  'x, y, z'
loop_
 _atom_site_type_symbol
 _atom_site_label
 _atom_site_symmetry_multiplicity
 _atom_site_fract_x
 _atom_site_fract_y
 _atom_site_fract_z
 _atom_site_occupancy
  Pr  Pr0  1  0.000000  0.000000  0.000000  1
  Lu  Lu1  1  0.500000  0.500000  0.500000  1
  S  S2  1  0.759356  0.759356  0.759356  1
  S  S3  1  0.240644  0.240644  0.240644  1
