# generated using pymatgen
data_Dy19Tm(Ir5Au)2
_symmetry_space_group_name_H-M   'P 1'
_cell_length_a   11.04672029
_cell_length_b   10.99181201
_cell_length_c   6.33005907
_cell_angle_alpha   90.00373580
_cell_angle_beta   89.86448188
_cell_angle_gamma   89.99853265
_symmetry_Int_Tables_number   1
_chemical_formula_structural   Dy19Tm(Ir5Au)2
_chemical_formula_sum   'Dy19 Tm1 Ir10 Au2'
_cell_volume   768.61560263
_cell_formula_units_Z   1
loop_
 _symmetry_equiv_pos_site_id
 _symmetry_equiv_pos_as_xyz
  1  'x, y, z'
loop_
 _atom_site_type_symbol
 _atom_site_label
 _atom_site_symmetry_multiplicity
 _atom_site_fract_x
 _atom_site_fract_y
 _atom_site_fract_z
 _atom_site_occupancy
  Dy  Dy0  1  0.291638  0.088495  0.371430  1
  Dy  Dy1  1  0.291617  0.911502  0.871548  1
  Dy  Dy2  1  0.697865  0.092035  0.865364  1
  Dy  Dy3  1  0.697848  0.907935  0.365099  1
  Dy  Dy4  1  0.577903  0.789242  0.877107  1
  Dy  Dy5  1  0.577794  0.211249  0.377382  1
  Dy  Dy6  1  0.408579  0.790031  0.376679  1
  Dy  Dy7  1  0.408299  0.209607  0.876558  1
  Dy  Dy8  1  0.210686  0.411695  0.621527  1
  Dy  Dy9  1  0.210320  0.588577  0.121592  1
  Dy  Dy10  1  0.789151  0.419610  0.123447  1
  Dy  Dy11  1  0.788779  0.580205  0.623398  1
  Dy  Dy12  1  0.917545  0.705367  0.139260  1
  Dy  Dy13  1  0.917417  0.294632  0.639372  1
  Dy  Dy14  1  0.096244  0.702901  0.624507  1
  Dy  Dy15  1  0.096196  0.297177  0.124249  1
  Dy  Dy16  1  0.008900  0.997168  0.499926  1
  Dy  Dy17  1  0.009061  0.002751  0.999948  1
  Dy  Dy18  1  0.500178  0.498771  0.000717  1
  Tm  Tm19  1  0.500113  0.501220  0.500665  1
  Ir  Ir20  1  0.154063  0.153764  0.750544  1
  Ir  Ir21  1  0.153956  0.846112  0.250389  1
  Ir  Ir22  1  0.655171  0.347267  0.746382  1
  Ir  Ir23  1  0.654999  0.652764  0.249533  1
  Ir  Ir24  1  0.348415  0.347070  0.253034  1
  Ir  Ir25  1  0.348481  0.652870  0.750119  1
  Ir  Ir26  1  0.499414  0.999491  0.119936  1
  Ir  Ir27  1  0.499472  0.000437  0.619819  1
  Ir  Ir28  1  0.999941  0.501000  0.879883  1
  Ir  Ir29  1  0.999942  0.499000  0.379938  1
  Au  Au30  1  0.845064  0.155265  0.250359  1
  Au  Au31  1  0.844950  0.844790  0.750286  1
