# generated using pymatgen
data_TlSb12Ir3Ru
_symmetry_space_group_name_H-M   'P 1'
_cell_length_a   8.17740322
_cell_length_b   8.17740300
_cell_length_c   8.16871500
_cell_angle_alpha   109.44970008
_cell_angle_beta   109.44969954
_cell_angle_gamma   109.49273019
_symmetry_Int_Tables_number   1
_chemical_formula_structural   TlSb12Ir3Ru
_chemical_formula_sum   'Tl1 Sb12 Ir3 Ru1'
_cell_volume   420.60841779
_cell_formula_units_Z   1
loop_
 _symmetry_equiv_pos_site_id
 _symmetry_equiv_pos_as_xyz
  1  'x, y, z'
loop_
 _atom_site_type_symbol
 _atom_site_label
 _atom_site_symmetry_multiplicity
 _atom_site_fract_x
 _atom_site_fract_y
 _atom_site_fract_z
 _atom_site_occupancy
  Tl  Tl0  1  0.000000  0.000000  0.000000  1
  Sb  Sb1  1  0.845277  0.662909  0.504907  1
  Sb  Sb2  1  0.154723  0.337091  0.495093  1
  Sb  Sb3  1  0.154936  0.658220  0.812770  1
  Sb  Sb4  1  0.845064  0.341780  0.187230  1
  Sb  Sb5  1  0.658220  0.503283  0.845450  1
  Sb  Sb6  1  0.341780  0.496717  0.154550  1
  Sb  Sb7  1  0.662909  0.817633  0.158003  1
  Sb  Sb8  1  0.337091  0.182367  0.841997  1
  Sb  Sb9  1  0.503283  0.845064  0.657833  1
  Sb  Sb10  1  0.496717  0.154936  0.342167  1
  Sb  Sb11  1  0.182367  0.845277  0.340370  1
  Sb  Sb12  1  0.817633  0.154723  0.659630  1
  Ir  Ir13  1  0.500000  0.500000  0.500000  1
  Ir  Ir14  1  0.500000  0.000000  0.000000  1
  Ir  Ir15  1  0.000000  0.500000  0.000000  1
  Ru  Ru16  1  0.000000  0.000000  0.500000  1
