# generated using pymatgen
data_Ru(RhSe4)2
_symmetry_space_group_name_H-M   'P 1'
_cell_length_a   6.05543521
_cell_length_b   6.04068425
_cell_length_c   6.02973061
_cell_angle_alpha   90.27047324
_cell_angle_beta   90.25647644
_cell_angle_gamma   90.03351174
_symmetry_Int_Tables_number   1
_chemical_formula_structural   Ru(RhSe4)2
_chemical_formula_sum   'Ru1 Rh2 Se8'
_cell_volume   220.55664021
_cell_formula_units_Z   1
loop_
 _symmetry_equiv_pos_site_id
 _symmetry_equiv_pos_as_xyz
  1  'x, y, z'
loop_
 _atom_site_type_symbol
 _atom_site_label
 _atom_site_symmetry_multiplicity
 _atom_site_fract_x
 _atom_site_fract_y
 _atom_site_fract_z
 _atom_site_occupancy
  Ru  Ru0  1  0.000000  0.500000  0.500000  1
  Rh  Rh1  1  0.500000  0.000000  0.500000  1
  Rh  Rh2  1  0.500000  0.500000  0.000000  1
  Se  Se3  1  0.382735  0.883262  0.113769  1
  Se  Se4  1  0.112127  0.382104  0.880544  1
  Se  Se5  1  0.882898  0.118557  0.385808  1
  Se  Se6  1  0.617265  0.116738  0.886231  1
  Se  Se7  1  0.887873  0.617896  0.119456  1
  Se  Se8  1  0.117102  0.881443  0.614192  1
  Se  Se9  1  0.625096  0.618304  0.619040  1
  Se  Se10  1  0.374904  0.381696  0.380960  1
