# generated using pymatgen
data_Ca3PdPb3Au2
_symmetry_space_group_name_H-M   'P 1'
_cell_length_a   8.08575500
_cell_length_b   8.08575541
_cell_length_c   4.04185400
_cell_angle_alpha   90.00000000
_cell_angle_beta   90.00000000
_cell_angle_gamma   119.99999423
_symmetry_Int_Tables_number   1
_chemical_formula_structural   Ca3PdPb3Au2
_chemical_formula_sum   'Ca3 Pd1 Pb3 Au2'
_cell_volume   228.85081149
_cell_formula_units_Z   1
loop_
 _symmetry_equiv_pos_site_id
 _symmetry_equiv_pos_as_xyz
  1  'x, y, z'
loop_
 _atom_site_type_symbol
 _atom_site_label
 _atom_site_symmetry_multiplicity
 _atom_site_fract_x
 _atom_site_fract_y
 _atom_site_fract_z
 _atom_site_occupancy
  Ca  Ca0  1  0.398065  0.398065  0.500000  1
  Ca  Ca1  1  0.000000  0.601935  0.500000  1
  Ca  Ca2  1  0.601935  0.000000  0.500000  1
  Pd  Pd3  1  0.000000  0.000000  0.500000  1
  Pb  Pb4  1  0.255863  0.000000  0.000000  1
  Pb  Pb5  1  0.744137  0.744137  0.000000  1
  Pb  Pb6  1  0.000000  0.255863  0.000000  1
  Au  Au7  1  0.666667  0.333333  0.000000  1
  Au  Au8  1  0.333333  0.666667  0.000000  1
