# generated using pymatgen
data_Sr3Li8In
_symmetry_space_group_name_H-M   'P 1'
_cell_length_a   6.23607800
_cell_length_b   6.23607753
_cell_length_c   19.74678500
_cell_angle_alpha   90.00000000
_cell_angle_beta   90.00000000
_cell_angle_gamma   119.99999190
_symmetry_Int_Tables_number   1
_chemical_formula_structural   Sr3Li8In
_chemical_formula_sum   'Sr6 Li16 In2'
_cell_volume   665.04358593
_cell_formula_units_Z   2
loop_
 _symmetry_equiv_pos_site_id
 _symmetry_equiv_pos_as_xyz
  1  'x, y, z'
loop_
 _atom_site_type_symbol
 _atom_site_label
 _atom_site_symmetry_multiplicity
 _atom_site_fract_x
 _atom_site_fract_y
 _atom_site_fract_z
 _atom_site_occupancy
  Sr  Sr0  1  0.333334  0.666668  0.036704  1
  Sr  Sr1  1  0.333334  0.666668  0.250000  1
  Sr  Sr2  1  0.333334  0.666668  0.463296  1
  Sr  Sr3  1  0.666668  0.333334  0.536704  1
  Sr  Sr4  1  0.666668  0.333334  0.750000  1
  Sr  Sr5  1  0.666668  0.333334  0.963296  1
  Li  Li6  1  0.324253  0.162127  0.124377  1
  Li  Li7  1  0.837875  0.162127  0.124377  1
  Li  Li8  1  0.837874  0.675748  0.124377  1
  Li  Li9  1  0.000000  0.000000  0.250000  1
  Li  Li10  1  0.666668  0.333334  0.250000  1
  Li  Li11  1  0.324253  0.162127  0.375623  1
  Li  Li12  1  0.837875  0.162127  0.375623  1
  Li  Li13  1  0.837874  0.675748  0.375623  1
  Li  Li14  1  0.162126  0.324251  0.624377  1
  Li  Li15  1  0.162127  0.837874  0.624377  1
  Li  Li16  1  0.675749  0.837874  0.624377  1
  Li  Li17  1  0.000000  0.000000  0.750000  1
  Li  Li18  1  0.333334  0.666668  0.750000  1
  Li  Li19  1  0.162126  0.324251  0.875622  1
  Li  Li20  1  0.162127  0.837874  0.875622  1
  Li  Li21  1  0.675749  0.837874  0.875622  1
  In  In22  1  0.000000  0.000000  0.000000  1
  In  In23  1  0.000000  0.000000  0.500000  1
