# generated using pymatgen
data_Nd4TcIr3F28
_symmetry_space_group_name_H-M   'P 1'
_cell_length_a   5.71744977
_cell_length_b   9.18155538
_cell_length_c   12.25672200
_cell_angle_alpha   62.24673171
_cell_angle_beta   90.10035247
_cell_angle_gamma   90.05595379
_symmetry_Int_Tables_number   1
_chemical_formula_structural   Nd4TcIr3F28
_chemical_formula_sum   'Nd4 Tc1 Ir3 F28'
_cell_volume   569.39866931
_cell_formula_units_Z   1
loop_
 _symmetry_equiv_pos_site_id
 _symmetry_equiv_pos_as_xyz
  1  'x, y, z'
loop_
 _atom_site_type_symbol
 _atom_site_label
 _atom_site_symmetry_multiplicity
 _atom_site_fract_x
 _atom_site_fract_y
 _atom_site_fract_z
 _atom_site_occupancy
  Nd  Nd0  1  0.259533  0.811052  0.264684  1
  Nd  Nd1  1  0.739964  0.189458  0.734153  1
  Nd  Nd2  1  0.760660  0.189109  0.234826  1
  Nd  Nd3  1  0.240851  0.810497  0.767180  1
  Tc  Tc4  1  0.744159  0.726438  0.543425  1
  Ir  Ir5  1  0.755120  0.726275  0.043348  1
  Ir  Ir6  1  0.244776  0.272993  0.957303  1
  Ir  Ir7  1  0.256447  0.273888  0.456081  1
  F  F8  1  0.939290  0.707589  0.419433  1
  F  F9  1  0.063816  0.293449  0.580503  1
  F  F10  1  0.442573  0.292662  0.081838  1
  F  F11  1  0.559788  0.707553  0.918036  1
  F  F12  1  0.471658  0.731269  0.133397  1
  F  F13  1  0.526940  0.267046  0.867921  1
  F  F14  1  0.970956  0.272656  0.363981  1
  F  F15  1  0.025145  0.730551  0.634187  1
  F  F16  1  0.947050  0.743611  0.170477  1
  F  F17  1  0.051136  0.255234  0.830323  1
  F  F18  1  0.445700  0.256550  0.329590  1
  F  F19  1  0.552609  0.745430  0.669469  1
  F  F20  1  0.761183  0.487447  0.138273  1
  F  F21  1  0.238404  0.512723  0.861332  1
  F  F22  1  0.266544  0.512772  0.360460  1
  F  F23  1  0.733329  0.485974  0.639917  1
  F  F24  1  0.957546  0.284044  0.042288  1
  F  F25  1  0.043748  0.715689  0.957838  1
  F  F26  1  0.455095  0.717649  0.458474  1
  F  F27  1  0.548157  0.281783  0.542549  1
  F  F28  1  0.741543  0.966432  0.449151  1
  F  F29  1  0.256146  0.034673  0.548493  1
  F  F30  1  0.240115  0.033334  0.049433  1
  F  F31  1  0.758656  0.965378  0.951032  1
  F  F32  1  0.588372  0.967816  0.231572  1
  F  F33  1  0.411622  0.031257  0.769547  1
  F  F34  1  0.088432  0.030329  0.269351  1
  F  F35  1  0.912943  0.969394  0.730135  1
