# generated using pymatgen
data_Ba4ZnP3Pt4
_symmetry_space_group_name_H-M   'P 1'
_cell_length_a   6.69251230
_cell_length_b   6.69251230
_cell_length_c   6.69251230
_cell_angle_alpha   90.90621042
_cell_angle_beta   89.09378958
_cell_angle_gamma   90.90621042
_symmetry_Int_Tables_number   1
_chemical_formula_structural   Ba4ZnP3Pt4
_chemical_formula_sum   'Ba4 Zn1 P3 Pt4'
_cell_volume   299.64445304
_cell_formula_units_Z   1
loop_
 _symmetry_equiv_pos_site_id
 _symmetry_equiv_pos_as_xyz
  1  'x, y, z'
loop_
 _atom_site_type_symbol
 _atom_site_label
 _atom_site_symmetry_multiplicity
 _atom_site_fract_x
 _atom_site_fract_y
 _atom_site_fract_z
 _atom_site_occupancy
  Ba  Ba0  1  0.635799  0.377965  0.868528  1
  Ba  Ba1  1  0.368528  0.864201  0.622035  1
  Ba  Ba2  1  0.122035  0.131472  0.135799  1
  Ba  Ba3  1  0.868868  0.631132  0.368868  1
  Zn  Zn4  1  0.591029  0.908971  0.091029  1
  P  P5  1  0.083796  0.584495  0.912021  1
  P  P6  1  0.915505  0.087979  0.583796  1
  P  P7  1  0.412021  0.416204  0.415505  1
  Pt  Pt8  1  0.152126  0.347874  0.652126  1
  Pt  Pt9  1  0.660293  0.177410  0.367412  1
  Pt  Pt10  1  0.867412  0.839707  0.822590  1
  Pt  Pt11  1  0.322590  0.632588  0.160293  1
