# generated using pymatgen
data_Hf15Zr(NbSi4)4
_symmetry_space_group_name_H-M   'P 1'
_cell_length_a   7.01087502
_cell_length_b   7.01044916
_cell_length_c   12.81512226
_cell_angle_alpha   89.97717268
_cell_angle_beta   89.99717416
_cell_angle_gamma   90.00813969
_symmetry_Int_Tables_number   1
_chemical_formula_structural   Hf15Zr(NbSi4)4
_chemical_formula_sum   'Hf15 Zr1 Nb4 Si16'
_cell_volume   629.85529329
_cell_formula_units_Z   1
loop_
 _symmetry_equiv_pos_site_id
 _symmetry_equiv_pos_as_xyz
  1  'x, y, z'
loop_
 _atom_site_type_symbol
 _atom_site_label
 _atom_site_symmetry_multiplicity
 _atom_site_fract_x
 _atom_site_fract_y
 _atom_site_fract_z
 _atom_site_occupancy
  Hf  Hf0  1  0.502290  0.846744  0.031720  1
  Hf  Hf1  1  0.653467  0.002079  0.281611  1
  Hf  Hf2  1  0.346682  0.997700  0.781855  1
  Hf  Hf3  1  0.846780  0.502333  0.968272  1
  Hf  Hf4  1  0.153136  0.497873  0.468195  1
  Hf  Hf5  1  0.002179  0.653350  0.718272  1
  Hf  Hf6  1  0.997664  0.346770  0.218232  1
  Hf  Hf7  1  0.497069  0.354967  0.126148  1
  Hf  Hf8  1  0.503008  0.645345  0.626212  1
  Hf  Hf9  1  0.854916  0.003013  0.876246  1
  Hf  Hf10  1  0.144752  0.996793  0.375989  1
  Hf  Hf11  1  0.645272  0.503150  0.373658  1
  Hf  Hf12  1  0.354949  0.497034  0.873858  1
  Hf  Hf13  1  0.002978  0.854950  0.123806  1
  Hf  Hf14  1  0.996756  0.145074  0.623882  1
  Zr  Zr15  1  0.497354  0.153298  0.531695  1
  Nb  Nb16  1  0.675435  0.324941  0.750249  1
  Nb  Nb17  1  0.324748  0.675298  0.249945  1
  Nb  Nb18  1  0.825041  0.824483  0.499960  1
  Nb  Nb19  1  0.175274  0.175235  0.000006  1
  Si  Si20  1  0.796917  0.146947  0.072372  1
  Si  Si21  1  0.202731  0.852775  0.572368  1
  Si  Si22  1  0.646967  0.703059  0.822359  1
  Si  Si23  1  0.352932  0.297102  0.322241  1
  Si  Si24  1  0.853689  0.203219  0.427479  1
  Si  Si25  1  0.146973  0.796948  0.927634  1
  Si  Si26  1  0.703090  0.646962  0.177618  1
  Si  Si27  1  0.296455  0.353588  0.677969  1
  Si  Si28  1  0.547960  0.197670  0.935349  1
  Si  Si29  1  0.451969  0.801563  0.435187  1
  Si  Si30  1  0.698194  0.951482  0.685717  1
  Si  Si31  1  0.302261  0.047951  0.185387  1
  Si  Si32  1  0.802531  0.452349  0.564640  1
  Si  Si33  1  0.197698  0.547880  0.064641  1
  Si  Si34  1  0.951946  0.697744  0.314632  1
  Si  Si35  1  0.047936  0.302330  0.814597  1
