# generated using pymatgen
data_Tb4Al16Ga2PtRh5
_symmetry_space_group_name_H-M   'P 1'
_cell_length_a   7.57008199
_cell_length_b   7.57043590
_cell_length_c   9.49964922
_cell_angle_alpha   89.98691714
_cell_angle_beta   89.98652253
_cell_angle_gamma   119.32576023
_symmetry_Int_Tables_number   1
_chemical_formula_structural   Tb4Al16Ga2PtRh5
_chemical_formula_sum   'Tb4 Al16 Ga2 Pt1 Rh5'
_cell_volume   474.64656827
_cell_formula_units_Z   1
loop_
 _symmetry_equiv_pos_site_id
 _symmetry_equiv_pos_as_xyz
  1  'x, y, z'
loop_
 _atom_site_type_symbol
 _atom_site_label
 _atom_site_symmetry_multiplicity
 _atom_site_fract_x
 _atom_site_fract_y
 _atom_site_fract_z
 _atom_site_occupancy
  Tb  Tb0  1  0.993481  0.672160  0.250057  1
  Tb  Tb1  1  0.004654  0.326305  0.750237  1
  Tb  Tb2  1  0.673666  0.995338  0.249767  1
  Tb  Tb3  1  0.327811  0.006521  0.749946  1
  Al  Al4  1  0.005295  0.335942  0.076079  1
  Al  Al5  1  0.002069  0.667857  0.924019  1
  Al  Al6  1  0.999753  0.664172  0.574130  1
  Al  Al7  1  0.335827  0.000242  0.425926  1
  Al  Al8  1  0.001631  0.335746  0.425564  1
  Al  Al9  1  0.664260  0.998374  0.574469  1
  Al  Al10  1  0.664057  0.994708  0.923889  1
  Al  Al11  1  0.332144  0.997931  0.075930  1
  Al  Al12  1  0.333346  0.333413  0.551475  1
  Al  Al13  1  0.666581  0.666653  0.448546  1
  Al  Al14  1  0.665681  0.669060  0.053816  1
  Al  Al15  1  0.330939  0.334316  0.946170  1
  Al  Al16  1  0.339201  0.551298  0.250306  1
  Al  Al17  1  0.661341  0.452747  0.746786  1
  Al  Al18  1  0.547227  0.338684  0.253222  1
  Al  Al19  1  0.448685  0.660804  0.749695  1
  Ga  Ga20  1  0.131373  0.130330  0.250266  1
  Ga  Ga21  1  0.869703  0.868658  0.749739  1
  Pt  Pt22  1  0.671975  0.328025  0.999954  1
  Rh  Rh23  1  0.328519  0.671455  0.999962  1
  Rh  Rh24  1  0.328799  0.671180  0.500014  1
  Rh  Rh25  1  0.671778  0.328197  0.500023  1
  Rh  Rh26  1  0.999989  0.000049  0.999983  1
  Rh  Rh27  1  0.000218  0.999834  0.500032  1
