# generated using pymatgen
data_VFe4SbO8
_symmetry_space_group_name_H-M   'P 1'
_cell_length_a   6.19575581
_cell_length_b   6.19575559
_cell_length_c   6.19758870
_cell_angle_alpha   61.44211280
_cell_angle_beta   61.44210878
_cell_angle_gamma   58.65178273
_symmetry_Int_Tables_number   1
_chemical_formula_structural   VFe4SbO8
_chemical_formula_sum   'V1 Fe4 Sb1 O8'
_cell_volume   169.91350227
_cell_formula_units_Z   1
loop_
 _symmetry_equiv_pos_site_id
 _symmetry_equiv_pos_as_xyz
  1  'x, y, z'
loop_
 _atom_site_type_symbol
 _atom_site_label
 _atom_site_symmetry_multiplicity
 _atom_site_fract_x
 _atom_site_fract_y
 _atom_site_fract_z
 _atom_site_occupancy
  V  V0  1  0.000000  0.000000  0.500000  1
  Fe  Fe1  1  0.361915  0.361915  0.906595  1
  Fe  Fe2  1  0.638085  0.638085  0.093405  1
  Fe  Fe3  1  0.000000  0.500000  0.500000  1
  Fe  Fe4  1  0.500000  0.000000  0.500000  1
  Sb  Sb5  1  0.000000  0.000000  0.000000  1
  O  O6  1  0.222760  0.222760  0.299043  1
  O  O7  1  0.221764  0.221764  0.776669  1
  O  O8  1  0.231423  0.775150  0.754223  1
  O  O9  1  0.775150  0.231423  0.754223  1
  O  O10  1  0.777240  0.777240  0.700957  1
  O  O11  1  0.778236  0.778236  0.223331  1
  O  O12  1  0.768577  0.224850  0.245777  1
  O  O13  1  0.224850  0.768577  0.245777  1
