# generated using pymatgen
data_HoHf3(ZnRh2)4
_symmetry_space_group_name_H-M   'P 1'
_cell_length_a   5.98515800
_cell_length_b   5.98545300
_cell_length_c   7.01647000
_cell_angle_alpha   90.00000000
_cell_angle_beta   90.00000000
_cell_angle_gamma   90.00000000
_symmetry_Int_Tables_number   1
_chemical_formula_structural   HoHf3(ZnRh2)4
_chemical_formula_sum   'Ho1 Hf3 Zn4 Rh8'
_cell_volume   251.35719268
_cell_formula_units_Z   1
loop_
 _symmetry_equiv_pos_site_id
 _symmetry_equiv_pos_as_xyz
  1  'x, y, z'
loop_
 _atom_site_type_symbol
 _atom_site_label
 _atom_site_symmetry_multiplicity
 _atom_site_fract_x
 _atom_site_fract_y
 _atom_site_fract_z
 _atom_site_occupancy
  Ho  Ho0  1  0.749859  0.250000  0.000000  1
  Hf  Hf1  1  0.250139  0.750001  0.000000  1
  Hf  Hf2  1  0.750135  0.250000  0.500000  1
  Hf  Hf3  1  0.249873  0.750001  0.500000  1
  Zn  Zn4  1  0.249940  0.250000  0.000000  1
  Zn  Zn5  1  0.750054  0.750001  0.000000  1
  Zn  Zn6  1  0.749997  0.750001  0.499996  1
  Zn  Zn7  1  0.250016  0.250000  0.500003  1
  Rh  Rh8  1  0.002977  0.997020  0.255847  1
  Rh  Rh9  1  0.002977  0.502981  0.255847  1
  Rh  Rh10  1  0.497019  0.997019  0.255946  1
  Rh  Rh11  1  0.497019  0.502980  0.255946  1
  Rh  Rh12  1  0.497022  0.997019  0.744053  1
  Rh  Rh13  1  0.497022  0.502982  0.744053  1
  Rh  Rh14  1  0.002977  0.997020  0.744153  1
  Rh  Rh15  1  0.002977  0.502979  0.744153  1
