# generated using pymatgen
data_Na3Si2SbPt6
_symmetry_space_group_name_H-M   'P 1'
_cell_length_a   5.61888500
_cell_length_b   5.61888462
_cell_length_c   15.58840900
_cell_angle_alpha   90.00000000
_cell_angle_beta   90.00000000
_cell_angle_gamma   119.99999635
_symmetry_Int_Tables_number   1
_chemical_formula_structural   Na3Si2SbPt6
_chemical_formula_sum   'Na6 Si4 Sb2 Pt12'
_cell_volume   426.21889371
_cell_formula_units_Z   2
loop_
 _symmetry_equiv_pos_site_id
 _symmetry_equiv_pos_as_xyz
  1  'x, y, z'
loop_
 _atom_site_type_symbol
 _atom_site_label
 _atom_site_symmetry_multiplicity
 _atom_site_fract_x
 _atom_site_fract_y
 _atom_site_fract_z
 _atom_site_occupancy
  Na  Na0  1  0.666667  0.333334  0.043807  1
  Na  Na1  1  0.666667  0.333334  0.250000  1
  Na  Na2  1  0.666667  0.333334  0.456193  1
  Na  Na3  1  0.333333  0.666667  0.543807  1
  Na  Na4  1  0.333333  0.666667  0.750000  1
  Na  Na5  1  0.333333  0.666667  0.956193  1
  Si  Si6  1  0.000000  0.000000  0.250000  1
  Si  Si7  1  0.333333  0.666667  0.250000  1
  Si  Si8  1  0.000000  0.000000  0.750000  1
  Si  Si9  1  0.666667  0.333334  0.750000  1
  Sb  Sb10  1  0.000000  0.000000  0.000000  1
  Sb  Sb11  1  0.000000  0.000000  0.500000  1
  Pt  Pt12  1  0.168864  0.337729  0.137678  1
  Pt  Pt13  1  0.168865  0.831136  0.137678  1
  Pt  Pt14  1  0.662271  0.831136  0.137678  1
  Pt  Pt15  1  0.168864  0.337729  0.362321  1
  Pt  Pt16  1  0.168865  0.831136  0.362321  1
  Pt  Pt17  1  0.662271  0.831136  0.362321  1
  Pt  Pt18  1  0.337729  0.168864  0.637678  1
  Pt  Pt19  1  0.831137  0.168864  0.637678  1
  Pt  Pt20  1  0.831136  0.662272  0.637678  1
  Pt  Pt21  1  0.337729  0.168864  0.862322  1
  Pt  Pt22  1  0.831137  0.168864  0.862322  1
  Pt  Pt23  1  0.831136  0.662272  0.862322  1
