# generated using pymatgen
data_Rb16Zr3TiSe16
_symmetry_space_group_name_H-M   'P 1'
_cell_length_a   8.86093344
_cell_length_b   10.55723400
_cell_length_c   15.62699931
_cell_angle_alpha   90.00000000
_cell_angle_beta   90.08507323
_cell_angle_gamma   90.00000000
_symmetry_Int_Tables_number   1
_chemical_formula_structural   Rb16Zr3TiSe16
_chemical_formula_sum   'Rb16 Zr3 Ti1 Se16'
_cell_volume   1461.85647702
_cell_formula_units_Z   1
loop_
 _symmetry_equiv_pos_site_id
 _symmetry_equiv_pos_as_xyz
  1  'x, y, z'
loop_
 _atom_site_type_symbol
 _atom_site_label
 _atom_site_symmetry_multiplicity
 _atom_site_fract_x
 _atom_site_fract_y
 _atom_site_fract_z
 _atom_site_occupancy
  Rb  Rb0  1  0.001398  0.001764  0.999052  1
  Rb  Rb1  1  0.499981  0.999558  0.500037  1
  Rb  Rb2  1  0.001398  0.498236  0.999052  1
  Rb  Rb3  1  0.499981  0.500442  0.500037  1
  Rb  Rb4  1  0.984643  0.750000  0.427193  1
  Rb  Rb5  1  0.482808  0.250000  0.071435  1
  Rb  Rb6  1  0.016402  0.250000  0.573992  1
  Rb  Rb7  1  0.514192  0.750000  0.926404  1
  Rb  Rb8  1  0.840125  0.054200  0.277673  1
  Rb  Rb9  1  0.340097  0.946057  0.222507  1
  Rb  Rb10  1  0.160348  0.551032  0.723329  1
  Rb  Rb11  1  0.659045  0.444105  0.778149  1
  Rb  Rb12  1  0.160348  0.948968  0.723329  1
  Rb  Rb13  1  0.659045  0.055895  0.778149  1
  Rb  Rb14  1  0.840125  0.445800  0.277673  1
  Rb  Rb15  1  0.340097  0.553943  0.222507  1
  Zr  Zr16  1  0.757625  0.750000  0.666098  1
  Zr  Zr17  1  0.242546  0.250000  0.334227  1
  Zr  Zr18  1  0.742311  0.750000  0.165563  1
  Ti  Ti19  1  0.257729  0.250000  0.833719  1
  Se  Se20  1  0.984307  0.250000  0.824517  1
  Se  Se21  1  0.530343  0.250000  0.324485  1
  Se  Se22  1  0.469783  0.750000  0.675937  1
  Se  Se23  1  0.030181  0.750000  0.175687  1
  Se  Se24  1  0.653833  0.550981  0.089124  1
  Se  Se25  1  0.154576  0.449054  0.410515  1
  Se  Se26  1  0.342157  0.061806  0.906424  1
  Se  Se27  1  0.845114  0.949253  0.589675  1
  Se  Se28  1  0.342157  0.438194  0.906424  1
  Se  Se29  1  0.845114  0.550747  0.589675  1
  Se  Se30  1  0.653833  0.949019  0.089124  1
  Se  Se31  1  0.154576  0.050946  0.410515  1
  Se  Se32  1  0.629124  0.750000  0.316671  1
  Se  Se33  1  0.128780  0.250000  0.183182  1
  Se  Se34  1  0.365253  0.250000  0.690570  1
  Se  Se35  1  0.870628  0.750000  0.817352  1
