# generated using pymatgen
data_CeEr3ThSn4
_symmetry_space_group_name_H-M   'P 1'
_cell_length_a   8.12372900
_cell_length_b   8.22672200
_cell_length_c   15.52181700
_cell_angle_alpha   90.00000000
_cell_angle_beta   90.00000000
_cell_angle_gamma   90.00000000
_symmetry_Int_Tables_number   1
_chemical_formula_structural   CeEr3ThSn4
_chemical_formula_sum   'Ce4 Er12 Th4 Sn16'
_cell_volume   1037.34879767
_cell_formula_units_Z   4
loop_
 _symmetry_equiv_pos_site_id
 _symmetry_equiv_pos_as_xyz
  1  'x, y, z'
loop_
 _atom_site_type_symbol
 _atom_site_label
 _atom_site_symmetry_multiplicity
 _atom_site_fract_x
 _atom_site_fract_y
 _atom_site_fract_z
 _atom_site_occupancy
  Ce  Ce0  1  0.519834  0.321447  0.903179  1
  Ce  Ce1  1  0.019834  0.178553  0.596821  1
  Ce  Ce2  1  0.480166  0.678553  0.403179  1
  Ce  Ce3  1  0.980166  0.821447  0.096821  1
  Er  Er4  1  0.362056  0.836469  0.876685  1
  Er  Er5  1  0.862056  0.663531  0.623315  1
  Er  Er6  1  0.637944  0.163531  0.376685  1
  Er  Er7  1  0.137944  0.336469  0.123315  1
  Er  Er8  1  0.638405  0.162435  0.123077  1
  Er  Er9  1  0.138405  0.337565  0.376923  1
  Er  Er10  1  0.361595  0.837565  0.623077  1
  Er  Er11  1  0.861595  0.662435  0.876923  1
  Er  Er12  1  0.192998  0.500832  0.750493  1
  Er  Er13  1  0.692998  0.999168  0.749507  1
  Er  Er14  1  0.807002  0.499168  0.250493  1
  Er  Er15  1  0.307002  0.000832  0.249507  1
  Th  Th16  1  0.482410  0.678939  0.096544  1
  Th  Th17  1  0.982410  0.821061  0.403456  1
  Th  Th18  1  0.517590  0.321061  0.596544  1
  Th  Th19  1  0.017590  0.178939  0.903456  1
  Sn  Sn20  1  0.298279  0.037861  0.041950  1
  Sn  Sn21  1  0.798279  0.462139  0.458050  1
  Sn  Sn22  1  0.701721  0.962139  0.541950  1
  Sn  Sn23  1  0.201721  0.537861  0.958050  1
  Sn  Sn24  1  0.700583  0.959558  0.957907  1
  Sn  Sn25  1  0.200583  0.540442  0.542093  1
  Sn  Sn26  1  0.299417  0.040442  0.457907  1
  Sn  Sn27  1  0.799417  0.459558  0.042093  1
  Sn  Sn28  1  0.559073  0.623223  0.749209  1
  Sn  Sn29  1  0.059073  0.876777  0.750791  1
  Sn  Sn30  1  0.440927  0.376777  0.249209  1
  Sn  Sn31  1  0.940927  0.123223  0.250791  1
  Sn  Sn32  1  0.325742  0.143357  0.750406  1
  Sn  Sn33  1  0.825742  0.356643  0.749594  1
  Sn  Sn34  1  0.674258  0.856643  0.250406  1
  Sn  Sn35  1  0.174258  0.643357  0.249594  1
