# generated using pymatgen
data_TbEr7Ta10(TiSi8)2
_symmetry_space_group_name_H-M   'P 1'
_cell_length_a   7.03341149
_cell_length_b   7.02657032
_cell_length_c   12.93415281
_cell_angle_alpha   90.00294935
_cell_angle_beta   89.95949115
_cell_angle_gamma   89.97574870
_symmetry_Int_Tables_number   1
_chemical_formula_structural   TbEr7Ta10(TiSi8)2
_chemical_formula_sum   'Tb1 Er7 Ta10 Ti2 Si16'
_cell_volume   639.21544983
_cell_formula_units_Z   1
loop_
 _symmetry_equiv_pos_site_id
 _symmetry_equiv_pos_as_xyz
  1  'x, y, z'
loop_
 _atom_site_type_symbol
 _atom_site_label
 _atom_site_symmetry_multiplicity
 _atom_site_fract_x
 _atom_site_fract_y
 _atom_site_fract_z
 _atom_site_occupancy
  Tb  Tb0  1  0.341400  0.002911  0.467813  1
  Er  Er1  1  0.498668  0.841865  0.718231  1
  Er  Er2  1  0.501489  0.157996  0.217709  1
  Er  Er3  1  0.842130  0.498433  0.282231  1
  Er  Er4  1  0.157881  0.501583  0.782397  1
  Er  Er5  1  0.657956  0.997834  0.967712  1
  Er  Er6  1  0.002168  0.341180  0.532060  1
  Er  Er7  1  0.997613  0.658973  0.031864  1
  Ta  Ta8  1  0.328940  0.329119  0.999635  1
  Ta  Ta9  1  0.172758  0.826535  0.249686  1
  Ta  Ta10  1  0.827088  0.173360  0.750138  1
  Ta  Ta11  1  0.671389  0.670523  0.499699  1
  Ta  Ta12  1  0.152407  0.007194  0.873833  1
  Ta  Ta13  1  0.493099  0.652054  0.124046  1
  Ta  Ta14  1  0.507249  0.348266  0.624408  1
  Ta  Ta15  1  0.651842  0.492081  0.876150  1
  Ta  Ta16  1  0.348185  0.507906  0.376030  1
  Ta  Ta17  1  0.847313  0.992770  0.373684  1
  Ti  Ti18  1  0.007690  0.152975  0.126148  1
  Ti  Ti19  1  0.992064  0.846906  0.626394  1
  Si  Si20  1  0.202120  0.132528  0.681584  1
  Si  Si21  1  0.365247  0.705051  0.931365  1
  Si  Si22  1  0.635282  0.295551  0.431340  1
  Si  Si23  1  0.705255  0.363981  0.069097  1
  Si  Si24  1  0.294697  0.634974  0.569376  1
  Si  Si25  1  0.797719  0.867533  0.181205  1
  Si  Si26  1  0.133922  0.203945  0.317506  1
  Si  Si27  1  0.865308  0.796836  0.818102  1
  Si  Si28  1  0.292624  0.954789  0.064449  1
  Si  Si29  1  0.547254  0.794338  0.313142  1
  Si  Si30  1  0.453400  0.205111  0.813631  1
  Si  Si31  1  0.796375  0.547592  0.685330  1
  Si  Si32  1  0.203487  0.452502  0.185304  1
  Si  Si33  1  0.708545  0.045286  0.564750  1
  Si  Si34  1  0.954159  0.294402  0.936998  1
  Si  Si35  1  0.045278  0.705119  0.436950  1
