# generated using pymatgen
data_Er8MgCd5Ni4
_symmetry_space_group_name_H-M   'P 1'
_cell_length_a   10.61084700
_cell_length_b   10.61084700
_cell_length_c   3.55852300
_cell_angle_alpha   90.00000000
_cell_angle_beta   90.00000000
_cell_angle_gamma   90.00000000
_symmetry_Int_Tables_number   1
_chemical_formula_structural   Er8MgCd5Ni4
_chemical_formula_sum   'Er8 Mg1 Cd5 Ni4'
_cell_volume   400.65436810
_cell_formula_units_Z   1
loop_
 _symmetry_equiv_pos_site_id
 _symmetry_equiv_pos_as_xyz
  1  'x, y, z'
loop_
 _atom_site_type_symbol
 _atom_site_label
 _atom_site_symmetry_multiplicity
 _atom_site_fract_x
 _atom_site_fract_y
 _atom_site_fract_z
 _atom_site_occupancy
  Er  Er0  1  0.326535  0.326535  0.500000  1
  Er  Er1  1  0.673465  0.673465  0.500000  1
  Er  Er2  1  0.326535  0.673465  0.500000  1
  Er  Er3  1  0.673465  0.326535  0.500000  1
  Er  Er4  1  0.000000  0.273159  0.500000  1
  Er  Er5  1  0.000000  0.726841  0.500000  1
  Er  Er6  1  0.273159  0.000000  0.500000  1
  Er  Er7  1  0.726841  0.000000  0.500000  1
  Mg  Mg8  1  0.000000  0.000000  0.000000  1
  Cd  Cd9  1  0.500000  0.141890  0.000000  1
  Cd  Cd10  1  0.500000  0.858110  0.000000  1
  Cd  Cd11  1  0.141890  0.500000  0.000000  1
  Cd  Cd12  1  0.858110  0.500000  0.000000  1
  Cd  Cd13  1  0.500000  0.500000  0.000000  1
  Ni  Ni14  1  0.188149  0.188149  0.000000  1
  Ni  Ni15  1  0.811851  0.811851  0.000000  1
  Ni  Ni16  1  0.188149  0.811851  0.000000  1
  Ni  Ni17  1  0.811851  0.188149  0.000000  1
