# generated using pymatgen
data_Dy9ErRu3Rh
_symmetry_space_group_name_H-M   'P 1'
_cell_length_a   6.34916447
_cell_length_b   7.28442399
_cell_length_c   8.48480562
_cell_angle_alpha   96.70088929
_cell_angle_beta   111.85139735
_cell_angle_gamma   90.05325661
_symmetry_Int_Tables_number   1
_chemical_formula_structural   Dy9ErRu3Rh
_chemical_formula_sum   'Dy9 Er1 Ru3 Rh1'
_cell_volume   361.32047744
_cell_formula_units_Z   1
loop_
 _symmetry_equiv_pos_site_id
 _symmetry_equiv_pos_as_xyz
  1  'x, y, z'
loop_
 _atom_site_type_symbol
 _atom_site_label
 _atom_site_symmetry_multiplicity
 _atom_site_fract_x
 _atom_site_fract_y
 _atom_site_fract_z
 _atom_site_occupancy
  Dy  Dy0  1  0.793493  0.581992  0.815031  1
  Dy  Dy1  1  0.980615  0.915212  0.188904  1
  Dy  Dy2  1  0.207636  0.414659  0.186058  1
  Dy  Dy3  1  0.023934  0.086703  0.815077  1
  Dy  Dy4  1  0.204455  0.683235  0.564099  1
  Dy  Dy5  1  0.643038  0.814889  0.432234  1
  Dy  Dy6  1  0.792034  0.314429  0.433981  1
  Dy  Dy7  1  0.356825  0.187094  0.564557  1
  Dy  Dy8  1  0.419887  0.749163  0.000668  1
  Er  Er9  1  0.578867  0.252314  0.001367  1
  Ru  Ru10  1  0.823997  0.576439  0.219441  1
  Ru  Ru11  1  0.396552  0.075938  0.220744  1
  Ru  Ru12  1  0.178135  0.423516  0.779606  1
  Rh  Rh13  1  0.600533  0.924415  0.778231  1
