# generated using pymatgen
data_ZnSb14
_symmetry_space_group_name_H-M   'P 1'
_cell_length_a   4.30137802
_cell_length_b   4.30137832
_cell_length_c   27.19042300
_cell_angle_alpha   91.52325263
_cell_angle_beta   91.52325273
_cell_angle_gamma   62.50232684
_symmetry_Int_Tables_number   1
_chemical_formula_structural   ZnSb14
_chemical_formula_sum   'Zn1 Sb14'
_cell_volume   446.02506923
_cell_formula_units_Z   1
loop_
 _symmetry_equiv_pos_site_id
 _symmetry_equiv_pos_as_xyz
  1  'x, y, z'
loop_
 _atom_site_type_symbol
 _atom_site_label
 _atom_site_symmetry_multiplicity
 _atom_site_fract_x
 _atom_site_fract_y
 _atom_site_fract_z
 _atom_site_occupancy
  Zn  Zn0  1  0.000000  0.000000  0.800000  1
  Sb  Sb1  1  0.663087  0.663087  0.064399  1
  Sb  Sb2  1  0.666923  0.666923  0.259012  1
  Sb  Sb3  1  0.668426  0.668426  0.479193  1
  Sb  Sb4  1  0.668921  0.668921  0.674148  1
  Sb  Sb5  1  0.679670  0.679670  0.845565  1
  Sb  Sb6  1  0.331574  0.331574  0.120807  1
  Sb  Sb7  1  0.333077  0.333077  0.340988  1
  Sb  Sb8  1  0.336913  0.336913  0.535601  1
  Sb  Sb9  1  0.320330  0.320330  0.754435  1
  Sb  Sb10  1  0.331079  0.331079  0.925852  1
  Sb  Sb11  1  0.002976  0.002976  0.983040  1
  Sb  Sb12  1  0.998781  0.998781  0.202858  1
  Sb  Sb13  1  0.001219  0.001219  0.397142  1
  Sb  Sb14  1  0.997024  0.997024  0.616960  1
