# generated using pymatgen
data_Li6Gd3Dy3(TeO6)4
_symmetry_space_group_name_H-M   'P 1'
_cell_length_a   10.79699429
_cell_length_b   10.79697957
_cell_length_c   10.79725700
_cell_angle_alpha   109.47155509
_cell_angle_beta   109.47158418
_cell_angle_gamma   109.46953163
_symmetry_Int_Tables_number   1
_chemical_formula_structural   Li6Gd3Dy3(TeO6)4
_chemical_formula_sum   'Li12 Gd6 Dy6 Te8 O48'
_cell_volume   968.95143591
_cell_formula_units_Z   2
loop_
 _symmetry_equiv_pos_site_id
 _symmetry_equiv_pos_as_xyz
  1  'x, y, z'
loop_
 _atom_site_type_symbol
 _atom_site_label
 _atom_site_symmetry_multiplicity
 _atom_site_fract_x
 _atom_site_fract_y
 _atom_site_fract_z
 _atom_site_occupancy
  Li  Li0  1  0.250073  0.374469  0.124257  1
  Li  Li1  1  0.374187  0.749789  0.124257  1
  Li  Li2  1  0.125462  0.875460  0.250001  1
  Li  Li3  1  0.624539  0.374540  0.250000  1
  Li  Li4  1  0.125531  0.249931  0.375744  1
  Li  Li5  1  0.750210  0.125811  0.375740  1
  Li  Li6  1  0.250190  0.875772  0.625703  1
  Li  Li7  1  0.875515  0.749932  0.625703  1
  Li  Li8  1  0.875438  0.125438  0.750000  1
  Li  Li9  1  0.374562  0.624564  0.749999  1
  Li  Li10  1  0.750070  0.624485  0.874295  1
  Li  Li11  1  0.624229  0.249810  0.874295  1
  Gd  Gd12  1  0.749715  0.874812  0.124497  1
  Gd  Gd13  1  0.874782  0.249688  0.124495  1
  Gd  Gd14  1  0.875001  0.625001  0.250000  1
  Gd  Gd15  1  0.375000  0.124997  0.249999  1
  Gd  Gd16  1  0.625192  0.750287  0.375505  1
  Gd  Gd17  1  0.250312  0.625216  0.375502  1
  Dy  Dy18  1  0.750374  0.375252  0.625579  1
  Dy  Dy19  1  0.375205  0.250329  0.625579  1
  Dy  Dy20  1  0.125000  0.375001  0.750000  1
  Dy  Dy21  1  0.625000  0.875001  0.750001  1
  Dy  Dy22  1  0.249672  0.124794  0.874420  1
  Dy  Dy23  1  0.124749  0.749626  0.874421  1
  Te  Te24  1  0.999522  0.998564  0.997759  1
  Te  Te25  1  0.498240  0.999195  0.997761  1
  Te  Te26  1  0.498206  0.498298  0.998207  1
  Te  Te27  1  0.000001  0.499910  0.998207  1
  Te  Te28  1  0.001703  0.001794  0.501793  1
  Te  Te29  1  0.500805  0.001760  0.502238  1
  Te  Te30  1  0.000090  0.499999  0.501792  1
  Te  Te31  1  0.501436  0.500479  0.502241  1
  O  O32  1  0.696383  0.617928  0.024324  1
  O  O33  1  0.827939  0.406396  0.024320  1
  O  O34  1  0.197275  0.170915  0.075929  1
  O  O35  1  0.378656  0.905014  0.075930  1
  O  O36  1  0.472656  0.171881  0.091001  1
  O  O37  1  0.118344  0.919119  0.090999  1
  O  O38  1  0.524337  0.696461  0.117804  1
  O  O39  1  0.093466  0.421341  0.117801  1
  O  O40  1  0.695794  0.078011  0.171050  1
  O  O41  1  0.975259  0.093041  0.171053  1
  O  O42  1  0.617829  0.524408  0.196318  1
  O  O43  1  0.078489  0.671910  0.196317  1
  O  O44  1  0.828090  0.421512  0.303682  1
  O  O45  1  0.975594  0.882173  0.303683  1
  O  O46  1  0.421989  0.804206  0.328949  1
  O  O47  1  0.406959  0.524741  0.328948  1
  O  O48  1  0.803540  0.975663  0.382197  1
  O  O49  1  0.078657  0.406534  0.382198  1
  O  O50  1  0.580881  0.381656  0.409002  1
  O  O51  1  0.328120  0.027343  0.409000  1
  O  O52  1  0.329085  0.302726  0.424071  1
  O  O53  1  0.594986  0.121343  0.424069  1
  O  O54  1  0.882074  0.803617  0.475676  1
  O  O55  1  0.093604  0.672061  0.475679  1
  O  O56  1  0.121624  0.200018  0.528360  1
  O  O57  1  0.906733  0.328340  0.528356  1
  O  O58  1  0.408037  0.881684  0.580809  1
  O  O59  1  0.672775  0.699128  0.580811  1
  O  O60  1  0.671835  0.974584  0.595831  1
  O  O61  1  0.423996  0.621246  0.595829  1
  O  O62  1  0.921824  0.593431  0.621753  1
  O  O63  1  0.199928  0.028322  0.621753  1
  O  O64  1  0.593855  0.472128  0.672662  1
  O  O65  1  0.578806  0.200534  0.672658  1
  O  O66  1  0.028239  0.121712  0.700046  1
  O  O67  1  0.171807  0.578335  0.700047  1
  O  O68  1  0.921666  0.328194  0.799954  1
  O  O69  1  0.378288  0.471763  0.799955  1
  O  O70  1  0.027871  0.906145  0.827338  1
  O  O71  1  0.299466  0.921193  0.827340  1
  O  O72  1  0.906570  0.578176  0.878246  1
  O  O73  1  0.471678  0.300072  0.878246  1
  O  O74  1  0.878754  0.076006  0.904172  1
  O  O75  1  0.525416  0.828165  0.904170  1
  O  O76  1  0.800873  0.827226  0.919189  1
  O  O77  1  0.618315  0.091963  0.919189  1
  O  O78  1  0.299984  0.378377  0.971640  1
  O  O79  1  0.171660  0.593267  0.971644  1
