# generated using pymatgen
data_La16Sm3ErSn16
_symmetry_space_group_name_H-M   'P 1'
_cell_length_a   8.44530000
_cell_length_b   8.54401500
_cell_length_c   16.31614200
_cell_angle_alpha   90.00000000
_cell_angle_beta   90.00000000
_cell_angle_gamma   89.99800351
_symmetry_Int_Tables_number   1
_chemical_formula_structural   La16Sm3ErSn16
_chemical_formula_sum   'La16 Sm3 Er1 Sn16'
_cell_volume   1177.32010326
_cell_formula_units_Z   1
loop_
 _symmetry_equiv_pos_site_id
 _symmetry_equiv_pos_as_xyz
  1  'x, y, z'
loop_
 _atom_site_type_symbol
 _atom_site_label
 _atom_site_symmetry_multiplicity
 _atom_site_fract_x
 _atom_site_fract_y
 _atom_site_fract_z
 _atom_site_occupancy
  La  La0  1  0.972612  0.818899  0.899747  1
  La  La1  1  0.472584  0.681042  0.600327  1
  La  La2  1  0.527730  0.318559  0.100399  1
  La  La3  1  0.027184  0.180826  0.399524  1
  La  La4  1  0.972612  0.818899  0.600253  1
  La  La5  1  0.472584  0.681042  0.899673  1
  La  La6  1  0.527730  0.318559  0.399601  1
  La  La7  1  0.027184  0.180826  0.100476  1
  La  La8  1  0.879019  0.660431  0.382312  1
  La  La9  1  0.379968  0.840098  0.117714  1
  La  La10  1  0.620611  0.160198  0.617398  1
  La  La11  1  0.120661  0.339859  0.882492  1
  La  La12  1  0.120661  0.339859  0.617508  1
  La  La13  1  0.620611  0.160198  0.882602  1
  La  La14  1  0.379968  0.840098  0.382286  1
  La  La15  1  0.879019  0.660431  0.117688  1
  Sm  Sm16  1  0.288856  0.002705  0.750000  1
  Sm  Sm17  1  0.788940  0.497244  0.750000  1
  Sm  Sm18  1  0.211133  0.502210  0.250000  1
  Er  Er19  1  0.712274  0.997154  0.250000  1
  Sn  Sn20  1  0.781102  0.469925  0.545546  1
  Sn  Sn21  1  0.280944  0.030106  0.954367  1
  Sn  Sn22  1  0.718837  0.970290  0.453539  1
  Sn  Sn23  1  0.218793  0.530073  0.045616  1
  Sn  Sn24  1  0.218793  0.530073  0.454384  1
  Sn  Sn25  1  0.718837  0.970290  0.046461  1
  Sn  Sn26  1  0.280944  0.030106  0.545633  1
  Sn  Sn27  1  0.781102  0.469925  0.954454  1
  Sn  Sn28  1  0.168136  0.643773  0.750000  1
  Sn  Sn29  1  0.668202  0.856454  0.750000  1
  Sn  Sn30  1  0.332027  0.143526  0.250000  1
  Sn  Sn31  1  0.831445  0.354755  0.250000  1
  Sn  Sn32  1  0.922422  0.117455  0.750000  1
  Sn  Sn33  1  0.422565  0.382504  0.750000  1
  Sn  Sn34  1  0.577895  0.618449  0.250000  1
  Sn  Sn35  1  0.076016  0.883155  0.250000  1
