# generated using pymatgen
data_Zr10BeTl3GaSn3
_symmetry_space_group_name_H-M   'P 1'
_cell_length_a   8.74214400
_cell_length_b   8.74214505
_cell_length_c   5.89333200
_cell_angle_alpha   90.00000000
_cell_angle_beta   90.00000000
_cell_angle_gamma   119.99999603
_symmetry_Int_Tables_number   1
_chemical_formula_structural   Zr10BeTl3GaSn3
_chemical_formula_sum   'Zr10 Be1 Tl3 Ga1 Sn3'
_cell_volume   390.05650110
_cell_formula_units_Z   1
loop_
 _symmetry_equiv_pos_site_id
 _symmetry_equiv_pos_as_xyz
  1  'x, y, z'
loop_
 _atom_site_type_symbol
 _atom_site_label
 _atom_site_symmetry_multiplicity
 _atom_site_fract_x
 _atom_site_fract_y
 _atom_site_fract_z
 _atom_site_occupancy
  Zr  Zr0  1  0.666667  0.333333  0.001231  1
  Zr  Zr1  1  0.333333  0.666667  0.001231  1
  Zr  Zr2  1  0.333333  0.666667  0.499724  1
  Zr  Zr3  1  0.666667  0.333333  0.499724  1
  Zr  Zr4  1  0.744473  0.744473  0.762393  1
  Zr  Zr5  1  0.255527  0.000000  0.762393  1
  Zr  Zr6  1  0.000000  0.255527  0.762393  1
  Zr  Zr7  1  0.253456  0.253456  0.236903  1
  Zr  Zr8  1  0.746544  0.000000  0.236903  1
  Zr  Zr9  1  0.000000  0.746544  0.236903  1
  Be  Be10  1  0.000000  0.000000  0.994649  1
  Tl  Tl11  1  0.387813  0.387813  0.745586  1
  Tl  Tl12  1  0.612187  0.000000  0.745586  1
  Tl  Tl13  1  0.000000  0.612187  0.745586  1
  Ga  Ga14  1  0.000000  0.000000  0.503581  1
  Sn  Sn15  1  0.612169  0.612169  0.255071  1
  Sn  Sn16  1  0.387831  0.000000  0.255071  1
  Sn  Sn17  1  0.000000  0.387831  0.255071  1
