# generated using pymatgen
data_YEr5Fe7Co16
_symmetry_space_group_name_H-M   'P 1'
_cell_length_a   8.36246792
_cell_length_b   8.36246823
_cell_length_c   8.36633600
_cell_angle_alpha   59.98469895
_cell_angle_beta   59.98469769
_cell_angle_gamma   60.03060348
_symmetry_Int_Tables_number   1
_chemical_formula_structural   YEr5Fe7Co16
_chemical_formula_sum   'Y1 Er5 Fe7 Co16'
_cell_volume   413.70337560
_cell_formula_units_Z   1
loop_
 _symmetry_equiv_pos_site_id
 _symmetry_equiv_pos_as_xyz
  1  'x, y, z'
loop_
 _atom_site_type_symbol
 _atom_site_label
 _atom_site_symmetry_multiplicity
 _atom_site_fract_x
 _atom_site_fract_y
 _atom_site_fract_z
 _atom_site_occupancy
  Y  Y0  1  0.712937  0.712937  0.287063  1
  Er  Er1  1  0.285536  0.714158  0.285842  1
  Er  Er2  1  0.714158  0.285536  0.285842  1
  Er  Er3  1  0.285843  0.285843  0.714157  1
  Er  Er4  1  0.714158  0.285536  0.714464  1
  Er  Er5  1  0.285536  0.714158  0.714464  1
  Fe  Fe6  1  0.000183  0.000183  0.999817  1
  Fe  Fe7  1  0.000069  0.000069  0.499931  1
  Fe  Fe8  1  0.499599  0.000505  0.500401  1
  Fe  Fe9  1  0.000505  0.499599  0.500401  1
  Fe  Fe10  1  0.500069  0.500069  0.999931  1
  Fe  Fe11  1  0.000505  0.499599  0.999495  1
  Fe  Fe12  1  0.499599  0.000505  0.999495  1
  Co  Co13  1  0.877333  0.877333  0.369309  1
  Co  Co14  1  0.876997  0.369093  0.876954  1
  Co  Co15  1  0.369093  0.876997  0.876954  1
  Co  Co16  1  0.877333  0.877333  0.876022  1
  Co  Co17  1  0.123046  0.123046  0.630907  1
  Co  Co18  1  0.123978  0.630691  0.122667  1
  Co  Co19  1  0.630691  0.123978  0.122667  1
  Co  Co20  1  0.123046  0.123046  0.123003  1
  Co  Co21  1  0.676490  0.676490  0.969991  1
  Co  Co22  1  0.676508  0.970405  0.676543  1
  Co  Co23  1  0.970405  0.676508  0.676543  1
  Co  Co24  1  0.676490  0.676490  0.677029  1
  Co  Co25  1  0.323457  0.323457  0.029595  1
  Co  Co26  1  0.322971  0.030009  0.323510  1
  Co  Co27  1  0.030009  0.322971  0.323510  1
  Co  Co28  1  0.323457  0.323457  0.323492  1
