# generated using pymatgen
data_Yb3Ho(TcB4)4
_symmetry_space_group_name_H-M   'P 1'
_cell_length_a   3.56293800
_cell_length_b   5.96979606
_cell_length_c   11.54459718
_cell_angle_alpha   90.03432460
_cell_angle_beta   90.00000000
_cell_angle_gamma   90.00000000
_symmetry_Int_Tables_number   1
_chemical_formula_structural   Yb3Ho(TcB4)4
_chemical_formula_sum   'Yb3 Ho1 Tc4 B16'
_cell_volume   245.55369095
_cell_formula_units_Z   1
loop_
 _symmetry_equiv_pos_site_id
 _symmetry_equiv_pos_as_xyz
  1  'x, y, z'
loop_
 _atom_site_type_symbol
 _atom_site_label
 _atom_site_symmetry_multiplicity
 _atom_site_fract_x
 _atom_site_fract_y
 _atom_site_fract_z
 _atom_site_occupancy
  Yb  Yb0  1  0.000000  0.628930  0.650106  1
  Yb  Yb1  1  0.000000  0.371632  0.350851  1
  Yb  Yb2  1  0.000000  0.129217  0.848528  1
  Ho  Ho3  1  0.000000  0.871000  0.150877  1
  Tc  Tc4  1  0.000000  0.631481  0.916971  1
  Tc  Tc5  1  0.000000  0.369864  0.084443  1
  Tc  Tc6  1  0.000000  0.130912  0.583009  1
  Tc  Tc7  1  0.000000  0.870242  0.416246  1
  B  B8  1  0.500000  0.977712  0.692612  1
  B  B9  1  0.500000  0.022997  0.307198  1
  B  B10  1  0.500000  0.477762  0.807290  1
  B  B11  1  0.500000  0.522776  0.193068  1
  B  B12  1  0.500000  0.785034  0.814619  1
  B  B13  1  0.500000  0.214140  0.185126  1
  B  B14  1  0.500000  0.285715  0.684823  1
  B  B15  1  0.500000  0.713233  0.315232  1
  B  B16  1  0.500000  0.865055  0.967881  1
  B  B17  1  0.500000  0.134843  0.031645  1
  B  B18  1  0.500000  0.365549  0.532241  1
  B  B19  1  0.500000  0.634075  0.467906  1
  B  B20  1  0.500000  0.885702  0.547144  1
  B  B21  1  0.500000  0.113849  0.452200  1
  B  B22  1  0.500000  0.385743  0.952342  1
  B  B23  1  0.500000  0.612537  0.047639  1
