# generated using pymatgen
data_Ho3ZrInSnIr3
_symmetry_space_group_name_H-M   'P 1'
_cell_length_a   7.37454685
_cell_length_b   7.33259343
_cell_length_c   4.24584000
_cell_angle_alpha   90.00000000
_cell_angle_beta   90.00000000
_cell_angle_gamma   121.76528908
_symmetry_Int_Tables_number   1
_chemical_formula_structural   Ho3ZrInSnIr3
_chemical_formula_sum   'Ho3 Zr1 In1 Sn1 Ir3'
_cell_volume   195.20174030
_cell_formula_units_Z   1
loop_
 _symmetry_equiv_pos_site_id
 _symmetry_equiv_pos_as_xyz
  1  'x, y, z'
loop_
 _atom_site_type_symbol
 _atom_site_label
 _atom_site_symmetry_multiplicity
 _atom_site_fract_x
 _atom_site_fract_y
 _atom_site_fract_z
 _atom_site_occupancy
  Ho  Ho0  1  0.603430  0.604609  0.000000  1
  Ho  Ho1  1  0.413475  0.996146  0.000000  1
  Ho  Ho2  1  0.996391  0.412659  0.000000  1
  Zr  Zr3  1  0.248436  0.249873  0.500000  1
  In  In4  1  0.748074  0.000377  0.500000  1
  Sn  Sn5  1  0.998295  0.745384  0.500000  1
  Ir  Ir6  1  0.020432  0.014517  0.000000  1
  Ir  Ir7  1  0.649137  0.326536  0.500000  1
  Ir  Ir8  1  0.322331  0.649898  0.500000  1
