# generated using pymatgen
data_LiEr16In3IrRh3
_symmetry_space_group_name_H-M   'P 1'
_cell_length_a   9.54581363
_cell_length_b   9.58531107
_cell_length_c   9.54581400
_cell_angle_alpha   60.13621444
_cell_angle_beta   59.99999873
_cell_angle_gamma   60.13622083
_symmetry_Int_Tables_number   1
_chemical_formula_structural   LiEr16In3IrRh3
_chemical_formula_sum   'Li1 Er16 In3 Ir1 Rh3'
_cell_volume   618.88256545
_cell_formula_units_Z   1
loop_
 _symmetry_equiv_pos_site_id
 _symmetry_equiv_pos_as_xyz
  1  'x, y, z'
loop_
 _atom_site_type_symbol
 _atom_site_label
 _atom_site_symmetry_multiplicity
 _atom_site_fract_x
 _atom_site_fract_y
 _atom_site_fract_z
 _atom_site_occupancy
  Li  Li0  1  0.427197  0.718407  0.427197  1
  Er  Er1  1  0.188130  0.190608  0.810630  1
  Er  Er2  1  0.436989  0.061990  0.064032  1
  Er  Er3  1  0.436989  0.061990  0.436989  1
  Er  Er4  1  0.062626  0.436153  0.062626  1
  Er  Er5  1  0.649349  0.051953  0.649349  1
  Er  Er6  1  0.185703  0.815069  0.813524  1
  Er  Er7  1  0.064032  0.061990  0.436989  1
  Er  Er8  1  0.810630  0.190608  0.188130  1
  Er  Er9  1  0.813524  0.815069  0.185703  1
  Er  Er10  1  0.650964  0.649184  0.048888  1
  Er  Er11  1  0.650964  0.649184  0.650964  1
  Er  Er12  1  0.062626  0.436153  0.438596  1
  Er  Er13  1  0.048888  0.649184  0.650964  1
  Er  Er14  1  0.810630  0.190608  0.810630  1
  Er  Er15  1  0.438596  0.436153  0.062626  1
  Er  Er16  1  0.185703  0.815069  0.185703  1
  In  In17  1  0.416270  0.420830  0.746629  1
  In  In18  1  0.746629  0.420830  0.416270  1
  In  In19  1  0.416270  0.420830  0.416270  1
  Ir  Ir20  1  0.856758  0.429725  0.856758  1
  Rh  Rh21  1  0.856476  0.859472  0.427577  1
  Rh  Rh22  1  0.427577  0.859472  0.856476  1
  Rh  Rh23  1  0.856476  0.859472  0.856476  1
