# generated using pymatgen
data_CeSm3(Si4Tc3)2
_symmetry_space_group_name_H-M   'P 1'
_cell_length_a   8.14015668
_cell_length_b   5.67155547
_cell_length_c   6.96190851
_cell_angle_alpha   76.66921215
_cell_angle_beta   89.97662187
_cell_angle_gamma   89.87729778
_symmetry_Int_Tables_number   1
_chemical_formula_structural   CeSm3(Si4Tc3)2
_chemical_formula_sum   'Ce1 Sm3 Si8 Tc6'
_cell_volume   312.75171722
_cell_formula_units_Z   1
loop_
 _symmetry_equiv_pos_site_id
 _symmetry_equiv_pos_as_xyz
  1  'x, y, z'
loop_
 _atom_site_type_symbol
 _atom_site_label
 _atom_site_symmetry_multiplicity
 _atom_site_fract_x
 _atom_site_fract_y
 _atom_site_fract_z
 _atom_site_occupancy
  Ce  Ce0  1  0.935325  0.568280  0.247399  1
  Sm  Sm1  1  0.433665  0.934754  0.749318  1
  Sm  Sm2  1  0.067628  0.436358  0.747142  1
  Sm  Sm3  1  0.567077  0.064540  0.250800  1
  Si  Si4  1  0.588382  0.610260  0.116664  1
  Si  Si5  1  0.091182  0.890947  0.883600  1
  Si  Si6  1  0.409863  0.387333  0.886654  1
  Si  Si7  1  0.910504  0.115431  0.114268  1
  Si  Si8  1  0.751600  0.717611  0.587972  1
  Si  Si9  1  0.252576  0.784428  0.411940  1
  Si  Si10  1  0.248316  0.278493  0.413565  1
  Si  Si11  1  0.748689  0.217982  0.588256  1
  Tc  Tc12  1  0.289101  0.608858  0.120779  1
  Tc  Tc13  1  0.794400  0.884331  0.885533  1
  Tc  Tc14  1  0.705944  0.387675  0.880623  1
  Tc  Tc15  1  0.206671  0.111822  0.118043  1
  Tc  Tc16  1  0.500473  0.499735  0.497767  1
  Tc  Tc17  1  0.998602  0.001162  0.499678  1
