# generated using pymatgen
data_Li3Pr3AgAu2
_symmetry_space_group_name_H-M   'P 1'
_cell_length_a   7.88708400
_cell_length_b   7.88708391
_cell_length_c   3.91158700
_cell_angle_alpha   90.00000000
_cell_angle_beta   90.00000000
_cell_angle_gamma   120.00000038
_symmetry_Int_Tables_number   1
_chemical_formula_structural   Li3Pr3AgAu2
_chemical_formula_sum   'Li3 Pr3 Ag1 Au2'
_cell_volume   210.72523728
_cell_formula_units_Z   1
loop_
 _symmetry_equiv_pos_site_id
 _symmetry_equiv_pos_as_xyz
  1  'x, y, z'
loop_
 _atom_site_type_symbol
 _atom_site_label
 _atom_site_symmetry_multiplicity
 _atom_site_fract_x
 _atom_site_fract_y
 _atom_site_fract_z
 _atom_site_occupancy
  Li  Li0  1  0.247760  0.000000  0.500000  1
  Li  Li1  1  0.000000  0.247760  0.500000  1
  Li  Li2  1  0.752240  0.752240  0.500000  1
  Pr  Pr3  1  0.593837  0.000000  0.000000  1
  Pr  Pr4  1  0.000000  0.593837  0.000000  1
  Pr  Pr5  1  0.406163  0.406163  0.000000  1
  Ag  Ag6  1  0.000000  0.000000  0.000000  1
  Au  Au7  1  0.333333  0.666667  0.500000  1
  Au  Au8  1  0.666667  0.333333  0.500000  1
