# generated using pymatgen
data_CeEr7(Si3Ni)4
_symmetry_space_group_name_H-M   'P 1'
_cell_length_a   7.93563300
_cell_length_b   7.93439525
_cell_length_c   8.03323700
_cell_angle_alpha   90.00000000
_cell_angle_beta   90.00000000
_cell_angle_gamma   119.99024778
_symmetry_Int_Tables_number   1
_chemical_formula_structural   CeEr7(Si3Ni)4
_chemical_formula_sum   'Ce1 Er7 Si12 Ni4'
_cell_volume   438.08591157
_cell_formula_units_Z   1
loop_
 _symmetry_equiv_pos_site_id
 _symmetry_equiv_pos_as_xyz
  1  'x, y, z'
loop_
 _atom_site_type_symbol
 _atom_site_label
 _atom_site_symmetry_multiplicity
 _atom_site_fract_x
 _atom_site_fract_y
 _atom_site_fract_z
 _atom_site_occupancy
  Ce  Ce0  1  0.999954  0.999967  0.250000  1
  Er  Er1  1  0.500008  0.499961  0.750000  1
  Er  Er2  1  0.500022  0.499930  0.250000  1
  Er  Er3  1  0.000014  0.499959  0.750000  1
  Er  Er4  1  0.999914  0.499913  0.250000  1
  Er  Er5  1  0.499957  0.999893  0.750000  1
  Er  Er6  1  0.500006  0.999994  0.250000  1
  Er  Er7  1  0.000036  0.000023  0.750000  1
  Si  Si8  1  0.828946  0.171078  0.999046  1
  Si  Si9  1  0.170967  0.828875  0.999049  1
  Si  Si10  1  0.342113  0.171090  0.999045  1
  Si  Si11  1  0.170967  0.828875  0.500951  1
  Si  Si12  1  0.657885  0.828906  0.999063  1
  Si  Si13  1  0.828946  0.171078  0.500954  1
  Si  Si14  1  0.828807  0.657668  0.999046  1
  Si  Si15  1  0.657885  0.828906  0.500937  1
  Si  Si16  1  0.171161  0.342401  0.999069  1
  Si  Si17  1  0.342113  0.171090  0.500955  1
  Si  Si18  1  0.171161  0.342401  0.500931  1
  Si  Si19  1  0.828807  0.657668  0.500954  1
  Ni  Ni20  1  0.666588  0.333197  0.997389  1
  Ni  Ni21  1  0.333579  0.666966  0.997547  1
  Ni  Ni22  1  0.333579  0.666966  0.502453  1
  Ni  Ni23  1  0.666588  0.333197  0.502611  1
