# generated using pymatgen
data_Li2NdHoSi4
_symmetry_space_group_name_H-M   'P 1'
_cell_length_a   3.83508600
_cell_length_b   7.65292030
_cell_length_c   10.30220392
_cell_angle_alpha   89.62073128
_cell_angle_beta   90.00000000
_cell_angle_gamma   90.00000000
_symmetry_Int_Tables_number   1
_chemical_formula_structural   Li2NdHoSi4
_chemical_formula_sum   'Li4 Nd2 Ho2 Si8'
_cell_volume   302.35901681
_cell_formula_units_Z   2
loop_
 _symmetry_equiv_pos_site_id
 _symmetry_equiv_pos_as_xyz
  1  'x, y, z'
loop_
 _atom_site_type_symbol
 _atom_site_label
 _atom_site_symmetry_multiplicity
 _atom_site_fract_x
 _atom_site_fract_y
 _atom_site_fract_z
 _atom_site_occupancy
  Li  Li0  1  0.250000  0.992134  0.390167  1
  Li  Li1  1  0.750000  0.007866  0.609833  1
  Li  Li2  1  0.250000  0.489800  0.107050  1
  Li  Li3  1  0.750000  0.510200  0.892950  1
  Nd  Nd4  1  0.250000  0.642261  0.636871  1
  Nd  Nd5  1  0.750000  0.357739  0.363129  1
  Ho  Ho6  1  0.250000  0.136205  0.864767  1
  Ho  Ho7  1  0.750000  0.863795  0.135233  1
  Si  Si8  1  0.750000  0.263908  0.064306  1
  Si  Si9  1  0.250000  0.736092  0.935694  1
  Si  Si10  1  0.750000  0.774832  0.425359  1
  Si  Si11  1  0.250000  0.225168  0.574641  1
  Si  Si12  1  0.750000  0.846964  0.826042  1
  Si  Si13  1  0.250000  0.153036  0.173958  1
  Si  Si14  1  0.750000  0.335924  0.683535  1
  Si  Si15  1  0.250000  0.664076  0.316465  1
