# generated using pymatgen
data_Y5CdIn4Ru
_symmetry_space_group_name_H-M   'P 1'
_cell_length_a   18.64363800
_cell_length_b   8.36218200
_cell_length_c   3.61213800
_cell_angle_alpha   90.00000000
_cell_angle_beta   90.00000000
_cell_angle_gamma   90.00000000
_symmetry_Int_Tables_number   1
_chemical_formula_structural   Y5CdIn4Ru
_chemical_formula_sum   'Y10 Cd2 In8 Ru2'
_cell_volume   563.13771109
_cell_formula_units_Z   2
loop_
 _symmetry_equiv_pos_site_id
 _symmetry_equiv_pos_as_xyz
  1  'x, y, z'
loop_
 _atom_site_type_symbol
 _atom_site_label
 _atom_site_symmetry_multiplicity
 _atom_site_fract_x
 _atom_site_fract_y
 _atom_site_fract_z
 _atom_site_occupancy
  Y  Y0  1  0.000512  0.998773  0.000000  1
  Y  Y1  1  0.424758  0.128179  0.000000  1
  Y  Y2  1  0.215543  0.264988  0.000000  1
  Y  Y3  1  0.715543  0.235012  0.000000  1
  Y  Y4  1  0.924758  0.371821  0.000000  1
  Y  Y5  1  0.500512  0.501227  0.000000  1
  Y  Y6  1  0.085195  0.612945  0.000000  1
  Y  Y7  1  0.278063  0.705124  0.000000  1
  Y  Y8  1  0.778062  0.794875  0.000000  1
  Y  Y9  1  0.585195  0.887056  0.000000  1
  Cd  Cd10  1  0.300174  0.016990  0.500000  1
  Cd  Cd11  1  0.800174  0.483010  0.500000  1
  In  In12  1  0.850709  0.082841  0.500000  1
  In  In13  1  0.570121  0.208418  0.500000  1
  In  In14  1  0.070121  0.291583  0.500000  1
  In  In15  1  0.350709  0.417160  0.500000  1
  In  In16  1  0.647751  0.588799  0.500000  1
  In  In17  1  0.933078  0.705841  0.500000  1
  In  In18  1  0.433078  0.794160  0.500000  1
  In  In19  1  0.147752  0.911202  0.500000  1
  Ru  Ru20  1  0.194098  0.517683  0.500000  1
  Ru  Ru21  1  0.694098  0.982317  0.500000  1
