# generated using pymatgen
data_Ho2Th(GaRh)3
_symmetry_space_group_name_H-M   'P 1'
_cell_length_a   7.37399900
_cell_length_b   7.27519266
_cell_length_c   3.82470500
_cell_angle_alpha   90.00000000
_cell_angle_beta   90.00000000
_cell_angle_gamma   120.45029551
_symmetry_Int_Tables_number   1
_chemical_formula_structural   Ho2Th(GaRh)3
_chemical_formula_sum   'Ho2 Th1 Ga3 Rh3'
_cell_volume   176.88361679
_cell_formula_units_Z   1
loop_
 _symmetry_equiv_pos_site_id
 _symmetry_equiv_pos_as_xyz
  1  'x, y, z'
loop_
 _atom_site_type_symbol
 _atom_site_label
 _atom_site_symmetry_multiplicity
 _atom_site_fract_x
 _atom_site_fract_y
 _atom_site_fract_z
 _atom_site_occupancy
  Ho  Ho0  1  0.996418  0.407675  0.500000  1
  Ho  Ho1  1  0.588743  0.592325  0.500000  1
  Th  Th2  1  0.420863  0.000000  0.500000  1
  Ga  Ga3  1  0.987072  0.738297  0.000000  1
  Ga  Ga4  1  0.248775  0.261703  0.000000  1
  Ga  Ga5  1  0.765946  0.000000  0.000000  1
  Rh  Rh6  1  0.331347  0.678619  0.000000  1
  Rh  Rh7  1  0.652730  0.321381  0.000000  1
  Rh  Rh8  1  0.008106  0.000000  0.500000  1
