# generated using pymatgen
data_BaAg3Pd2
_symmetry_space_group_name_H-M   'P 1'
_cell_length_a   5.76569600
_cell_length_b   5.76569632
_cell_length_c   4.58037500
_cell_angle_alpha   90.00000000
_cell_angle_beta   90.00000000
_cell_angle_gamma   120.00000963
_symmetry_Int_Tables_number   1
_chemical_formula_structural   BaAg3Pd2
_chemical_formula_sum   'Ba1 Ag3 Pd2'
_cell_volume   131.86669749
_cell_formula_units_Z   1
loop_
 _symmetry_equiv_pos_site_id
 _symmetry_equiv_pos_as_xyz
  1  'x, y, z'
loop_
 _atom_site_type_symbol
 _atom_site_label
 _atom_site_symmetry_multiplicity
 _atom_site_fract_x
 _atom_site_fract_y
 _atom_site_fract_z
 _atom_site_occupancy
  Ba  Ba0  1  0.000000  0.000000  0.000000  1
  Ag  Ag1  1  0.499999  0.000000  0.499999  1
  Ag  Ag2  1  0.000000  0.499999  0.499999  1
  Ag  Ag3  1  0.500000  0.499999  0.499999  1
  Pd  Pd4  1  0.666667  0.333334  0.000000  1
  Pd  Pd5  1  0.333333  0.666667  0.000000  1
