# generated using pymatgen
data_AcPd2Au3
_symmetry_space_group_name_H-M   'P 1'
_cell_length_a   5.58935687
_cell_length_b   5.58935619
_cell_length_c   5.58935622
_cell_angle_alpha   120.55137233
_cell_angle_beta   118.85980977
_cell_angle_gamma   90.51688025
_symmetry_Int_Tables_number   1
_chemical_formula_structural   AcPd2Au3
_chemical_formula_sum   'Ac1 Pd2 Au3'
_cell_volume   123.98312626
_cell_formula_units_Z   1
loop_
 _symmetry_equiv_pos_site_id
 _symmetry_equiv_pos_as_xyz
  1  'x, y, z'
loop_
 _atom_site_type_symbol
 _atom_site_label
 _atom_site_symmetry_multiplicity
 _atom_site_fract_x
 _atom_site_fract_y
 _atom_site_fract_z
 _atom_site_occupancy
  Ac  Ac0  1  0.004264  0.004264  0.000000  1
  Pd  Pd1  1  0.623925  0.374724  0.249201  1
  Pd  Pd2  1  0.125524  0.374724  0.750799  1
  Au  Au3  1  0.622835  0.373966  0.751131  1
  Au  Au4  1  0.622835  0.871705  0.248869  1
  Au  Au5  1  0.250616  0.750616  0.500000  1
