# generated using pymatgen
data_Y18Lu2Sn3Pb13
_symmetry_space_group_name_H-M   'P 1'
_cell_length_a   8.19707700
_cell_length_b   8.24859998
_cell_length_c   15.65912400
_cell_angle_alpha   90.00000000
_cell_angle_beta   90.00000000
_cell_angle_gamma   89.85898664
_symmetry_Int_Tables_number   1
_chemical_formula_structural   Y18Lu2Sn3Pb13
_chemical_formula_sum   'Y18 Lu2 Sn3 Pb13'
_cell_volume   1058.77921110
_cell_formula_units_Z   1
loop_
 _symmetry_equiv_pos_site_id
 _symmetry_equiv_pos_as_xyz
  1  'x, y, z'
loop_
 _atom_site_type_symbol
 _atom_site_label
 _atom_site_symmetry_multiplicity
 _atom_site_fract_x
 _atom_site_fract_y
 _atom_site_fract_z
 _atom_site_occupancy
  Y  Y0  1  0.379408  0.839050  0.876757  1
  Y  Y1  1  0.878896  0.661745  0.623246  1
  Y  Y2  1  0.618920  0.161626  0.377872  1
  Y  Y3  1  0.123331  0.340783  0.121176  1
  Y  Y4  1  0.618920  0.161626  0.122128  1
  Y  Y5  1  0.123331  0.340783  0.378824  1
  Y  Y6  1  0.379408  0.839050  0.623243  1
  Y  Y7  1  0.878896  0.661745  0.876754  1
  Y  Y8  1  0.537911  0.327171  0.898290  1
  Y  Y9  1  0.037518  0.172400  0.601782  1
  Y  Y10  1  0.462605  0.672592  0.399321  1
  Y  Y11  1  0.962476  0.824170  0.100076  1
  Y  Y12  1  0.462605  0.672592  0.100679  1
  Y  Y13  1  0.962476  0.824170  0.399924  1
  Y  Y14  1  0.537911  0.327171  0.601710  1
  Y  Y15  1  0.037518  0.172400  0.898218  1
  Y  Y16  1  0.787624  0.494672  0.250000  1
  Y  Y17  1  0.290606  0.006107  0.250000  1
  Lu  Lu18  1  0.211722  0.507490  0.750000  1
  Lu  Lu19  1  0.711915  0.992886  0.750000  1
  Sn  Sn20  1  0.574287  0.624143  0.750000  1
  Sn  Sn21  1  0.074072  0.875943  0.750000  1
  Sn  Sn22  1  0.424146  0.376705  0.250000  1
  Pb  Pb23  1  0.281546  0.031267  0.041581  1
  Pb  Pb24  1  0.782163  0.467214  0.458621  1
  Pb  Pb25  1  0.717551  0.968185  0.542885  1
  Pb  Pb26  1  0.217866  0.532821  0.956445  1
  Pb  Pb27  1  0.717551  0.968185  0.957115  1
  Pb  Pb28  1  0.217866  0.532821  0.543555  1
  Pb  Pb29  1  0.281546  0.031267  0.458419  1
  Pb  Pb30  1  0.782163  0.467214  0.041379  1
  Pb  Pb31  1  0.926073  0.124559  0.250000  1
  Pb  Pb32  1  0.348693  0.154186  0.750000  1
  Pb  Pb33  1  0.848378  0.346184  0.750000  1
  Pb  Pb34  1  0.650558  0.846732  0.250000  1
  Pb  Pb35  1  0.151541  0.652346  0.250000  1
