# generated using pymatgen
data_Dy2Zn2IrRh
_symmetry_space_group_name_H-M   'P 1'
_cell_length_a   4.04125500
_cell_length_b   7.02253554
_cell_length_c   8.08559464
_cell_angle_alpha   90.14542644
_cell_angle_beta   90.00000000
_cell_angle_gamma   90.00000000
_symmetry_Int_Tables_number   1
_chemical_formula_structural   Dy2Zn2IrRh
_chemical_formula_sum   'Dy4 Zn4 Ir2 Rh2'
_cell_volume   229.46727954
_cell_formula_units_Z   2
loop_
 _symmetry_equiv_pos_site_id
 _symmetry_equiv_pos_as_xyz
  1  'x, y, z'
loop_
 _atom_site_type_symbol
 _atom_site_label
 _atom_site_symmetry_multiplicity
 _atom_site_fract_x
 _atom_site_fract_y
 _atom_site_fract_z
 _atom_site_occupancy
  Dy  Dy0  1  0.250000  0.539580  0.184656  1
  Dy  Dy1  1  0.750000  0.460420  0.815344  1
  Dy  Dy2  1  0.250000  0.036091  0.317590  1
  Dy  Dy3  1  0.750000  0.963909  0.682410  1
  Zn  Zn4  1  0.250000  0.135579  0.935540  1
  Zn  Zn5  1  0.750000  0.864421  0.064460  1
  Zn  Zn6  1  0.250000  0.637058  0.565008  1
  Zn  Zn7  1  0.750000  0.362942  0.434992  1
  Ir  Ir8  1  0.750000  0.742930  0.375782  1
  Ir  Ir9  1  0.250000  0.257070  0.624218  1
  Rh  Rh10  1  0.750000  0.244637  0.120960  1
  Rh  Rh11  1  0.250000  0.755363  0.879040  1
