# generated using pymatgen
data_GdYEr2(B6Os)2
_symmetry_space_group_name_H-M   'P 1'
_cell_length_a   3.64823300
_cell_length_b   9.14045908
_cell_length_c   11.53177510
_cell_angle_alpha   90.01528272
_cell_angle_beta   90.00000000
_cell_angle_gamma   90.00000000
_symmetry_Int_Tables_number   1
_chemical_formula_structural   GdYEr2(B6Os)2
_chemical_formula_sum   'Gd2 Y2 Er4 B24 Os4'
_cell_volume   384.54460679
_cell_formula_units_Z   2
loop_
 _symmetry_equiv_pos_site_id
 _symmetry_equiv_pos_as_xyz
  1  'x, y, z'
loop_
 _atom_site_type_symbol
 _atom_site_label
 _atom_site_symmetry_multiplicity
 _atom_site_fract_x
 _atom_site_fract_y
 _atom_site_fract_z
 _atom_site_occupancy
  Gd  Gd0  1  0.000000  0.322153  0.413812  1
  Gd  Gd1  1  0.000000  0.677847  0.586188  1
  Y  Y2  1  0.000000  0.821950  0.086038  1
  Y  Y3  1  0.000000  0.178050  0.913962  1
  Er  Er4  1  0.000000  0.944254  0.372876  1
  Er  Er5  1  0.000000  0.055746  0.627124  1
  Er  Er6  1  0.000000  0.444161  0.126945  1
  Er  Er7  1  0.000000  0.555839  0.873055  1
  B  B8  1  0.500000  0.554505  0.432425  1
  B  B9  1  0.500000  0.445495  0.567575  1
  B  B10  1  0.500000  0.054200  0.067157  1
  B  B11  1  0.500000  0.945800  0.932843  1
  B  B12  1  0.500000  0.748783  0.419362  1
  B  B13  1  0.500000  0.251217  0.580638  1
  B  B14  1  0.500000  0.248646  0.080356  1
  B  B15  1  0.500000  0.751354  0.919644  1
  B  B16  1  0.500000  0.791512  0.266452  1
  B  B17  1  0.500000  0.208488  0.733548  1
  B  B18  1  0.500000  0.291259  0.233169  1
  B  B19  1  0.500000  0.708741  0.766831  1
  B  B20  1  0.500000  0.631607  0.185101  1
  B  B21  1  0.500000  0.368393  0.814899  1
  B  B22  1  0.500000  0.131428  0.314633  1
  B  B23  1  0.500000  0.868572  0.685367  1
  B  B24  1  0.500000  0.983421  0.213298  1
  B  B25  1  0.500000  0.016579  0.786702  1
  B  B26  1  0.500000  0.483738  0.286441  1
  B  B27  1  0.500000  0.516262  0.713559  1
  B  B28  1  0.500000  0.606522  0.029447  1
  B  B29  1  0.500000  0.393478  0.970553  1
  B  B30  1  0.500000  0.105943  0.470705  1
  B  B31  1  0.500000  0.894057  0.529295  1
  Os  Os32  1  0.000000  0.638359  0.320489  1
  Os  Os33  1  0.000000  0.361641  0.679511  1
  Os  Os34  1  0.000000  0.137912  0.178944  1
  Os  Os35  1  0.000000  0.862088  0.821056  1
