# generated using pymatgen
data_Ho7(LuPb2)3
_symmetry_space_group_name_H-M   'P 1'
_cell_length_a   8.99253100
_cell_length_b   8.99253236
_cell_length_c   6.54681000
_cell_angle_alpha   90.00000000
_cell_angle_beta   90.00000000
_cell_angle_gamma   120.00000602
_symmetry_Int_Tables_number   1
_chemical_formula_structural   Ho7(LuPb2)3
_chemical_formula_sum   'Ho7 Lu3 Pb6'
_cell_volume   458.48411743
_cell_formula_units_Z   1
loop_
 _symmetry_equiv_pos_site_id
 _symmetry_equiv_pos_as_xyz
  1  'x, y, z'
loop_
 _atom_site_type_symbol
 _atom_site_label
 _atom_site_symmetry_multiplicity
 _atom_site_fract_x
 _atom_site_fract_y
 _atom_site_fract_z
 _atom_site_occupancy
  Ho  Ho0  1  0.333333  0.666667  0.500000  1
  Ho  Ho1  1  0.237552  0.000099  0.249786  1
  Ho  Ho2  1  0.237552  0.237452  0.750214  1
  Ho  Ho3  1  0.999901  0.762448  0.750214  1
  Ho  Ho4  1  0.999901  0.237452  0.249786  1
  Ho  Ho5  1  0.762548  0.762448  0.249786  1
  Ho  Ho6  1  0.762548  0.000099  0.750214  1
  Lu  Lu7  1  0.333333  0.666667  0.000000  1
  Lu  Lu8  1  0.666667  0.333333  0.500000  1
  Lu  Lu9  1  0.666667  0.333333  0.000000  1
  Pb  Pb10  1  0.604940  0.000850  0.249201  1
  Pb  Pb11  1  0.604940  0.604090  0.750799  1
  Pb  Pb12  1  0.999150  0.395060  0.750799  1
  Pb  Pb13  1  0.999150  0.604090  0.249201  1
  Pb  Pb14  1  0.395910  0.395060  0.249201  1
  Pb  Pb15  1  0.395910  0.000850  0.750799  1
