# generated using pymatgen
data_Tm8NbSi16W11
_symmetry_space_group_name_H-M   'P 1'
_cell_length_a   6.72402065
_cell_length_b   6.91544391
_cell_length_c   12.90015488
_cell_angle_alpha   89.99771167
_cell_angle_beta   89.98267528
_cell_angle_gamma   90.13100861
_symmetry_Int_Tables_number   1
_chemical_formula_structural   Tm8NbSi16W11
_chemical_formula_sum   'Tm8 Nb1 Si16 W11'
_cell_volume   599.85028661
_cell_formula_units_Z   1
loop_
 _symmetry_equiv_pos_site_id
 _symmetry_equiv_pos_as_xyz
  1  'x, y, z'
loop_
 _atom_site_type_symbol
 _atom_site_label
 _atom_site_symmetry_multiplicity
 _atom_site_fract_x
 _atom_site_fract_y
 _atom_site_fract_z
 _atom_site_occupancy
  Tm  Tm0  1  0.996922  0.169888  0.093051  1
  Tm  Tm1  1  0.003757  0.831465  0.906458  1
  Tm  Tm2  1  0.502601  0.667346  0.906408  1
  Tm  Tm3  1  0.004081  0.830594  0.593050  1
  Tm  Tm4  1  0.497196  0.331119  0.093457  1
  Tm  Tm5  1  0.996292  0.170390  0.407450  1
  Tm  Tm6  1  0.496836  0.330541  0.407388  1
  Tm  Tm7  1  0.502939  0.668069  0.593048  1
  Nb  Nb8  1  0.170111  0.665233  0.125265  1
  Si  Si9  1  0.033609  0.126781  0.749580  1
  Si  Si10  1  0.965428  0.875689  0.252168  1
  Si  Si11  1  0.469093  0.627522  0.251072  1
  Si  Si12  1  0.531855  0.372348  0.749369  1
  Si  Si13  1  0.301452  0.864350  0.749808  1
  Si  Si14  1  0.700026  0.135828  0.249894  1
  Si  Si15  1  0.200414  0.362798  0.250472  1
  Si  Si16  1  0.801102  0.635681  0.749923  1
  Si  Si17  1  0.163275  0.456412  0.545667  1
  Si  Si18  1  0.836727  0.542970  0.455217  1
  Si  Si19  1  0.336192  0.959225  0.453614  1
  Si  Si20  1  0.833542  0.541795  0.044092  1
  Si  Si21  1  0.662379  0.040092  0.547173  1
  Si  Si22  1  0.162009  0.456189  0.952477  1
  Si  Si23  1  0.661998  0.039896  0.953129  1
  Si  Si24  1  0.340066  0.963457  0.045212  1
  W  W25  1  0.161743  0.497730  0.749492  1
  W  W26  1  0.838445  0.503740  0.250943  1
  W  W27  1  0.334980  0.002814  0.251650  1
  W  W28  1  0.667038  0.996855  0.749431  1
  W  W29  1  0.330596  0.163072  0.625244  1
  W  W30  1  0.668266  0.836586  0.375233  1
  W  W31  1  0.170946  0.659396  0.376970  1
  W  W32  1  0.670033  0.835386  0.124853  1
  W  W33  1  0.828629  0.338579  0.624857  1
  W  W34  1  0.332373  0.163556  0.873074  1
  W  W35  1  0.827048  0.336605  0.873815  1
