# generated using pymatgen
data_YEr4In4PdAu
_symmetry_space_group_name_H-M   'P 1'
_cell_length_a   3.63473500
_cell_length_b   8.15163228
_cell_length_c   18.25609116
_cell_angle_alpha   89.97747253
_cell_angle_beta   90.00000000
_cell_angle_gamma   90.00000000
_symmetry_Int_Tables_number   1
_chemical_formula_structural   YEr4In4PdAu
_chemical_formula_sum   'Y2 Er8 In8 Pd2 Au2'
_cell_volume   540.91010584
_cell_formula_units_Z   2
loop_
 _symmetry_equiv_pos_site_id
 _symmetry_equiv_pos_as_xyz
  1  'x, y, z'
loop_
 _atom_site_type_symbol
 _atom_site_label
 _atom_site_symmetry_multiplicity
 _atom_site_fract_x
 _atom_site_fract_y
 _atom_site_fract_z
 _atom_site_occupancy
  Y  Y0  1  0.000000  0.500000  0.500000  1
  Y  Y1  1  0.000000  0.000000  0.000000  1
  Er  Er2  1  0.000000  0.746544  0.283008  1
  Er  Er3  1  0.000000  0.253456  0.716992  1
  Er  Er4  1  0.000000  0.767195  0.779372  1
  Er  Er5  1  0.000000  0.232805  0.220628  1
  Er  Er6  1  0.000000  0.618889  0.080701  1
  Er  Er7  1  0.000000  0.381111  0.919299  1
  Er  Er8  1  0.000000  0.885667  0.582841  1
  Er  Er9  1  0.000000  0.114333  0.417159  1
  In  In10  1  0.500000  0.709244  0.932373  1
  In  In11  1  0.500000  0.290756  0.067627  1
  In  In12  1  0.500000  0.792101  0.433030  1
  In  In13  1  0.500000  0.207899  0.566970  1
  In  In14  1  0.500000  0.583709  0.647706  1
  In  In15  1  0.500000  0.416291  0.352294  1
  In  In16  1  0.500000  0.921343  0.148818  1
  In  In17  1  0.500000  0.078657  0.851182  1
  Pd  Pd18  1  0.500000  0.974609  0.696215  1
  Pd  Pd19  1  0.500000  0.025391  0.303785  1
  Au  Au20  1  0.500000  0.527689  0.197724  1
  Au  Au21  1  0.500000  0.472311  0.802276  1
