# generated using pymatgen
data_Tb3Er13(Tl3Co)2
_symmetry_space_group_name_H-M   'P 1'
_cell_length_a   10.26459610
_cell_length_b   10.26459519
_cell_length_c   7.10991905
_cell_angle_alpha   89.98504735
_cell_angle_beta   90.01495152
_cell_angle_gamma   119.96471730
_symmetry_Int_Tables_number   1
_chemical_formula_structural   Tb3Er13(Tl3Co)2
_chemical_formula_sum   'Tb3 Er13 Tl6 Co2'
_cell_volume   648.98290209
_cell_formula_units_Z   1
loop_
 _symmetry_equiv_pos_site_id
 _symmetry_equiv_pos_as_xyz
  1  'x, y, z'
loop_
 _atom_site_type_symbol
 _atom_site_label
 _atom_site_symmetry_multiplicity
 _atom_site_fract_x
 _atom_site_fract_y
 _atom_site_fract_z
 _atom_site_occupancy
  Tb  Tb0  1  0.538000  0.074293  0.792147  1
  Tb  Tb1  1  0.925707  0.462000  0.792147  1
  Tb  Tb2  1  0.536930  0.463070  0.792010  1
  Er  Er3  1  0.460218  0.922861  0.292896  1
  Er  Er4  1  0.077139  0.539782  0.292896  1
  Er  Er5  1  0.461547  0.538453  0.293710  1
  Er  Er6  1  0.822213  0.644061  0.493099  1
  Er  Er7  1  0.355939  0.177787  0.493099  1
  Er  Er8  1  0.822233  0.177767  0.490614  1
  Er  Er9  1  0.178527  0.356920  0.995562  1
  Er  Er10  1  0.643080  0.821473  0.995562  1
  Er  Er11  1  0.177923  0.822077  0.992623  1
  Er  Er12  1  0.666548  0.333452  0.186161  1
  Er  Er13  1  0.333277  0.666723  0.685468  1
  Er  Er14  1  0.999259  0.000741  0.775955  1
  Er  Er15  1  0.000837  0.999163  0.275893  1
  Tl  Tl16  1  0.837294  0.674116  0.045248  1
  Tl  Tl17  1  0.325884  0.162706  0.045248  1
  Tl  Tl18  1  0.837679  0.162321  0.045308  1
  Tl  Tl19  1  0.163756  0.326609  0.544656  1
  Tl  Tl20  1  0.673391  0.836244  0.544656  1
  Tl  Tl21  1  0.163067  0.836933  0.545640  1
  Co  Co22  1  0.666631  0.333369  0.561543  1
  Co  Co23  1  0.332922  0.667078  0.063762  1
