# generated using pymatgen
data_Er12Th4Mg4Ru3Rh
_symmetry_space_group_name_H-M   'P 1'
_cell_length_a   9.68589050
_cell_length_b   9.70696616
_cell_length_c   9.70696600
_cell_angle_alpha   60.00000055
_cell_angle_beta   59.92799575
_cell_angle_gamma   59.92799899
_symmetry_Int_Tables_number   1
_chemical_formula_structural   Er12Th4Mg4Ru3Rh
_chemical_formula_sum   'Er12 Th4 Mg4 Ru3 Rh1'
_cell_volume   644.64122210
_cell_formula_units_Z   1
loop_
 _symmetry_equiv_pos_site_id
 _symmetry_equiv_pos_as_xyz
  1  'x, y, z'
loop_
 _atom_site_type_symbol
 _atom_site_label
 _atom_site_symmetry_multiplicity
 _atom_site_fract_x
 _atom_site_fract_y
 _atom_site_fract_z
 _atom_site_occupancy
  Er  Er0  1  0.815382  0.186119  0.186119  1
  Er  Er1  1  0.185440  0.814381  0.814381  1
  Er  Er2  1  0.185440  0.814381  0.185799  1
  Er  Er3  1  0.815382  0.186119  0.812380  1
  Er  Er4  1  0.185440  0.185799  0.814381  1
  Er  Er5  1  0.815382  0.812380  0.186119  1
  Er  Er6  1  0.933603  0.565926  0.565926  1
  Er  Er7  1  0.564628  0.934053  0.934053  1
  Er  Er8  1  0.564628  0.934053  0.567265  1
  Er  Er9  1  0.933603  0.565926  0.934544  1
  Er  Er10  1  0.564628  0.567265  0.934053  1
  Er  Er11  1  0.933603  0.934544  0.565926  1
  Th  Th12  1  0.345746  0.349802  0.349802  1
  Th  Th13  1  0.345746  0.349802  0.954649  1
  Th  Th14  1  0.345746  0.954649  0.349802  1
  Th  Th15  1  0.957434  0.347521  0.347521  1
  Mg  Mg16  1  0.580666  0.580984  0.580984  1
  Mg  Mg17  1  0.580666  0.580984  0.257364  1
  Mg  Mg18  1  0.580666  0.257364  0.580984  1
  Mg  Mg19  1  0.257055  0.580981  0.580981  1
  Ru  Ru20  1  0.145544  0.143458  0.143458  1
  Ru  Ru21  1  0.145544  0.143458  0.567539  1
  Ru  Ru22  1  0.145544  0.567539  0.143458  1
  Rh  Rh23  1  0.572479  0.142506  0.142506  1
