# generated using pymatgen
data_CaLu2Pa(ReB6)2
_symmetry_space_group_name_H-M   'P 1'
_cell_length_a   3.67082500
_cell_length_b   9.12083334
_cell_length_c   11.49871305
_cell_angle_alpha   90.29341188
_cell_angle_beta   90.00000000
_cell_angle_gamma   90.00000000
_symmetry_Int_Tables_number   1
_chemical_formula_structural   CaLu2Pa(ReB6)2
_chemical_formula_sum   'Ca2 Lu4 Pa2 Re4 B24'
_cell_volume   384.98316871
_cell_formula_units_Z   2
loop_
 _symmetry_equiv_pos_site_id
 _symmetry_equiv_pos_as_xyz
  1  'x, y, z'
loop_
 _atom_site_type_symbol
 _atom_site_label
 _atom_site_symmetry_multiplicity
 _atom_site_fract_x
 _atom_site_fract_y
 _atom_site_fract_z
 _atom_site_occupancy
  Ca  Ca0  1  0.000000  0.825014  0.085160  1
  Ca  Ca1  1  0.000000  0.174986  0.914840  1
  Lu  Lu2  1  0.000000  0.944756  0.370896  1
  Lu  Lu3  1  0.000000  0.055244  0.629104  1
  Lu  Lu4  1  0.000000  0.442523  0.129489  1
  Lu  Lu5  1  0.000000  0.557477  0.870511  1
  Pa  Pa6  1  0.000000  0.319784  0.413125  1
  Pa  Pa7  1  0.000000  0.680216  0.586875  1
  Re  Re8  1  0.000000  0.635356  0.324486  1
  Re  Re9  1  0.000000  0.364644  0.675514  1
  Re  Re10  1  0.000000  0.144011  0.184962  1
  Re  Re11  1  0.000000  0.855989  0.815038  1
  B  B12  1  0.500000  0.553724  0.432781  1
  B  B13  1  0.500000  0.446276  0.567219  1
  B  B14  1  0.500000  0.054176  0.067652  1
  B  B15  1  0.500000  0.945824  0.932348  1
  B  B16  1  0.500000  0.750400  0.418603  1
  B  B17  1  0.500000  0.249600  0.581397  1
  B  B18  1  0.500000  0.250811  0.081260  1
  B  B19  1  0.500000  0.749189  0.918740  1
  B  B20  1  0.500000  0.792323  0.266034  1
  B  B21  1  0.500000  0.207677  0.733966  1
  B  B22  1  0.500000  0.293455  0.234947  1
  B  B23  1  0.500000  0.706545  0.765053  1
  B  B24  1  0.500000  0.630067  0.185201  1
  B  B25  1  0.500000  0.369933  0.814799  1
  B  B26  1  0.500000  0.131863  0.315281  1
  B  B27  1  0.500000  0.868137  0.684719  1
  B  B28  1  0.500000  0.983316  0.212647  1
  B  B29  1  0.500000  0.016684  0.787353  1
  B  B30  1  0.500000  0.482381  0.287383  1
  B  B31  1  0.500000  0.517619  0.712617  1
  B  B32  1  0.500000  0.595495  0.026622  1
  B  B33  1  0.500000  0.404505  0.973378  1
  B  B34  1  0.500000  0.105511  0.471303  1
  B  B35  1  0.500000  0.894489  0.528697  1
