# generated using pymatgen
data_Tb3HoCd2CoCu3
_symmetry_space_group_name_H-M   'P 1'
_cell_length_a   7.54195719
_cell_length_b   7.52919239
_cell_length_c   3.68831000
_cell_angle_alpha   90.00000000
_cell_angle_beta   90.00000000
_cell_angle_gamma   90.14432764
_symmetry_Int_Tables_number   1
_chemical_formula_structural   Tb3HoCd2CoCu3
_chemical_formula_sum   'Tb3 Ho1 Cd2 Co1 Cu3'
_cell_volume   209.43945342
_cell_formula_units_Z   1
loop_
 _symmetry_equiv_pos_site_id
 _symmetry_equiv_pos_as_xyz
  1  'x, y, z'
loop_
 _atom_site_type_symbol
 _atom_site_label
 _atom_site_symmetry_multiplicity
 _atom_site_fract_x
 _atom_site_fract_y
 _atom_site_fract_z
 _atom_site_occupancy
  Tb  Tb0  1  0.672075  0.171299  0.500000  1
  Tb  Tb1  1  0.310045  0.809977  0.500000  1
  Tb  Tb2  1  0.181487  0.344098  0.500000  1
  Ho  Ho3  1  0.844254  0.682217  0.500000  1
  Cd  Cd4  1  0.000652  0.005867  0.000000  1
  Cd  Cd5  1  0.507260  0.501764  0.000000  1
  Co  Co6  1  0.113404  0.615012  0.000000  1
  Cu  Cu7  1  0.879073  0.381245  0.000000  1
  Cu  Cu8  1  0.615415  0.876297  0.000000  1
  Cu  Cu9  1  0.376335  0.112223  0.000000  1
