# generated using pymatgen
data_TbHo3(Sc4Bi3)4
_symmetry_space_group_name_H-M   'P 1'
_cell_length_a   7.89376202
_cell_length_b   9.06504500
_cell_length_c   11.56942303
_cell_angle_alpha   90.00000000
_cell_angle_beta   90.00758962
_cell_angle_gamma   90.00000000
_symmetry_Int_Tables_number   1
_chemical_formula_structural   TbHo3(Sc4Bi3)4
_chemical_formula_sum   'Tb1 Ho3 Sc16 Bi12'
_cell_volume   827.87675846
_cell_formula_units_Z   1
loop_
 _symmetry_equiv_pos_site_id
 _symmetry_equiv_pos_as_xyz
  1  'x, y, z'
loop_
 _atom_site_type_symbol
 _atom_site_label
 _atom_site_symmetry_multiplicity
 _atom_site_fract_x
 _atom_site_fract_y
 _atom_site_fract_z
 _atom_site_occupancy
  Tb  Tb0  1  0.184150  0.750000  0.719011  1
  Ho  Ho1  1  0.315662  0.250000  0.218689  1
  Ho  Ho2  1  0.815689  0.250000  0.281236  1
  Ho  Ho3  1  0.684278  0.750000  0.781314  1
  Sc  Sc4  1  0.348525  0.750000  0.220556  1
  Sc  Sc5  1  0.848446  0.750000  0.279412  1
  Sc  Sc6  1  0.651559  0.250000  0.779470  1
  Sc  Sc7  1  0.151500  0.250000  0.720606  1
  Sc  Sc8  1  0.693229  0.567187  0.062315  1
  Sc  Sc9  1  0.193161  0.932831  0.437587  1
  Sc  Sc10  1  0.306789  0.067226  0.937754  1
  Sc  Sc11  1  0.806872  0.432820  0.562322  1
  Sc  Sc12  1  0.306789  0.432774  0.937754  1
  Sc  Sc13  1  0.806872  0.067180  0.562322  1
  Sc  Sc14  1  0.693229  0.932813  0.062315  1
  Sc  Sc15  1  0.193161  0.567169  0.437587  1
  Sc  Sc16  1  0.481704  0.250000  0.488389  1
  Sc  Sc17  1  0.981574  0.250000  0.011585  1
  Sc  Sc18  1  0.518533  0.750000  0.511456  1
  Sc  Sc19  1  0.018241  0.750000  0.988533  1
  Bi  Bi20  1  0.402854  0.750000  0.967064  1
  Bi  Bi21  1  0.902086  0.750000  0.532703  1
  Bi  Bi22  1  0.597378  0.250000  0.033143  1
  Bi  Bi23  1  0.097420  0.250000  0.466852  1
  Bi  Bi24  1  0.564090  0.990033  0.328427  1
  Bi  Bi25  1  0.064094  0.509971  0.171543  1
  Bi  Bi26  1  0.436407  0.489557  0.671450  1
  Bi  Bi27  1  0.935558  0.010330  0.828593  1
  Bi  Bi28  1  0.436407  0.010443  0.671450  1
  Bi  Bi29  1  0.935558  0.489670  0.828593  1
  Bi  Bi30  1  0.564090  0.509967  0.328427  1
  Bi  Bi31  1  0.064094  0.990029  0.171543  1
