# generated using pymatgen
data_Sc20Cd6NiP
_symmetry_space_group_name_H-M   'P 1'
_cell_length_a   8.95910300
_cell_length_b   8.95910243
_cell_length_c   9.13306400
_cell_angle_alpha   90.00000000
_cell_angle_beta   90.00000000
_cell_angle_gamma   119.99999103
_symmetry_Int_Tables_number   1
_chemical_formula_structural   Sc20Cd6NiP
_chemical_formula_sum   'Sc20 Cd6 Ni1 P1'
_cell_volume   634.85742518
_cell_formula_units_Z   1
loop_
 _symmetry_equiv_pos_site_id
 _symmetry_equiv_pos_as_xyz
  1  'x, y, z'
loop_
 _atom_site_type_symbol
 _atom_site_label
 _atom_site_symmetry_multiplicity
 _atom_site_fract_x
 _atom_site_fract_y
 _atom_site_fract_z
 _atom_site_occupancy
  Sc  Sc0  1  0.000000  0.000000  0.500764  1
  Sc  Sc1  1  0.000000  0.000000  0.999236  1
  Sc  Sc2  1  0.544512  0.455488  0.250000  1
  Sc  Sc3  1  0.544512  0.089023  0.250000  1
  Sc  Sc4  1  0.910977  0.455488  0.250000  1
  Sc  Sc5  1  0.457632  0.542368  0.750000  1
  Sc  Sc6  1  0.457632  0.915265  0.750000  1
  Sc  Sc7  1  0.084735  0.542368  0.750000  1
  Sc  Sc8  1  0.209156  0.790844  0.446519  1
  Sc  Sc9  1  0.209156  0.418313  0.446519  1
  Sc  Sc10  1  0.581687  0.790844  0.446519  1
  Sc  Sc11  1  0.788321  0.211679  0.560347  1
  Sc  Sc12  1  0.788321  0.576641  0.560347  1
  Sc  Sc13  1  0.423359  0.211679  0.560347  1
  Sc  Sc14  1  0.788321  0.211679  0.939653  1
  Sc  Sc15  1  0.788321  0.576641  0.939653  1
  Sc  Sc16  1  0.423359  0.211679  0.939653  1
  Sc  Sc17  1  0.209156  0.790844  0.053481  1
  Sc  Sc18  1  0.209156  0.418313  0.053481  1
  Sc  Sc19  1  0.581687  0.790844  0.053481  1
  Cd  Cd20  1  0.883971  0.116029  0.250000  1
  Cd  Cd21  1  0.883971  0.767944  0.250000  1
  Cd  Cd22  1  0.232056  0.116029  0.250000  1
  Cd  Cd23  1  0.115825  0.884175  0.750000  1
  Cd  Cd24  1  0.115825  0.231648  0.750000  1
  Cd  Cd25  1  0.768352  0.884175  0.750000  1
  Ni  Ni26  1  0.666667  0.333333  0.750000  1
  P  P27  1  0.333333  0.666667  0.250000  1
