# generated using pymatgen
data_CeTmS2
_symmetry_space_group_name_H-M   'P 1'
_cell_length_a   6.94411168
_cell_length_b   6.94411154
_cell_length_c   6.94411100
_cell_angle_alpha   32.68933224
_cell_angle_beta   32.68933304
_cell_angle_gamma   32.68932648
_symmetry_Int_Tables_number   1
_chemical_formula_structural   CeTmS2
_chemical_formula_sum   'Ce1 Tm1 S2'
_cell_volume   86.87651823
_cell_formula_units_Z   1
loop_
 _symmetry_equiv_pos_site_id
 _symmetry_equiv_pos_as_xyz
  1  'x, y, z'
loop_
 _atom_site_type_symbol
 _atom_site_label
 _atom_site_symmetry_multiplicity
 _atom_site_fract_x
 _atom_site_fract_y
 _atom_site_fract_z
 _atom_site_occupancy
  Ce  Ce0  1  0.000000  0.000000  0.000000  1
  Tm  Tm1  1  0.500000  0.500000  0.500000  1
  S  S2  1  0.244273  0.244273  0.244273  1
  S  S3  1  0.755727  0.755727  0.755727  1
