# generated using pymatgen
data_Dy5Y5(IrPb3)2
_symmetry_space_group_name_H-M   'P 1'
_cell_length_a   9.23697800
_cell_length_b   9.23168484
_cell_length_c   6.88678100
_cell_angle_alpha   90.00000000
_cell_angle_beta   90.00000000
_cell_angle_gamma   120.01896871
_symmetry_Int_Tables_number   1
_chemical_formula_structural   Dy5Y5(IrPb3)2
_chemical_formula_sum   'Dy5 Y5 Ir2 Pb6'
_cell_volume   508.48101189
_cell_formula_units_Z   1
loop_
 _symmetry_equiv_pos_site_id
 _symmetry_equiv_pos_as_xyz
  1  'x, y, z'
loop_
 _atom_site_type_symbol
 _atom_site_label
 _atom_site_symmetry_multiplicity
 _atom_site_fract_x
 _atom_site_fract_y
 _atom_site_fract_z
 _atom_site_occupancy
  Dy  Dy0  1  0.999959  0.764512  0.750000  1
  Dy  Dy1  1  0.999966  0.235462  0.250000  1
  Dy  Dy2  1  0.764565  0.000000  0.750000  1
  Dy  Dy3  1  0.235447  0.235488  0.750000  1
  Dy  Dy4  1  0.764504  0.764538  0.250000  1
  Y  Y5  1  0.236351  0.000000  0.250000  1
  Y  Y6  1  0.333327  0.666665  0.499999  1
  Y  Y7  1  0.666663  0.333335  0.499999  1
  Y  Y8  1  0.333327  0.666665  0.000001  1
  Y  Y9  1  0.666663  0.333335  0.000001  1
  Ir  Ir10  1  0.999611  0.000000  0.999612  1
  Ir  Ir11  1  0.999611  0.000000  0.500388  1
  Pb  Pb12  1  0.593942  0.000000  0.250000  1
  Pb  Pb13  1  0.406070  0.000000  0.750000  1
  Pb  Pb14  1  0.999957  0.593890  0.250000  1
  Pb  Pb15  1  0.593942  0.593912  0.750000  1
  Pb  Pb16  1  0.406067  0.406110  0.250000  1
  Pb  Pb17  1  0.000030  0.406088  0.750000  1
