# generated using pymatgen
data_Eu2Ga2SnAu
_symmetry_space_group_name_H-M   'P 1'
_cell_length_a   4.60217100
_cell_length_b   4.60217075
_cell_length_c   16.60940200
_cell_angle_alpha   90.00000000
_cell_angle_beta   90.00000000
_cell_angle_gamma   119.99999460
_symmetry_Int_Tables_number   1
_chemical_formula_structural   Eu2Ga2SnAu
_chemical_formula_sum   'Eu4 Ga4 Sn2 Au2'
_cell_volume   304.65627749
_cell_formula_units_Z   2
loop_
 _symmetry_equiv_pos_site_id
 _symmetry_equiv_pos_as_xyz
  1  'x, y, z'
loop_
 _atom_site_type_symbol
 _atom_site_label
 _atom_site_symmetry_multiplicity
 _atom_site_fract_x
 _atom_site_fract_y
 _atom_site_fract_z
 _atom_site_occupancy
  Eu  Eu0  1  0.000000  0.000000  0.500000  1
  Eu  Eu1  1  0.000000  0.000000  0.000000  1
  Eu  Eu2  1  0.000000  0.000000  0.263628  1
  Eu  Eu3  1  0.000000  0.000000  0.736372  1
  Ga  Ga4  1  0.666667  0.333333  0.372137  1
  Ga  Ga5  1  0.333333  0.666667  0.627863  1
  Ga  Ga6  1  0.333333  0.666667  0.832089  1
  Ga  Ga7  1  0.666667  0.333333  0.167911  1
  Sn  Sn8  1  0.666667  0.333333  0.883665  1
  Sn  Sn9  1  0.333333  0.666667  0.116335  1
  Au  Au10  1  0.333333  0.666667  0.383249  1
  Au  Au11  1  0.666667  0.333333  0.616751  1
