# generated using pymatgen
data_Ta4Nb2Ga4CuRuC2
_symmetry_space_group_name_H-M   'P 1'
_cell_length_a   8.29059115
_cell_length_b   8.28960274
_cell_length_c   8.29283200
_cell_angle_alpha   59.99497479
_cell_angle_beta   59.98447415
_cell_angle_gamma   60.02170227
_symmetry_Int_Tables_number   1
_chemical_formula_structural   Ta4Nb2Ga4CuRuC2
_chemical_formula_sum   'Ta8 Nb4 Ga8 Cu2 Ru2 C4'
_cell_volume   403.00530893
_cell_formula_units_Z   2
loop_
 _symmetry_equiv_pos_site_id
 _symmetry_equiv_pos_as_xyz
  1  'x, y, z'
loop_
 _atom_site_type_symbol
 _atom_site_label
 _atom_site_symmetry_multiplicity
 _atom_site_fract_x
 _atom_site_fract_y
 _atom_site_fract_z
 _atom_site_occupancy
  Ta  Ta0  1  0.682325  0.691919  0.312098  1
  Ta  Ta1  1  0.313977  0.311680  0.692227  1
  Ta  Ta2  1  0.568751  0.558087  0.938021  1
  Ta  Ta3  1  0.933999  0.565983  0.566159  1
  Ta  Ta4  1  0.561196  0.938672  0.939368  1
  Ta  Ta5  1  0.935496  0.937539  0.558303  1
  Ta  Ta6  1  0.682831  0.311468  0.692545  1
  Ta  Ta7  1  0.935985  0.557715  0.938226  1
  Nb  Nb8  1  0.567402  0.938602  0.558067  1
  Nb  Nb9  1  0.315524  0.684393  0.684677  1
  Nb  Nb10  1  0.687331  0.312535  0.313157  1
  Nb  Nb11  1  0.313233  0.692107  0.311072  1
  Ga  Ga12  1  0.919576  0.910440  0.910763  1
  Ga  Ga13  1  0.991387  0.337312  0.337669  1
  Ga  Ga14  1  0.331360  0.997691  0.339098  1
  Ga  Ga15  1  0.331178  0.340219  0.997656  1
  Ga  Ga16  1  0.917837  0.251769  0.912731  1
  Ga  Ga17  1  0.917095  0.913739  0.251699  1
  Ga  Ga18  1  0.258944  0.910865  0.911644  1
  Ga  Ga19  1  0.334461  0.336541  0.337271  1
  Cu  Cu20  1  0.122677  0.624925  0.127277  1
  Cu  Cu21  1  0.122593  0.127851  0.624779  1
  Ru  Ru22  1  0.127136  0.126051  0.121955  1
  Ru  Ru23  1  0.625902  0.124059  0.120162  1
  C  C24  1  0.626881  0.622883  0.625509  1
  C  C25  1  0.123624  0.623958  0.626615  1
  C  C26  1  0.625012  0.124518  0.627867  1
  C  C27  1  0.626286  0.626481  0.123386  1
