# generated using pymatgen
data_Pr3HoAu2
_symmetry_space_group_name_H-M   'P 1'
_cell_length_a   5.04535400
_cell_length_b   7.38881635
_cell_length_c   9.27335974
_cell_angle_alpha   89.91024725
_cell_angle_beta   90.00000000
_cell_angle_gamma   90.00000000
_symmetry_Int_Tables_number   1
_chemical_formula_structural   Pr3HoAu2
_chemical_formula_sum   'Pr6 Ho2 Au4'
_cell_volume   345.70295386
_cell_formula_units_Z   2
loop_
 _symmetry_equiv_pos_site_id
 _symmetry_equiv_pos_as_xyz
  1  'x, y, z'
loop_
 _atom_site_type_symbol
 _atom_site_label
 _atom_site_symmetry_multiplicity
 _atom_site_fract_x
 _atom_site_fract_y
 _atom_site_fract_z
 _atom_site_occupancy
  Pr  Pr0  1  0.250000  0.489801  0.174693  1
  Pr  Pr1  1  0.750000  0.510199  0.825307  1
  Pr  Pr2  1  0.250000  0.991676  0.323160  1
  Pr  Pr3  1  0.750000  0.008324  0.676840  1
  Pr  Pr4  1  0.750000  0.650388  0.411191  1
  Pr  Pr5  1  0.250000  0.349612  0.588809  1
  Ho  Ho6  1  0.750000  0.148556  0.077428  1
  Ho  Ho7  1  0.250000  0.851444  0.922572  1
  Au  Au8  1  0.250000  0.241004  0.911506  1
  Au  Au9  1  0.750000  0.758996  0.088494  1
  Au  Au10  1  0.250000  0.758972  0.610767  1
  Au  Au11  1  0.750000  0.241028  0.389233  1
