# generated using pymatgen
data_La3Ce(AlPd2)4
_symmetry_space_group_name_H-M   'P 1'
_cell_length_a   6.01276128
_cell_length_b   6.98104600
_cell_length_c   7.62144487
_cell_angle_alpha   90.00000000
_cell_angle_beta   90.09962766
_cell_angle_gamma   90.00000000
_symmetry_Int_Tables_number   1
_chemical_formula_structural   La3Ce(AlPd2)4
_chemical_formula_sum   'La3 Ce1 Al4 Pd8'
_cell_volume   319.91243204
_cell_formula_units_Z   1
loop_
 _symmetry_equiv_pos_site_id
 _symmetry_equiv_pos_as_xyz
  1  'x, y, z'
loop_
 _atom_site_type_symbol
 _atom_site_label
 _atom_site_symmetry_multiplicity
 _atom_site_fract_x
 _atom_site_fract_y
 _atom_site_fract_z
 _atom_site_occupancy
  La  La0  1  0.341219  0.750000  0.033444  1
  La  La1  1  0.157592  0.750000  0.533185  1
  La  La2  1  0.655865  0.250000  0.967173  1
  Ce  Ce3  1  0.837107  0.250000  0.466929  1
  Al  Al4  1  0.659173  0.750000  0.380452  1
  Al  Al5  1  0.840191  0.750000  0.883242  1
  Al  Al6  1  0.337844  0.250000  0.616889  1
  Al  Al7  1  0.156838  0.250000  0.122442  1
  Pd  Pd8  1  0.913080  0.549429  0.179704  1
  Pd  Pd9  1  0.593381  0.950540  0.673192  1
  Pd  Pd10  1  0.082222  0.051933  0.822002  1
  Pd  Pd11  1  0.418402  0.447888  0.323224  1
  Pd  Pd12  1  0.082222  0.448067  0.822002  1
  Pd  Pd13  1  0.418402  0.052112  0.323224  1
  Pd  Pd14  1  0.913080  0.950571  0.179704  1
  Pd  Pd15  1  0.593381  0.549460  0.673192  1
