# generated using pymatgen
data_Sr3FeTc2O9
_symmetry_space_group_name_H-M   'P 1'
_cell_length_a   5.62244800
_cell_length_b   5.62244767
_cell_length_c   6.87976700
_cell_angle_alpha   90.00000000
_cell_angle_beta   90.00000000
_cell_angle_gamma   119.99999015
_symmetry_Int_Tables_number   1
_chemical_formula_structural   Sr3FeTc2O9
_chemical_formula_sum   'Sr3 Fe1 Tc2 O9'
_cell_volume   188.34551138
_cell_formula_units_Z   1
loop_
 _symmetry_equiv_pos_site_id
 _symmetry_equiv_pos_as_xyz
  1  'x, y, z'
loop_
 _atom_site_type_symbol
 _atom_site_label
 _atom_site_symmetry_multiplicity
 _atom_site_fract_x
 _atom_site_fract_y
 _atom_site_fract_z
 _atom_site_occupancy
  Sr  Sr0  1  0.000000  0.000000  0.000000  1
  Sr  Sr1  1  0.666667  0.333333  0.350169  1
  Sr  Sr2  1  0.333333  0.666667  0.649831  1
  Fe  Fe3  1  0.000000  0.000000  0.500000  1
  Tc  Tc4  1  0.666667  0.333333  0.841128  1
  Tc  Tc5  1  0.333333  0.666667  0.158872  1
  O  O6  1  0.500000  0.000000  0.000000  1
  O  O7  1  0.500000  0.500000  0.000000  1
  O  O8  1  0.000000  0.500000  0.000000  1
  O  O9  1  0.831523  0.663045  0.671121  1
  O  O10  1  0.831523  0.168477  0.671121  1
  O  O11  1  0.336955  0.168477  0.671121  1
  O  O12  1  0.168477  0.336955  0.328879  1
  O  O13  1  0.168477  0.831523  0.328879  1
  O  O14  1  0.663045  0.831523  0.328879  1
