# generated using pymatgen
data_Y7Th(Si4W3)4
_symmetry_space_group_name_H-M   'P 1'
_cell_length_a   6.80829819
_cell_length_b   6.96397321
_cell_length_c   12.97389976
_cell_angle_alpha   89.90203445
_cell_angle_beta   90.03593835
_cell_angle_gamma   90.03319761
_symmetry_Int_Tables_number   1
_chemical_formula_structural   Y7Th(Si4W3)4
_chemical_formula_sum   'Y7 Th1 Si16 W12'
_cell_volume   615.12787199
_cell_formula_units_Z   1
loop_
 _symmetry_equiv_pos_site_id
 _symmetry_equiv_pos_as_xyz
  1  'x, y, z'
loop_
 _atom_site_type_symbol
 _atom_site_label
 _atom_site_symmetry_multiplicity
 _atom_site_fract_x
 _atom_site_fract_y
 _atom_site_fract_z
 _atom_site_occupancy
  Y  Y0  1  0.494962  0.667379  0.593445  1
  Y  Y1  1  0.995830  0.833022  0.906749  1
  Y  Y2  1  0.503976  0.332647  0.094029  1
  Y  Y3  1  0.004128  0.167052  0.404442  1
  Y  Y4  1  0.504451  0.332399  0.404571  1
  Y  Y5  1  0.003664  0.167868  0.093806  1
  Y  Y6  1  0.496046  0.666696  0.908284  1
  Th  Th7  1  0.996527  0.832289  0.593504  1
  Si  Si8  1  0.659313  0.957417  0.450882  1
  Si  Si9  1  0.160700  0.542629  0.047396  1
  Si  Si10  1  0.339278  0.042396  0.953240  1
  Si  Si11  1  0.836029  0.450492  0.545672  1
  Si  Si12  1  0.344127  0.046875  0.545696  1
  Si  Si13  1  0.840579  0.458204  0.952879  1
  Si  Si14  1  0.660249  0.957632  0.047449  1
  Si  Si15  1  0.163005  0.539435  0.451243  1
  Si  Si16  1  0.463835  0.368658  0.750020  1
  Si  Si17  1  0.962666  0.135043  0.752753  1
  Si  Si18  1  0.536593  0.631794  0.249323  1
  Si  Si19  1  0.036697  0.869186  0.249270  1
  Si  Si20  1  0.690904  0.869014  0.752894  1
  Si  Si21  1  0.199959  0.628006  0.753099  1
  Si  Si22  1  0.303661  0.131745  0.249277  1
  Si  Si23  1  0.803137  0.368560  0.249136  1
  W  W24  1  0.667596  0.162150  0.626836  1
  W  W25  1  0.168632  0.336100  0.875656  1
  W  W26  1  0.332071  0.836075  0.125193  1
  W  W27  1  0.833671  0.663474  0.373943  1
  W  W28  1  0.332881  0.836560  0.373871  1
  W  W29  1  0.833621  0.664148  0.125288  1
  W  W30  1  0.665873  0.165512  0.875427  1
  W  W31  1  0.166748  0.337436  0.626536  1
  W  W32  1  0.833962  0.501294  0.749233  1
  W  W33  1  0.332902  0.001179  0.749700  1
  W  W34  1  0.165781  0.500900  0.249921  1
  W  W35  1  0.665949  0.998733  0.249339  1
