# generated using pymatgen
data_Li2Nd3MgIr2Pd
_symmetry_space_group_name_H-M   'P 1'
_cell_length_a   7.38977386
_cell_length_b   7.38977436
_cell_length_c   4.07956400
_cell_angle_alpha   90.00000000
_cell_angle_beta   90.00000000
_cell_angle_gamma   120.05531390
_symmetry_Int_Tables_number   1
_chemical_formula_structural   Li2Nd3MgIr2Pd
_chemical_formula_sum   'Li2 Nd3 Mg1 Ir2 Pd1'
_cell_volume   192.82545818
_cell_formula_units_Z   1
loop_
 _symmetry_equiv_pos_site_id
 _symmetry_equiv_pos_as_xyz
  1  'x, y, z'
loop_
 _atom_site_type_symbol
 _atom_site_label
 _atom_site_symmetry_multiplicity
 _atom_site_fract_x
 _atom_site_fract_y
 _atom_site_fract_z
 _atom_site_occupancy
  Li  Li0  1  0.240465  0.999213  0.500000  1
  Li  Li1  1  0.999213  0.240465  0.500000  1
  Nd  Nd2  1  0.577808  0.001595  0.000000  1
  Nd  Nd3  1  0.001595  0.577808  0.000000  1
  Nd  Nd4  1  0.410764  0.410764  0.000000  1
  Mg  Mg5  1  0.761134  0.761134  0.500000  1
  Ir  Ir6  1  0.341626  0.669255  0.500000  1
  Ir  Ir7  1  0.669255  0.341626  0.500000  1
  Pd  Pd8  1  0.998139  0.998139  0.000000  1
