# generated using pymatgen
data_Hf7Fe2Co14P12W
_symmetry_space_group_name_H-M   'P 1'
_cell_length_a   11.96235534
_cell_length_b   11.96411725
_cell_length_c   3.65511500
_cell_angle_alpha   90.00000000
_cell_angle_beta   90.00000000
_cell_angle_gamma   120.00921436
_symmetry_Int_Tables_number   1
_chemical_formula_structural   Hf7Fe2Co14P12W
_chemical_formula_sum   'Hf7 Fe2 Co14 P12 W1'
_cell_volume   452.99009397
_cell_formula_units_Z   1
loop_
 _symmetry_equiv_pos_site_id
 _symmetry_equiv_pos_as_xyz
  1  'x, y, z'
loop_
 _atom_site_type_symbol
 _atom_site_label
 _atom_site_symmetry_multiplicity
 _atom_site_fract_x
 _atom_site_fract_y
 _atom_site_fract_z
 _atom_site_occupancy
  Hf  Hf0  1  0.821251  0.819986  0.500000  1
  Hf  Hf1  1  0.000286  0.175310  0.500000  1
  Hf  Hf2  1  0.555469  0.000058  0.000000  1
  Hf  Hf3  1  0.334069  0.666449  0.000000  1
  Hf  Hf4  1  0.665956  0.334630  0.000000  1
  Hf  Hf5  1  0.999917  0.555464  0.000000  1
  Hf  Hf6  1  0.173464  0.998988  0.500000  1
  Fe  Fe7  1  0.999605  0.720471  0.500000  1
  Fe  Fe8  1  0.281019  0.280865  0.500000  1
  Co  Co9  1  0.626842  0.819075  0.000000  1
  Co  Co10  1  0.373209  0.197790  0.000000  1
  Co  Co11  1  0.873213  0.353544  0.500000  1
  Co  Co12  1  0.721806  0.000146  0.500000  1
  Co  Co13  1  0.818338  0.626724  0.000000  1
  Co  Co14  1  0.179741  0.807799  0.000000  1
  Co  Co15  1  0.354267  0.873420  0.500000  1
  Co  Co16  1  0.131754  0.481809  0.500000  1
  Co  Co17  1  0.642822  0.515336  0.500000  1
  Co  Co18  1  0.999895  0.000223  0.000000  1
  Co  Co19  1  0.514962  0.642501  0.500000  1
  Co  Co20  1  0.482163  0.131665  0.500000  1
  Co  Co21  1  0.197721  0.372929  0.000000  1
  Co  Co22  1  0.807571  0.179195  0.000000  1
  P  P23  1  0.003338  0.346619  0.000000  1
  P  P24  1  0.827424  0.517655  0.500000  1
  P  P25  1  0.690059  0.173655  0.500000  1
  P  P26  1  0.176447  0.176338  0.000000  1
  P  P27  1  0.644769  0.645102  0.000000  1
  P  P28  1  0.823610  0.998384  0.000000  1
  P  P29  1  0.516516  0.826389  0.500000  1
  P  P30  1  0.172727  0.690559  0.500000  1
  P  P31  1  0.346639  0.003308  0.000000  1
  P  P32  1  0.480552  0.314781  0.500000  1
  P  P33  1  0.998609  0.823280  0.000000  1
  P  P34  1  0.314830  0.480348  0.500000  1
  W  W35  1  0.449140  0.449203  0.000000  1
