# generated using pymatgen
data_Nd4Lu2Si3Ge
_symmetry_space_group_name_H-M   'P 1'
_cell_length_a   7.53759646
_cell_length_b   7.53759685
_cell_length_c   4.42100600
_cell_angle_alpha   90.00000000
_cell_angle_beta   90.00000000
_cell_angle_gamma   90.39507288
_symmetry_Int_Tables_number   1
_chemical_formula_structural   Nd4Lu2Si3Ge
_chemical_formula_sum   'Nd4 Lu2 Si3 Ge1'
_cell_volume   251.17509079
_cell_formula_units_Z   1
loop_
 _symmetry_equiv_pos_site_id
 _symmetry_equiv_pos_as_xyz
  1  'x, y, z'
loop_
 _atom_site_type_symbol
 _atom_site_label
 _atom_site_symmetry_multiplicity
 _atom_site_fract_x
 _atom_site_fract_y
 _atom_site_fract_z
 _atom_site_occupancy
  Nd  Nd0  1  0.679579  0.176771  0.500000  1
  Nd  Nd1  1  0.323229  0.820421  0.500000  1
  Nd  Nd2  1  0.175248  0.324752  0.500000  1
  Nd  Nd3  1  0.823372  0.676628  0.500000  1
  Lu  Lu4  1  0.501063  0.502769  0.000000  1
  Lu  Lu5  1  0.997231  0.998937  0.000000  1
  Si  Si6  1  0.115220  0.614803  0.000000  1
  Si  Si7  1  0.885197  0.384780  0.000000  1
  Si  Si8  1  0.618064  0.881936  0.000000  1
  Ge  Ge9  1  0.381795  0.118205  0.000000  1
