# generated using pymatgen
data_CaYb9(GaSb3)4
_symmetry_space_group_name_H-M   'P 1'
_cell_length_a   4.48142800
_cell_length_b   12.06384536
_cell_length_c   14.03030571
_cell_angle_alpha   90.13484361
_cell_angle_beta   90.00000000
_cell_angle_gamma   90.00000000
_symmetry_Int_Tables_number   1
_chemical_formula_structural   CaYb9(GaSb3)4
_chemical_formula_sum   'Ca1 Yb9 Ga4 Sb12'
_cell_volume   758.52188576
_cell_formula_units_Z   1
loop_
 _symmetry_equiv_pos_site_id
 _symmetry_equiv_pos_as_xyz
  1  'x, y, z'
loop_
 _atom_site_type_symbol
 _atom_site_label
 _atom_site_symmetry_multiplicity
 _atom_site_fract_x
 _atom_site_fract_y
 _atom_site_fract_z
 _atom_site_occupancy
  Ca  Ca0  1  0.500000  0.500000  0.000000  1
  Yb  Yb1  1  0.500000  0.670298  0.481389  1
  Yb  Yb2  1  0.500000  0.329702  0.518611  1
  Yb  Yb3  1  0.500000  0.829796  0.981403  1
  Yb  Yb4  1  0.500000  0.170204  0.018597  1
  Yb  Yb5  1  0.500000  0.000000  0.500000  1
  Yb  Yb6  1  0.500000  0.908689  0.253193  1
  Yb  Yb7  1  0.500000  0.091311  0.746807  1
  Yb  Yb8  1  0.500000  0.408625  0.247044  1
  Yb  Yb9  1  0.500000  0.591375  0.752956  1
  Ga  Ga10  1  0.000000  0.330361  0.711597  1
  Ga  Ga11  1  0.000000  0.669639  0.288403  1
  Ga  Ga12  1  0.000000  0.830321  0.788316  1
  Ga  Ga13  1  0.000000  0.169679  0.211684  1
  Sb  Sb14  1  0.000000  0.973355  0.100469  1
  Sb  Sb15  1  0.000000  0.026645  0.899531  1
  Sb  Sb16  1  0.000000  0.473366  0.399451  1
  Sb  Sb17  1  0.000000  0.526634  0.600549  1
  Sb  Sb18  1  0.500000  0.162664  0.323665  1
  Sb  Sb19  1  0.500000  0.837336  0.676335  1
  Sb  Sb20  1  0.500000  0.662888  0.176454  1
  Sb  Sb21  1  0.500000  0.337112  0.823546  1
  Sb  Sb22  1  0.000000  0.345143  0.091229  1
  Sb  Sb23  1  0.000000  0.654857  0.908771  1
  Sb  Sb24  1  0.000000  0.845484  0.409167  1
  Sb  Sb25  1  0.000000  0.154516  0.590833  1
