# generated using pymatgen
data_La6Te7Pb
_symmetry_space_group_name_H-M   'P 1'
_cell_length_a   8.38298905
_cell_length_b   8.38298995
_cell_length_c   8.38298976
_cell_angle_alpha   109.27109895
_cell_angle_beta   109.27110293
_cell_angle_gamma   109.27109824
_symmetry_Int_Tables_number   1
_chemical_formula_structural   La6Te7Pb
_chemical_formula_sum   'La6 Te7 Pb1'
_cell_volume   456.82668013
_cell_formula_units_Z   1
loop_
 _symmetry_equiv_pos_site_id
 _symmetry_equiv_pos_as_xyz
  1  'x, y, z'
loop_
 _atom_site_type_symbol
 _atom_site_label
 _atom_site_symmetry_multiplicity
 _atom_site_fract_x
 _atom_site_fract_y
 _atom_site_fract_z
 _atom_site_occupancy
  La  La0  1  0.873197  0.123074  0.750212  1
  La  La1  1  0.377426  0.252267  0.624822  1
  La  La2  1  0.123074  0.750212  0.873197  1
  La  La3  1  0.750212  0.873197  0.123074  1
  La  La4  1  0.252267  0.624822  0.377426  1
  La  La5  1  0.624822  0.377426  0.252267  1
  Te  Te6  1  0.499988  0.999748  0.347300  1
  Te  Te7  1  0.999748  0.347300  0.499988  1
  Te  Te8  1  0.347300  0.499988  0.999748  1
  Te  Te9  1  0.998477  0.845760  0.500178  1
  Te  Te10  1  0.845760  0.500178  0.998477  1
  Te  Te11  1  0.152331  0.152331  0.152331  1
  Te  Te12  1  0.500178  0.998477  0.845760  1
  Pb  Pb13  1  0.655220  0.655220  0.655220  1
