# generated using pymatgen
data_K10Hf2(AsP)3
_symmetry_space_group_name_H-M   'P 1'
_cell_length_a   8.35272000
_cell_length_b   9.09709370
_cell_length_c   17.61319911
_cell_angle_alpha   60.01196852
_cell_angle_beta   90.00000000
_cell_angle_gamma   90.00000000
_symmetry_Int_Tables_number   1
_chemical_formula_structural   K10Hf2(AsP)3
_chemical_formula_sum   'K20 Hf4 As6 P6'
_cell_volume   1159.18254225
_cell_formula_units_Z   2
loop_
 _symmetry_equiv_pos_site_id
 _symmetry_equiv_pos_as_xyz
  1  'x, y, z'
loop_
 _atom_site_type_symbol
 _atom_site_label
 _atom_site_symmetry_multiplicity
 _atom_site_fract_x
 _atom_site_fract_y
 _atom_site_fract_z
 _atom_site_occupancy
  K  K0  1  0.169374  0.837110  0.742788  1
  K  K1  1  0.669374  0.162890  0.757212  1
  K  K2  1  0.836557  0.156211  0.257191  1
  K  K3  1  0.336557  0.843789  0.242809  1
  K  K4  1  0.171772  0.169702  0.415791  1
  K  K5  1  0.671772  0.830298  0.084209  1
  K  K6  1  0.829130  0.833869  0.579502  1
  K  K7  1  0.329130  0.166131  0.920498  1
  K  K8  1  0.009845  0.082585  0.093299  1
  K  K9  1  0.509845  0.917415  0.406701  1
  K  K10  1  0.993299  0.916032  0.908594  1
  K  K11  1  0.493299  0.083968  0.591406  1
  K  K12  1  0.517412  0.265841  0.078664  1
  K  K13  1  0.017412  0.734159  0.421336  1
  K  K14  1  0.478607  0.736352  0.922085  1
  K  K15  1  0.978607  0.263648  0.577915  1
  K  K16  1  0.979138  0.550352  0.257477  1
  K  K17  1  0.479138  0.449648  0.242523  1
  K  K18  1  0.016121  0.453784  0.742468  1
  K  K19  1  0.516121  0.546216  0.757532  1
  Hf  Hf20  1  0.371345  0.494606  0.578198  1
  Hf  Hf21  1  0.871345  0.505394  0.921802  1
  Hf  Hf22  1  0.629567  0.510247  0.418145  1
  Hf  Hf23  1  0.129567  0.489753  0.081855  1
  As  As24  1  0.783345  0.787586  0.781520  1
  As  As25  1  0.283345  0.212414  0.718480  1
  As  As26  1  0.251855  0.758830  0.079696  1
  As  As27  1  0.751855  0.241170  0.420304  1
  As  As28  1  0.748267  0.237785  0.924093  1
  As  As29  1  0.248267  0.762215  0.575907  1
  P  P30  1  0.324256  0.490719  0.435823  1
  P  P31  1  0.824256  0.509281  0.064177  1
  P  P32  1  0.675781  0.514538  0.560902  1
  P  P33  1  0.175781  0.485462  0.939098  1
  P  P34  1  0.214328  0.217468  0.214906  1
  P  P35  1  0.714328  0.782532  0.285094  1
