# generated using pymatgen
data_Tb9Yb(In2Pt)4
_symmetry_space_group_name_H-M   'P 1'
_cell_length_a   3.63640400
_cell_length_b   8.21351069
_cell_length_c   18.39160159
_cell_angle_alpha   89.95265101
_cell_angle_beta   90.00000000
_cell_angle_gamma   90.00000000
_symmetry_Int_Tables_number   1
_chemical_formula_structural   Tb9Yb(In2Pt)4
_chemical_formula_sum   'Tb9 Yb1 In8 Pt4'
_cell_volume   549.31360541
_cell_formula_units_Z   1
loop_
 _symmetry_equiv_pos_site_id
 _symmetry_equiv_pos_as_xyz
  1  'x, y, z'
loop_
 _atom_site_type_symbol
 _atom_site_label
 _atom_site_symmetry_multiplicity
 _atom_site_fract_x
 _atom_site_fract_y
 _atom_site_fract_z
 _atom_site_occupancy
  Tb  Tb0  1  0.000000  0.117047  0.414644  1
  Tb  Tb1  1  0.000000  0.882953  0.585356  1
  Tb  Tb2  1  0.000000  0.381874  0.914351  1
  Tb  Tb3  1  0.000000  0.618126  0.085649  1
  Tb  Tb4  1  0.000000  0.243318  0.220303  1
  Tb  Tb5  1  0.000000  0.756682  0.779697  1
  Tb  Tb6  1  0.000000  0.256844  0.720013  1
  Tb  Tb7  1  0.000000  0.743156  0.279987  1
  Tb  Tb8  1  0.000000  0.500000  0.500000  1
  Yb  Yb9  1  0.000000  0.000000  0.000000  1
  In  In10  1  0.500000  0.424208  0.351188  1
  In  In11  1  0.500000  0.575792  0.648812  1
  In  In12  1  0.500000  0.075083  0.850897  1
  In  In13  1  0.500000  0.924917  0.149103  1
  In  In14  1  0.500000  0.292442  0.067351  1
  In  In15  1  0.500000  0.707558  0.932649  1
  In  In16  1  0.500000  0.208187  0.566867  1
  In  In17  1  0.500000  0.791813  0.433133  1
  Pt  Pt18  1  0.500000  0.024921  0.303024  1
  Pt  Pt19  1  0.500000  0.975079  0.696976  1
  Pt  Pt20  1  0.500000  0.476545  0.802985  1
  Pt  Pt21  1  0.500000  0.523455  0.197015  1
