# generated using pymatgen
data_Pr5P12Ru17Pt2
_symmetry_space_group_name_H-M   'P 1'
_cell_length_a   12.75584500
_cell_length_b   12.66613138
_cell_length_c   4.03454400
_cell_angle_alpha   90.00000000
_cell_angle_beta   90.00000000
_cell_angle_gamma   120.23458797
_symmetry_Int_Tables_number   1
_chemical_formula_structural   Pr5P12Ru17Pt2
_chemical_formula_sum   'Pr5 P12 Ru17 Pt2'
_cell_volume   563.17949687
_cell_formula_units_Z   1
loop_
 _symmetry_equiv_pos_site_id
 _symmetry_equiv_pos_as_xyz
  1  'x, y, z'
loop_
 _atom_site_type_symbol
 _atom_site_label
 _atom_site_symmetry_multiplicity
 _atom_site_fract_x
 _atom_site_fract_y
 _atom_site_fract_z
 _atom_site_occupancy
  Pr  Pr0  1  0.001149  0.183153  0.500000  1
  Pr  Pr1  1  0.817997  0.816847  0.500000  1
  Pr  Pr2  1  0.184194  0.000000  0.500000  1
  Pr  Pr3  1  0.664406  0.328689  0.000000  1
  Pr  Pr4  1  0.335715  0.671311  0.000000  1
  P  P5  1  0.998802  0.810444  0.000000  1
  P  P6  1  0.188358  0.189556  0.000000  1
  P  P7  1  0.814210  0.000000  0.000000  1
  P  P8  1  0.694557  0.169943  0.500000  1
  P  P9  1  0.818062  0.519539  0.500000  1
  P  P10  1  0.475746  0.297599  0.500000  1
  P  P11  1  0.178147  0.702401  0.500000  1
  P  P12  1  0.524614  0.830057  0.500000  1
  P  P13  1  0.298523  0.480461  0.500000  1
  P  P14  1  0.000006  0.367788  0.000000  1
  P  P15  1  0.632219  0.632212  0.000000  1
  P  P16  1  0.375829  0.000000  0.000000  1
  Ru  Ru17  1  0.555163  0.000000  0.000000  1
  Ru  Ru18  1  0.997989  0.708006  0.500000  1
  Ru  Ru19  1  0.289983  0.291994  0.500000  1
  Ru  Ru20  1  0.715747  0.000000  0.500000  1
  Ru  Ru21  1  0.806923  0.184619  0.000000  1
  Ru  Ru22  1  0.813870  0.617862  0.000000  1
  Ru  Ru23  1  0.377747  0.194485  0.000000  1
  Ru  Ru24  1  0.183262  0.805515  0.000000  1
  Ru  Ru25  1  0.622304  0.815381  0.000000  1
  Ru  Ru26  1  0.196007  0.382138  0.000000  1
  Ru  Ru27  1  0.873057  0.366914  0.500000  1
  Ru  Ru28  1  0.628598  0.507128  0.500000  1
  Ru  Ru29  1  0.491237  0.122567  0.500000  1
  Ru  Ru30  1  0.368670  0.877433  0.500000  1
  Ru  Ru31  1  0.506142  0.633086  0.500000  1
  Ru  Ru32  1  0.121470  0.492872  0.500000  1
  Ru  Ru33  1  0.002148  0.000000  0.000000  1
  Pt  Pt34  1  0.998976  0.550803  0.000000  1
  Pt  Pt35  1  0.448173  0.449197  0.000000  1
