# generated using pymatgen
data_Ca4Sb4Pd3Pt
_symmetry_space_group_name_H-M   'P 1'
_cell_length_a   4.67805400
_cell_length_b   7.39921194
_cell_length_c   7.96588393
_cell_angle_alpha   89.48055761
_cell_angle_beta   90.00000000
_cell_angle_gamma   90.00000000
_symmetry_Int_Tables_number   1
_chemical_formula_structural   Ca4Sb4Pd3Pt
_chemical_formula_sum   'Ca4 Sb4 Pd3 Pt1'
_cell_volume   275.71908197
_cell_formula_units_Z   1
loop_
 _symmetry_equiv_pos_site_id
 _symmetry_equiv_pos_as_xyz
  1  'x, y, z'
loop_
 _atom_site_type_symbol
 _atom_site_label
 _atom_site_symmetry_multiplicity
 _atom_site_fract_x
 _atom_site_fract_y
 _atom_site_fract_z
 _atom_site_occupancy
  Ca  Ca0  1  0.250000  0.492568  0.203642  1
  Ca  Ca1  1  0.750000  0.506557  0.796728  1
  Ca  Ca2  1  0.750000  0.004228  0.702491  1
  Ca  Ca3  1  0.250000  0.994326  0.298032  1
  Sb  Sb4  1  0.250000  0.802046  0.905704  1
  Sb  Sb5  1  0.750000  0.197636  0.093745  1
  Sb  Sb6  1  0.750000  0.692414  0.407160  1
  Sb  Sb7  1  0.250000  0.307009  0.593176  1
  Pd  Pd8  1  0.750000  0.309510  0.420096  1
  Pd  Pd9  1  0.750000  0.813826  0.080358  1
  Pd  Pd10  1  0.250000  0.186566  0.920453  1
  Pt  Pt11  1  0.250000  0.693315  0.578413  1
