# generated using pymatgen
data_NbAg2OF5
_symmetry_space_group_name_H-M   'P 1'
_cell_length_a   5.65842401
_cell_length_b   5.65842454
_cell_length_c   5.18676983
_cell_angle_alpha   88.04382802
_cell_angle_beta   88.04382574
_cell_angle_gamma   118.91354537
_symmetry_Int_Tables_number   1
_chemical_formula_structural   NbAg2OF5
_chemical_formula_sum   'Nb1 Ag2 O1 F5'
_cell_volume   145.04003862
_cell_formula_units_Z   1
loop_
 _symmetry_equiv_pos_site_id
 _symmetry_equiv_pos_as_xyz
  1  'x, y, z'
loop_
 _atom_site_type_symbol
 _atom_site_label
 _atom_site_symmetry_multiplicity
 _atom_site_fract_x
 _atom_site_fract_y
 _atom_site_fract_z
 _atom_site_occupancy
  Nb  Nb0  1  0.026137  0.026137  0.980584  1
  Ag  Ag1  1  0.657000  0.336817  0.506744  1
  Ag  Ag2  1  0.336817  0.657000  0.506744  1
  O  O3  1  0.284273  0.284273  0.762515  1
  F  F4  1  0.716585  0.716585  0.224970  1
  F  F5  1  0.004594  0.717972  0.789881  1
  F  F6  1  0.272457  0.984143  0.219336  1
  F  F7  1  0.984143  0.272457  0.219336  1
  F  F8  1  0.717972  0.004594  0.789881  1
