# generated using pymatgen
data_Tb10Ga3SnSb4
_symmetry_space_group_name_H-M   'P 1'
_cell_length_a   8.69648170
_cell_length_b   8.69648218
_cell_length_c   8.04151307
_cell_angle_alpha   90.54025212
_cell_angle_beta   90.54025561
_cell_angle_gamma   124.96830967
_symmetry_Int_Tables_number   1
_chemical_formula_structural   Tb10Ga3SnSb4
_chemical_formula_sum   'Tb10 Ga3 Sn1 Sb4'
_cell_volume   498.27272665
_cell_formula_units_Z   1
loop_
 _symmetry_equiv_pos_site_id
 _symmetry_equiv_pos_as_xyz
  1  'x, y, z'
loop_
 _atom_site_type_symbol
 _atom_site_label
 _atom_site_symmetry_multiplicity
 _atom_site_fract_x
 _atom_site_fract_y
 _atom_site_fract_z
 _atom_site_occupancy
  Tb  Tb0  1  0.031505  0.295666  0.337899  1
  Tb  Tb1  1  0.961551  0.700089  0.667427  1
  Tb  Tb2  1  0.458861  0.194096  0.824502  1
  Tb  Tb3  1  0.811280  0.545690  0.171131  1
  Tb  Tb4  1  0.545690  0.811280  0.171131  1
  Tb  Tb5  1  0.194096  0.458861  0.824502  1
  Tb  Tb6  1  0.700089  0.961551  0.667427  1
  Tb  Tb7  1  0.295666  0.031505  0.337899  1
  Tb  Tb8  1  0.992875  0.992875  0.997238  1
  Tb  Tb9  1  0.502543  0.502543  0.507420  1
  Ga  Ga10  1  0.629565  0.629565  0.870743  1
  Ga  Ga11  1  0.123742  0.123742  0.623070  1
  Ga  Ga12  1  0.876223  0.876223  0.376397  1
  Sn  Sn13  1  0.374183  0.374183  0.126696  1
  Sb  Sb14  1  0.797021  0.207596  0.999131  1
  Sb  Sb15  1  0.207596  0.797021  0.999131  1
  Sb  Sb16  1  0.704029  0.293485  0.499128  1
  Sb  Sb17  1  0.293485  0.704029  0.499128  1
