# generated using pymatgen
data_Tb5Th3(AgOs)2
_symmetry_space_group_name_H-M   'P 1'
_cell_length_a   9.59245949
_cell_length_b   9.72782591
_cell_length_c   9.72782600
_cell_angle_alpha   59.08147803
_cell_angle_beta   60.45924821
_cell_angle_gamma   60.45924782
_symmetry_Int_Tables_number   1
_chemical_formula_structural   Tb5Th3(AgOs)2
_chemical_formula_sum   'Tb10 Th6 Ag4 Os4'
_cell_volume   641.62393071
_cell_formula_units_Z   2
loop_
 _symmetry_equiv_pos_site_id
 _symmetry_equiv_pos_as_xyz
  1  'x, y, z'
loop_
 _atom_site_type_symbol
 _atom_site_label
 _atom_site_symmetry_multiplicity
 _atom_site_fract_x
 _atom_site_fract_y
 _atom_site_fract_z
 _atom_site_occupancy
  Tb  Tb0  1  0.441817  0.058183  0.441817  1
  Tb  Tb1  1  0.058183  0.441817  0.058183  1
  Tb  Tb2  1  0.441817  0.441817  0.058183  1
  Tb  Tb3  1  0.058183  0.058183  0.441817  1
  Tb  Tb4  1  0.184834  0.815166  0.815166  1
  Tb  Tb5  1  0.815166  0.184834  0.184834  1
  Tb  Tb6  1  0.812570  0.187430  0.812570  1
  Tb  Tb7  1  0.187430  0.812570  0.187430  1
  Tb  Tb8  1  0.812570  0.812570  0.187430  1
  Tb  Tb9  1  0.187430  0.187430  0.812570  1
  Th  Th10  1  0.595993  0.602155  0.602155  1
  Th  Th11  1  0.602155  0.595993  0.199699  1
  Th  Th12  1  0.602155  0.199699  0.595993  1
  Th  Th13  1  0.199699  0.602155  0.602155  1
  Th  Th14  1  0.065285  0.434715  0.434715  1
  Th  Th15  1  0.434715  0.065285  0.065285  1
  Ag  Ag16  1  0.834075  0.833007  0.833007  1
  Ag  Ag17  1  0.833007  0.834075  0.499911  1
  Ag  Ag18  1  0.833007  0.499911  0.834075  1
  Ag  Ag19  1  0.499911  0.833007  0.833007  1
  Os  Os20  1  0.382018  0.397103  0.397103  1
  Os  Os21  1  0.397103  0.382018  0.823777  1
  Os  Os22  1  0.397103  0.823777  0.382018  1
  Os  Os23  1  0.823777  0.397103  0.397103  1
