# generated using pymatgen
data_PrNd(SnHg)3
_symmetry_space_group_name_H-M   'P 1'
_cell_length_a   4.83478600
_cell_length_b   4.74938000
_cell_length_c   9.22533400
_cell_angle_alpha   90.00000000
_cell_angle_beta   90.00000000
_cell_angle_gamma   90.00000000
_symmetry_Int_Tables_number   1
_chemical_formula_structural   PrNd(SnHg)3
_chemical_formula_sum   'Pr1 Nd1 Sn3 Hg3'
_cell_volume   211.83429587
_cell_formula_units_Z   1
loop_
 _symmetry_equiv_pos_site_id
 _symmetry_equiv_pos_as_xyz
  1  'x, y, z'
loop_
 _atom_site_type_symbol
 _atom_site_label
 _atom_site_symmetry_multiplicity
 _atom_site_fract_x
 _atom_site_fract_y
 _atom_site_fract_z
 _atom_site_occupancy
  Pr  Pr0  1  0.000000  0.000000  0.996445  1
  Nd  Nd1  1  0.000000  0.000000  0.503220  1
  Sn  Sn2  1  0.500000  0.000000  0.746816  1
  Sn  Sn3  1  0.000000  0.500000  0.252916  1
  Sn  Sn4  1  0.000000  0.500000  0.747776  1
  Hg  Hg5  1  0.500000  0.500000  0.999656  1
  Hg  Hg6  1  0.500000  0.500000  0.499689  1
  Hg  Hg7  1  0.500000  0.000000  0.253483  1
