# generated using pymatgen
data_NaMn(S2O7)2
_symmetry_space_group_name_H-M   'P 1'
_cell_length_a   5.17092574
_cell_length_b   7.52664216
_cell_length_c   8.79894582
_cell_angle_alpha   92.25980904
_cell_angle_beta   93.58548389
_cell_angle_gamma   107.04456195
_symmetry_Int_Tables_number   1
_chemical_formula_structural   NaMn(S2O7)2
_chemical_formula_sum   'Na1 Mn1 S4 O14'
_cell_volume   326.17076889
_cell_formula_units_Z   1
loop_
 _symmetry_equiv_pos_site_id
 _symmetry_equiv_pos_as_xyz
  1  'x, y, z'
loop_
 _atom_site_type_symbol
 _atom_site_label
 _atom_site_symmetry_multiplicity
 _atom_site_fract_x
 _atom_site_fract_y
 _atom_site_fract_z
 _atom_site_occupancy
  Na  Na0  1  0.500000  0.000000  0.500000  1
  Mn  Mn1  1  0.000000  0.500000  0.000000  1
  S  S2  1  0.481504  0.641276  0.783169  1
  S  S3  1  0.518496  0.358724  0.216831  1
  S  S4  1  0.122293  0.267487  0.707143  1
  S  S5  1  0.877707  0.732513  0.292857  1
  O  O6  1  0.688091  0.561692  0.842869  1
  O  O7  1  0.311909  0.438308  0.157131  1
  O  O8  1  0.298992  0.672133  0.902258  1
  O  O9  1  0.701008  0.327867  0.097742  1
  O  O10  1  0.572192  0.802628  0.697181  1
  O  O11  1  0.427808  0.197372  0.302819  1
  O  O12  1  0.281612  0.485944  0.660725  1
  O  O13  1  0.718388  0.514056  0.339275  1
  O  O14  1  0.904325  0.214884  0.589722  1
  O  O15  1  0.095675  0.785116  0.410278  1
  O  O16  1  0.318603  0.166187  0.711627  1
  O  O17  1  0.681397  0.833813  0.288373  1
  O  O18  1  0.032610  0.294430  0.863689  1
  O  O19  1  0.967390  0.705570  0.136311  1
