# generated using pymatgen
data_Pu2SbHN
_symmetry_space_group_name_H-M   'P 1'
_cell_length_a   7.14438561
_cell_length_b   7.14438544
_cell_length_c   7.14438618
_cell_angle_alpha   149.87981509
_cell_angle_beta   149.87980899
_cell_angle_gamma   43.11785015
_symmetry_Int_Tables_number   1
_chemical_formula_structural   Pu2SbHN
_chemical_formula_sum   'Pu2 Sb1 H1 N1'
_cell_volume   91.58864935
_cell_formula_units_Z   1
loop_
 _symmetry_equiv_pos_site_id
 _symmetry_equiv_pos_as_xyz
  1  'x, y, z'
loop_
 _atom_site_type_symbol
 _atom_site_label
 _atom_site_symmetry_multiplicity
 _atom_site_fract_x
 _atom_site_fract_y
 _atom_site_fract_z
 _atom_site_occupancy
  Pu  Pu0  1  0.346687  0.346687  0.000000  1
  Pu  Pu1  1  0.653313  0.653313  0.000000  1
  Sb  Sb2  1  0.000000  0.000000  0.000000  1
  H  H3  1  0.750000  0.250000  0.500000  1
  N  N4  1  0.250000  0.750000  0.500000  1
