# generated using pymatgen
data_Y4Ga2ReRu5
_symmetry_space_group_name_H-M   'P 1'
_cell_length_a   5.27913660
_cell_length_b   5.50049219
_cell_length_c   8.87472100
_cell_angle_alpha   90.00000000
_cell_angle_beta   90.00000000
_cell_angle_gamma   121.39700432
_symmetry_Int_Tables_number   1
_chemical_formula_structural   Y4Ga2ReRu5
_chemical_formula_sum   'Y4 Ga2 Re1 Ru5'
_cell_volume   219.96946198
_cell_formula_units_Z   1
loop_
 _symmetry_equiv_pos_site_id
 _symmetry_equiv_pos_as_xyz
  1  'x, y, z'
loop_
 _atom_site_type_symbol
 _atom_site_label
 _atom_site_symmetry_multiplicity
 _atom_site_fract_x
 _atom_site_fract_y
 _atom_site_fract_z
 _atom_site_occupancy
  Y  Y0  1  0.331853  0.665927  0.433198  1
  Y  Y1  1  0.657446  0.328723  0.559772  1
  Y  Y2  1  0.657446  0.328723  0.940228  1
  Y  Y3  1  0.331853  0.665927  0.066802  1
  Ga  Ga4  1  0.175194  0.344514  0.750000  1
  Ga  Ga5  1  0.175194  0.830680  0.750000  1
  Re  Re6  1  0.342392  0.171195  0.250000  1
  Ru  Ru7  1  0.821574  0.661227  0.250000  1
  Ru  Ru8  1  0.672668  0.836334  0.750000  1
  Ru  Ru9  1  0.006403  0.003202  0.999526  1
  Ru  Ru10  1  0.821574  0.160348  0.250000  1
  Ru  Ru11  1  0.006403  0.003202  0.500474  1
