# generated using pymatgen
data_CsMn(CO3)2
_symmetry_space_group_name_H-M   'P 1'
_cell_length_a   14.04466628
_cell_length_b   14.07376976
_cell_length_c   14.04024222
_cell_angle_alpha   20.72040467
_cell_angle_beta   19.84337820
_cell_angle_gamma   20.72561882
_symmetry_Int_Tables_number   1
_chemical_formula_structural   CsMn(CO3)2
_chemical_formula_sum   'Cs2 Mn2 C4 O12'
_cell_volume   295.57584635
_cell_formula_units_Z   2
loop_
 _symmetry_equiv_pos_site_id
 _symmetry_equiv_pos_as_xyz
  1  'x, y, z'
loop_
 _atom_site_type_symbol
 _atom_site_label
 _atom_site_symmetry_multiplicity
 _atom_site_fract_x
 _atom_site_fract_y
 _atom_site_fract_z
 _atom_site_occupancy
  Cs  Cs0  1  0.244317  0.249666  0.255955  1
  Cs  Cs1  1  0.755683  0.750334  0.744045  1
  Mn  Mn2  1  0.500000  0.500000  0.500000  1
  Mn  Mn3  1  0.000000  0.000000  0.000000  1
  C  C4  1  0.370016  0.337613  0.375457  1
  C  C5  1  0.875095  0.837511  0.870487  1
  C  C6  1  0.629984  0.662387  0.624543  1
  C  C7  1  0.124905  0.162489  0.129513  1
  O  O8  1  0.315763  0.611507  0.161809  1
  O  O9  1  0.139659  0.275017  0.675078  1
  O  O10  1  0.654653  0.109360  0.316138  1
  O  O11  1  0.661169  0.111269  0.816431  1
  O  O12  1  0.815799  0.609091  0.155362  1
  O  O13  1  0.174440  0.775333  0.640069  1
  O  O14  1  0.684237  0.388493  0.838191  1
  O  O15  1  0.860341  0.724983  0.324922  1
  O  O16  1  0.345347  0.890640  0.683862  1
  O  O17  1  0.338831  0.888731  0.183569  1
  O  O18  1  0.184201  0.390909  0.844638  1
  O  O19  1  0.825560  0.224667  0.359931  1
