# generated using pymatgen
data_Tb13Ho3In4(RuRh)2
_symmetry_space_group_name_H-M   'P 1'
_cell_length_a   9.67361336
_cell_length_b   9.68583167
_cell_length_c   9.67141978
_cell_angle_alpha   59.96568757
_cell_angle_beta   59.88137528
_cell_angle_gamma   59.94321975
_symmetry_Int_Tables_number   1
_chemical_formula_structural   Tb13Ho3In4(RuRh)2
_chemical_formula_sum   'Tb13 Ho3 In4 Ru2 Rh2'
_cell_volume   639.75132559
_cell_formula_units_Z   1
loop_
 _symmetry_equiv_pos_site_id
 _symmetry_equiv_pos_as_xyz
  1  'x, y, z'
loop_
 _atom_site_type_symbol
 _atom_site_label
 _atom_site_symmetry_multiplicity
 _atom_site_fract_x
 _atom_site_fract_y
 _atom_site_fract_z
 _atom_site_occupancy
  Tb  Tb0  1  0.651200  0.047099  0.651401  1
  Tb  Tb1  1  0.061148  0.060318  0.441363  1
  Tb  Tb2  1  0.441363  0.437171  0.061148  1
  Tb  Tb3  1  0.651401  0.650300  0.651200  1
  Tb  Tb4  1  0.810774  0.192293  0.188292  1
  Tb  Tb5  1  0.188292  0.808641  0.810774  1
  Tb  Tb6  1  0.045779  0.650924  0.652019  1
  Tb  Tb7  1  0.441401  0.060327  0.061139  1
  Tb  Tb8  1  0.437103  0.062897  0.437103  1
  Tb  Tb9  1  0.058716  0.441284  0.058716  1
  Tb  Tb10  1  0.652019  0.651277  0.045779  1
  Tb  Tb11  1  0.191426  0.808574  0.191426  1
  Tb  Tb12  1  0.061139  0.437133  0.441401  1
  Ho  Ho13  1  0.810440  0.808410  0.188684  1
  Ho  Ho14  1  0.809870  0.190130  0.809870  1
  Ho  Ho15  1  0.188684  0.192466  0.810440  1
  In  In16  1  0.418456  0.417330  0.418560  1
  In  In17  1  0.417926  0.417249  0.747391  1
  In  In18  1  0.418560  0.745654  0.418456  1
  In  In19  1  0.747391  0.417432  0.417926  1
  Ru  Ru20  1  0.858409  0.422144  0.858145  1
  Ru  Ru21  1  0.858145  0.861302  0.858409  1
  Rh  Rh22  1  0.857975  0.859573  0.422380  1
  Rh  Rh23  1  0.422380  0.860071  0.857975  1
