# generated using pymatgen
data_Dy2Ho2ReRu7
_symmetry_space_group_name_H-M   'P 1'
_cell_length_a   5.19586981
_cell_length_b   5.44094918
_cell_length_c   8.99457801
_cell_angle_alpha   89.99991889
_cell_angle_beta   90.00374194
_cell_angle_gamma   121.41700262
_symmetry_Int_Tables_number   1
_chemical_formula_structural   Dy2Ho2ReRu7
_chemical_formula_sum   'Dy2 Ho2 Re1 Ru7'
_cell_volume   217.00233165
_cell_formula_units_Z   1
loop_
 _symmetry_equiv_pos_site_id
 _symmetry_equiv_pos_as_xyz
  1  'x, y, z'
loop_
 _atom_site_type_symbol
 _atom_site_label
 _atom_site_symmetry_multiplicity
 _atom_site_fract_x
 _atom_site_fract_y
 _atom_site_fract_z
 _atom_site_occupancy
  Dy  Dy0  1  0.327831  0.664042  0.433270  1
  Dy  Dy1  1  0.654952  0.327384  0.564935  1
  Ho  Ho2  1  0.654642  0.327238  0.935098  1
  Ho  Ho3  1  0.328120  0.664192  0.066570  1
  Re  Re4  1  0.686785  0.843047  0.750539  1
  Ru  Ru5  1  0.974564  0.987354  0.499695  1
  Ru  Ru6  1  0.974607  0.987404  0.000414  1
  Ru  Ru7  1  0.837950  0.167401  0.249376  1
  Ru  Ru8  1  0.836518  0.668964  0.249402  1
  Ru  Ru9  1  0.356008  0.178061  0.249410  1
  Ru  Ru10  1  0.183820  0.829616  0.750650  1
  Ru  Ru11  1  0.184202  0.355294  0.750643  1
