# generated using pymatgen
data_Hf8In4Ni3Au5
_symmetry_space_group_name_H-M   'P 1'
_cell_length_a   7.43807105
_cell_length_b   7.43849050
_cell_length_c   6.90747580
_cell_angle_alpha   89.81370174
_cell_angle_beta   89.95521687
_cell_angle_gamma   89.80431248
_symmetry_Int_Tables_number   1
_chemical_formula_structural   Hf8In4Ni3Au5
_chemical_formula_sum   'Hf8 In4 Ni3 Au5'
_cell_volume   382.17260238
_cell_formula_units_Z   1
loop_
 _symmetry_equiv_pos_site_id
 _symmetry_equiv_pos_as_xyz
  1  'x, y, z'
loop_
 _atom_site_type_symbol
 _atom_site_label
 _atom_site_symmetry_multiplicity
 _atom_site_fract_x
 _atom_site_fract_y
 _atom_site_fract_z
 _atom_site_occupancy
  Hf  Hf0  1  0.162782  0.136617  0.990691  1
  Hf  Hf1  1  0.872756  0.845096  0.000288  1
  Hf  Hf2  1  0.628924  0.348476  0.508601  1
  Hf  Hf3  1  0.327862  0.656087  0.506888  1
  Hf  Hf4  1  0.679881  0.308843  0.993358  1
  Hf  Hf5  1  0.296343  0.701247  0.996152  1
  Hf  Hf6  1  0.838162  0.807030  0.501322  1
  Hf  Hf7  1  0.198504  0.179771  0.507616  1
  In  In8  1  0.493876  0.996166  0.255304  1
  In  In9  1  0.494318  0.003705  0.749883  1
  In  In10  1  0.999651  0.503807  0.251990  1
  In  In11  1  0.010586  0.499456  0.753693  1
  Ni  Ni12  1  0.368967  0.371352  0.786338  1
  Ni  Ni13  1  0.131438  0.873220  0.288927  1
  Ni  Ni14  1  0.130714  0.873630  0.709532  1
  Au  Au15  1  0.363477  0.374002  0.201269  1
  Au  Au16  1  0.623795  0.630770  0.787313  1
  Au  Au17  1  0.629458  0.634604  0.215475  1
  Au  Au18  1  0.873818  0.126720  0.709627  1
  Au  Au19  1  0.874689  0.129401  0.285736  1
