# generated using pymatgen
data_Lu4Mg(GaTe)2
_symmetry_space_group_name_H-M   'P 1'
_cell_length_a   8.54771300
_cell_length_b   8.54771448
_cell_length_c   7.55554900
_cell_angle_alpha   90.00000000
_cell_angle_beta   90.00000000
_cell_angle_gamma   127.68656892
_symmetry_Int_Tables_number   1
_chemical_formula_structural   Lu4Mg(GaTe)2
_chemical_formula_sum   'Lu8 Mg2 Ga4 Te4'
_cell_volume   436.86155431
_cell_formula_units_Z   2
loop_
 _symmetry_equiv_pos_site_id
 _symmetry_equiv_pos_as_xyz
  1  'x, y, z'
loop_
 _atom_site_type_symbol
 _atom_site_label
 _atom_site_symmetry_multiplicity
 _atom_site_fract_x
 _atom_site_fract_y
 _atom_site_fract_z
 _atom_site_occupancy
  Lu  Lu0  1  0.790751  0.540826  0.167285  1
  Lu  Lu1  1  0.459174  0.209249  0.832715  1
  Lu  Lu2  1  0.959174  0.709249  0.667285  1
  Lu  Lu3  1  0.290751  0.040826  0.332715  1
  Lu  Lu4  1  0.209249  0.459174  0.832715  1
  Lu  Lu5  1  0.540826  0.790751  0.167285  1
  Lu  Lu6  1  0.040826  0.290751  0.332715  1
  Lu  Lu7  1  0.709249  0.959174  0.667285  1
  Mg  Mg8  1  0.000000  0.000000  0.000000  1
  Mg  Mg9  1  0.500000  0.500000  0.500000  1
  Ga  Ga10  1  0.871181  0.871181  0.372173  1
  Ga  Ga11  1  0.128819  0.128819  0.627827  1
  Ga  Ga12  1  0.628819  0.628819  0.872173  1
  Ga  Ga13  1  0.371181  0.371181  0.127827  1
  Te  Te14  1  0.208235  0.791765  0.000000  1
  Te  Te15  1  0.708235  0.291765  0.500000  1
  Te  Te16  1  0.791765  0.208235  0.000000  1
  Te  Te17  1  0.291765  0.708235  0.500000  1
