# generated using pymatgen
data_Tm3Hf(Ni4P3)2
_symmetry_space_group_name_H-M   'P 1'
_cell_length_a   3.77848300
_cell_length_b   10.74128600
_cell_length_c   12.36633900
_cell_angle_alpha   90.00000000
_cell_angle_beta   90.00000000
_cell_angle_gamma   90.00000000
_symmetry_Int_Tables_number   1
_chemical_formula_structural   Tm3Hf(Ni4P3)2
_chemical_formula_sum   'Tm6 Hf2 Ni16 P12'
_cell_volume   501.89734772
_cell_formula_units_Z   2
loop_
 _symmetry_equiv_pos_site_id
 _symmetry_equiv_pos_as_xyz
  1  'x, y, z'
loop_
 _atom_site_type_symbol
 _atom_site_label
 _atom_site_symmetry_multiplicity
 _atom_site_fract_x
 _atom_site_fract_y
 _atom_site_fract_z
 _atom_site_occupancy
  Tm  Tm0  1  0.000000  0.500000  0.528508  1
  Tm  Tm1  1  0.500000  0.000000  0.471492  1
  Tm  Tm2  1  0.500000  0.821633  0.205085  1
  Tm  Tm3  1  0.500000  0.178367  0.205085  1
  Tm  Tm4  1  0.000000  0.678367  0.794915  1
  Tm  Tm5  1  0.000000  0.321633  0.794915  1
  Hf  Hf6  1  0.500000  0.500000  0.155803  1
  Hf  Hf7  1  0.000000  0.000000  0.844197  1
  Ni  Ni8  1  0.500000  0.500000  0.701723  1
  Ni  Ni9  1  0.000000  0.000000  0.298277  1
  Ni  Ni10  1  0.000000  0.500000  0.983943  1
  Ni  Ni11  1  0.500000  0.000000  0.016057  1
  Ni  Ni12  1  0.500000  0.334203  0.988911  1
  Ni  Ni13  1  0.500000  0.665797  0.988911  1
  Ni  Ni14  1  0.000000  0.165797  0.011089  1
  Ni  Ni15  1  0.000000  0.834203  0.011089  1
  Ni  Ni16  1  0.500000  0.299356  0.430922  1
  Ni  Ni17  1  0.500000  0.700644  0.430922  1
  Ni  Ni18  1  0.000000  0.200644  0.569078  1
  Ni  Ni19  1  0.000000  0.799356  0.569078  1
  Ni  Ni20  1  0.500000  0.876970  0.705038  1
  Ni  Ni21  1  0.500000  0.123030  0.705038  1
  Ni  Ni22  1  0.000000  0.623030  0.294962  1
  Ni  Ni23  1  0.000000  0.376970  0.294962  1
  P  P24  1  0.500000  0.500000  0.879126  1
  P  P25  1  0.000000  0.000000  0.120874  1
  P  P26  1  0.500000  0.500000  0.361962  1
  P  P27  1  0.000000  0.000000  0.638038  1
  P  P28  1  0.500000  0.314745  0.615560  1
  P  P29  1  0.500000  0.685255  0.615560  1
  P  P30  1  0.000000  0.185255  0.384440  1
  P  P31  1  0.000000  0.814745  0.384440  1
  P  P32  1  0.500000  0.838485  0.892087  1
  P  P33  1  0.500000  0.161515  0.892087  1
  P  P34  1  0.000000  0.661515  0.107913  1
  P  P35  1  0.000000  0.338485  0.107913  1
