# generated using pymatgen
data_Pr3Nb(P3Rh4)2
_symmetry_space_group_name_H-M   'P 1'
_cell_length_a   3.99951300
_cell_length_b   11.31417000
_cell_length_c   13.03825100
_cell_angle_alpha   90.00000000
_cell_angle_beta   90.00000000
_cell_angle_gamma   90.00000000
_symmetry_Int_Tables_number   1
_chemical_formula_structural   Pr3Nb(P3Rh4)2
_chemical_formula_sum   'Pr6 Nb2 P12 Rh16'
_cell_volume   589.99611249
_cell_formula_units_Z   2
loop_
 _symmetry_equiv_pos_site_id
 _symmetry_equiv_pos_as_xyz
  1  'x, y, z'
loop_
 _atom_site_type_symbol
 _atom_site_label
 _atom_site_symmetry_multiplicity
 _atom_site_fract_x
 _atom_site_fract_y
 _atom_site_fract_z
 _atom_site_occupancy
  Pr  Pr0  1  0.000000  0.500000  0.522079  1
  Pr  Pr1  1  0.500000  0.000000  0.477921  1
  Pr  Pr2  1  0.500000  0.817851  0.202894  1
  Pr  Pr3  1  0.500000  0.182149  0.202894  1
  Pr  Pr4  1  0.000000  0.682149  0.797106  1
  Pr  Pr5  1  0.000000  0.317851  0.797106  1
  Nb  Nb6  1  0.500000  0.500000  0.157018  1
  Nb  Nb7  1  0.000000  0.000000  0.842982  1
  P  P8  1  0.500000  0.500000  0.880674  1
  P  P9  1  0.000000  0.000000  0.119326  1
  P  P10  1  0.500000  0.500000  0.346334  1
  P  P11  1  0.000000  0.000000  0.653666  1
  P  P12  1  0.500000  0.310556  0.615543  1
  P  P13  1  0.500000  0.689444  0.615543  1
  P  P14  1  0.000000  0.189444  0.384457  1
  P  P15  1  0.000000  0.810556  0.384457  1
  P  P16  1  0.500000  0.846897  0.889692  1
  P  P17  1  0.500000  0.153103  0.889692  1
  P  P18  1  0.000000  0.653103  0.110308  1
  P  P19  1  0.000000  0.346897  0.110308  1
  Rh  Rh20  1  0.500000  0.500000  0.700647  1
  Rh  Rh21  1  0.000000  0.000000  0.299353  1
  Rh  Rh22  1  0.000000  0.500000  0.988018  1
  Rh  Rh23  1  0.500000  0.000000  0.011982  1
  Rh  Rh24  1  0.500000  0.332001  0.989041  1
  Rh  Rh25  1  0.500000  0.667999  0.989041  1
  Rh  Rh26  1  0.000000  0.167999  0.010959  1
  Rh  Rh27  1  0.000000  0.832001  0.010959  1
  Rh  Rh28  1  0.500000  0.292495  0.431535  1
  Rh  Rh29  1  0.500000  0.707505  0.431535  1
  Rh  Rh30  1  0.000000  0.207505  0.568465  1
  Rh  Rh31  1  0.000000  0.792495  0.568465  1
  Rh  Rh32  1  0.500000  0.876021  0.707646  1
  Rh  Rh33  1  0.500000  0.123979  0.707646  1
  Rh  Rh34  1  0.000000  0.623979  0.292354  1
  Rh  Rh35  1  0.000000  0.376021  0.292354  1
