# generated using pymatgen
data_TbEr3Re5Os3
_symmetry_space_group_name_H-M   'P 1'
_cell_length_a   5.36370956
_cell_length_b   5.25560680
_cell_length_c   9.00636209
_cell_angle_alpha   90.00000116
_cell_angle_beta   90.01423407
_cell_angle_gamma   119.33552526
_symmetry_Int_Tables_number   1
_chemical_formula_structural   TbEr3Re5Os3
_chemical_formula_sum   'Tb1 Er3 Re5 Os3'
_cell_volume   221.32846288
_cell_formula_units_Z   1
loop_
 _symmetry_equiv_pos_site_id
 _symmetry_equiv_pos_as_xyz
  1  'x, y, z'
loop_
 _atom_site_type_symbol
 _atom_site_label
 _atom_site_symmetry_multiplicity
 _atom_site_fract_x
 _atom_site_fract_y
 _atom_site_fract_z
 _atom_site_occupancy
  Tb  Tb0  1  0.333001  0.666501  0.438140  1
  Er  Er1  1  0.670192  0.335096  0.564330  1
  Er  Er2  1  0.670236  0.335118  0.935952  1
  Er  Er3  1  0.332540  0.666270  0.062079  1
  Re  Re4  1  0.829584  0.169849  0.249120  1
  Re  Re5  1  0.829584  0.659735  0.249120  1
  Re  Re6  1  0.344248  0.172125  0.249062  1
  Re  Re7  1  0.163334  0.829015  0.750696  1
  Re  Re8  1  0.163334  0.334319  0.750696  1
  Os  Os9  1  0.009738  0.004869  0.500728  1
  Os  Os10  1  0.010036  0.005018  0.999272  1
  Os  Os11  1  0.644170  0.822085  0.750805  1
