# generated using pymatgen
data_Ti10ZnGaBi4
_symmetry_space_group_name_H-M   'P 1'
_cell_length_a   5.24948204
_cell_length_b   8.00632087
_cell_length_c   8.00632115
_cell_angle_alpha   83.83023792
_cell_angle_beta   70.86267634
_cell_angle_gamma   70.86267655
_symmetry_Int_Tables_number   1
_chemical_formula_structural   Ti10ZnGaBi4
_chemical_formula_sum   'Ti10 Zn1 Ga1 Bi4'
_cell_volume   300.33294396
_cell_formula_units_Z   1
loop_
 _symmetry_equiv_pos_site_id
 _symmetry_equiv_pos_as_xyz
  1  'x, y, z'
loop_
 _atom_site_type_symbol
 _atom_site_label
 _atom_site_symmetry_multiplicity
 _atom_site_fract_x
 _atom_site_fract_y
 _atom_site_fract_z
 _atom_site_occupancy
  Ti  Ti0  1  0.713314  0.858727  0.714864  1
  Ti  Ti1  1  0.286905  0.141273  0.285136  1
  Ti  Ti2  1  0.786686  0.285136  0.141273  1
  Ti  Ti3  1  0.213095  0.714864  0.858727  1
  Ti  Ti4  1  0.572040  0.714864  0.141273  1
  Ti  Ti5  1  0.428178  0.285136  0.858727  1
  Ti  Ti6  1  0.071822  0.141273  0.714864  1
  Ti  Ti7  1  0.927960  0.858727  0.285136  1
  Ti  Ti8  1  0.750000  0.500000  0.500000  1
  Ti  Ti9  1  0.250000  0.500000  0.500000  1
  Zn  Zn10  1  0.250000  0.000000  0.000000  1
  Ga  Ga11  1  0.750000  0.000000  0.000000  1
  Bi  Bi12  1  0.165430  0.500000  0.169142  1
  Bi  Bi13  1  0.834570  0.500000  0.830858  1
  Bi  Bi14  1  0.334570  0.830858  0.500000  1
  Bi  Bi15  1  0.665430  0.169142  0.500000  1
