# generated using pymatgen
data_Zr2Be16Cu
_symmetry_space_group_name_H-M   'P 1'
_cell_length_a   5.71214072
_cell_length_b   5.71214109
_cell_length_c   5.71214017
_cell_angle_alpha   82.88564204
_cell_angle_beta   82.88563558
_cell_angle_gamma   82.88564598
_symmetry_Int_Tables_number   1
_chemical_formula_structural   Zr2Be16Cu
_chemical_formula_sum   'Zr2 Be16 Cu1'
_cell_volume   182.40225759
_cell_formula_units_Z   1
loop_
 _symmetry_equiv_pos_site_id
 _symmetry_equiv_pos_as_xyz
  1  'x, y, z'
loop_
 _atom_site_type_symbol
 _atom_site_label
 _atom_site_symmetry_multiplicity
 _atom_site_fract_x
 _atom_site_fract_y
 _atom_site_fract_z
 _atom_site_occupancy
  Zr  Zr0  1  0.159291  0.159291  0.159291  1
  Zr  Zr1  1  0.838039  0.838039  0.838039  1
  Be  Be2  1  0.501347  0.501347  0.997546  1
  Be  Be3  1  0.997544  0.501346  0.501348  1
  Be  Be4  1  0.501346  0.997544  0.501348  1
  Be  Be5  1  0.787046  0.212167  0.499513  1
  Be  Be6  1  0.499514  0.787045  0.212167  1
  Be  Be7  1  0.212168  0.499512  0.787046  1
  Be  Be8  1  0.212167  0.787046  0.499513  1
  Be  Be9  1  0.499512  0.212168  0.787046  1
  Be  Be10  1  0.787045  0.499514  0.212167  1
  Be  Be11  1  0.602220  0.602220  0.602220  1
  Be  Be12  1  0.156463  0.660158  0.156462  1
  Be  Be13  1  0.156462  0.156462  0.660159  1
  Be  Be14  1  0.660158  0.156463  0.156462  1
  Be  Be15  1  0.341404  0.842155  0.842156  1
  Be  Be16  1  0.842156  0.842156  0.341403  1
  Be  Be17  1  0.842155  0.341404  0.842156  1
  Cu  Cu18  1  0.403959  0.403959  0.403959  1
