# generated using pymatgen
data_TbLu(Re2Si)4
_symmetry_space_group_name_H-M   'P 1'
_cell_length_a   7.40063728
_cell_length_b   7.40063659
_cell_length_c   4.13020700
_cell_angle_alpha   90.00000000
_cell_angle_beta   90.00000000
_cell_angle_gamma   90.69790960
_symmetry_Int_Tables_number   1
_chemical_formula_structural   TbLu(Re2Si)4
_chemical_formula_sum   'Tb1 Lu1 Re8 Si4'
_cell_volume   226.19228938
_cell_formula_units_Z   1
loop_
 _symmetry_equiv_pos_site_id
 _symmetry_equiv_pos_as_xyz
  1  'x, y, z'
loop_
 _atom_site_type_symbol
 _atom_site_label
 _atom_site_symmetry_multiplicity
 _atom_site_fract_x
 _atom_site_fract_y
 _atom_site_fract_z
 _atom_site_occupancy
  Tb  Tb0  1  0.000000  0.000000  0.500000  1
  Lu  Lu1  1  0.500000  0.500000  0.000000  1
  Re  Re2  1  0.656239  0.903294  0.000000  1
  Re  Re3  1  0.160774  0.590850  0.500000  1
  Re  Re4  1  0.096706  0.343761  0.000000  1
  Re  Re5  1  0.903294  0.656239  0.000000  1
  Re  Re6  1  0.409150  0.839226  0.500000  1
  Re  Re7  1  0.590850  0.160774  0.500000  1
  Re  Re8  1  0.343761  0.096706  0.000000  1
  Re  Re9  1  0.839226  0.409150  0.500000  1
  Si  Si10  1  0.210222  0.789778  0.000000  1
  Si  Si11  1  0.789778  0.210222  0.000000  1
  Si  Si12  1  0.706456  0.706456  0.500000  1
  Si  Si13  1  0.293544  0.293544  0.500000  1
