# generated using pymatgen
data_Ti8Nb7MoAs12
_symmetry_space_group_name_H-M   'P 1'
_cell_length_a   7.42982360
_cell_length_b   7.42982382
_cell_length_c   19.03521000
_cell_angle_alpha   90.02305766
_cell_angle_beta   89.97694233
_cell_angle_gamma   152.70296244
_symmetry_Int_Tables_number   1
_chemical_formula_structural   Ti8Nb7MoAs12
_chemical_formula_sum   'Ti8 Nb7 Mo1 As12'
_cell_volume   481.89466863
_cell_formula_units_Z   1
loop_
 _symmetry_equiv_pos_site_id
 _symmetry_equiv_pos_as_xyz
  1  'x, y, z'
loop_
 _atom_site_type_symbol
 _atom_site_label
 _atom_site_symmetry_multiplicity
 _atom_site_fract_x
 _atom_site_fract_y
 _atom_site_fract_z
 _atom_site_occupancy
  Ti  Ti0  1  0.734114  0.265886  0.159158  1
  Ti  Ti1  1  0.265886  0.734114  0.840842  1
  Ti  Ti2  1  0.265497  0.734503  0.660536  1
  Ti  Ti3  1  0.734503  0.265497  0.339464  1
  Ti  Ti4  1  0.532500  0.467500  0.118497  1
  Ti  Ti5  1  0.467500  0.532500  0.881503  1
  Ti  Ti6  1  0.467039  0.532961  0.620673  1
  Ti  Ti7  1  0.532961  0.467039  0.379327  1
  Nb  Nb8  1  0.668883  0.331117  0.973207  1
  Nb  Nb9  1  0.331117  0.668883  0.026793  1
  Nb  Nb10  1  0.331543  0.668457  0.473812  1
  Nb  Nb11  1  0.668457  0.331543  0.526188  1
  Nb  Nb12  1  0.000000  0.000000  0.500000  1
  Nb  Nb13  1  0.059473  0.940527  0.750921  1
  Nb  Nb14  1  0.940527  0.059473  0.249079  1
  Mo  Mo15  1  0.000000  0.000000  0.000000  1
  As  As16  1  0.901517  0.098483  0.116688  1
  As  As17  1  0.098483  0.901517  0.883312  1
  As  As18  1  0.099255  0.900745  0.618421  1
  As  As19  1  0.900745  0.099255  0.381579  1
  As  As20  1  0.844715  0.155285  0.921044  1
  As  As21  1  0.155285  0.844715  0.078956  1
  As  As22  1  0.156484  0.843516  0.419748  1
  As  As23  1  0.843516  0.156484  0.580252  1
  As  As24  1  0.702328  0.297672  0.750856  1
  As  As25  1  0.297672  0.702328  0.249144  1
  As  As26  1  0.417051  0.582949  0.751037  1
  As  As27  1  0.582949  0.417051  0.248963  1
