# generated using pymatgen
data_Tb8CoHg2Ru
_symmetry_space_group_name_H-M   'P 1'
_cell_length_a   9.64086508
_cell_length_b   9.57915590
_cell_length_c   9.58019101
_cell_angle_alpha   59.40643395
_cell_angle_beta   59.54230867
_cell_angle_gamma   59.53865866
_symmetry_Int_Tables_number   1
_chemical_formula_structural   Tb8CoHg2Ru
_chemical_formula_sum   'Tb16 Co2 Hg4 Ru2'
_cell_volume   618.43194756
_cell_formula_units_Z   2
loop_
 _symmetry_equiv_pos_site_id
 _symmetry_equiv_pos_as_xyz
  1  'x, y, z'
loop_
 _atom_site_type_symbol
 _atom_site_label
 _atom_site_symmetry_multiplicity
 _atom_site_fract_x
 _atom_site_fract_y
 _atom_site_fract_z
 _atom_site_occupancy
  Tb  Tb0  1  0.438980  0.438242  0.057268  1
  Tb  Tb1  1  0.593433  0.599680  0.599537  1
  Tb  Tb2  1  0.187411  0.813011  0.813101  1
  Tb  Tb3  1  0.064205  0.056968  0.436791  1
  Tb  Tb4  1  0.438019  0.060467  0.060554  1
  Tb  Tb5  1  0.813724  0.188418  0.809520  1
  Tb  Tb6  1  0.438931  0.057216  0.438265  1
  Tb  Tb7  1  0.596069  0.205602  0.603458  1
  Tb  Tb8  1  0.813771  0.809507  0.188396  1
  Tb  Tb9  1  0.209839  0.600115  0.600055  1
  Tb  Tb10  1  0.808846  0.190758  0.190756  1
  Tb  Tb11  1  0.060575  0.439053  0.439091  1
  Tb  Tb12  1  0.188425  0.809123  0.189102  1
  Tb  Tb13  1  0.596067  0.603494  0.205566  1
  Tb  Tb14  1  0.188424  0.189102  0.809094  1
  Tb  Tb15  1  0.064204  0.436714  0.057026  1
  Co  Co16  1  0.390725  0.829643  0.393062  1
  Co  Co17  1  0.390720  0.393181  0.829671  1
  Hg  Hg18  1  0.833590  0.832936  0.497971  1
  Hg  Hg19  1  0.834170  0.833433  0.833446  1
  Hg  Hg20  1  0.497020  0.833791  0.833789  1
  Hg  Hg21  1  0.833580  0.497991  0.832916  1
  Ru  Ru22  1  0.389696  0.390107  0.390172  1
  Ru  Ru23  1  0.829576  0.391446  0.391394  1
