# generated using pymatgen
data_Er7Tm3RuRh3
_symmetry_space_group_name_H-M   'P 1'
_cell_length_a   6.37353266
_cell_length_b   7.15699066
_cell_length_c   8.44133918
_cell_angle_alpha   96.64598560
_cell_angle_beta   111.93893730
_cell_angle_gamma   90.01991290
_symmetry_Int_Tables_number   1
_chemical_formula_structural   Er7Tm3RuRh3
_chemical_formula_sum   'Er7 Tm3 Ru1 Rh3'
_cell_volume   354.37234388
_cell_formula_units_Z   1
loop_
 _symmetry_equiv_pos_site_id
 _symmetry_equiv_pos_as_xyz
  1  'x, y, z'
loop_
 _atom_site_type_symbol
 _atom_site_label
 _atom_site_symmetry_multiplicity
 _atom_site_fract_x
 _atom_site_fract_y
 _atom_site_fract_z
 _atom_site_occupancy
  Er  Er0  1  0.791424  0.082418  0.812120  1
  Er  Er1  1  0.977944  0.417734  0.187004  1
  Er  Er2  1  0.208281  0.917436  0.182437  1
  Er  Er3  1  0.023383  0.583275  0.811723  1
  Er  Er4  1  0.210549  0.183370  0.562849  1
  Er  Er5  1  0.648217  0.314400  0.437460  1
  Er  Er6  1  0.791553  0.814390  0.440894  1
  Tm  Tm7  1  0.348627  0.687757  0.563505  1
  Tm  Tm8  1  0.423851  0.248438  0.998847  1
  Tm  Tm9  1  0.575162  0.750537  0.999617  1
  Ru  Ru10  1  0.176140  0.926072  0.782421  1
  Rh  Rh11  1  0.603198  0.427092  0.778972  1
  Rh  Rh12  1  0.823107  0.074178  0.220656  1
  Rh  Rh13  1  0.398563  0.572903  0.221494  1
