# generated using pymatgen
data_Ba2DyAg5S6
_symmetry_space_group_name_H-M   'P 1'
_cell_length_a   4.22284300
_cell_length_b   7.33286659
_cell_length_c   11.25378254
_cell_angle_alpha   94.91791480
_cell_angle_beta   90.00000000
_cell_angle_gamma   106.73463752
_symmetry_Int_Tables_number   1
_chemical_formula_structural   Ba2DyAg5S6
_chemical_formula_sum   'Ba2 Dy1 Ag5 S6'
_cell_volume   332.38103413
_cell_formula_units_Z   1
loop_
 _symmetry_equiv_pos_site_id
 _symmetry_equiv_pos_as_xyz
  1  'x, y, z'
loop_
 _atom_site_type_symbol
 _atom_site_label
 _atom_site_symmetry_multiplicity
 _atom_site_fract_x
 _atom_site_fract_y
 _atom_site_fract_z
 _atom_site_occupancy
  Ba  Ba0  1  0.251950  0.503900  0.703346  1
  Ba  Ba1  1  0.748050  0.496100  0.296654  1
  Dy  Dy2  1  0.500000  0.000000  0.500000  1
  Ag  Ag3  1  0.018756  0.037512  0.256502  1
  Ag  Ag4  1  0.981244  0.962488  0.743498  1
  Ag  Ag5  1  0.351907  0.703814  0.038326  1
  Ag  Ag6  1  0.648093  0.296186  0.961674  1
  Ag  Ag7  1  0.000000  0.000000  0.000000  1
  S  S8  1  0.125390  0.250779  0.454283  1
  S  S9  1  0.874610  0.749221  0.545717  1
  S  S10  1  0.158045  0.316091  0.102258  1
  S  S11  1  0.841955  0.683909  0.897742  1
  S  S12  1  0.413364  0.826728  0.265646  1
  S  S13  1  0.586636  0.173272  0.734354  1
