# generated using pymatgen
data_Nd9Lu(In3Br)2
_symmetry_space_group_name_H-M   'P 1'
_cell_length_a   9.55659200
_cell_length_b   9.55659248
_cell_length_c   6.79728500
_cell_angle_alpha   90.00000000
_cell_angle_beta   90.00000000
_cell_angle_gamma   119.99999834
_symmetry_Int_Tables_number   1
_chemical_formula_structural   Nd9Lu(In3Br)2
_chemical_formula_sum   'Nd9 Lu1 In6 Br2'
_cell_volume   537.61605599
_cell_formula_units_Z   1
loop_
 _symmetry_equiv_pos_site_id
 _symmetry_equiv_pos_as_xyz
  1  'x, y, z'
loop_
 _atom_site_type_symbol
 _atom_site_label
 _atom_site_symmetry_multiplicity
 _atom_site_fract_x
 _atom_site_fract_y
 _atom_site_fract_z
 _atom_site_occupancy
  Nd  Nd0  1  0.735180  0.732920  0.248235  1
  Nd  Nd1  1  0.997739  0.732920  0.751765  1
  Nd  Nd2  1  0.735180  0.002261  0.751765  1
  Nd  Nd3  1  0.333333  0.666667  0.500000  1
  Nd  Nd4  1  0.267080  0.264820  0.751765  1
  Nd  Nd5  1  0.997739  0.264820  0.248235  1
  Nd  Nd6  1  0.666667  0.333333  0.500000  1
  Nd  Nd7  1  0.267080  0.002261  0.248235  1
  Nd  Nd8  1  0.333333  0.666667  0.000000  1
  Lu  Lu9  1  0.666667  0.333333  0.000000  1
  In  In10  1  0.395265  0.003973  0.752716  1
  In  In11  1  0.996027  0.604735  0.247284  1
  In  In12  1  0.608708  0.003973  0.247284  1
  In  In13  1  0.996027  0.391292  0.752716  1
  In  In14  1  0.395265  0.391292  0.247284  1
  In  In15  1  0.608708  0.604735  0.752716  1
  Br  Br16  1  0.000000  0.000000  0.500000  1
  Br  Br17  1  0.000000  0.000000  0.000000  1
