# generated using pymatgen
data_Zr9Nb(ReN)3
_symmetry_space_group_name_H-M   'P 1'
_cell_length_a   8.65180000
_cell_length_b   8.65180086
_cell_length_c   8.59565100
_cell_angle_alpha   90.00000000
_cell_angle_beta   90.00000000
_cell_angle_gamma   120.00000437
_symmetry_Int_Tables_number   1
_chemical_formula_structural   Zr9Nb(ReN)3
_chemical_formula_sum   'Zr18 Nb2 Re6 N6'
_cell_volume   557.21445286
_cell_formula_units_Z   2
loop_
 _symmetry_equiv_pos_site_id
 _symmetry_equiv_pos_as_xyz
  1  'x, y, z'
loop_
 _atom_site_type_symbol
 _atom_site_label
 _atom_site_symmetry_multiplicity
 _atom_site_fract_x
 _atom_site_fract_y
 _atom_site_fract_z
 _atom_site_occupancy
  Zr  Zr0  1  0.455080  0.910159  0.250000  1
  Zr  Zr1  1  0.544920  0.089841  0.750000  1
  Zr  Zr2  1  0.089841  0.544920  0.250000  1
  Zr  Zr3  1  0.910159  0.455080  0.750000  1
  Zr  Zr4  1  0.455080  0.544920  0.250000  1
  Zr  Zr5  1  0.544920  0.455080  0.750000  1
  Zr  Zr6  1  0.205568  0.411137  0.557432  1
  Zr  Zr7  1  0.794432  0.588863  0.442568  1
  Zr  Zr8  1  0.588863  0.794432  0.557432  1
  Zr  Zr9  1  0.794432  0.588863  0.057432  1
  Zr  Zr10  1  0.411137  0.205568  0.442568  1
  Zr  Zr11  1  0.205568  0.411137  0.942568  1
  Zr  Zr12  1  0.205568  0.794432  0.557432  1
  Zr  Zr13  1  0.411137  0.205568  0.057432  1
  Zr  Zr14  1  0.794432  0.205568  0.442568  1
  Zr  Zr15  1  0.588863  0.794432  0.942568  1
  Zr  Zr16  1  0.794432  0.205568  0.057432  1
  Zr  Zr17  1  0.205568  0.794432  0.942568  1
  Nb  Nb18  1  0.000000  0.000000  0.000000  1
  Nb  Nb19  1  0.000000  0.000000  0.500000  1
  Re  Re20  1  0.108954  0.217907  0.250000  1
  Re  Re21  1  0.891046  0.782093  0.750000  1
  Re  Re22  1  0.782093  0.891046  0.250000  1
  Re  Re23  1  0.217907  0.108954  0.750000  1
  Re  Re24  1  0.108954  0.891046  0.250000  1
  Re  Re25  1  0.891046  0.108954  0.750000  1
  N  N26  1  0.500000  0.000000  0.000000  1
  N  N27  1  0.000000  0.500000  0.000000  1
  N  N28  1  0.500000  0.000000  0.500000  1
  N  N29  1  0.500000  0.500000  0.000000  1
  N  N30  1  0.000000  0.500000  0.500000  1
  N  N31  1  0.500000  0.500000  0.500000  1
