# generated using pymatgen
data_Yb4Al19Ir5
_symmetry_space_group_name_H-M   'P 1'
_cell_length_a   7.59489386
_cell_length_b   7.59489400
_cell_length_c   9.58662467
_cell_angle_alpha   90.07160972
_cell_angle_beta   90.07161449
_cell_angle_gamma   119.62894728
_symmetry_Int_Tables_number   1
_chemical_formula_structural   Yb4Al19Ir5
_chemical_formula_sum   'Yb4 Al19 Ir5'
_cell_volume   480.67345965
_cell_formula_units_Z   1
loop_
 _symmetry_equiv_pos_site_id
 _symmetry_equiv_pos_as_xyz
  1  'x, y, z'
loop_
 _atom_site_type_symbol
 _atom_site_label
 _atom_site_symmetry_multiplicity
 _atom_site_fract_x
 _atom_site_fract_y
 _atom_site_fract_z
 _atom_site_occupancy
  Yb  Yb0  1  0.997549  0.675049  0.250177  1
  Yb  Yb1  1  0.002451  0.324951  0.749823  1
  Yb  Yb2  1  0.675049  0.997549  0.250177  1
  Yb  Yb3  1  0.324951  0.002451  0.749823  1
  Al  Al4  1  0.139002  0.139002  0.260948  1
  Al  Al5  1  0.860998  0.860998  0.739052  1
  Al  Al6  1  0.001695  0.346844  0.079146  1
  Al  Al7  1  0.998305  0.653156  0.920854  1
  Al  Al8  1  0.001540  0.664267  0.568825  1
  Al  Al9  1  0.335733  0.998460  0.431175  1
  Al  Al10  1  0.998460  0.335733  0.431175  1
  Al  Al11  1  0.664267  0.001540  0.568825  1
  Al  Al12  1  0.653156  0.998305  0.920854  1
  Al  Al13  1  0.346844  0.001695  0.079146  1
  Al  Al14  1  0.333308  0.333308  0.550140  1
  Al  Al15  1  0.666692  0.666692  0.449860  1
  Al  Al16  1  0.654016  0.654016  0.060465  1
  Al  Al17  1  0.345984  0.345984  0.939535  1
  Al  Al18  1  0.338591  0.550268  0.251722  1
  Al  Al19  1  0.661409  0.449732  0.748278  1
  Al  Al20  1  0.550268  0.338591  0.251722  1
  Al  Al21  1  0.449732  0.661409  0.748278  1
  Al  Al22  1  0.000000  0.000000  0.000000  1
  Ir  Ir23  1  0.670813  0.329187  0.000000  1
  Ir  Ir24  1  0.329187  0.670813  0.000000  1
  Ir  Ir25  1  0.329533  0.670467  0.500000  1
  Ir  Ir26  1  0.670467  0.329533  0.500000  1
  Ir  Ir27  1  0.000000  0.000000  0.500000  1
