# generated using pymatgen
data_YbB9N
_symmetry_space_group_name_H-M   'P 1'
_cell_length_a   5.53917140
_cell_length_b   5.53917278
_cell_length_c   7.52512195
_cell_angle_alpha   111.59511098
_cell_angle_beta   68.40488247
_cell_angle_gamma   119.99999375
_symmetry_Int_Tables_number   1
_chemical_formula_structural   YbB9N
_chemical_formula_sum   'Yb2 B18 N2'
_cell_volume   181.00030581
_cell_formula_units_Z   2
loop_
 _symmetry_equiv_pos_site_id
 _symmetry_equiv_pos_as_xyz
  1  'x, y, z'
loop_
 _atom_site_type_symbol
 _atom_site_label
 _atom_site_symmetry_multiplicity
 _atom_site_fract_x
 _atom_site_fract_y
 _atom_site_fract_z
 _atom_site_occupancy
  Yb  Yb0  1  0.299451  0.700548  0.101645  1
  Yb  Yb1  1  0.700547  0.299452  0.898355  1
  B  B2  1  0.171261  0.139827  0.108392  1
  B  B3  1  0.860174  0.139826  0.108392  1
  B  B4  1  0.860174  0.828740  0.108392  1
  B  B5  1  0.353779  0.324360  0.294939  1
  B  B6  1  0.675641  0.324359  0.294939  1
  B  B7  1  0.675641  0.646222  0.294939  1
  B  B8  1  0.337288  0.131960  0.457386  1
  B  B9  1  0.337288  0.662712  0.457386  1
  B  B10  1  0.868039  0.662712  0.457386  1
  B  B11  1  0.131960  0.337288  0.542615  1
  B  B12  1  0.662712  0.337288  0.542615  1
  B  B13  1  0.662712  0.868040  0.542615  1
  B  B14  1  0.324360  0.353779  0.705061  1
  B  B15  1  0.324360  0.675641  0.705061  1
  B  B16  1  0.646220  0.675640  0.705061  1
  B  B17  1  0.139827  0.171261  0.891608  1
  B  B18  1  0.139827  0.860174  0.891608  1
  B  B19  1  0.828740  0.860174  0.891608  1
  N  N20  1  0.189739  0.810260  0.430782  1
  N  N21  1  0.810260  0.189739  0.569218  1
