# generated using pymatgen
data_Pr12PdRu2Rh
_symmetry_space_group_name_H-M   'P 1'
_cell_length_a   6.54847585
_cell_length_b   7.47973086
_cell_length_c   10.02380600
_cell_angle_alpha   90.00000000
_cell_angle_beta   90.00000000
_cell_angle_gamma   90.36052927
_symmetry_Int_Tables_number   1
_chemical_formula_structural   Pr12PdRu2Rh
_chemical_formula_sum   'Pr12 Pd1 Ru2 Rh1'
_cell_volume   490.96468675
_cell_formula_units_Z   1
loop_
 _symmetry_equiv_pos_site_id
 _symmetry_equiv_pos_as_xyz
  1  'x, y, z'
loop_
 _atom_site_type_symbol
 _atom_site_label
 _atom_site_symmetry_multiplicity
 _atom_site_fract_x
 _atom_site_fract_y
 _atom_site_fract_z
 _atom_site_occupancy
  Pr  Pr0  1  0.337466  0.671027  0.064657  1
  Pr  Pr1  1  0.169976  0.183466  0.435606  1
  Pr  Pr2  1  0.669745  0.324174  0.568150  1
  Pr  Pr3  1  0.828654  0.822167  0.930852  1
  Pr  Pr4  1  0.669745  0.324174  0.931850  1
  Pr  Pr5  1  0.828654  0.822167  0.569148  1
  Pr  Pr6  1  0.337466  0.671027  0.435343  1
  Pr  Pr7  1  0.169976  0.183466  0.064394  1
  Pr  Pr8  1  0.849854  0.528584  0.250000  1
  Pr  Pr9  1  0.635314  0.043222  0.250000  1
  Pr  Pr10  1  0.147788  0.465711  0.750000  1
  Pr  Pr11  1  0.354973  0.958892  0.750000  1
  Pd  Pd12  1  0.067369  0.884357  0.250000  1
  Ru  Ru13  1  0.433310  0.381081  0.250000  1
  Ru  Ru14  1  0.560591  0.618614  0.750000  1
  Rh  Rh15  1  0.939120  0.117871  0.750000  1
