# generated using pymatgen
data_Hf3ScAs4
_symmetry_space_group_name_H-M   'P 1'
_cell_length_a   3.80926900
_cell_length_b   3.80926862
_cell_length_c   12.87622200
_cell_angle_alpha   90.00000000
_cell_angle_beta   90.00000000
_cell_angle_gamma   120.00001196
_symmetry_Int_Tables_number   1
_chemical_formula_structural   Hf3ScAs4
_chemical_formula_sum   'Hf3 Sc1 As4'
_cell_volume   161.80885213
_cell_formula_units_Z   1
loop_
 _symmetry_equiv_pos_site_id
 _symmetry_equiv_pos_as_xyz
  1  'x, y, z'
loop_
 _atom_site_type_symbol
 _atom_site_label
 _atom_site_symmetry_multiplicity
 _atom_site_fract_x
 _atom_site_fract_y
 _atom_site_fract_z
 _atom_site_occupancy
  Hf  Hf0  1  0.666667  0.333333  0.881747  1
  Hf  Hf1  1  0.666667  0.333333  0.620418  1
  Hf  Hf2  1  0.333333  0.666667  0.118591  1
  Sc  Sc3  1  0.333333  0.666667  0.380839  1
  As  As4  1  0.666667  0.333333  0.247994  1
  As  As5  1  0.333333  0.666667  0.750429  1
  As  As6  1  0.000000  0.000000  0.500136  1
  As  As7  1  0.000000  0.000000  0.999846  1
