# generated using pymatgen
data_Er3Cd3Ag2Ru
_symmetry_space_group_name_H-M   'P 1'
_cell_length_a   7.81816400
_cell_length_b   7.81816432
_cell_length_c   3.86420100
_cell_angle_alpha   90.00000000
_cell_angle_beta   90.00000000
_cell_angle_gamma   119.99999866
_symmetry_Int_Tables_number   1
_chemical_formula_structural   Er3Cd3Ag2Ru
_chemical_formula_sum   'Er3 Cd3 Ag2 Ru1'
_cell_volume   204.55020367
_cell_formula_units_Z   1
loop_
 _symmetry_equiv_pos_site_id
 _symmetry_equiv_pos_as_xyz
  1  'x, y, z'
loop_
 _atom_site_type_symbol
 _atom_site_label
 _atom_site_symmetry_multiplicity
 _atom_site_fract_x
 _atom_site_fract_y
 _atom_site_fract_z
 _atom_site_occupancy
  Er  Er0  1  0.569615  0.960103  0.000000  1
  Er  Er1  1  0.039897  0.609512  0.000000  1
  Er  Er2  1  0.390488  0.430385  0.000000  1
  Cd  Cd3  1  0.266914  0.002220  0.500000  1
  Cd  Cd4  1  0.997780  0.264694  0.500000  1
  Cd  Cd5  1  0.735306  0.733086  0.500000  1
  Ag  Ag6  1  0.666667  0.333333  0.500000  1
  Ag  Ag7  1  0.000000  0.000000  0.000000  1
  Ru  Ru8  1  0.333333  0.666667  0.500000  1
