# generated using pymatgen
data_Y12Si12IrPt3
_symmetry_space_group_name_H-M   'P 1'
_cell_length_a   4.26077500
_cell_length_b   10.68870957
_cell_length_c   12.37723981
_cell_angle_alpha   90.06197706
_cell_angle_beta   90.00000000
_cell_angle_gamma   90.00000000
_symmetry_Int_Tables_number   1
_chemical_formula_structural   Y12Si12IrPt3
_chemical_formula_sum   'Y12 Si12 Ir1 Pt3'
_cell_volume   563.68623389
_cell_formula_units_Z   1
loop_
 _symmetry_equiv_pos_site_id
 _symmetry_equiv_pos_as_xyz
  1  'x, y, z'
loop_
 _atom_site_type_symbol
 _atom_site_label
 _atom_site_symmetry_multiplicity
 _atom_site_fract_x
 _atom_site_fract_y
 _atom_site_fract_z
 _atom_site_occupancy
  Y  Y0  1  0.250000  0.878943  0.020860  1
  Y  Y1  1  0.250000  0.619261  0.522228  1
  Y  Y2  1  0.750000  0.120561  0.978310  1
  Y  Y3  1  0.750000  0.379717  0.479369  1
  Y  Y4  1  0.250000  0.919217  0.602700  1
  Y  Y5  1  0.250000  0.580205  0.102137  1
  Y  Y6  1  0.750000  0.080612  0.398586  1
  Y  Y7  1  0.750000  0.419983  0.896923  1
  Y  Y8  1  0.250000  0.660019  0.800866  1
  Y  Y9  1  0.250000  0.838238  0.302016  1
  Y  Y10  1  0.750000  0.338188  0.197991  1
  Y  Y11  1  0.750000  0.162146  0.697725  1
  Si  Si12  1  0.250000  0.015847  0.823277  1
  Si  Si13  1  0.250000  0.485233  0.322288  1
  Si  Si14  1  0.750000  0.985044  0.177198  1
  Si  Si15  1  0.750000  0.509161  0.678315  1
  Si  Si16  1  0.250000  0.247621  0.839780  1
  Si  Si17  1  0.250000  0.255430  0.343717  1
  Si  Si18  1  0.750000  0.754767  0.156988  1
  Si  Si19  1  0.750000  0.743968  0.656451  1
  Si  Si20  1  0.250000  0.202119  0.543855  1
  Si  Si21  1  0.250000  0.304171  0.039705  1
  Si  Si22  1  0.750000  0.804581  0.459703  1
  Si  Si23  1  0.750000  0.695652  0.959129  1
  Ir  Ir24  1  0.250000  0.389771  0.681690  1
  Pt  Pt25  1  0.250000  0.109963  0.182900  1
  Pt  Pt26  1  0.750000  0.609382  0.317504  1
  Pt  Pt27  1  0.750000  0.890198  0.817787  1
