# generated using pymatgen
data_Ca2Al6(SiIr)3
_symmetry_space_group_name_H-M   'P 1'
_cell_length_a   7.46432670
_cell_length_b   7.44684121
_cell_length_c   9.48890939
_cell_angle_alpha   89.93616421
_cell_angle_beta   90.06987891
_cell_angle_gamma   119.81853468
_symmetry_Int_Tables_number   1
_chemical_formula_structural   Ca2Al6(SiIr)3
_chemical_formula_sum   'Ca4 Al12 Si6 Ir6'
_cell_volume   457.61526330
_cell_formula_units_Z   2
loop_
 _symmetry_equiv_pos_site_id
 _symmetry_equiv_pos_as_xyz
  1  'x, y, z'
loop_
 _atom_site_type_symbol
 _atom_site_label
 _atom_site_symmetry_multiplicity
 _atom_site_fract_x
 _atom_site_fract_y
 _atom_site_fract_z
 _atom_site_occupancy
  Ca  Ca0  1  0.999797  0.663237  0.253819  1
  Ca  Ca1  1  0.000203  0.336763  0.746181  1
  Ca  Ca2  1  0.674482  0.007802  0.256803  1
  Ca  Ca3  1  0.325518  0.992198  0.743197  1
  Al  Al4  1  0.127728  0.127701  0.249854  1
  Al  Al5  1  0.872272  0.872299  0.750146  1
  Al  Al6  1  0.662010  0.996784  0.929930  1
  Al  Al7  1  0.337990  0.003216  0.070070  1
  Al  Al8  1  0.336150  0.334707  0.560164  1
  Al  Al9  1  0.663850  0.665293  0.439836  1
  Al  Al10  1  0.664432  0.668701  0.060192  1
  Al  Al11  1  0.335568  0.331299  0.939808  1
  Al  Al12  1  0.338200  0.547565  0.249876  1
  Al  Al13  1  0.661800  0.452435  0.750124  1
  Al  Al14  1  0.546201  0.342550  0.250765  1
  Al  Al15  1  0.453799  0.657450  0.749235  1
  Si  Si16  1  0.001813  0.328406  0.065351  1
  Si  Si17  1  0.998187  0.671594  0.934649  1
  Si  Si18  1  0.990912  0.666276  0.572291  1
  Si  Si19  1  0.334283  0.007418  0.421768  1
  Si  Si20  1  0.009088  0.333724  0.427709  1
  Si  Si21  1  0.665717  0.992582  0.578232  1
  Ir  Ir22  1  0.687485  0.338626  0.002408  1
  Ir  Ir23  1  0.312515  0.661374  0.997592  1
  Ir  Ir24  1  0.320757  0.678700  0.499885  1
  Ir  Ir25  1  0.679243  0.321300  0.500115  1
  Ir  Ir26  1  0.000000  0.000000  0.000000  1
  Ir  Ir27  1  0.000000  0.000000  0.500000  1
