# generated using pymatgen
data_GaFe(NiPt2)2
_symmetry_space_group_name_H-M   'P 1'
_cell_length_a   3.90544000
_cell_length_b   3.90544000
_cell_length_c   7.30424400
_cell_angle_alpha   90.00000000
_cell_angle_beta   90.00000000
_cell_angle_gamma   90.00000000
_symmetry_Int_Tables_number   1
_chemical_formula_structural   GaFe(NiPt2)2
_chemical_formula_sum   'Ga1 Fe1 Ni2 Pt4'
_cell_volume   111.40770108
_cell_formula_units_Z   1
loop_
 _symmetry_equiv_pos_site_id
 _symmetry_equiv_pos_as_xyz
  1  'x, y, z'
loop_
 _atom_site_type_symbol
 _atom_site_label
 _atom_site_symmetry_multiplicity
 _atom_site_fract_x
 _atom_site_fract_y
 _atom_site_fract_z
 _atom_site_occupancy
  Ga  Ga0  1  0.000000  0.000000  0.500000  1
  Fe  Fe1  1  0.000000  0.000000  0.000000  1
  Ni  Ni2  1  0.500000  0.500000  0.000000  1
  Ni  Ni3  1  0.500000  0.500000  0.500000  1
  Pt  Pt4  1  0.500000  0.000000  0.247652  1
  Pt  Pt5  1  0.500000  0.000000  0.752348  1
  Pt  Pt6  1  0.000000  0.500000  0.247652  1
  Pt  Pt7  1  0.000000  0.500000  0.752348  1
