# generated using pymatgen
data_Tb6Er2Sc12Si9Ge7
_symmetry_space_group_name_H-M   'P 1'
_cell_length_a   7.16114283
_cell_length_b   7.41523539
_cell_length_c   14.06875174
_cell_angle_alpha   89.95841256
_cell_angle_beta   89.77956537
_cell_angle_gamma   90.09739679
_symmetry_Int_Tables_number   1
_chemical_formula_structural   Tb6Er2Sc12Si9Ge7
_chemical_formula_sum   'Tb6 Er2 Sc12 Si9 Ge7'
_cell_volume   747.06585199
_cell_formula_units_Z   1
loop_
 _symmetry_equiv_pos_site_id
 _symmetry_equiv_pos_as_xyz
  1  'x, y, z'
loop_
 _atom_site_type_symbol
 _atom_site_label
 _atom_site_symmetry_multiplicity
 _atom_site_fract_x
 _atom_site_fract_y
 _atom_site_fract_z
 _atom_site_occupancy
  Tb  Tb0  1  0.007742  0.175576  0.098066  1
  Tb  Tb1  1  0.995369  0.824028  0.902457  1
  Tb  Tb2  1  0.493725  0.677376  0.902274  1
  Tb  Tb3  1  0.995344  0.822270  0.598329  1
  Tb  Tb4  1  0.505040  0.322308  0.098096  1
  Tb  Tb5  1  0.004859  0.177600  0.401472  1
  Er  Er6  1  0.504258  0.322458  0.401113  1
  Er  Er7  1  0.496023  0.677542  0.598866  1
  Sc  Sc8  1  0.169341  0.501008  0.749676  1
  Sc  Sc9  1  0.830796  0.499164  0.250213  1
  Sc  Sc10  1  0.331075  0.000896  0.248982  1
  Sc  Sc11  1  0.668805  0.998952  0.749646  1
  Sc  Sc12  1  0.340510  0.172518  0.626539  1
  Sc  Sc13  1  0.659233  0.827379  0.373537  1
  Sc  Sc14  1  0.159877  0.672218  0.373575  1
  Sc  Sc15  1  0.659849  0.826541  0.126634  1
  Sc  Sc16  1  0.839941  0.328184  0.626576  1
  Sc  Sc17  1  0.337864  0.172363  0.873773  1
  Sc  Sc18  1  0.838366  0.326406  0.873921  1
  Sc  Sc19  1  0.162795  0.675613  0.125590  1
  Si  Si20  1  0.040670  0.117094  0.750331  1
  Si  Si21  1  0.958531  0.882602  0.249707  1
  Si  Si22  1  0.458634  0.616058  0.250042  1
  Si  Si23  1  0.541158  0.383275  0.750324  1
  Si  Si24  1  0.293040  0.871537  0.749826  1
  Si  Si25  1  0.707187  0.128304  0.250077  1
  Si  Si26  1  0.207693  0.372721  0.249905  1
  Si  Si27  1  0.792393  0.627857  0.750230  1
  Si  Si28  1  0.332833  0.962194  0.040124  1
  Ge  Ge29  1  0.176551  0.460340  0.540770  1
  Ge  Ge30  1  0.823179  0.539555  0.459295  1
  Ge  Ge31  1  0.326156  0.960176  0.459313  1
  Ge  Ge32  1  0.828120  0.539057  0.040687  1
  Ge  Ge33  1  0.673545  0.039930  0.540601  1
  Ge  Ge34  1  0.171774  0.460625  0.959352  1
  Ge  Ge35  1  0.667722  0.038274  0.960082  1
