# generated using pymatgen
data_BaPrBiS4
_symmetry_space_group_name_H-M   'P 1'
_cell_length_a   4.19133100
_cell_length_b   12.54099100
_cell_length_c   15.01679900
_cell_angle_alpha   90.00000000
_cell_angle_beta   90.00000000
_cell_angle_gamma   90.00000000
_symmetry_Int_Tables_number   1
_chemical_formula_structural   BaPrBiS4
_chemical_formula_sum   'Ba4 Pr4 Bi4 S16'
_cell_volume   789.33467854
_cell_formula_units_Z   4
loop_
 _symmetry_equiv_pos_site_id
 _symmetry_equiv_pos_as_xyz
  1  'x, y, z'
loop_
 _atom_site_type_symbol
 _atom_site_label
 _atom_site_symmetry_multiplicity
 _atom_site_fract_x
 _atom_site_fract_y
 _atom_site_fract_z
 _atom_site_occupancy
  Ba  Ba0  1  0.250000  0.757315  0.338469  1
  Ba  Ba1  1  0.250000  0.257315  0.161531  1
  Ba  Ba2  1  0.750000  0.242685  0.661531  1
  Ba  Ba3  1  0.750000  0.742685  0.838469  1
  Pr  Pr4  1  0.250000  0.427834  0.392044  1
  Pr  Pr5  1  0.250000  0.927834  0.107956  1
  Pr  Pr6  1  0.750000  0.572166  0.607956  1
  Pr  Pr7  1  0.750000  0.072166  0.892044  1
  Bi  Bi8  1  0.250000  0.424485  0.898356  1
  Bi  Bi9  1  0.250000  0.924485  0.601644  1
  Bi  Bi10  1  0.750000  0.575515  0.101644  1
  Bi  Bi11  1  0.750000  0.075515  0.398356  1
  S  S12  1  0.250000  0.207320  0.826924  1
  S  S13  1  0.250000  0.707320  0.673076  1
  S  S14  1  0.750000  0.792680  0.173076  1
  S  S15  1  0.750000  0.292680  0.326924  1
  S  S16  1  0.250000  0.127316  0.528681  1
  S  S17  1  0.250000  0.627316  0.971319  1
  S  S18  1  0.750000  0.872684  0.471319  1
  S  S19  1  0.750000  0.372684  0.028681  1
  S  S20  1  0.250000  0.521910  0.214958  1
  S  S21  1  0.250000  0.021910  0.285042  1
  S  S22  1  0.750000  0.478090  0.785042  1
  S  S23  1  0.750000  0.978090  0.714958  1
  S  S24  1  0.250000  0.417189  0.579716  1
  S  S25  1  0.250000  0.917189  0.920284  1
  S  S26  1  0.750000  0.582811  0.420284  1
  S  S27  1  0.750000  0.082811  0.079716  1
