# generated using pymatgen
data_PaVFe(Co10B3)2
_symmetry_space_group_name_H-M   'P 1'
_cell_length_a   7.47566356
_cell_length_b   7.47566333
_cell_length_c   7.47566400
_cell_angle_alpha   60.00000589
_cell_angle_beta   60.00000689
_cell_angle_gamma   60.00000615
_symmetry_Int_Tables_number   1
_chemical_formula_structural   PaVFe(Co10B3)2
_chemical_formula_sum   'Pa1 V1 Fe1 Co20 B6'
_cell_volume   295.41620855
_cell_formula_units_Z   1
loop_
 _symmetry_equiv_pos_site_id
 _symmetry_equiv_pos_as_xyz
  1  'x, y, z'
loop_
 _atom_site_type_symbol
 _atom_site_label
 _atom_site_symmetry_multiplicity
 _atom_site_fract_x
 _atom_site_fract_y
 _atom_site_fract_z
 _atom_site_occupancy
  Pa  Pa0  1  0.250000  0.250000  0.250000  1
  V  V1  1  0.750000  0.750000  0.750000  1
  Fe  Fe2  1  0.000000  0.000000  0.000000  1
  Co  Co3  1  0.835906  0.388031  0.388031  1
  Co  Co4  1  0.388031  0.835906  0.388031  1
  Co  Co5  1  0.388031  0.388031  0.835906  1
  Co  Co6  1  0.388031  0.388031  0.388031  1
  Co  Co7  1  0.133330  0.622223  0.622223  1
  Co  Co8  1  0.622223  0.133330  0.622223  1
  Co  Co9  1  0.622223  0.622223  0.133330  1
  Co  Co10  1  0.622223  0.622223  0.622223  1
  Co  Co11  1  0.665410  0.996513  0.996513  1
  Co  Co12  1  0.665410  0.996513  0.341562  1
  Co  Co13  1  0.665410  0.341562  0.996513  1
  Co  Co14  1  0.996513  0.665410  0.341562  1
  Co  Co15  1  0.996513  0.665410  0.996513  1
  Co  Co16  1  0.341562  0.665410  0.996513  1
  Co  Co17  1  0.996513  0.341562  0.665410  1
  Co  Co18  1  0.341562  0.996513  0.665410  1
  Co  Co19  1  0.996513  0.996513  0.665410  1
  Co  Co20  1  0.341562  0.996513  0.996513  1
  Co  Co21  1  0.996513  0.341562  0.996513  1
  Co  Co22  1  0.996513  0.996513  0.341562  1
  B  B23  1  0.726250  0.273750  0.273750  1
  B  B24  1  0.726250  0.273750  0.726250  1
  B  B25  1  0.726250  0.726250  0.273750  1
  B  B26  1  0.273750  0.726250  0.726250  1
  B  B27  1  0.273750  0.726250  0.273750  1
  B  B28  1  0.273750  0.273750  0.726250  1
