# generated using pymatgen
data_Ti8Al15Os5Rh2
_symmetry_space_group_name_H-M   'P 1'
_cell_length_a   8.66415952
_cell_length_b   8.66415889
_cell_length_c   8.66415929
_cell_angle_alpha   119.81498393
_cell_angle_beta   119.75451905
_cell_angle_gamma   90.37323598
_symmetry_Int_Tables_number   1
_chemical_formula_structural   Ti8Al15Os5Rh2
_chemical_formula_sum   'Ti8 Al15 Os5 Rh2'
_cell_volume   461.38643479
_cell_formula_units_Z   1
loop_
 _symmetry_equiv_pos_site_id
 _symmetry_equiv_pos_as_xyz
  1  'x, y, z'
loop_
 _atom_site_type_symbol
 _atom_site_label
 _atom_site_symmetry_multiplicity
 _atom_site_fract_x
 _atom_site_fract_y
 _atom_site_fract_z
 _atom_site_occupancy
  Ti  Ti0  1  0.785663  0.289422  0.065862  1
  Ti  Ti1  1  0.223560  0.289422  0.503759  1
  Ti  Ti2  1  0.213789  0.713789  0.500000  1
  Ti  Ti3  1  0.223560  0.719801  0.934138  1
  Ti  Ti4  1  0.785663  0.719801  0.496241  1
  Ti  Ti5  1  0.778265  0.278265  0.500000  1
  Ti  Ti6  1  0.376701  0.121814  0.745113  1
  Ti  Ti7  1  0.376701  0.631587  0.254887  1
  Al  Al8  1  0.996799  0.496799  0.500000  1
  Al  Al9  1  0.153719  0.342539  0.188818  1
  Al  Al10  1  0.153719  0.964901  0.811182  1
  Al  Al11  1  0.151800  0.345497  0.806304  1
  Al  Al12  1  0.539192  0.345497  0.193696  1
  Al  Al13  1  0.847681  0.654445  0.806765  1
  Al  Al14  1  0.847681  0.040917  0.193235  1
  Al  Al15  1  0.843541  0.656404  0.187136  1
  Al  Al16  1  0.469268  0.656404  0.812864  1
  Al  Al17  1  0.379838  0.121388  0.258450  1
  Al  Al18  1  0.862939  0.121388  0.741550  1
  Al  Al19  1  0.620516  0.875504  0.254989  1
  Al  Al20  1  0.620516  0.365527  0.745011  1
  Al  Al21  1  0.618932  0.877546  0.741386  1
  Al  Al22  1  0.136158  0.877546  0.258614  1
  Os  Os23  1  0.000003  0.999087  0.501068  1
  Os  Os24  1  0.498019  0.999087  0.999084  1
  Os  Os25  1  0.497922  0.497922  0.000000  1
  Os  Os26  1  0.498019  0.498935  0.498932  1
  Os  Os27  1  0.000003  0.498935  0.000916  1
  Rh  Rh28  1  0.999786  0.999786  0.000000  1
  Rh  Rh29  1  0.500042  0.000042  0.500000  1
