# generated using pymatgen
data_Cs6In(AsBr6)3
_symmetry_space_group_name_H-M   'P 1'
_cell_length_a   7.90939600
_cell_length_b   7.90939662
_cell_length_c   19.90755200
_cell_angle_alpha   90.00000000
_cell_angle_beta   90.00000000
_cell_angle_gamma   120.00000578
_symmetry_Int_Tables_number   1
_chemical_formula_structural   Cs6In(AsBr6)3
_chemical_formula_sum   'Cs6 In1 As3 Br18'
_cell_volume   1078.53722463
_cell_formula_units_Z   1
loop_
 _symmetry_equiv_pos_site_id
 _symmetry_equiv_pos_as_xyz
  1  'x, y, z'
loop_
 _atom_site_type_symbol
 _atom_site_label
 _atom_site_symmetry_multiplicity
 _atom_site_fract_x
 _atom_site_fract_y
 _atom_site_fract_z
 _atom_site_occupancy
  Cs  Cs0  1  0.333333  0.666667  0.072208  1
  Cs  Cs1  1  0.666667  0.333333  0.924682  1
  Cs  Cs2  1  0.666667  0.333333  0.573175  1
  Cs  Cs3  1  0.333333  0.666667  0.418459  1
  Cs  Cs4  1  0.000000  0.000000  0.250362  1
  Cs  Cs5  1  0.000000  0.000000  0.756943  1
  In  In6  1  0.333333  0.666667  0.841710  1
  As  As7  1  0.333333  0.666667  0.654997  1
  As  As8  1  0.666667  0.333333  0.342131  1
  As  As9  1  0.666667  0.333333  0.157466  1
  Br  Br10  1  0.176984  0.353967  0.587455  1
  Br  Br11  1  0.823849  0.647697  0.412041  1
  Br  Br12  1  0.646033  0.823016  0.587455  1
  Br  Br13  1  0.823091  0.646183  0.089149  1
  Br  Br14  1  0.352303  0.176151  0.412041  1
  Br  Br15  1  0.169323  0.338647  0.911694  1
  Br  Br16  1  0.176984  0.823016  0.587455  1
  Br  Br17  1  0.353817  0.176909  0.089149  1
  Br  Br18  1  0.823849  0.176151  0.412041  1
  Br  Br19  1  0.661353  0.830677  0.911694  1
  Br  Br20  1  0.823091  0.176909  0.089149  1
  Br  Br21  1  0.169323  0.830677  0.911694  1
  Br  Br22  1  0.506017  0.012037  0.251412  1
  Br  Br23  1  0.491816  0.983632  0.750873  1
  Br  Br24  1  0.987963  0.493983  0.251412  1
  Br  Br25  1  0.016368  0.508184  0.750873  1
  Br  Br26  1  0.506017  0.493983  0.251412  1
  Br  Br27  1  0.491816  0.508184  0.750873  1
