# generated using pymatgen
data_Eu2CuNiRh2
_symmetry_space_group_name_H-M   'P 1'
_cell_length_a   5.34315614
_cell_length_b   5.34315643
_cell_length_c   5.21769404
_cell_angle_alpha   60.45620457
_cell_angle_beta   60.45620607
_cell_angle_gamma   61.76992052
_symmetry_Int_Tables_number   1
_chemical_formula_structural   Eu2CuNiRh2
_chemical_formula_sum   'Eu2 Cu1 Ni1 Rh2'
_cell_volume   107.41764634
_cell_formula_units_Z   1
loop_
 _symmetry_equiv_pos_site_id
 _symmetry_equiv_pos_as_xyz
  1  'x, y, z'
loop_
 _atom_site_type_symbol
 _atom_site_label
 _atom_site_symmetry_multiplicity
 _atom_site_fract_x
 _atom_site_fract_y
 _atom_site_fract_z
 _atom_site_occupancy
  Eu  Eu0  1  0.249406  0.249406  0.248592  1
  Eu  Eu1  1  0.000594  0.000594  0.001408  1
  Cu  Cu2  1  0.625000  0.625000  0.625000  1
  Ni  Ni3  1  0.625000  0.625000  0.125000  1
  Rh  Rh4  1  0.125000  0.625000  0.625000  1
  Rh  Rh5  1  0.625000  0.125000  0.625000  1
