# generated using pymatgen
data_Tb2Ho4Co9(P4Ru3)3
_symmetry_space_group_name_H-M   'P 1'
_cell_length_a   3.83497500
_cell_length_b   10.64665732
_cell_length_c   12.49962727
_cell_angle_alpha   89.74055225
_cell_angle_beta   90.00000000
_cell_angle_gamma   90.00000000
_symmetry_Int_Tables_number   1
_chemical_formula_structural   Tb2Ho4Co9(P4Ru3)3
_chemical_formula_sum   'Tb2 Ho4 Co9 P12 Ru9'
_cell_volume   510.35035762
_cell_formula_units_Z   1
loop_
 _symmetry_equiv_pos_site_id
 _symmetry_equiv_pos_as_xyz
  1  'x, y, z'
loop_
 _atom_site_type_symbol
 _atom_site_label
 _atom_site_symmetry_multiplicity
 _atom_site_fract_x
 _atom_site_fract_y
 _atom_site_fract_z
 _atom_site_occupancy
  Tb  Tb0  1  0.000000  0.500309  0.525373  1
  Tb  Tb1  1  0.500000  0.000612  0.471657  1
  Ho  Ho2  1  0.500000  0.820504  0.200850  1
  Ho  Ho3  1  0.500000  0.181043  0.201088  1
  Ho  Ho4  1  0.000000  0.678465  0.799871  1
  Ho  Ho5  1  0.000000  0.321506  0.799006  1
  Co  Co6  1  0.000000  0.498613  0.986155  1
  Co  Co7  1  0.500000  0.000355  0.016531  1
  Co  Co8  1  0.000000  0.374829  0.279785  1
  Co  Co9  1  0.500000  0.331360  0.989741  1
  Co  Co10  1  0.500000  0.666037  0.991457  1
  Co  Co11  1  0.000000  0.168376  0.012659  1
  Co  Co12  1  0.000000  0.832546  0.011314  1
  Co  Co13  1  0.500000  0.500262  0.704016  1
  Co  Co14  1  0.000000  0.001085  0.296140  1
  P  P15  1  0.500000  0.315741  0.616914  1
  P  P16  1  0.500000  0.686082  0.618924  1
  P  P17  1  0.000000  0.189533  0.377398  1
  P  P18  1  0.000000  0.813291  0.379918  1
  P  P19  1  0.500000  0.499351  0.882510  1
  P  P20  1  0.000000  0.000158  0.118991  1
  P  P21  1  0.500000  0.845258  0.901814  1
  P  P22  1  0.500000  0.154357  0.900424  1
  P  P23  1  0.000000  0.653660  0.100228  1
  P  P24  1  0.000000  0.345654  0.103900  1
  P  P25  1  0.500000  0.499569  0.338409  1
  P  P26  1  0.000000  0.000911  0.662019  1
  Ru  Ru27  1  0.500000  0.300669  0.422121  1
  Ru  Ru28  1  0.500000  0.702836  0.427279  1
  Ru  Ru29  1  0.000000  0.204780  0.568979  1
  Ru  Ru30  1  0.000000  0.798318  0.572074  1
  Ru  Ru31  1  0.500000  0.875321  0.719773  1
  Ru  Ru32  1  0.500000  0.126145  0.717670  1
  Ru  Ru33  1  0.000000  0.618994  0.281559  1
  Ru  Ru34  1  0.500000  0.491985  0.149607  1
  Ru  Ru35  1  0.000000  0.001482  0.853843  1
