# generated using pymatgen
data_Tb3Nb(Ni4As3)2
_symmetry_space_group_name_H-M   'P 1'
_cell_length_a   3.91752900
_cell_length_b   11.13891600
_cell_length_c   12.78083700
_cell_angle_alpha   90.00000000
_cell_angle_beta   90.00000000
_cell_angle_gamma   90.00000000
_symmetry_Int_Tables_number   1
_chemical_formula_structural   Tb3Nb(Ni4As3)2
_chemical_formula_sum   'Tb6 Nb2 Ni16 As12'
_cell_volume   557.71772233
_cell_formula_units_Z   2
loop_
 _symmetry_equiv_pos_site_id
 _symmetry_equiv_pos_as_xyz
  1  'x, y, z'
loop_
 _atom_site_type_symbol
 _atom_site_label
 _atom_site_symmetry_multiplicity
 _atom_site_fract_x
 _atom_site_fract_y
 _atom_site_fract_z
 _atom_site_occupancy
  Tb  Tb0  1  0.000000  0.500000  0.525677  1
  Tb  Tb1  1  0.500000  0.000000  0.474323  1
  Tb  Tb2  1  0.500000  0.820207  0.206453  1
  Tb  Tb3  1  0.500000  0.179793  0.206453  1
  Tb  Tb4  1  0.000000  0.679793  0.793547  1
  Tb  Tb5  1  0.000000  0.320207  0.793547  1
  Nb  Nb6  1  0.500000  0.500000  0.149060  1
  Nb  Nb7  1  0.000000  0.000000  0.850940  1
  Ni  Ni8  1  0.500000  0.500000  0.697760  1
  Ni  Ni9  1  0.000000  0.000000  0.302240  1
  Ni  Ni10  1  0.000000  0.500000  0.983365  1
  Ni  Ni11  1  0.500000  0.000000  0.016635  1
  Ni  Ni12  1  0.500000  0.335662  0.990745  1
  Ni  Ni13  1  0.500000  0.664338  0.990745  1
  Ni  Ni14  1  0.000000  0.164338  0.009255  1
  Ni  Ni15  1  0.000000  0.835662  0.009255  1
  Ni  Ni16  1  0.500000  0.303056  0.425722  1
  Ni  Ni17  1  0.500000  0.696944  0.425722  1
  Ni  Ni18  1  0.000000  0.196944  0.574278  1
  Ni  Ni19  1  0.000000  0.803056  0.574278  1
  Ni  Ni20  1  0.500000  0.880058  0.707808  1
  Ni  Ni21  1  0.500000  0.119942  0.707808  1
  Ni  Ni22  1  0.000000  0.619942  0.292192  1
  Ni  Ni23  1  0.000000  0.380058  0.292192  1
  As  As24  1  0.500000  0.500000  0.877237  1
  As  As25  1  0.000000  0.000000  0.122763  1
  As  As26  1  0.500000  0.500000  0.351143  1
  As  As27  1  0.000000  0.000000  0.648857  1
  As  As28  1  0.500000  0.313300  0.613441  1
  As  As29  1  0.500000  0.686700  0.613441  1
  As  As30  1  0.000000  0.186700  0.386559  1
  As  As31  1  0.000000  0.813300  0.386559  1
  As  As32  1  0.500000  0.840307  0.891877  1
  As  As33  1  0.500000  0.159693  0.891877  1
  As  As34  1  0.000000  0.659693  0.108123  1
  As  As35  1  0.000000  0.340307  0.108123  1
