# generated using pymatgen
data_Yb2Ga7Ni2Sn
_symmetry_space_group_name_H-M   'P 1'
_cell_length_a   8.00622118
_cell_length_b   8.00622050
_cell_length_c   6.64791256
_cell_angle_alpha   90.13102480
_cell_angle_beta   89.86897657
_cell_angle_gamma   149.73997011
_symmetry_Int_Tables_number   1
_chemical_formula_structural   Yb2Ga7Ni2Sn
_chemical_formula_sum   'Yb2 Ga7 Ni2 Sn1'
_cell_volume   214.73620682
_cell_formula_units_Z   1
loop_
 _symmetry_equiv_pos_site_id
 _symmetry_equiv_pos_as_xyz
  1  'x, y, z'
loop_
 _atom_site_type_symbol
 _atom_site_label
 _atom_site_symmetry_multiplicity
 _atom_site_fract_x
 _atom_site_fract_y
 _atom_site_fract_z
 _atom_site_occupancy
  Yb  Yb0  1  0.625490  0.374510  0.745254  1
  Yb  Yb1  1  0.374510  0.625490  0.254746  1
  Ga  Ga2  1  0.185564  0.814436  0.449146  1
  Ga  Ga3  1  0.814436  0.185564  0.550854  1
  Ga  Ga4  1  0.000000  0.000000  0.500000  1
  Ga  Ga5  1  0.571972  0.428028  0.267243  1
  Ga  Ga6  1  0.428028  0.571972  0.732757  1
  Ga  Ga7  1  0.190219  0.809781  0.052269  1
  Ga  Ga8  1  0.809781  0.190219  0.947731  1
  Ni  Ni9  1  0.724305  0.275695  0.252747  1
  Ni  Ni10  1  0.275695  0.724305  0.747253  1
  Sn  Sn11  1  0.000000  0.000000  0.000000  1
