# generated using pymatgen
data_Ho10Co4RuAu
_symmetry_space_group_name_H-M   'P 1'
_cell_length_a   8.71111257
_cell_length_b   8.71111237
_cell_length_c   8.71394450
_cell_angle_alpha   131.11786710
_cell_angle_beta   131.11786189
_cell_angle_gamma   71.64209692
_symmetry_Int_Tables_number   1
_chemical_formula_structural   Ho10Co4RuAu
_chemical_formula_sum   'Ho10 Co4 Ru1 Au1'
_cell_volume   367.15779100
_cell_formula_units_Z   1
loop_
 _symmetry_equiv_pos_site_id
 _symmetry_equiv_pos_as_xyz
  1  'x, y, z'
loop_
 _atom_site_type_symbol
 _atom_site_label
 _atom_site_symmetry_multiplicity
 _atom_site_fract_x
 _atom_site_fract_y
 _atom_site_fract_z
 _atom_site_occupancy
  Ho  Ho0  1  0.672003  0.522998  0.473507  1
  Ho  Ho1  1  0.450765  0.976909  0.148967  1
  Ho  Ho2  1  0.828009  0.301807  0.851228  1
  Ho  Ho3  1  0.523091  0.049235  0.851033  1
  Ho  Ho4  1  0.986337  0.986303  0.000040  1
  Ho  Ho5  1  0.049108  0.198261  0.526134  1
  Ho  Ho6  1  0.301739  0.450892  0.473866  1
  Ho  Ho7  1  0.198193  0.671991  0.148772  1
  Ho  Ho8  1  0.977002  0.827997  0.526493  1
  Ho  Ho9  1  0.513697  0.513663  0.999960  1
  Co  Co10  1  0.112557  0.612385  0.724966  1
  Co  Co11  1  0.887615  0.387443  0.275034  1
  Co  Co12  1  0.612400  0.887600  0.500000  1
  Co  Co13  1  0.387330  0.112670  0.500000  1
  Ru  Ru14  1  0.250051  0.249949  0.000000  1
  Au  Au15  1  0.750102  0.749898  0.000000  1
