# generated using pymatgen
data_La6YbOsI12
_symmetry_space_group_name_H-M   'P 1'
_cell_length_a   10.19747333
_cell_length_b   10.19747285
_cell_length_c   10.19747308
_cell_angle_alpha   107.14340576
_cell_angle_beta   107.14340286
_cell_angle_gamma   107.14340677
_symmetry_Int_Tables_number   1
_chemical_formula_structural   La6YbOsI12
_chemical_formula_sum   'La6 Yb1 Os1 I12'
_cell_volume   879.64990751
_cell_formula_units_Z   1
loop_
 _symmetry_equiv_pos_site_id
 _symmetry_equiv_pos_as_xyz
  1  'x, y, z'
loop_
 _atom_site_type_symbol
 _atom_site_label
 _atom_site_symmetry_multiplicity
 _atom_site_fract_x
 _atom_site_fract_y
 _atom_site_fract_z
 _atom_site_occupancy
  La  La0  1  0.306768  0.096111  0.031376  1
  La  La1  1  0.031376  0.306768  0.096111  1
  La  La2  1  0.096111  0.031375  0.306768  1
  La  La3  1  0.903889  0.968625  0.693233  1
  La  La4  1  0.968624  0.693233  0.903890  1
  La  La5  1  0.693233  0.903889  0.968625  1
  Yb  Yb6  1  0.500000  0.500000  0.500000  1
  Os  Os7  1  0.000000  0.000000  0.000000  1
  I  I8  1  0.686393  0.232798  0.075359  1
  I  I9  1  0.392314  0.460080  0.162735  1
  I  I10  1  0.075359  0.686392  0.232799  1
  I  I11  1  0.767202  0.924642  0.313607  1
  I  I12  1  0.460080  0.162735  0.392314  1
  I  I13  1  0.162735  0.392314  0.460080  1
  I  I14  1  0.837265  0.607687  0.539920  1
  I  I15  1  0.539920  0.837266  0.607686  1
  I  I16  1  0.232799  0.075359  0.686393  1
  I  I17  1  0.924641  0.313608  0.767202  1
  I  I18  1  0.607687  0.539920  0.837265  1
  I  I19  1  0.313608  0.767202  0.924641  1
