# generated using pymatgen
data_Tb5Er2Co6Sn22Au
_symmetry_space_group_name_H-M   'P 1'
_cell_length_a   9.67006763
_cell_length_b   9.67006739
_cell_length_c   9.94472952
_cell_angle_alpha   89.96784672
_cell_angle_beta   90.03215422
_cell_angle_gamma   119.97419866
_symmetry_Int_Tables_number   1
_chemical_formula_structural   Tb5Er2Co6Sn22Au
_chemical_formula_sum   'Tb5 Er2 Co6 Sn22 Au1'
_cell_volume   805.55534249
_cell_formula_units_Z   1
loop_
 _symmetry_equiv_pos_site_id
 _symmetry_equiv_pos_as_xyz
  1  'x, y, z'
loop_
 _atom_site_type_symbol
 _atom_site_label
 _atom_site_symmetry_multiplicity
 _atom_site_fract_x
 _atom_site_fract_y
 _atom_site_fract_z
 _atom_site_occupancy
  Tb  Tb0  1  0.000000  0.000000  0.000000  1
  Tb  Tb1  1  0.478820  0.957564  0.306466  1
  Tb  Tb2  1  0.521180  0.042436  0.693534  1
  Tb  Tb3  1  0.042436  0.521180  0.306466  1
  Tb  Tb4  1  0.957564  0.478820  0.693534  1
  Er  Er5  1  0.479099  0.520901  0.306674  1
  Er  Er6  1  0.520901  0.479099  0.693326  1
  Co  Co7  1  0.832216  0.167784  0.196340  1
  Co  Co8  1  0.167784  0.832216  0.803660  1
  Co  Co9  1  0.831608  0.663943  0.196543  1
  Co  Co10  1  0.168392  0.336057  0.803457  1
  Co  Co11  1  0.336057  0.168392  0.196543  1
  Co  Co12  1  0.663943  0.831608  0.803457  1
  Sn  Sn13  1  0.346525  0.000128  0.000005  1
  Sn  Sn14  1  0.653475  0.999872  0.999995  1
  Sn  Sn15  1  0.000128  0.346525  0.999995  1
  Sn  Sn16  1  0.999872  0.653475  0.000005  1
  Sn  Sn17  1  0.653454  0.653454  0.000000  1
  Sn  Sn18  1  0.346546  0.346546  0.000000  1
  Sn  Sn19  1  0.333430  0.666570  0.816112  1
  Sn  Sn20  1  0.666570  0.333430  0.183888  1
  Sn  Sn21  1  0.783610  0.216390  0.452890  1
  Sn  Sn22  1  0.216390  0.783610  0.547110  1
  Sn  Sn23  1  0.782405  0.567186  0.453095  1
  Sn  Sn24  1  0.217595  0.432814  0.546905  1
  Sn  Sn25  1  0.432814  0.217595  0.453095  1
  Sn  Sn26  1  0.567186  0.782405  0.546905  1
  Sn  Sn27  1  0.333990  0.666010  0.118450  1
  Sn  Sn28  1  0.666010  0.333990  0.881550  1
  Sn  Sn29  1  0.113088  0.886912  0.278475  1
  Sn  Sn30  1  0.886912  0.113088  0.721525  1
  Sn  Sn31  1  0.113726  0.226716  0.278568  1
  Sn  Sn32  1  0.886274  0.773284  0.721432  1
  Sn  Sn33  1  0.773284  0.886274  0.278568  1
  Sn  Sn34  1  0.226716  0.113726  0.721432  1
  Au  Au35  1  0.000000  0.000000  0.500000  1
