# generated using pymatgen
data_Li8Y8Tl3Bi5
_symmetry_space_group_name_H-M   'P 1'
_cell_length_a   9.55827996
_cell_length_b   9.55827981
_cell_length_c   7.31789300
_cell_angle_alpha   90.15715436
_cell_angle_beta   89.84283365
_cell_angle_gamma   120.05700266
_symmetry_Int_Tables_number   1
_chemical_formula_structural   Li8Y8Tl3Bi5
_chemical_formula_sum   'Li8 Y8 Tl3 Bi5'
_cell_volume   578.66105236
_cell_formula_units_Z   1
loop_
 _symmetry_equiv_pos_site_id
 _symmetry_equiv_pos_as_xyz
  1  'x, y, z'
loop_
 _atom_site_type_symbol
 _atom_site_label
 _atom_site_symmetry_multiplicity
 _atom_site_fract_x
 _atom_site_fract_y
 _atom_site_fract_z
 _atom_site_occupancy
  Li  Li0  1  0.169512  0.830488  0.199402  1
  Li  Li1  1  0.337797  0.168412  0.704638  1
  Li  Li2  1  0.831588  0.662203  0.704638  1
  Li  Li3  1  0.165484  0.336851  0.208480  1
  Li  Li4  1  0.663149  0.834516  0.208480  1
  Li  Li5  1  0.830571  0.169429  0.699436  1
  Li  Li6  1  0.333146  0.666854  0.808515  1
  Li  Li7  1  0.668880  0.331120  0.304850  1
  Y  Y8  1  0.511593  0.488407  0.988591  1
  Y  Y9  1  0.021123  0.506377  0.484731  1
  Y  Y10  1  0.493623  0.978877  0.484731  1
  Y  Y11  1  0.519837  0.028249  0.991263  1
  Y  Y12  1  0.971751  0.480163  0.991263  1
  Y  Y13  1  0.488987  0.511013  0.488455  1
  Y  Y14  1  0.996551  0.003449  0.987741  1
  Y  Y15  1  0.996886  0.003114  0.479317  1
  Tl  Tl16  1  0.834171  0.165829  0.252365  1
  Tl  Tl17  1  0.333650  0.666350  0.227437  1
  Tl  Tl18  1  0.665285  0.334715  0.726426  1
  Bi  Bi19  1  0.166026  0.833974  0.751234  1
  Bi  Bi20  1  0.332809  0.166585  0.249368  1
  Bi  Bi21  1  0.833415  0.667191  0.249368  1
  Bi  Bi22  1  0.166648  0.332479  0.749637  1
  Bi  Bi23  1  0.667521  0.833352  0.749637  1
