# generated using pymatgen
data_Dy4Mn3VB16
_symmetry_space_group_name_H-M   'P 1'
_cell_length_a   3.42901700
_cell_length_b   5.93024464
_cell_length_c   11.46434400
_cell_angle_alpha   89.95798031
_cell_angle_beta   90.00000000
_cell_angle_gamma   90.00000000
_symmetry_Int_Tables_number   1
_chemical_formula_structural   Dy4Mn3VB16
_chemical_formula_sum   'Dy4 Mn3 V1 B16'
_cell_volume   233.12633700
_cell_formula_units_Z   1
loop_
 _symmetry_equiv_pos_site_id
 _symmetry_equiv_pos_as_xyz
  1  'x, y, z'
loop_
 _atom_site_type_symbol
 _atom_site_label
 _atom_site_symmetry_multiplicity
 _atom_site_fract_x
 _atom_site_fract_y
 _atom_site_fract_z
 _atom_site_occupancy
  Dy  Dy0  1  0.500000  0.626277  0.149061  1
  Dy  Dy1  1  0.500000  0.373893  0.849865  1
  Dy  Dy2  1  0.500000  0.125220  0.348594  1
  Dy  Dy3  1  0.500000  0.876274  0.652019  1
  Mn  Mn4  1  0.500000  0.376755  0.582565  1
  Mn  Mn5  1  0.500000  0.127655  0.081988  1
  Mn  Mn6  1  0.500000  0.871953  0.915488  1
  V  V7  1  0.500000  0.624326  0.419066  1
  B  B8  1  0.000000  0.975953  0.189883  1
  B  B9  1  0.000000  0.024966  0.809068  1
  B  B10  1  0.000000  0.473025  0.307740  1
  B  B11  1  0.000000  0.523009  0.691945  1
  B  B12  1  0.000000  0.784384  0.313839  1
  B  B13  1  0.000000  0.220267  0.683771  1
  B  B14  1  0.000000  0.279934  0.182693  1
  B  B15  1  0.000000  0.719045  0.816523  1
  B  B16  1  0.000000  0.865176  0.468945  1
  B  B17  1  0.000000  0.138459  0.534261  1
  B  B18  1  0.000000  0.361534  0.031708  1
  B  B19  1  0.000000  0.638216  0.967374  1
  B  B20  1  0.000000  0.887802  0.045571  1
  B  B21  1  0.000000  0.111785  0.953036  1
  B  B22  1  0.000000  0.383860  0.455800  1
  B  B23  1  0.000000  0.610232  0.549199  1
