# generated using pymatgen
data_Dy5ErAl24Os7Ru
_symmetry_space_group_name_H-M   'P 1'
_cell_length_a   8.81648936
_cell_length_b   8.81656415
_cell_length_c   9.55578700
_cell_angle_alpha   89.99774337
_cell_angle_beta   90.00244509
_cell_angle_gamma   120.03223650
_symmetry_Int_Tables_number   1
_chemical_formula_structural   Dy5ErAl24Os7Ru
_chemical_formula_sum   'Dy5 Er1 Al24 Os7 Ru1'
_cell_volume   643.05924360
_cell_formula_units_Z   1
loop_
 _symmetry_equiv_pos_site_id
 _symmetry_equiv_pos_as_xyz
  1  'x, y, z'
loop_
 _atom_site_type_symbol
 _atom_site_label
 _atom_site_symmetry_multiplicity
 _atom_site_fract_x
 _atom_site_fract_y
 _atom_site_fract_z
 _atom_site_occupancy
  Dy  Dy0  1  0.193259  0.386546  0.249373  1
  Dy  Dy1  1  0.613454  0.806741  0.249375  1
  Dy  Dy2  1  0.806600  0.193396  0.750650  1
  Dy  Dy3  1  0.806608  0.613236  0.750662  1
  Dy  Dy4  1  0.386762  0.193390  0.750662  1
  Er  Er5  1  0.193419  0.806574  0.248913  1
  Al  Al6  1  0.560762  0.439241  0.249776  1
  Al  Al7  1  0.560351  0.121132  0.249781  1
  Al  Al8  1  0.878868  0.439651  0.249782  1
  Al  Al9  1  0.439255  0.560745  0.750249  1
  Al  Al10  1  0.439207  0.878459  0.750247  1
  Al  Al11  1  0.121543  0.560794  0.750246  1
  Al  Al12  1  0.324519  0.162065  0.423610  1
  Al  Al13  1  0.837726  0.162272  0.423634  1
  Al  Al14  1  0.837935  0.675482  0.423609  1
  Al  Al15  1  0.675359  0.837681  0.576315  1
  Al  Al16  1  0.162304  0.837699  0.576096  1
  Al  Al17  1  0.162320  0.324642  0.576316  1
  Al  Al18  1  0.675242  0.837623  0.923803  1
  Al  Al19  1  0.162364  0.837640  0.923977  1
  Al  Al20  1  0.162379  0.324759  0.923802  1
  Al  Al21  1  0.324638  0.162141  0.076328  1
  Al  Al22  1  0.837682  0.162317  0.076318  1
  Al  Al23  1  0.837858  0.675364  0.076329  1
  Al  Al24  1  0.666647  0.333352  0.515867  1
  Al  Al25  1  0.333239  0.666763  0.484107  1
  Al  Al26  1  0.333253  0.666750  0.015844  1
  Al  Al27  1  0.666641  0.333359  0.984221  1
  Al  Al28  1  0.000218  0.999784  0.248289  1
  Al  Al29  1  0.999999  0.000001  0.751726  1
  Os  Os30  1  0.999979  0.000023  0.499943  1
  Os  Os31  1  0.499911  0.500086  0.499895  1
  Os  Os32  1  0.499713  0.999816  0.499779  1
  Os  Os33  1  0.000178  0.500279  0.499783  1
  Os  Os34  1  0.499918  0.500087  0.000136  1
  Os  Os35  1  0.499736  0.999831  0.000236  1
  Os  Os36  1  0.000170  0.500266  0.000233  1
  Ru  Ru37  1  0.999986  0.000014  0.000089  1
