# generated using pymatgen
data_Pr19TmSi15P
_symmetry_space_group_name_H-M   'P 1'
_cell_length_a   7.87955645
_cell_length_b   7.88464541
_cell_length_c   15.35521551
_cell_angle_alpha   89.93383303
_cell_angle_beta   89.81919863
_cell_angle_gamma   90.05510839
_symmetry_Int_Tables_number   1
_chemical_formula_structural   Pr19TmSi15P
_chemical_formula_sum   'Pr19 Tm1 Si15 P1'
_cell_volume   953.97545340
_cell_formula_units_Z   1
loop_
 _symmetry_equiv_pos_site_id
 _symmetry_equiv_pos_as_xyz
  1  'x, y, z'
loop_
 _atom_site_type_symbol
 _atom_site_label
 _atom_site_symmetry_multiplicity
 _atom_site_fract_x
 _atom_site_fract_y
 _atom_site_fract_z
 _atom_site_occupancy
  Pr  Pr0  1  0.190035  0.808598  0.249831  1
  Pr  Pr1  1  0.807650  0.191691  0.750667  1
  Pr  Pr2  1  0.690914  0.689945  0.499357  1
  Pr  Pr3  1  0.380721  0.008784  0.444119  1
  Pr  Pr4  1  0.487416  0.879496  0.697586  1
  Pr  Pr5  1  0.510386  0.122607  0.195043  1
  Pr  Pr6  1  0.877923  0.487441  0.302698  1
  Pr  Pr7  1  0.124052  0.508504  0.803685  1
  Pr  Pr8  1  0.623031  0.987776  0.946690  1
  Pr  Pr9  1  0.009823  0.376729  0.554272  1
  Pr  Pr10  1  0.988239  0.621008  0.052628  1
  Pr  Pr11  1  0.128656  0.982880  0.876089  1
  Pr  Pr12  1  0.519258  0.627980  0.125268  1
  Pr  Pr13  1  0.475055  0.368878  0.629296  1
  Pr  Pr14  1  0.627986  0.519115  0.873179  1
  Pr  Pr15  1  0.372216  0.478691  0.373162  1
  Pr  Pr16  1  0.874953  0.019672  0.377225  1
  Pr  Pr17  1  0.979909  0.126917  0.122175  1
  Pr  Pr18  1  0.023402  0.879687  0.624461  1
  Tm  Tm19  1  0.313055  0.311641  0.999578  1
  Si  Si20  1  0.328231  0.691235  0.953838  1
  Si  Si21  1  0.668239  0.305537  0.454483  1
  Si  Si22  1  0.691021  0.329263  0.045054  1
  Si  Si23  1  0.304304  0.667710  0.548346  1
  Si  Si24  1  0.805244  0.830892  0.203161  1
  Si  Si25  1  0.169276  0.195171  0.294332  1
  Si  Si26  1  0.832956  0.805040  0.796228  1
  Si  Si27  1  0.289197  0.925671  0.058190  1
  Si  Si28  1  0.578673  0.786120  0.308992  1
  Si  Si29  1  0.421824  0.213793  0.816518  1
  Si  Si30  1  0.787823  0.579860  0.689347  1
  Si  Si31  1  0.214606  0.418245  0.185197  1
  Si  Si32  1  0.709252  0.077399  0.560703  1
  Si  Si33  1  0.927441  0.290009  0.940956  1
  Si  Si34  1  0.078885  0.711105  0.441082  1
  P  P35  1  0.188350  0.174907  0.706564  1
