# generated using pymatgen
data_Dy8ScTc11Ge16
_symmetry_space_group_name_H-M   'P 1'
_cell_length_a   6.98916219
_cell_length_b   6.97895684
_cell_length_c   13.02720015
_cell_angle_alpha   90.26676841
_cell_angle_beta   89.98784620
_cell_angle_gamma   89.81029320
_symmetry_Int_Tables_number   1
_chemical_formula_structural   Dy8ScTc11Ge16
_chemical_formula_sum   'Dy8 Sc1 Tc11 Ge16'
_cell_volume   635.41815339
_cell_formula_units_Z   1
loop_
 _symmetry_equiv_pos_site_id
 _symmetry_equiv_pos_as_xyz
  1  'x, y, z'
loop_
 _atom_site_type_symbol
 _atom_site_label
 _atom_site_symmetry_multiplicity
 _atom_site_fract_x
 _atom_site_fract_y
 _atom_site_fract_z
 _atom_site_occupancy
  Dy  Dy0  1  0.013551  0.660919  0.032127  1
  Dy  Dy1  1  0.997323  0.336465  0.525784  1
  Dy  Dy2  1  0.663619  0.004890  0.973028  1
  Dy  Dy3  1  0.159418  0.496302  0.777104  1
  Dy  Dy4  1  0.840604  0.507368  0.279061  1
  Dy  Dy5  1  0.494146  0.159360  0.223759  1
  Dy  Dy6  1  0.508035  0.836083  0.718167  1
  Dy  Dy7  1  0.339607  0.991909  0.471207  1
  Sc  Sc8  1  0.674075  0.493210  0.872543  1
  Tc  Tc9  1  0.310446  0.473249  0.381569  1
  Tc  Tc10  1  0.812997  0.018276  0.373277  1
  Tc  Tc11  1  0.993240  0.182095  0.130379  1
  Tc  Tc12  1  0.018958  0.820094  0.623415  1
  Tc  Tc13  1  0.476925  0.321908  0.626337  1
  Tc  Tc14  1  0.179342  0.993252  0.874800  1
  Tc  Tc15  1  0.665497  0.664764  0.496733  1
  Tc  Tc16  1  0.836033  0.167290  0.748697  1
  Tc  Tc17  1  0.162820  0.833324  0.251479  1
  Tc  Tc18  1  0.340645  0.336201  0.000836  1
  Tc  Tc19  1  0.524551  0.692610  0.119992  1
  Ge  Ge20  1  0.018523  0.725658  0.433919  1
  Ge  Ge21  1  0.986622  0.278627  0.937008  1
  Ge  Ge22  1  0.722613  0.023167  0.565746  1
  Ge  Ge23  1  0.234343  0.483204  0.187044  1
  Ge  Ge24  1  0.779565  0.526447  0.674238  1
  Ge  Ge25  1  0.461152  0.204851  0.815919  1
  Ge  Ge26  1  0.514528  0.768812  0.314175  1
  Ge  Ge27  1  0.280473  0.980236  0.065793  1
  Ge  Ge28  1  0.812069  0.888436  0.183919  1
  Ge  Ge29  1  0.308105  0.615234  0.567007  1
  Ge  Ge30  1  0.693733  0.386660  0.074220  1
  Ge  Ge31  1  0.613355  0.311497  0.433820  1
  Ge  Ge32  1  0.380097  0.700177  0.930640  1
  Ge  Ge33  1  0.111611  0.186854  0.317756  1
  Ge  Ge34  1  0.187011  0.113424  0.683762  1
  Ge  Ge35  1  0.884368  0.817149  0.814736  1
