# generated using pymatgen
data_Ho2Sc3Ge4
_symmetry_space_group_name_H-M   'P 1'
_cell_length_a   7.21717000
_cell_length_b   7.47987600
_cell_length_c   14.07291100
_cell_angle_alpha   90.00000000
_cell_angle_beta   90.00000000
_cell_angle_gamma   90.00000000
_symmetry_Int_Tables_number   1
_chemical_formula_structural   Ho2Sc3Ge4
_chemical_formula_sum   'Ho8 Sc12 Ge16'
_cell_volume   759.70550704
_cell_formula_units_Z   4
loop_
 _symmetry_equiv_pos_site_id
 _symmetry_equiv_pos_as_xyz
  1  'x, y, z'
loop_
 _atom_site_type_symbol
 _atom_site_label
 _atom_site_symmetry_multiplicity
 _atom_site_fract_x
 _atom_site_fract_y
 _atom_site_fract_z
 _atom_site_occupancy
  Ho  Ho0  1  0.005641  0.176419  0.096595  1
  Ho  Ho1  1  0.994359  0.823581  0.903405  1
  Ho  Ho2  1  0.494359  0.676419  0.903405  1
  Ho  Ho3  1  0.994359  0.823581  0.596595  1
  Ho  Ho4  1  0.505641  0.323581  0.096595  1
  Ho  Ho5  1  0.005641  0.176419  0.403405  1
  Ho  Ho6  1  0.505641  0.323581  0.403405  1
  Ho  Ho7  1  0.494359  0.676419  0.596595  1
  Sc  Sc8  1  0.164084  0.501085  0.750000  1
  Sc  Sc9  1  0.835916  0.498915  0.250000  1
  Sc  Sc10  1  0.335916  0.001085  0.250000  1
  Sc  Sc11  1  0.664084  0.998915  0.750000  1
  Sc  Sc12  1  0.332482  0.170253  0.625181  1
  Sc  Sc13  1  0.667518  0.829747  0.374819  1
  Sc  Sc14  1  0.167518  0.670253  0.374819  1
  Sc  Sc15  1  0.667518  0.829747  0.125181  1
  Sc  Sc16  1  0.832482  0.329747  0.625181  1
  Sc  Sc17  1  0.332482  0.170253  0.874819  1
  Sc  Sc18  1  0.832482  0.329747  0.874819  1
  Sc  Sc19  1  0.167518  0.670253  0.125181  1
  Ge  Ge20  1  0.029370  0.124771  0.750000  1
  Ge  Ge21  1  0.970630  0.875229  0.250000  1
  Ge  Ge22  1  0.470630  0.624771  0.250000  1
  Ge  Ge23  1  0.529370  0.375229  0.750000  1
  Ge  Ge24  1  0.298112  0.860662  0.750000  1
  Ge  Ge25  1  0.701888  0.139338  0.250000  1
  Ge  Ge26  1  0.201888  0.360662  0.250000  1
  Ge  Ge27  1  0.798112  0.639338  0.750000  1
  Ge  Ge28  1  0.171163  0.461477  0.541566  1
  Ge  Ge29  1  0.828837  0.538523  0.458434  1
  Ge  Ge30  1  0.328837  0.961477  0.458434  1
  Ge  Ge31  1  0.828837  0.538523  0.041566  1
  Ge  Ge32  1  0.671163  0.038523  0.541566  1
  Ge  Ge33  1  0.171163  0.461477  0.958434  1
  Ge  Ge34  1  0.671163  0.038523  0.958434  1
  Ge  Ge35  1  0.328837  0.961477  0.041566  1
