# generated using pymatgen
data_La4HgRh
_symmetry_space_group_name_H-M   'P 1'
_cell_length_a   10.09655961
_cell_length_b   10.09656028
_cell_length_c   10.09656000
_cell_angle_alpha   60.00000092
_cell_angle_beta   59.99999872
_cell_angle_gamma   59.99999946
_symmetry_Int_Tables_number   1
_chemical_formula_structural   La4HgRh
_chemical_formula_sum   'La16 Hg4 Rh4'
_cell_volume   727.78866269
_cell_formula_units_Z   4
loop_
 _symmetry_equiv_pos_site_id
 _symmetry_equiv_pos_as_xyz
  1  'x, y, z'
loop_
 _atom_site_type_symbol
 _atom_site_label
 _atom_site_symmetry_multiplicity
 _atom_site_fract_x
 _atom_site_fract_y
 _atom_site_fract_z
 _atom_site_occupancy
  La  La0  1  0.348707  0.348707  0.348707  1
  La  La1  1  0.348707  0.348707  0.953880  1
  La  La2  1  0.348707  0.953880  0.348707  1
  La  La3  1  0.953880  0.348707  0.348707  1
  La  La4  1  0.809399  0.190601  0.190601  1
  La  La5  1  0.190601  0.809399  0.809399  1
  La  La6  1  0.190601  0.809398  0.190601  1
  La  La7  1  0.809399  0.190602  0.809399  1
  La  La8  1  0.190601  0.190601  0.809399  1
  La  La9  1  0.809398  0.809399  0.190602  1
  La  La10  1  0.938596  0.561404  0.561404  1
  La  La11  1  0.561404  0.938596  0.938596  1
  La  La12  1  0.561404  0.938596  0.561404  1
  La  La13  1  0.938596  0.561404  0.938596  1
  La  La14  1  0.561404  0.561404  0.938596  1
  La  La15  1  0.938596  0.938596  0.561404  1
  Hg  Hg16  1  0.582698  0.582698  0.582698  1
  Hg  Hg17  1  0.582698  0.582698  0.251907  1
  Hg  Hg18  1  0.582698  0.251907  0.582698  1
  Hg  Hg19  1  0.251907  0.582698  0.582698  1
  Rh  Rh20  1  0.141520  0.141520  0.141520  1
  Rh  Rh21  1  0.141520  0.141520  0.575441  1
  Rh  Rh22  1  0.141520  0.575441  0.141520  1
  Rh  Rh23  1  0.575441  0.141520  0.141520  1
