# generated using pymatgen
data_SmDy9Th2(Si2Ni)4
_symmetry_space_group_name_H-M   'P 1'
_cell_length_a   4.17562800
_cell_length_b   11.39193986
_cell_length_c   11.27841177
_cell_angle_alpha   89.73290419
_cell_angle_beta   90.00000000
_cell_angle_gamma   90.00000000
_symmetry_Int_Tables_number   1
_chemical_formula_structural   SmDy9Th2(Si2Ni)4
_chemical_formula_sum   'Sm1 Dy9 Th2 Si8 Ni4'
_cell_volume   536.49133526
_cell_formula_units_Z   1
loop_
 _symmetry_equiv_pos_site_id
 _symmetry_equiv_pos_as_xyz
  1  'x, y, z'
loop_
 _atom_site_type_symbol
 _atom_site_label
 _atom_site_symmetry_multiplicity
 _atom_site_fract_x
 _atom_site_fract_y
 _atom_site_fract_z
 _atom_site_occupancy
  Sm  Sm0  1  0.250000  0.062882  0.880485  1
  Dy  Dy1  1  0.750000  0.560287  0.616194  1
  Dy  Dy2  1  0.250000  0.119720  0.562267  1
  Dy  Dy3  1  0.250000  0.378420  0.059823  1
  Dy  Dy4  1  0.750000  0.875530  0.439776  1
  Dy  Dy5  1  0.750000  0.621149  0.936917  1
  Dy  Dy6  1  0.250000  0.803932  0.710583  1
  Dy  Dy7  1  0.250000  0.693657  0.209845  1
  Dy  Dy8  1  0.750000  0.195774  0.290796  1
  Dy  Dy9  1  0.750000  0.310612  0.790906  1
  Th  Th10  1  0.250000  0.439017  0.385674  1
  Th  Th11  1  0.750000  0.940038  0.115500  1
  Si  Si12  1  0.250000  0.807462  0.969772  1
  Si  Si13  1  0.250000  0.690257  0.472921  1
  Si  Si14  1  0.750000  0.193715  0.028268  1
  Si  Si15  1  0.750000  0.307751  0.532261  1
  Si  Si16  1  0.250000  0.494213  0.801283  1
  Si  Si17  1  0.250000  0.012405  0.308052  1
  Si  Si18  1  0.750000  0.509611  0.193115  1
  Si  Si19  1  0.750000  0.986127  0.693194  1
  Ni  Ni20  1  0.250000  0.363423  0.630163  1
  Ni  Ni21  1  0.250000  0.136536  0.132134  1
  Ni  Ni22  1  0.750000  0.634153  0.368212  1
  Ni  Ni23  1  0.750000  0.863326  0.871862  1
