# generated using pymatgen
data_Eu7YBe3Si12Pd
_symmetry_space_group_name_H-M   'P 1'
_cell_length_a   8.07365700
_cell_length_b   8.07943679
_cell_length_c   8.74335624
_cell_angle_alpha   89.90886338
_cell_angle_beta   90.00000000
_cell_angle_gamma   119.97635085
_symmetry_Int_Tables_number   1
_chemical_formula_structural   Eu7YBe3Si12Pd
_chemical_formula_sum   'Eu7 Y1 Be3 Si12 Pd1'
_cell_volume   494.04089608
_cell_formula_units_Z   1
loop_
 _symmetry_equiv_pos_site_id
 _symmetry_equiv_pos_as_xyz
  1  'x, y, z'
loop_
 _atom_site_type_symbol
 _atom_site_label
 _atom_site_symmetry_multiplicity
 _atom_site_fract_x
 _atom_site_fract_y
 _atom_site_fract_z
 _atom_site_occupancy
  Eu  Eu0  1  0.499979  0.999960  0.749709  1
  Eu  Eu1  1  0.998980  0.499574  0.250168  1
  Eu  Eu2  1  0.999313  0.499413  0.749977  1
  Eu  Eu3  1  0.500594  0.499574  0.250168  1
  Eu  Eu4  1  0.500098  0.499413  0.749977  1
  Eu  Eu5  1  0.000459  0.000918  0.248457  1
  Eu  Eu6  1  0.999442  0.998885  0.750824  1
  Y  Y7  1  0.500335  0.000671  0.250809  1
  Be  Be8  1  0.333575  0.667150  0.004733  1
  Be  Be9  1  0.666264  0.332526  0.005550  1
  Be  Be10  1  0.665941  0.331882  0.494943  1
  Si  Si11  1  0.172189  0.344377  0.001483  1
  Si  Si12  1  0.827991  0.655984  0.001904  1
  Si  Si13  1  0.653467  0.827884  0.003115  1
  Si  Si14  1  0.829507  0.659014  0.497555  1
  Si  Si15  1  0.345459  0.171285  0.003258  1
  Si  Si16  1  0.166377  0.332752  0.500836  1
  Si  Si17  1  0.174419  0.827884  0.003115  1
  Si  Si18  1  0.342091  0.170452  0.496715  1
  Si  Si19  1  0.825826  0.171285  0.003258  1
  Si  Si20  1  0.668245  0.834975  0.495613  1
  Si  Si21  1  0.828362  0.170452  0.496715  1
  Si  Si22  1  0.166731  0.834975  0.495613  1
  Pd  Pd23  1  0.334356  0.668713  0.495505  1
