# generated using pymatgen
data_Hf8Ti4Ga11Cu
_symmetry_space_group_name_H-M   'P 1'
_cell_length_a   5.49985180
_cell_length_b   8.46641472
_cell_length_c   9.06071900
_cell_angle_alpha   90.00000000
_cell_angle_beta   90.00000000
_cell_angle_gamma   89.90778628
_symmetry_Int_Tables_number   1
_chemical_formula_structural   Hf8Ti4Ga11Cu
_chemical_formula_sum   'Hf8 Ti4 Ga11 Cu1'
_cell_volume   421.90301041
_cell_formula_units_Z   1
loop_
 _symmetry_equiv_pos_site_id
 _symmetry_equiv_pos_as_xyz
  1  'x, y, z'
loop_
 _atom_site_type_symbol
 _atom_site_label
 _atom_site_symmetry_multiplicity
 _atom_site_fract_x
 _atom_site_fract_y
 _atom_site_fract_z
 _atom_site_occupancy
  Hf  Hf0  1  0.753496  0.476925  0.618571  1
  Hf  Hf1  1  0.246299  0.528826  0.381668  1
  Hf  Hf2  1  0.753701  0.971174  0.381668  1
  Hf  Hf3  1  0.246504  0.023075  0.618571  1
  Hf  Hf4  1  0.749746  0.360480  0.188516  1
  Hf  Hf5  1  0.245738  0.641292  0.811383  1
  Hf  Hf6  1  0.754262  0.858708  0.811383  1
  Hf  Hf7  1  0.250254  0.139520  0.188516  1
  Ti  Ti8  1  0.000000  0.750000  0.112253  1
  Ti  Ti9  1  0.500000  0.250000  0.891123  1
  Ti  Ti10  1  0.000000  0.250000  0.890559  1
  Ti  Ti11  1  0.500000  0.750000  0.108885  1
  Ga  Ga12  1  0.500000  0.250000  0.436748  1
  Ga  Ga13  1  0.000000  0.250000  0.436410  1
  Ga  Ga14  1  0.500000  0.750000  0.566110  1
  Ga  Ga15  1  0.751047  0.044278  0.080723  1
  Ga  Ga16  1  0.250395  0.955362  0.919385  1
  Ga  Ga17  1  0.749605  0.544638  0.919385  1
  Ga  Ga18  1  0.248953  0.455722  0.080723  1
  Ga  Ga19  1  0.748247  0.133310  0.660622  1
  Ga  Ga20  1  0.252609  0.864563  0.340995  1
  Ga  Ga21  1  0.747391  0.635437  0.340995  1
  Ga  Ga22  1  0.251753  0.366690  0.660622  1
  Cu  Cu23  1  0.000000  0.750000  0.554185  1
