# generated using pymatgen
data_YInSiS4
_symmetry_space_group_name_H-M   'P 1'
_cell_length_a   6.61652400
_cell_length_b   6.44136600
_cell_length_c   8.64918969
_cell_angle_alpha   72.38778436
_cell_angle_beta   90.00000000
_cell_angle_gamma   90.00000000
_symmetry_Int_Tables_number   1
_chemical_formula_structural   YInSiS4
_chemical_formula_sum   'Y2 In2 Si2 S8'
_cell_volume   351.34492869
_cell_formula_units_Z   2
loop_
 _symmetry_equiv_pos_site_id
 _symmetry_equiv_pos_as_xyz
  1  'x, y, z'
loop_
 _atom_site_type_symbol
 _atom_site_label
 _atom_site_symmetry_multiplicity
 _atom_site_fract_x
 _atom_site_fract_y
 _atom_site_fract_z
 _atom_site_occupancy
  Y  Y0  1  0.498971  0.231862  0.448879  1
  Y  Y1  1  0.998971  0.768138  0.551121  1
  In  In2  1  0.979013  0.730362  0.069313  1
  In  In3  1  0.479013  0.269638  0.930687  1
  Si  Si4  1  0.462535  0.780424  0.325114  1
  Si  Si5  1  0.962535  0.219576  0.674886  1
  S  S6  1  0.462056  0.583988  0.168788  1
  S  S7  1  0.229677  0.020955  0.278951  1
  S  S8  1  0.729124  0.975870  0.299120  1
  S  S9  1  0.905625  0.421017  0.432359  1
  S  S10  1  0.405625  0.578983  0.567641  1
  S  S11  1  0.229124  0.024130  0.700880  1
  S  S12  1  0.729677  0.979045  0.721049  1
  S  S13  1  0.962056  0.416012  0.831212  1
