# generated using pymatgen
data_EuPa(AsPt)2
_symmetry_space_group_name_H-M   'P 1'
_cell_length_a   4.33622800
_cell_length_b   4.33622574
_cell_length_c   16.22013100
_cell_angle_alpha   90.00000000
_cell_angle_beta   90.00000000
_cell_angle_gamma   120.00001721
_symmetry_Int_Tables_number   1
_chemical_formula_structural   EuPa(AsPt)2
_chemical_formula_sum   'Eu2 Pa2 As4 Pt4'
_cell_volume   264.12463311
_cell_formula_units_Z   2
loop_
 _symmetry_equiv_pos_site_id
 _symmetry_equiv_pos_as_xyz
  1  'x, y, z'
loop_
 _atom_site_type_symbol
 _atom_site_label
 _atom_site_symmetry_multiplicity
 _atom_site_fract_x
 _atom_site_fract_y
 _atom_site_fract_z
 _atom_site_occupancy
  Eu  Eu0  1  0.000000  0.000000  0.500000  1
  Eu  Eu1  1  0.000000  0.000000  0.000000  1
  Pa  Pa2  1  0.000000  0.000000  0.250000  1
  Pa  Pa3  1  0.000000  0.000000  0.750000  1
  As  As4  1  0.333333  0.666667  0.880376  1
  As  As5  1  0.666667  0.333333  0.119624  1
  As  As6  1  0.666667  0.333333  0.380376  1
  As  As7  1  0.333333  0.666667  0.619624  1
  Pt  Pt8  1  0.333333  0.666667  0.346992  1
  Pt  Pt9  1  0.666667  0.333333  0.653008  1
  Pt  Pt10  1  0.666667  0.333333  0.846992  1
  Pt  Pt11  1  0.333333  0.666667  0.153008  1
