# generated using pymatgen
data_Li4CaLa2PrSi8
_symmetry_space_group_name_H-M   'P 1'
_cell_length_a   3.88591400
_cell_length_b   7.86854306
_cell_length_c   10.63923787
_cell_angle_alpha   90.06729868
_cell_angle_beta   90.00000000
_cell_angle_gamma   90.00000000
_symmetry_Int_Tables_number   1
_chemical_formula_structural   Li4CaLa2PrSi8
_chemical_formula_sum   'Li4 Ca1 La2 Pr1 Si8'
_cell_volume   325.31023700
_cell_formula_units_Z   1
loop_
 _symmetry_equiv_pos_site_id
 _symmetry_equiv_pos_as_xyz
  1  'x, y, z'
loop_
 _atom_site_type_symbol
 _atom_site_label
 _atom_site_symmetry_multiplicity
 _atom_site_fract_x
 _atom_site_fract_y
 _atom_site_fract_z
 _atom_site_occupancy
  Li  Li0  1  0.250000  0.998783  0.391970  1
  Li  Li1  1  0.750000  0.004985  0.608625  1
  Li  Li2  1  0.250000  0.494495  0.112425  1
  Li  Li3  1  0.750000  0.503620  0.890076  1
  Ca  Ca4  1  0.750000  0.366206  0.366448  1
  La  La5  1  0.250000  0.134685  0.863877  1
  La  La6  1  0.750000  0.864873  0.134940  1
  Pr  Pr7  1  0.250000  0.632262  0.632914  1
  Si  Si8  1  0.750000  0.272519  0.072250  1
  Si  Si9  1  0.250000  0.725255  0.927505  1
  Si  Si10  1  0.750000  0.771787  0.430631  1
  Si  Si11  1  0.250000  0.234181  0.568536  1
  Si  Si12  1  0.750000  0.830447  0.820470  1
  Si  Si13  1  0.250000  0.165329  0.176243  1
  Si  Si14  1  0.750000  0.333117  0.678445  1
  Si  Si15  1  0.250000  0.667454  0.324646  1
