# generated using pymatgen
data_Pu2TcB8Rh
_symmetry_space_group_name_H-M   'P 1'
_cell_length_a   3.55366900
_cell_length_b   5.98770554
_cell_length_c   11.60452746
_cell_angle_alpha   89.90894073
_cell_angle_beta   90.00000000
_cell_angle_gamma   90.00000000
_symmetry_Int_Tables_number   1
_chemical_formula_structural   Pu2TcB8Rh
_chemical_formula_sum   'Pu4 Tc2 B16 Rh2'
_cell_volume   246.92457816
_cell_formula_units_Z   2
loop_
 _symmetry_equiv_pos_site_id
 _symmetry_equiv_pos_as_xyz
  1  'x, y, z'
loop_
 _atom_site_type_symbol
 _atom_site_label
 _atom_site_symmetry_multiplicity
 _atom_site_fract_x
 _atom_site_fract_y
 _atom_site_fract_z
 _atom_site_occupancy
  Pu  Pu0  1  0.000000  0.626749  0.350675  1
  Pu  Pu1  1  0.000000  0.373251  0.649325  1
  Pu  Pu2  1  0.000000  0.127880  0.150077  1
  Pu  Pu3  1  0.000000  0.872120  0.849923  1
  Tc  Tc4  1  0.000000  0.136285  0.409200  1
  Tc  Tc5  1  0.000000  0.863715  0.590800  1
  B  B6  1  0.500000  0.786940  0.187046  1
  B  B7  1  0.500000  0.213060  0.812954  1
  B  B8  1  0.500000  0.287306  0.312887  1
  B  B9  1  0.500000  0.712694  0.687113  1
  B  B10  1  0.500000  0.864916  0.031371  1
  B  B11  1  0.500000  0.135084  0.968629  1
  B  B12  1  0.500000  0.365029  0.468322  1
  B  B13  1  0.500000  0.634971  0.531678  1
  B  B14  1  0.500000  0.886002  0.453423  1
  B  B15  1  0.500000  0.113998  0.546577  1
  B  B16  1  0.500000  0.385647  0.047613  1
  B  B17  1  0.500000  0.614353  0.952387  1
  B  B18  1  0.500000  0.973313  0.307900  1
  B  B19  1  0.500000  0.026687  0.692100  1
  B  B20  1  0.500000  0.475943  0.192753  1
  B  B21  1  0.500000  0.524057  0.807247  1
  Rh  Rh22  1  0.000000  0.638780  0.092503  1
  Rh  Rh23  1  0.000000  0.361220  0.907497  1
