# generated using pymatgen
data_Np2VNi11P7
_symmetry_space_group_name_H-M   'P 1'
_cell_length_a   9.24069900
_cell_length_b   9.23227674
_cell_length_c   3.68512300
_cell_angle_alpha   90.00000000
_cell_angle_beta   90.00000000
_cell_angle_gamma   120.19810181
_symmetry_Int_Tables_number   1
_chemical_formula_structural   Np2VNi11P7
_chemical_formula_sum   'Np2 V1 Ni11 P7'
_cell_volume   271.72265608
_cell_formula_units_Z   1
loop_
 _symmetry_equiv_pos_site_id
 _symmetry_equiv_pos_as_xyz
  1  'x, y, z'
loop_
 _atom_site_type_symbol
 _atom_site_label
 _atom_site_symmetry_multiplicity
 _atom_site_fract_x
 _atom_site_fract_y
 _atom_site_fract_z
 _atom_site_occupancy
  Np  Np0  1  0.000087  0.002388  0.000000  1
  Np  Np1  1  0.335826  0.668575  0.500000  1
  V  V2  1  0.876285  0.449449  0.500000  1
  Ni  Ni3  1  0.294188  0.391151  0.000000  1
  Ni  Ni4  1  0.096287  0.707361  0.000000  1
  Ni  Ni5  1  0.538276  0.428921  0.500000  1
  Ni  Ni6  1  0.394370  0.177843  0.000000  1
  Ni  Ni7  1  0.785584  0.611557  0.000000  1
  Ni  Ni8  1  0.821840  0.210490  0.000000  1
  Ni  Ni9  1  0.236172  0.947131  0.500000  1
  Ni  Ni10  1  0.052376  0.286567  0.500000  1
  Ni  Ni11  1  0.714283  0.764649  0.500000  1
  Ni  Ni12  1  0.575840  0.117993  0.500000  1
  Ni  Ni13  1  0.609680  0.899809  0.000000  1
  P  P14  1  0.667058  0.333797  0.000000  1
  P  P15  1  0.075417  0.447596  0.000000  1
  P  P16  1  0.261854  0.218555  0.500000  1
  P  P17  1  0.780834  0.043637  0.500000  1
  P  P18  1  0.957170  0.739032  0.500000  1
  P  P19  1  0.552528  0.627861  0.000000  1
  P  P20  1  0.374044  0.925639  0.000000  1
