# generated using pymatgen
data_Nb8CuRhS16
_symmetry_space_group_name_H-M   'P 1'
_cell_length_a   6.73268000
_cell_length_b   6.73268057
_cell_length_c   12.16372400
_cell_angle_alpha   90.00000000
_cell_angle_beta   90.00000000
_cell_angle_gamma   120.00000701
_symmetry_Int_Tables_number   1
_chemical_formula_structural   Nb8CuRhS16
_chemical_formula_sum   'Nb8 Cu1 Rh1 S16'
_cell_volume   477.49974246
_cell_formula_units_Z   1
loop_
 _symmetry_equiv_pos_site_id
 _symmetry_equiv_pos_as_xyz
  1  'x, y, z'
loop_
 _atom_site_type_symbol
 _atom_site_label
 _atom_site_symmetry_multiplicity
 _atom_site_fract_x
 _atom_site_fract_y
 _atom_site_fract_z
 _atom_site_occupancy
  Nb  Nb0  1  0.000000  0.000000  0.249556  1
  Nb  Nb1  1  0.000000  0.000000  0.750444  1
  Nb  Nb2  1  0.493519  0.987040  0.755399  1
  Nb  Nb3  1  0.012960  0.506481  0.755399  1
  Nb  Nb4  1  0.493519  0.506481  0.755399  1
  Nb  Nb5  1  0.506481  0.012960  0.244601  1
  Nb  Nb6  1  0.987040  0.493519  0.244601  1
  Nb  Nb7  1  0.506481  0.493519  0.244601  1
  Cu  Cu8  1  0.000000  0.000000  0.500000  1
  Rh  Rh9  1  0.000000  0.000000  0.000000  1
  S  S10  1  0.333333  0.666667  0.888785  1
  S  S11  1  0.666667  0.333333  0.111215  1
  S  S12  1  0.666667  0.333333  0.376628  1
  S  S13  1  0.333333  0.666667  0.623372  1
  S  S14  1  0.834350  0.668700  0.881038  1
  S  S15  1  0.331300  0.165650  0.881038  1
  S  S16  1  0.834350  0.165650  0.881038  1
  S  S17  1  0.165650  0.331300  0.118962  1
  S  S18  1  0.668700  0.834350  0.118962  1
  S  S19  1  0.165650  0.834350  0.118962  1
  S  S20  1  0.169413  0.338824  0.374087  1
  S  S21  1  0.661176  0.830587  0.374087  1
  S  S22  1  0.169413  0.830587  0.374087  1
  S  S23  1  0.830587  0.661176  0.625913  1
  S  S24  1  0.338824  0.169413  0.625913  1
  S  S25  1  0.830587  0.169413  0.625913  1
