# generated using pymatgen
data_Hf8Mn4Ir3Os
_symmetry_space_group_name_H-M   'P 1'
_cell_length_a   6.43022100
_cell_length_b   4.55553900
_cell_length_c   9.09903800
_cell_angle_alpha   90.00000000
_cell_angle_beta   90.00033931
_cell_angle_gamma   90.00000000
_symmetry_Int_Tables_number   1
_chemical_formula_structural   Hf8Mn4Ir3Os
_chemical_formula_sum   'Hf8 Mn4 Ir3 Os1'
_cell_volume   266.53923517
_cell_formula_units_Z   1
loop_
 _symmetry_equiv_pos_site_id
 _symmetry_equiv_pos_as_xyz
  1  'x, y, z'
loop_
 _atom_site_type_symbol
 _atom_site_label
 _atom_site_symmetry_multiplicity
 _atom_site_fract_x
 _atom_site_fract_y
 _atom_site_fract_z
 _atom_site_occupancy
  Hf  Hf0  1  0.002327  0.750000  0.125005  1
  Hf  Hf1  1  0.497635  0.750000  0.125003  1
  Hf  Hf2  1  0.000892  0.250001  0.373255  1
  Hf  Hf3  1  0.499100  0.250001  0.373255  1
  Hf  Hf4  1  0.500066  0.750000  0.625007  1
  Hf  Hf5  1  0.999928  0.750000  0.625007  1
  Hf  Hf6  1  0.499130  0.250001  0.876754  1
  Hf  Hf7  1  0.000898  0.250001  0.876750  1
  Mn  Mn8  1  0.750007  0.250001  0.125020  1
  Mn  Mn9  1  0.249997  0.750000  0.376337  1
  Mn  Mn10  1  0.750013  0.250001  0.625031  1
  Mn  Mn11  1  0.250012  0.750000  0.873564  1
  Ir  Ir12  1  0.749991  0.750000  0.375407  1
  Ir  Ir13  1  0.250007  0.250001  0.625003  1
  Ir  Ir14  1  0.750004  0.750000  0.874605  1
  Os  Os15  1  0.249991  0.250001  0.124998  1
