# generated using pymatgen
data_PrLuMgIn5
_symmetry_space_group_name_H-M   'P 1'
_cell_length_a   4.68928800
_cell_length_b   4.68928800
_cell_length_c   9.26020900
_cell_angle_alpha   90.00000000
_cell_angle_beta   90.00000000
_cell_angle_gamma   90.00000000
_symmetry_Int_Tables_number   1
_chemical_formula_structural   PrLuMgIn5
_chemical_formula_sum   'Pr1 Lu1 Mg1 In5'
_cell_volume   203.62664302
_cell_formula_units_Z   1
loop_
 _symmetry_equiv_pos_site_id
 _symmetry_equiv_pos_as_xyz
  1  'x, y, z'
loop_
 _atom_site_type_symbol
 _atom_site_label
 _atom_site_symmetry_multiplicity
 _atom_site_fract_x
 _atom_site_fract_y
 _atom_site_fract_z
 _atom_site_occupancy
  Pr  Pr0  1  0.000000  0.000000  0.000000  1
  Lu  Lu1  1  0.000000  0.000000  0.500000  1
  Mg  Mg2  1  0.500000  0.500000  0.500000  1
  In  In3  1  0.500000  0.500000  0.000000  1
  In  In4  1  0.500000  0.000000  0.261962  1
  In  In5  1  0.500000  0.000000  0.738038  1
  In  In6  1  0.000000  0.500000  0.261962  1
  In  In7  1  0.000000  0.500000  0.738038  1
