# generated using pymatgen
data_RbInPb3O8
_symmetry_space_group_name_H-M   'P 1'
_cell_length_a   3.37270877
_cell_length_b   7.97749192
_cell_length_c   8.14003500
_cell_angle_alpha   87.07620898
_cell_angle_beta   78.06242202
_cell_angle_gamma   77.81063821
_symmetry_Int_Tables_number   1
_chemical_formula_structural   RbInPb3O8
_chemical_formula_sum   'Rb1 In1 Pb3 O8'
_cell_volume   209.44029304
_cell_formula_units_Z   1
loop_
 _symmetry_equiv_pos_site_id
 _symmetry_equiv_pos_as_xyz
  1  'x, y, z'
loop_
 _atom_site_type_symbol
 _atom_site_label
 _atom_site_symmetry_multiplicity
 _atom_site_fract_x
 _atom_site_fract_y
 _atom_site_fract_z
 _atom_site_occupancy
  Rb  Rb0  1  0.045522  0.994159  0.003017  1
  In  In1  1  0.170781  0.512853  0.183904  1
  Pb  Pb2  1  0.862703  0.484410  0.827389  1
  Pb  Pb3  1  0.680223  0.192761  0.482444  1
  Pb  Pb4  1  0.356543  0.813316  0.509670  1
  O  O5  1  0.351905  0.623876  0.709236  1
  O  O6  1  0.686650  0.376811  0.287681  1
  O  O7  1  0.976779  0.710652  0.372129  1
  O  O8  1  0.057541  0.294069  0.626983  1
  O  O9  1  0.370093  0.346355  0.951011  1
  O  O10  1  0.671155  0.645712  0.050225  1
  O  O11  1  0.719549  0.953427  0.643454  1
  O  O12  1  0.315556  0.051597  0.352856  1
