# generated using pymatgen
data_Np(BiO2)6
_symmetry_space_group_name_H-M   'P 1'
_cell_length_a   6.75024248
_cell_length_b   6.75024154
_cell_length_c   6.75024300
_cell_angle_alpha   98.60467267
_cell_angle_beta   98.60467147
_cell_angle_gamma   98.60468923
_symmetry_Int_Tables_number   1
_chemical_formula_structural   Np(BiO2)6
_chemical_formula_sum   'Np1 Bi6 O12'
_cell_volume   296.00429185
_cell_formula_units_Z   1
loop_
 _symmetry_equiv_pos_site_id
 _symmetry_equiv_pos_as_xyz
  1  'x, y, z'
loop_
 _atom_site_type_symbol
 _atom_site_label
 _atom_site_symmetry_multiplicity
 _atom_site_fract_x
 _atom_site_fract_y
 _atom_site_fract_z
 _atom_site_occupancy
  Np  Np0  1  0.000000  0.000000  0.000000  1
  Bi  Bi1  1  0.306506  0.598314  0.146023  1
  Bi  Bi2  1  0.598314  0.146023  0.306506  1
  Bi  Bi3  1  0.401686  0.853977  0.693494  1
  Bi  Bi4  1  0.693494  0.401686  0.853977  1
  Bi  Bi5  1  0.853977  0.693494  0.401686  1
  Bi  Bi6  1  0.146023  0.306506  0.598314  1
  O  O7  1  0.433894  0.185098  0.566621  1
  O  O8  1  0.915818  0.697834  0.027697  1
  O  O9  1  0.185098  0.566621  0.433894  1
  O  O10  1  0.814902  0.433379  0.566106  1
  O  O11  1  0.566106  0.814902  0.433379  1
  O  O12  1  0.566621  0.433894  0.185098  1
  O  O13  1  0.433379  0.566106  0.814902  1
  O  O14  1  0.972303  0.084182  0.302166  1
  O  O15  1  0.027697  0.915818  0.697834  1
  O  O16  1  0.697834  0.027697  0.915818  1
  O  O17  1  0.084182  0.302166  0.972303  1
  O  O18  1  0.302166  0.972303  0.084182  1
