# generated using pymatgen
data_Lu4B16MoW3
_symmetry_space_group_name_H-M   'P 1'
_cell_length_a   3.58972000
_cell_length_b   5.98745902
_cell_length_c   11.56592821
_cell_angle_alpha   90.01542462
_cell_angle_beta   90.00000000
_cell_angle_gamma   90.00000000
_symmetry_Int_Tables_number   1
_chemical_formula_structural   Lu4B16MoW3
_chemical_formula_sum   'Lu4 B16 Mo1 W3'
_cell_volume   248.58997178
_cell_formula_units_Z   1
loop_
 _symmetry_equiv_pos_site_id
 _symmetry_equiv_pos_as_xyz
  1  'x, y, z'
loop_
 _atom_site_type_symbol
 _atom_site_label
 _atom_site_symmetry_multiplicity
 _atom_site_fract_x
 _atom_site_fract_y
 _atom_site_fract_z
 _atom_site_occupancy
  Lu  Lu0  1  0.000000  0.627528  0.351146  1
  Lu  Lu1  1  0.000000  0.373084  0.649161  1
  Lu  Lu2  1  0.000000  0.127627  0.149147  1
  Lu  Lu3  1  0.000000  0.872366  0.850210  1
  B  B4  1  0.500000  0.789176  0.187017  1
  B  B5  1  0.500000  0.210618  0.812556  1
  B  B6  1  0.500000  0.289230  0.313213  1
  B  B7  1  0.500000  0.711614  0.686644  1
  B  B8  1  0.500000  0.868182  0.031652  1
  B  B9  1  0.500000  0.131998  0.967754  1
  B  B10  1  0.500000  0.368443  0.468811  1
  B  B11  1  0.500000  0.632323  0.532351  1
  B  B12  1  0.500000  0.884560  0.452248  1
  B  B13  1  0.500000  0.114560  0.548717  1
  B  B14  1  0.500000  0.384974  0.047907  1
  B  B15  1  0.500000  0.615159  0.951629  1
  B  B16  1  0.500000  0.976886  0.305577  1
  B  B17  1  0.500000  0.021968  0.694566  1
  B  B18  1  0.500000  0.477186  0.194496  1
  B  B19  1  0.500000  0.522844  0.805104  1
  Mo  Mo20  1  0.000000  0.868447  0.584824  1
  W  W21  1  0.000000  0.632031  0.085088  1
  W  W22  1  0.000000  0.367963  0.914618  1
  W  W23  1  0.000000  0.131232  0.415564  1
