# generated using pymatgen
data_Sc2CdPd4Pt
_symmetry_space_group_name_H-M   'P 1'
_cell_length_a   5.59364200
_cell_length_b   5.59364208
_cell_length_c   4.15621800
_cell_angle_alpha   90.00000000
_cell_angle_beta   90.00000000
_cell_angle_gamma   96.07407027
_symmetry_Int_Tables_number   1
_chemical_formula_structural   Sc2CdPd4Pt
_chemical_formula_sum   'Sc2 Cd1 Pd4 Pt1'
_cell_volume   129.31313250
_cell_formula_units_Z   1
loop_
 _symmetry_equiv_pos_site_id
 _symmetry_equiv_pos_as_xyz
  1  'x, y, z'
loop_
 _atom_site_type_symbol
 _atom_site_label
 _atom_site_symmetry_multiplicity
 _atom_site_fract_x
 _atom_site_fract_y
 _atom_site_fract_z
 _atom_site_occupancy
  Sc  Sc0  1  0.275459  0.726185  0.500000  1
  Sc  Sc1  1  0.726185  0.275459  0.500000  1
  Cd  Cd2  1  0.997722  0.997722  0.000000  1
  Pd  Pd3  1  0.500541  0.500541  0.000000  1
  Pd  Pd4  1  0.499043  0.000753  0.000000  1
  Pd  Pd5  1  0.000753  0.499043  0.000000  1
  Pd  Pd6  1  0.761640  0.761640  0.500000  1
  Pt  Pt7  1  0.238658  0.238658  0.500000  1
