# generated using pymatgen
data_SrZnSi2PbO7
_symmetry_space_group_name_H-M   'P 1'
_cell_length_a   8.12558800
_cell_length_b   5.28984219
_cell_length_c   8.11462810
_cell_angle_alpha   89.76979812
_cell_angle_beta   90.00000000
_cell_angle_gamma   90.00000000
_symmetry_Int_Tables_number   1
_chemical_formula_structural   SrZnSi2PbO7
_chemical_formula_sum   'Sr2 Zn2 Si4 Pb2 O14'
_cell_volume   348.78887868
_cell_formula_units_Z   2
loop_
 _symmetry_equiv_pos_site_id
 _symmetry_equiv_pos_as_xyz
  1  'x, y, z'
loop_
 _atom_site_type_symbol
 _atom_site_label
 _atom_site_symmetry_multiplicity
 _atom_site_fract_x
 _atom_site_fract_y
 _atom_site_fract_z
 _atom_site_occupancy
  Sr  Sr0  1  0.159801  0.491329  0.082144  1
  Sr  Sr1  1  0.659801  0.508671  0.917856  1
  Zn  Zn2  1  0.500221  0.999615  0.247163  1
  Zn  Zn3  1  0.000221  0.000385  0.752837  1
  Si  Si4  1  0.641445  0.050023  0.614481  1
  Si  Si5  1  0.141445  0.949977  0.385519  1
  Si  Si6  1  0.362269  0.050554  0.892883  1
  Si  Si7  1  0.862269  0.949446  0.107117  1
  Pb  Pb8  1  0.815915  0.496693  0.422820  1
  Pb  Pb9  1  0.315915  0.503307  0.577180  1
  O  O10  1  0.651905  0.743571  0.613374  1
  O  O11  1  0.151905  0.256429  0.386626  1
  O  O12  1  0.359185  0.745997  0.904793  1
  O  O13  1  0.859185  0.254003  0.095207  1
  O  O14  1  0.582638  0.189726  0.441590  1
  O  O15  1  0.082638  0.810274  0.558410  1
  O  O16  1  0.418610  0.203957  0.060799  1
  O  O17  1  0.918610  0.796043  0.939201  1
  O  O18  1  0.691925  0.806191  0.168395  1
  O  O19  1  0.191925  0.193809  0.831605  1
  O  O20  1  0.310697  0.798470  0.330548  1
  O  O21  1  0.810697  0.201530  0.669452  1
  O  O22  1  0.005392  0.855790  0.244415  1
  O  O23  1  0.505392  0.144210  0.755585  1
