# generated using pymatgen
data_Tb11DyCo5Sn
_symmetry_space_group_name_H-M   'P 1'
_cell_length_a   8.33321777
_cell_length_b   8.33321728
_cell_length_c   8.33423320
_cell_angle_alpha   107.15381128
_cell_angle_beta   110.53455797
_cell_angle_gamma   110.74511282
_symmetry_Int_Tables_number   1
_chemical_formula_structural   Tb11DyCo5Sn
_chemical_formula_sum   'Tb11 Dy1 Co5 Sn1'
_cell_volume   445.00361390
_cell_formula_units_Z   1
loop_
 _symmetry_equiv_pos_site_id
 _symmetry_equiv_pos_as_xyz
  1  'x, y, z'
loop_
 _atom_site_type_symbol
 _atom_site_label
 _atom_site_symmetry_multiplicity
 _atom_site_fract_x
 _atom_site_fract_y
 _atom_site_fract_z
 _atom_site_occupancy
  Tb  Tb0  1  0.477077  0.291889  0.184961  1
  Tb  Tb1  1  0.106679  0.291624  0.815248  1
  Tb  Tb2  1  0.893073  0.707885  0.184961  1
  Tb  Tb3  1  0.523623  0.708568  0.815248  1
  Tb  Tb4  1  0.305749  0.619908  0.313820  1
  Tb  Tb5  1  0.306367  0.992013  0.686081  1
  Tb  Tb6  1  0.694069  0.379714  0.686081  1
  Tb  Tb7  1  0.693912  0.008071  0.313820  1
  Tb  Tb8  1  0.192675  0.208048  0.400722  1
  Tb  Tb9  1  0.806915  0.792067  0.598982  1
  Tb  Tb10  1  0.192970  0.791922  0.984891  1
  Dy  Dy11  1  0.806845  0.208041  0.014887  1
  Co  Co12  1  0.499934  0.611935  0.111869  1
  Co  Co13  1  0.500368  0.387996  0.888364  1
  Co  Co14  1  0.378662  0.999898  0.378560  1
  Co  Co15  1  0.621809  0.000209  0.622018  1
  Co  Co16  1  0.999467  0.000375  0.999843  1
  Sn  Sn17  1  0.999806  0.499838  0.499644  1
