# generated using pymatgen
data_Nd4Ni2Sn5
_symmetry_space_group_name_H-M   'P 1'
_cell_length_a   7.53029748
_cell_length_b   7.53029665
_cell_length_c   10.99322737
_cell_angle_alpha   52.80236627
_cell_angle_beta   52.80237046
_cell_angle_gamma   35.28929627
_symmetry_Int_Tables_number   1
_chemical_formula_structural   Nd4Ni2Sn5
_chemical_formula_sum   'Nd4 Ni2 Sn5'
_cell_volume   278.37631285
_cell_formula_units_Z   1
loop_
 _symmetry_equiv_pos_site_id
 _symmetry_equiv_pos_as_xyz
  1  'x, y, z'
loop_
 _atom_site_type_symbol
 _atom_site_label
 _atom_site_symmetry_multiplicity
 _atom_site_fract_x
 _atom_site_fract_y
 _atom_site_fract_z
 _atom_site_occupancy
  Nd  Nd0  1  0.938444  0.938444  0.719065  1
  Nd  Nd1  1  0.061556  0.061556  0.280935  1
  Nd  Nd2  1  0.333521  0.333521  0.285010  1
  Nd  Nd3  1  0.666479  0.666479  0.714990  1
  Ni  Ni4  1  0.770666  0.770666  0.137875  1
  Ni  Ni5  1  0.229334  0.229334  0.862125  1
  Sn  Sn6  1  0.651822  0.651822  0.023106  1
  Sn  Sn7  1  0.348178  0.348178  0.976894  1
  Sn  Sn8  1  0.627888  0.627888  0.444583  1
  Sn  Sn9  1  0.372112  0.372112  0.555417  1
  Sn  Sn10  1  0.000000  0.000000  0.000000  1
