# generated using pymatgen
data_Hf3(Cu2Ni)2
_symmetry_space_group_name_H-M   'P 1'
_cell_length_a   6.76114300
_cell_length_b   6.76114173
_cell_length_c   3.37724300
_cell_angle_alpha   90.00000000
_cell_angle_beta   90.00000000
_cell_angle_gamma   119.99999152
_symmetry_Int_Tables_number   1
_chemical_formula_structural   Hf3(Cu2Ni)2
_chemical_formula_sum   'Hf3 Cu4 Ni2'
_cell_volume   133.70053362
_cell_formula_units_Z   1
loop_
 _symmetry_equiv_pos_site_id
 _symmetry_equiv_pos_as_xyz
  1  'x, y, z'
loop_
 _atom_site_type_symbol
 _atom_site_label
 _atom_site_symmetry_multiplicity
 _atom_site_fract_x
 _atom_site_fract_y
 _atom_site_fract_z
 _atom_site_occupancy
  Hf  Hf0  1  0.000000  0.590845  0.500000  1
  Hf  Hf1  1  0.409155  0.409155  0.500000  1
  Hf  Hf2  1  0.590845  0.000000  0.500000  1
  Cu  Cu3  1  0.000000  0.000000  0.500000  1
  Cu  Cu4  1  0.259620  0.000000  0.000000  1
  Cu  Cu5  1  0.740380  0.740380  0.000000  1
  Cu  Cu6  1  0.000000  0.259620  0.000000  1
  Ni  Ni7  1  0.666667  0.333333  0.000000  1
  Ni  Ni8  1  0.333333  0.666667  0.000000  1
