# generated using pymatgen
data_VTe4Rh
_symmetry_space_group_name_H-M   'P 1'
_cell_length_a   3.73473600
_cell_length_b   12.70110700
_cell_length_c   13.16970200
_cell_angle_alpha   90.00000000
_cell_angle_beta   90.00000000
_cell_angle_gamma   90.00000000
_symmetry_Int_Tables_number   1
_chemical_formula_structural   VTe4Rh
_chemical_formula_sum   'V4 Te16 Rh4'
_cell_volume   624.70852234
_cell_formula_units_Z   4
loop_
 _symmetry_equiv_pos_site_id
 _symmetry_equiv_pos_as_xyz
  1  'x, y, z'
loop_
 _atom_site_type_symbol
 _atom_site_label
 _atom_site_symmetry_multiplicity
 _atom_site_fract_x
 _atom_site_fract_y
 _atom_site_fract_z
 _atom_site_occupancy
  V  V0  1  0.500000  0.949864  0.504196  1
  V  V1  1  0.000000  0.050136  0.004196  1
  V  V2  1  0.500000  0.733209  0.991077  1
  V  V3  1  0.000000  0.266791  0.491077  1
  Te  Te4  1  0.500000  0.931891  0.899085  1
  Te  Te5  1  0.000000  0.068109  0.399085  1
  Te  Te6  1  0.500000  0.819217  0.356800  1
  Te  Te7  1  0.000000  0.180783  0.856800  1
  Te  Te8  1  0.500000  0.651307  0.595111  1
  Te  Te9  1  0.000000  0.348693  0.095111  1
  Te  Te10  1  0.500000  0.598887  0.135479  1
  Te  Te11  1  0.000000  0.401113  0.635479  1
  Te  Te12  1  0.500000  0.433061  0.896365  1
  Te  Te13  1  0.000000  0.566939  0.396365  1
  Te  Te14  1  0.500000  0.317536  0.353037  1
  Te  Te15  1  0.000000  0.682464  0.853037  1
  Te  Te16  1  0.500000  0.148650  0.598722  1
  Te  Te17  1  0.000000  0.851350  0.098722  1
  Te  Te18  1  0.500000  0.102697  0.142197  1
  Te  Te19  1  0.000000  0.897303  0.642197  1
  Rh  Rh20  1  0.500000  0.463256  0.498723  1
  Rh  Rh21  1  0.000000  0.536744  0.998723  1
  Rh  Rh22  1  0.500000  0.245058  0.993208  1
  Rh  Rh23  1  0.000000  0.754942  0.493208  1
