# generated using pymatgen
data_Hf3ReMo2P3
_symmetry_space_group_name_H-M   'P 1'
_cell_length_a   6.87958700
_cell_length_b   6.90505701
_cell_length_c   3.40968600
_cell_angle_alpha   90.00000000
_cell_angle_beta   90.00000000
_cell_angle_gamma   119.87806162
_symmetry_Int_Tables_number   1
_chemical_formula_structural   Hf3ReMo2P3
_chemical_formula_sum   'Hf3 Re1 Mo2 P3'
_cell_volume   140.44522401
_cell_formula_units_Z   1
loop_
 _symmetry_equiv_pos_site_id
 _symmetry_equiv_pos_as_xyz
  1  'x, y, z'
loop_
 _atom_site_type_symbol
 _atom_site_label
 _atom_site_symmetry_multiplicity
 _atom_site_fract_x
 _atom_site_fract_y
 _atom_site_fract_z
 _atom_site_occupancy
  Hf  Hf0  1  0.998837  0.595255  0.500000  1
  Hf  Hf1  1  0.403582  0.404745  0.500000  1
  Hf  Hf2  1  0.596134  0.000000  0.500000  1
  Re  Re3  1  0.253670  0.000000  0.000000  1
  Mo  Mo4  1  0.748524  0.747230  0.000000  1
  Mo  Mo5  1  0.001295  0.252770  0.000000  1
  P  P6  1  0.666145  0.332885  0.000000  1
  P  P7  1  0.333259  0.667115  0.000000  1
  P  P8  1  0.998554  0.000000  0.500000  1
