# generated using pymatgen
data_DyYTm2(WO6)2
_symmetry_space_group_name_H-M   'P 1'
_cell_length_a   5.38463800
_cell_length_b   7.67935940
_cell_length_c   11.39482463
_cell_angle_alpha   75.54063107
_cell_angle_beta   90.00000000
_cell_angle_gamma   90.00000000
_symmetry_Int_Tables_number   1
_chemical_formula_structural   DyYTm2(WO6)2
_chemical_formula_sum   'Dy2 Y2 Tm4 W4 O24'
_cell_volume   456.25777082
_cell_formula_units_Z   2
loop_
 _symmetry_equiv_pos_site_id
 _symmetry_equiv_pos_as_xyz
  1  'x, y, z'
loop_
 _atom_site_type_symbol
 _atom_site_label
 _atom_site_symmetry_multiplicity
 _atom_site_fract_x
 _atom_site_fract_y
 _atom_site_fract_z
 _atom_site_occupancy
  Dy  Dy0  1  0.741318  0.000000  0.750000  1
  Dy  Dy1  1  0.258682  0.000000  0.250000  1
  Y  Y2  1  0.683880  0.500000  0.750000  1
  Y  Y3  1  0.316120  0.500000  0.250000  1
  Tm  Tm4  1  0.184037  0.794111  0.578612  1
  Tm  Tm5  1  0.815963  0.794111  0.078612  1
  Tm  Tm6  1  0.184037  0.205889  0.921388  1
  Tm  Tm7  1  0.815963  0.205889  0.421388  1
  W  W8  1  0.255259  0.723803  0.885959  1
  W  W9  1  0.744741  0.723803  0.385959  1
  W  W10  1  0.255259  0.276197  0.614041  1
  W  W11  1  0.744741  0.276197  0.114041  1
  O  O12  1  0.045656  0.940961  0.896950  1
  O  O13  1  0.536202  0.844714  0.932544  1
  O  O14  1  0.954344  0.940961  0.396950  1
  O  O15  1  0.456028  0.791232  0.726344  1
  O  O16  1  0.463798  0.844714  0.432544  1
  O  O17  1  0.981457  0.712272  0.770536  1
  O  O18  1  0.543972  0.791232  0.226344  1
  O  O19  1  0.853482  0.635327  0.549156  1
  O  O20  1  0.358209  0.488728  0.886734  1
  O  O21  1  0.018543  0.712272  0.270536  1
  O  O22  1  0.358209  0.511272  0.613266  1
  O  O23  1  0.853482  0.364673  0.950844  1
  O  O24  1  0.146518  0.635327  0.049156  1
  O  O25  1  0.641791  0.488728  0.386734  1
  O  O26  1  0.981457  0.287728  0.729464  1
  O  O27  1  0.641791  0.511272  0.113266  1
  O  O28  1  0.146518  0.364673  0.450844  1
  O  O29  1  0.456028  0.208768  0.773656  1
  O  O30  1  0.018543  0.287728  0.229464  1
  O  O31  1  0.536202  0.155286  0.567456  1
  O  O32  1  0.543972  0.208768  0.273656  1
  O  O33  1  0.045656  0.059039  0.603050  1
  O  O34  1  0.463798  0.155286  0.067456  1
  O  O35  1  0.954344  0.059039  0.103050  1
