# generated using pymatgen
data_Gd12In2CuTc2
_symmetry_space_group_name_H-M   'P 1'
_cell_length_a   8.45893926
_cell_length_b   8.45894058
_cell_length_c   8.45894000
_cell_angle_alpha   109.08027652
_cell_angle_beta   109.08027244
_cell_angle_gamma   110.25596915
_symmetry_Int_Tables_number   1
_chemical_formula_structural   Gd12In2CuTc2
_chemical_formula_sum   'Gd12 In2 Cu1 Tc2'
_cell_volume   465.87001548
_cell_formula_units_Z   1
loop_
 _symmetry_equiv_pos_site_id
 _symmetry_equiv_pos_as_xyz
  1  'x, y, z'
loop_
 _atom_site_type_symbol
 _atom_site_label
 _atom_site_symmetry_multiplicity
 _atom_site_fract_x
 _atom_site_fract_y
 _atom_site_fract_z
 _atom_site_occupancy
  Gd  Gd0  1  0.305535  0.305535  0.617561  1
  Gd  Gd1  1  0.687974  0.687974  0.382439  1
  Gd  Gd2  1  0.687974  0.305535  0.000000  1
  Gd  Gd3  1  0.305535  0.687974  0.000000  1
  Gd  Gd4  1  0.190398  0.432543  0.242145  1
  Gd  Gd5  1  0.812329  0.567903  0.755575  1
  Gd  Gd6  1  0.190398  0.948252  0.757855  1
  Gd  Gd7  1  0.948252  0.190398  0.757855  1
  Gd  Gd8  1  0.812329  0.056755  0.244425  1
  Gd  Gd9  1  0.056755  0.812329  0.244425  1
  Gd  Gd10  1  0.432543  0.190398  0.242145  1
  Gd  Gd11  1  0.567903  0.812329  0.755575  1
  In  In12  1  0.000401  0.500401  0.500000  1
  In  In13  1  0.500401  0.000401  0.500000  1
  Cu  Cu14  1  0.641680  0.641680  0.000000  1
  Tc  Tc15  1  0.361362  0.361362  0.000000  1
  Tc  Tc16  1  0.998228  0.998228  0.000000  1
