# generated using pymatgen
data_Tb2UAs3
_symmetry_space_group_name_H-M   'P 1'
_cell_length_a   7.15919177
_cell_length_b   7.15919134
_cell_length_c   7.15919097
_cell_angle_alpha   146.65565508
_cell_angle_beta   132.03564916
_cell_angle_gamma   59.67030749
_symmetry_Int_Tables_number   1
_chemical_formula_structural   Tb2UAs3
_chemical_formula_sum   'Tb2 U1 As3'
_cell_volume   148.46862277
_cell_formula_units_Z   1
loop_
 _symmetry_equiv_pos_site_id
 _symmetry_equiv_pos_as_xyz
  1  'x, y, z'
loop_
 _atom_site_type_symbol
 _atom_site_label
 _atom_site_symmetry_multiplicity
 _atom_site_fract_x
 _atom_site_fract_y
 _atom_site_fract_z
 _atom_site_occupancy
  Tb  Tb0  1  0.666268  0.666268  0.000000  1
  Tb  Tb1  1  0.333732  0.333732  0.000000  1
  U  U2  1  0.000000  0.000000  0.000000  1
  As  As3  1  0.500000  0.000000  0.500000  1
  As  As4  1  0.163762  0.663762  0.500000  1
  As  As5  1  0.836238  0.336238  0.500000  1
