# generated using pymatgen
data_Tm4V3PtF28
_symmetry_space_group_name_H-M   'P 1'
_cell_length_a   5.44059318
_cell_length_b   8.74664441
_cell_length_c   11.71844825
_cell_angle_alpha   63.02951758
_cell_angle_beta   90.11013985
_cell_angle_gamma   90.05943590
_symmetry_Int_Tables_number   1
_chemical_formula_structural   Tm4V3PtF28
_chemical_formula_sum   'Tm4 V3 Pt1 F28'
_cell_volume   496.99478613
_cell_formula_units_Z   1
loop_
 _symmetry_equiv_pos_site_id
 _symmetry_equiv_pos_as_xyz
  1  'x, y, z'
loop_
 _atom_site_type_symbol
 _atom_site_label
 _atom_site_symmetry_multiplicity
 _atom_site_fract_x
 _atom_site_fract_y
 _atom_site_fract_z
 _atom_site_occupancy
  Tm  Tm0  1  0.258894  0.813986  0.263173  1
  Tm  Tm1  1  0.742151  0.191090  0.730917  1
  Tm  Tm2  1  0.758721  0.188284  0.233017  1
  Tm  Tm3  1  0.239621  0.813827  0.769645  1
  V  V4  1  0.755542  0.725930  0.044192  1
  V  V5  1  0.243731  0.274446  0.955425  1
  V  V6  1  0.257215  0.275063  0.454077  1
  Pt  Pt7  1  0.741304  0.728014  0.543729  1
  F  F8  1  0.936697  0.700193  0.413638  1
  F  F9  1  0.056193  0.291141  0.579706  1
  F  F10  1  0.445999  0.291251  0.080749  1
  F  F11  1  0.551753  0.708198  0.919770  1
  F  F12  1  0.475580  0.731542  0.138456  1
  F  F13  1  0.523759  0.265331  0.863027  1
  F  F14  1  0.978366  0.273973  0.357091  1
  F  F15  1  0.041598  0.727564  0.637734  1
  F  F16  1  0.958508  0.746186  0.170115  1
  F  F17  1  0.043700  0.250678  0.830127  1
  F  F18  1  0.457236  0.257061  0.326615  1
  F  F19  1  0.548449  0.745837  0.679148  1
  F  F20  1  0.770666  0.491135  0.135672  1
  F  F21  1  0.228652  0.509537  0.863862  1
  F  F22  1  0.273534  0.511379  0.362518  1
  F  F23  1  0.727912  0.477398  0.644578  1
  F  F24  1  0.953201  0.279348  0.046537  1
  F  F25  1  0.047008  0.720145  0.953753  1
  F  F26  1  0.434875  0.719206  0.456934  1
  F  F27  1  0.548088  0.277990  0.545484  1
  F  F28  1  0.741877  0.979198  0.449770  1
  F  F29  1  0.258648  0.040646  0.547220  1
  F  F30  1  0.240563  0.038907  0.048522  1
  F  F31  1  0.759440  0.959411  0.952482  1
  F  F32  1  0.584266  0.969503  0.231617  1
  F  F33  1  0.417266  0.028850  0.770528  1
  F  F34  1  0.082418  0.026298  0.269705  1
  F  F35  1  0.916574  0.971454  0.730462  1
