# generated using pymatgen
data_Tb8Nb7Si16W5
_symmetry_space_group_name_H-M   'P 1'
_cell_length_a   6.99222958
_cell_length_b   6.99528972
_cell_length_c   12.99280764
_cell_angle_alpha   89.89057022
_cell_angle_beta   90.07802126
_cell_angle_gamma   89.98202589
_symmetry_Int_Tables_number   1
_chemical_formula_structural   Tb8Nb7Si16W5
_chemical_formula_sum   'Tb8 Nb7 Si16 W5'
_cell_volume   635.51115459
_cell_formula_units_Z   1
loop_
 _symmetry_equiv_pos_site_id
 _symmetry_equiv_pos_as_xyz
  1  'x, y, z'
loop_
 _atom_site_type_symbol
 _atom_site_label
 _atom_site_symmetry_multiplicity
 _atom_site_fract_x
 _atom_site_fract_y
 _atom_site_fract_z
 _atom_site_occupancy
  Tb  Tb0  1  0.340815  0.001279  0.467739  1
  Tb  Tb1  1  0.498667  0.840494  0.718622  1
  Tb  Tb2  1  0.500683  0.159353  0.217286  1
  Tb  Tb3  1  0.840436  0.498330  0.282186  1
  Tb  Tb4  1  0.159442  0.500904  0.782249  1
  Tb  Tb5  1  0.659786  0.998918  0.967740  1
  Tb  Tb6  1  0.001952  0.340001  0.532942  1
  Tb  Tb7  1  0.998276  0.660066  0.031128  1
  Nb  Nb8  1  0.491950  0.655305  0.124597  1
  Nb  Nb9  1  0.505630  0.344253  0.626607  1
  Nb  Nb10  1  0.654187  0.493597  0.874308  1
  Nb  Nb11  1  0.345943  0.506339  0.374481  1
  Nb  Nb12  1  0.845879  0.993495  0.375713  1
  Nb  Nb13  1  0.005684  0.154235  0.124106  1
  Nb  Nb14  1  0.994833  0.845413  0.624886  1
  Si  Si15  1  0.200462  0.130808  0.685330  1
  Si  Si16  1  0.368072  0.705185  0.932253  1
  Si  Si17  1  0.632061  0.298699  0.433922  1
  Si  Si18  1  0.700890  0.368885  0.066225  1
  Si  Si19  1  0.299558  0.632057  0.566655  1
  Si  Si20  1  0.798753  0.867336  0.183352  1
  Si  Si21  1  0.132196  0.201104  0.316309  1
  Si  Si22  1  0.871425  0.801719  0.817327  1
  Si  Si23  1  0.291592  0.957026  0.063084  1
  Si  Si24  1  0.544471  0.793378  0.314674  1
  Si  Si25  1  0.452289  0.205994  0.815929  1
  Si  Si26  1  0.792875  0.544633  0.684962  1
  Si  Si27  1  0.206107  0.455354  0.184794  1
  Si  Si28  1  0.707179  0.044327  0.565261  1
  Si  Si29  1  0.958133  0.289917  0.934905  1
  Si  Si30  1  0.044878  0.706688  0.435189  1
  W  W31  1  0.328084  0.329294  0.999444  1
  W  W32  1  0.170362  0.829180  0.249558  1
  W  W33  1  0.829975  0.169584  0.750635  1
  W  W34  1  0.671023  0.670857  0.500025  1
  W  W35  1  0.155456  0.005994  0.875573  1
