# generated using pymatgen
data_HoTm15
_symmetry_space_group_name_H-M   'P 1'
_cell_length_a   7.14968300
_cell_length_b   7.14968266
_cell_length_c   11.01620100
_cell_angle_alpha   90.00000000
_cell_angle_beta   90.00000000
_cell_angle_gamma   119.99999696
_symmetry_Int_Tables_number   1
_chemical_formula_structural   HoTm15
_chemical_formula_sum   'Ho1 Tm15'
_cell_volume   487.68123920
_cell_formula_units_Z   1
loop_
 _symmetry_equiv_pos_site_id
 _symmetry_equiv_pos_as_xyz
  1  'x, y, z'
loop_
 _atom_site_type_symbol
 _atom_site_label
 _atom_site_symmetry_multiplicity
 _atom_site_fract_x
 _atom_site_fract_y
 _atom_site_fract_z
 _atom_site_occupancy
  Ho  Ho0  1  0.000000  0.000000  0.500000  1
  Tm  Tm1  1  0.000000  0.000000  0.000000  1
  Tm  Tm2  1  0.001891  0.500946  0.500000  1
  Tm  Tm3  1  0.999335  0.499668  0.000000  1
  Tm  Tm4  1  0.499054  0.500946  0.500000  1
  Tm  Tm5  1  0.500332  0.499668  0.000000  1
  Tm  Tm6  1  0.499054  0.998109  0.500000  1
  Tm  Tm7  1  0.500332  0.000665  0.000000  1
  Tm  Tm8  1  0.166978  0.333954  0.248853  1
  Tm  Tm9  1  0.166978  0.333954  0.751147  1
  Tm  Tm10  1  0.166978  0.833022  0.248853  1
  Tm  Tm11  1  0.166978  0.833022  0.751147  1
  Tm  Tm12  1  0.666046  0.833022  0.248853  1
  Tm  Tm13  1  0.666046  0.833022  0.751147  1
  Tm  Tm14  1  0.666667  0.333333  0.251319  1
  Tm  Tm15  1  0.666667  0.333333  0.748681  1
