# generated using pymatgen
data_SnCl20
_symmetry_space_group_name_H-M   'P 1'
_cell_length_a   15.55346826
_cell_length_b   13.90069604
_cell_length_c   15.34774939
_cell_angle_alpha   106.46765751
_cell_angle_beta   59.55560351
_cell_angle_gamma   124.01771798
_symmetry_Int_Tables_number   1
_chemical_formula_structural   SnCl20
_chemical_formula_sum   'Sn2 Cl40'
_cell_volume   2371.15785127
_cell_formula_units_Z   2
loop_
 _symmetry_equiv_pos_site_id
 _symmetry_equiv_pos_as_xyz
  1  'x, y, z'
loop_
 _atom_site_type_symbol
 _atom_site_label
 _atom_site_symmetry_multiplicity
 _atom_site_fract_x
 _atom_site_fract_y
 _atom_site_fract_z
 _atom_site_occupancy
  Sn  Sn0  1  0.000679  0.000000  0.000000  1
  Sn  Sn1  1  0.250678  0.500000  0.500001  1
  Cl  Cl2  1  0.832262  0.835708  0.000798  1
  Cl  Cl3  1  0.015618  0.001510  0.143271  1
  Cl  Cl4  1  0.408888  0.501510  0.356730  1
  Cl  Cl5  1  0.083059  0.335708  0.499203  1
  Cl  Cl6  1  0.246553  0.664292  0.500798  1
  Cl  Cl7  1  0.264109  0.498490  0.643270  1
  Cl  Cl8  1  0.157379  0.998490  0.856730  1
  Cl  Cl9  1  0.997352  0.164292  0.999202  1
  Cl  Cl10  1  0.475856  0.216209  0.048104  1
  Cl  Cl11  1  0.315452  0.298457  0.010766  1
  Cl  Cl12  1  0.605948  0.267229  0.078614  1
  Cl  Cl13  1  0.355387  0.631503  0.170561  1
  Cl  Cl14  1  0.903346  0.660064  0.130253  1
  Cl  Cl15  1  0.505367  0.960363  0.166882  1
  Cl  Cl16  1  0.203171  0.486327  0.224090  1
  Cl  Cl17  1  0.816645  0.421988  0.275835  1
  Cl  Cl18  1  0.342480  0.921988  0.224165  1
  Cl  Cl19  1  0.677260  0.986327  0.275910  1
  Cl  Cl20  1  0.922251  0.460364  0.333118  1
  Cl  Cl21  1  0.283598  0.160063  0.369747  1
  Cl  Cl22  1  0.775949  0.131504  0.329439  1
  Cl  Cl23  1  0.934563  0.767230  0.421386  1
  Cl  Cl24  1  0.576218  0.798456  0.489235  1
  Cl  Cl25  1  0.773959  0.716209  0.451896  1
  Cl  Cl26  1  0.509647  0.283791  0.548104  1
  Cl  Cl27  1  0.266996  0.201543  0.510765  1
  Cl  Cl28  1  0.588719  0.232770  0.578614  1
  Cl  Cl29  1  0.973885  0.868497  0.670561  1
  Cl  Cl30  1  0.493281  0.839936  0.630252  1
  Cl  Cl31  1  0.795005  0.539637  0.666882  1
  Cl  Cl32  1  0.966845  0.013673  0.724089  1
  Cl  Cl33  1  0.644656  0.078011  0.775836  1
  Cl  Cl34  1  0.670492  0.578012  0.724165  1
  Cl  Cl35  1  0.940934  0.513673  0.775910  1
  Cl  Cl36  1  0.711886  0.039637  0.833118  1
  Cl  Cl37  1  0.373534  0.339937  0.869747  1
  Cl  Cl38  1  0.894445  0.368496  0.829439  1
  Cl  Cl39  1  0.417333  0.732770  0.921386  1
  Cl  Cl40  1  0.027762  0.701543  0.989235  1
  Cl  Cl41  1  0.307749  0.783791  0.951896  1
