# generated using pymatgen
data_Gd8Tm2OsRu3
_symmetry_space_group_name_H-M   'P 1'
_cell_length_a   6.46357128
_cell_length_b   7.22528736
_cell_length_c   8.46748200
_cell_angle_alpha   96.51595667
_cell_angle_beta   112.20031729
_cell_angle_gamma   89.99644285
_symmetry_Int_Tables_number   1
_chemical_formula_structural   Gd8Tm2OsRu3
_chemical_formula_sum   'Gd8 Tm2 Os1 Ru3'
_cell_volume   363.36726418
_cell_formula_units_Z   1
loop_
 _symmetry_equiv_pos_site_id
 _symmetry_equiv_pos_as_xyz
  1  'x, y, z'
loop_
 _atom_site_type_symbol
 _atom_site_label
 _atom_site_symmetry_multiplicity
 _atom_site_fract_x
 _atom_site_fract_y
 _atom_site_fract_z
 _atom_site_occupancy
  Gd  Gd0  1  0.973166  0.919141  0.183896  1
  Gd  Gd1  1  0.789962  0.582422  0.819242  1
  Gd  Gd2  1  0.027715  0.082461  0.816933  1
  Gd  Gd3  1  0.210662  0.417159  0.183302  1
  Gd  Gd4  1  0.648711  0.815103  0.435846  1
  Gd  Gd5  1  0.210014  0.684551  0.562776  1
  Gd  Gd6  1  0.352986  0.184469  0.564427  1
  Gd  Gd7  1  0.788533  0.315274  0.436595  1
  Tm  Tm8  1  0.426839  0.749614  0.000519  1
  Tm  Tm9  1  0.573598  0.250177  0.000286  1
  Os  Os10  1  0.821176  0.573371  0.215335  1
  Ru  Ru11  1  0.605580  0.927789  0.781549  1
  Ru  Ru12  1  0.176317  0.425846  0.781086  1
  Ru  Ru13  1  0.394743  0.072624  0.218208  1
