# generated using pymatgen
data_Tb3Lu6ThSi8
_symmetry_space_group_name_H-M   'P 1'
_cell_length_a   7.58642100
_cell_length_b   7.58411160
_cell_length_c   13.88662100
_cell_angle_alpha   90.00000000
_cell_angle_beta   90.00000000
_cell_angle_gamma   90.06308941
_symmetry_Int_Tables_number   1
_chemical_formula_structural   Tb3Lu6ThSi8
_chemical_formula_sum   'Tb6 Lu12 Th2 Si16'
_cell_volume   798.98380049
_cell_formula_units_Z   2
loop_
 _symmetry_equiv_pos_site_id
 _symmetry_equiv_pos_as_xyz
  1  'x, y, z'
loop_
 _atom_site_type_symbol
 _atom_site_label
 _atom_site_symmetry_multiplicity
 _atom_site_fract_x
 _atom_site_fract_y
 _atom_site_fract_z
 _atom_site_occupancy
  Tb  Tb0  1  0.147922  0.495903  0.462661  1
  Tb  Tb1  1  0.503230  0.853808  0.038412  1
  Tb  Tb2  1  0.852078  0.504097  0.962661  1
  Tb  Tb3  1  0.496770  0.146192  0.538412  1
  Tb  Tb4  1  0.353273  0.994586  0.788749  1
  Tb  Tb5  1  0.646727  0.005414  0.288749  1
  Lu  Lu6  1  0.179724  0.176497  0.999610  1
  Lu  Lu7  1  0.820276  0.823503  0.499610  1
  Lu  Lu8  1  0.321127  0.679892  0.250514  1
  Lu  Lu9  1  0.678873  0.320108  0.750514  1
  Lu  Lu10  1  0.145678  0.006731  0.377045  1
  Lu  Lu11  1  0.854322  0.993269  0.877045  1
  Lu  Lu12  1  0.496008  0.644199  0.626573  1
  Lu  Lu13  1  0.356630  0.503619  0.873518  1
  Lu  Lu14  1  0.503992  0.355801  0.126573  1
  Lu  Lu15  1  0.643370  0.496381  0.373518  1
  Lu  Lu16  1  0.005653  0.144666  0.623589  1
  Lu  Lu17  1  0.994347  0.855334  0.123589  1
  Th  Th18  1  0.993830  0.352911  0.210974  1
  Th  Th19  1  0.006170  0.647089  0.710974  1
  Si  Si20  1  0.353509  0.296801  0.317821  1
  Si  Si21  1  0.646491  0.703199  0.817821  1
  Si  Si22  1  0.207885  0.854782  0.565774  1
  Si  Si23  1  0.145988  0.793234  0.932103  1
  Si  Si24  1  0.792115  0.145218  0.065774  1
  Si  Si25  1  0.854012  0.206766  0.432103  1
  Si  Si26  1  0.296836  0.351276  0.682350  1
  Si  Si27  1  0.703164  0.648724  0.182350  1
  Si  Si28  1  0.294425  0.053531  0.187517  1
  Si  Si29  1  0.705575  0.946469  0.687517  1
  Si  Si30  1  0.446889  0.796063  0.436803  1
  Si  Si31  1  0.206049  0.556377  0.061925  1
  Si  Si32  1  0.553111  0.203937  0.936803  1
  Si  Si33  1  0.793951  0.443623  0.561925  1
  Si  Si34  1  0.055312  0.291781  0.814061  1
  Si  Si35  1  0.944688  0.708219  0.314061  1
