# generated using pymatgen
data_CsHoCr2O8
_symmetry_space_group_name_H-M   'P 1'
_cell_length_a   5.79810600
_cell_length_b   5.79810592
_cell_length_c   8.27707400
_cell_angle_alpha   90.00000000
_cell_angle_beta   90.00000000
_cell_angle_gamma   120.00000044
_symmetry_Int_Tables_number   1
_chemical_formula_structural   CsHoCr2O8
_chemical_formula_sum   'Cs1 Ho1 Cr2 O8'
_cell_volume   240.97931386
_cell_formula_units_Z   1
loop_
 _symmetry_equiv_pos_site_id
 _symmetry_equiv_pos_as_xyz
  1  'x, y, z'
loop_
 _atom_site_type_symbol
 _atom_site_label
 _atom_site_symmetry_multiplicity
 _atom_site_fract_x
 _atom_site_fract_y
 _atom_site_fract_z
 _atom_site_occupancy
  Cs  Cs0  1  0.000000  0.000000  0.500000  1
  Ho  Ho1  1  0.000000  0.000000  0.000000  1
  Cr  Cr2  1  0.666667  0.333332  0.233353  1
  Cr  Cr3  1  0.333333  0.666667  0.766647  1
  O  O4  1  0.350868  0.175433  0.167195  1
  O  O5  1  0.824566  0.175433  0.167195  1
  O  O6  1  0.824567  0.649133  0.167195  1
  O  O7  1  0.666667  0.333332  0.429516  1
  O  O8  1  0.333333  0.666667  0.570484  1
  O  O9  1  0.175434  0.350869  0.832805  1
  O  O10  1  0.175434  0.824566  0.832805  1
  O  O11  1  0.649132  0.824566  0.832805  1
