# generated using pymatgen
data_Ba2Ca7(BN2)6
_symmetry_space_group_name_H-M   'P 1'
_cell_length_a   7.44688076
_cell_length_b   7.44688057
_cell_length_c   7.44688035
_cell_angle_alpha   83.68214414
_cell_angle_beta   83.68214113
_cell_angle_gamma   83.68215000
_symmetry_Int_Tables_number   1
_chemical_formula_structural   Ba2Ca7(BN2)6
_chemical_formula_sum   'Ba2 Ca7 B6 N12'
_cell_volume   405.96376472
_cell_formula_units_Z   1
loop_
 _symmetry_equiv_pos_site_id
 _symmetry_equiv_pos_as_xyz
  1  'x, y, z'
loop_
 _atom_site_type_symbol
 _atom_site_label
 _atom_site_symmetry_multiplicity
 _atom_site_fract_x
 _atom_site_fract_y
 _atom_site_fract_z
 _atom_site_occupancy
  Ba  Ba0  1  0.744635  0.744635  0.744635  1
  Ba  Ba1  1  0.255365  0.255365  0.255365  1
  Ca  Ca2  1  0.732296  0.732296  0.260090  1
  Ca  Ca3  1  0.267704  0.267704  0.739910  1
  Ca  Ca4  1  0.732296  0.260090  0.732296  1
  Ca  Ca5  1  0.267704  0.739910  0.267704  1
  Ca  Ca6  1  0.739910  0.267704  0.267704  1
  Ca  Ca7  1  0.260090  0.732296  0.732296  1
  Ca  Ca8  1  0.000000  0.000000  0.000000  1
  B  B9  1  0.000000  0.000000  0.500000  1
  B  B10  1  0.500000  0.500000  0.000000  1
  B  B11  1  0.500000  0.000000  0.500000  1
  B  B12  1  0.000000  0.500000  0.000000  1
  B  B13  1  0.500000  0.000000  0.000000  1
  B  B14  1  0.000000  0.500000  0.500000  1
  N  N15  1  0.530541  0.530541  0.167393  1
  N  N16  1  0.020526  0.020526  0.673735  1
  N  N17  1  0.469459  0.832607  0.469459  1
  N  N18  1  0.979474  0.326265  0.979474  1
  N  N19  1  0.326265  0.979474  0.979474  1
  N  N20  1  0.832607  0.469459  0.469459  1
  N  N21  1  0.469459  0.469459  0.832607  1
  N  N22  1  0.979474  0.979474  0.326265  1
  N  N23  1  0.530541  0.167393  0.530541  1
  N  N24  1  0.020526  0.673735  0.020526  1
  N  N25  1  0.673735  0.020526  0.020526  1
  N  N26  1  0.167393  0.530541  0.530541  1
