# generated using pymatgen
data_Ca4Y4MgCd7
_symmetry_space_group_name_H-M   'P 1'
_cell_length_a   7.68009800
_cell_length_b   7.68302107
_cell_length_c   7.62457000
_cell_angle_alpha   90.00081286
_cell_angle_beta   90.00020889
_cell_angle_gamma   89.90725160
_symmetry_Int_Tables_number   1
_chemical_formula_structural   Ca4Y4MgCd7
_chemical_formula_sum   'Ca4 Y4 Mg1 Cd7'
_cell_volume   449.89749259
_cell_formula_units_Z   1
loop_
 _symmetry_equiv_pos_site_id
 _symmetry_equiv_pos_as_xyz
  1  'x, y, z'
loop_
 _atom_site_type_symbol
 _atom_site_label
 _atom_site_symmetry_multiplicity
 _atom_site_fract_x
 _atom_site_fract_y
 _atom_site_fract_z
 _atom_site_occupancy
  Ca  Ca0  1  0.747584  0.248186  0.998379  1
  Ca  Ca1  1  0.251204  0.751781  0.501632  1
  Ca  Ca2  1  0.748825  0.248242  0.501735  1
  Ca  Ca3  1  0.252419  0.751816  0.998234  1
  Y  Y4  1  0.252931  0.247686  0.997982  1
  Y  Y5  1  0.747076  0.752311  0.997996  1
  Y  Y6  1  0.748329  0.752273  0.501989  1
  Y  Y7  1  0.251675  0.247719  0.502008  1
  Mg  Mg8  1  0.000074  0.500063  0.248898  1
  Cd  Cd9  1  0.000094  0.999934  0.248807  1
  Cd  Cd10  1  0.500090  0.000066  0.251189  1
  Cd  Cd11  1  0.500080  0.499937  0.251168  1
  Cd  Cd12  1  0.499910  0.500065  0.748800  1
  Cd  Cd13  1  0.499892  0.999925  0.748764  1
  Cd  Cd14  1  0.999906  0.000063  0.751196  1
  Cd  Cd15  1  0.999908  0.499939  0.751225  1
