# generated using pymatgen
data_CaPa2Sb4Pt3
_symmetry_space_group_name_H-M   'P 1'
_cell_length_a   8.45307169
_cell_length_b   8.45307253
_cell_length_c   8.45307300
_cell_angle_alpha   109.73838744
_cell_angle_beta   109.73838948
_cell_angle_gamma   108.93819817
_symmetry_Int_Tables_number   1
_chemical_formula_structural   CaPa2Sb4Pt3
_chemical_formula_sum   'Ca2 Pa4 Sb8 Pt6'
_cell_volume   464.93656938
_cell_formula_units_Z   2
loop_
 _symmetry_equiv_pos_site_id
 _symmetry_equiv_pos_as_xyz
  1  'x, y, z'
loop_
 _atom_site_type_symbol
 _atom_site_label
 _atom_site_symmetry_multiplicity
 _atom_site_fract_x
 _atom_site_fract_y
 _atom_site_fract_z
 _atom_site_occupancy
  Ca  Ca0  1  0.125000  0.875000  0.250000  1
  Ca  Ca1  1  0.375000  0.625000  0.750000  1
  Pa  Pa2  1  0.877718  0.250000  0.127718  1
  Pa  Pa3  1  0.622282  0.750000  0.372282  1
  Pa  Pa4  1  0.250000  0.122282  0.872282  1
  Pa  Pa5  1  0.750000  0.377718  0.627718  1
  Sb  Sb6  1  0.673600  0.501056  0.999077  1
  Sb  Sb7  1  0.498022  0.998944  0.672544  1
  Sb  Sb8  1  0.001978  0.674522  0.500923  1
  Sb  Sb9  1  0.826400  0.825478  0.827456  1
  Sb  Sb10  1  0.498944  0.998022  0.172544  1
  Sb  Sb11  1  0.174522  0.501978  0.000923  1
  Sb  Sb12  1  0.001056  0.173600  0.499077  1
  Sb  Sb13  1  0.325478  0.326400  0.327456  1
  Pt  Pt14  1  0.377362  0.250000  0.627362  1
  Pt  Pt15  1  0.122638  0.750000  0.872638  1
  Pt  Pt16  1  0.250000  0.622638  0.372638  1
  Pt  Pt17  1  0.750000  0.877362  0.127362  1
  Pt  Pt18  1  0.625000  0.375000  0.250000  1
  Pt  Pt19  1  0.875000  0.125000  0.750000  1
