# generated using pymatgen
data_Dy2ErZr(Al3Ir)6
_symmetry_space_group_name_H-M   'P 1'
_cell_length_a   7.53535920
_cell_length_b   7.52648856
_cell_length_c   9.41137800
_cell_angle_alpha   90.00000000
_cell_angle_beta   90.00000000
_cell_angle_gamma   119.62549701
_symmetry_Int_Tables_number   1
_chemical_formula_structural   Dy2ErZr(Al3Ir)6
_chemical_formula_sum   'Dy2 Er1 Zr1 Al18 Ir6'
_cell_volume   463.98804397
_cell_formula_units_Z   1
loop_
 _symmetry_equiv_pos_site_id
 _symmetry_equiv_pos_as_xyz
  1  'x, y, z'
loop_
 _atom_site_type_symbol
 _atom_site_label
 _atom_site_symmetry_multiplicity
 _atom_site_fract_x
 _atom_site_fract_y
 _atom_site_fract_z
 _atom_site_occupancy
  Dy  Dy0  1  0.005580  0.328076  0.250000  1
  Dy  Dy1  1  0.329560  0.006332  0.250000  1
  Er  Er2  1  0.670679  0.995528  0.750000  1
  Zr  Zr3  1  0.996616  0.671606  0.750000  1
  Al  Al4  1  0.125434  0.122919  0.750000  1
  Al  Al5  1  0.871072  0.869774  0.250000  1
  Al  Al6  1  0.000226  0.337455  0.578374  1
  Al  Al7  1  0.999312  0.665162  0.429756  1
  Al  Al8  1  0.999312  0.665162  0.070244  1
  Al  Al9  1  0.332443  0.998273  0.921506  1
  Al  Al10  1  0.000226  0.337455  0.921626  1
  Al  Al11  1  0.664793  0.998291  0.074141  1
  Al  Al12  1  0.664793  0.998291  0.425859  1
  Al  Al13  1  0.332443  0.998273  0.578494  1
  Al  Al14  1  0.333814  0.333890  0.050977  1
  Al  Al15  1  0.668728  0.666960  0.943822  1
  Al  Al16  1  0.668728  0.666960  0.556178  1
  Al  Al17  1  0.333814  0.333890  0.449023  1
  Al  Al18  1  0.335850  0.549258  0.750000  1
  Al  Al19  1  0.661121  0.452731  0.250000  1
  Al  Al20  1  0.554546  0.343987  0.750000  1
  Al  Al21  1  0.451420  0.659902  0.250000  1
  Ir  Ir22  1  0.672338  0.328100  0.500824  1
  Ir  Ir23  1  0.327982  0.672287  0.501530  1
  Ir  Ir24  1  0.327982  0.672287  0.998470  1
  Ir  Ir25  1  0.672338  0.328100  0.999176  1
  Ir  Ir26  1  0.999424  0.999523  0.500784  1
  Ir  Ir27  1  0.999424  0.999523  0.999216  1
