# generated using pymatgen
data_Lu3GaSn3Ir2
_symmetry_space_group_name_H-M   'P 1'
_cell_length_a   7.39018200
_cell_length_b   7.39018256
_cell_length_c   4.03286500
_cell_angle_alpha   90.00000000
_cell_angle_beta   90.00000000
_cell_angle_gamma   119.99999748
_symmetry_Int_Tables_number   1
_chemical_formula_structural   Lu3GaSn3Ir2
_chemical_formula_sum   'Lu3 Ga1 Sn3 Ir2'
_cell_volume   190.74564363
_cell_formula_units_Z   1
loop_
 _symmetry_equiv_pos_site_id
 _symmetry_equiv_pos_as_xyz
  1  'x, y, z'
loop_
 _atom_site_type_symbol
 _atom_site_label
 _atom_site_symmetry_multiplicity
 _atom_site_fract_x
 _atom_site_fract_y
 _atom_site_fract_z
 _atom_site_occupancy
  Lu  Lu0  1  0.984264  0.391799  0.500000  1
  Lu  Lu1  1  0.608201  0.592465  0.500000  1
  Lu  Lu2  1  0.407535  0.015736  0.500000  1
  Ga  Ga3  1  0.333333  0.666667  0.000000  1
  Sn  Sn4  1  0.996883  0.741642  0.000000  1
  Sn  Sn5  1  0.258358  0.255242  0.000000  1
  Sn  Sn6  1  0.744758  0.003117  0.000000  1
  Ir  Ir7  1  0.666667  0.333333  0.000000  1
  Ir  Ir8  1  0.000000  0.000000  0.500000  1
