# generated using pymatgen
data_TaTi18ReSi16
_symmetry_space_group_name_H-M   'P 1'
_cell_length_a   6.68337326
_cell_length_b   6.68267798
_cell_length_c   12.20524715
_cell_angle_alpha   90.10778959
_cell_angle_beta   90.05369672
_cell_angle_gamma   90.01015966
_symmetry_Int_Tables_number   1
_chemical_formula_structural   TaTi18ReSi16
_chemical_formula_sum   'Ta1 Ti18 Re1 Si16'
_cell_volume   545.11968230
_cell_formula_units_Z   1
loop_
 _symmetry_equiv_pos_site_id
 _symmetry_equiv_pos_as_xyz
  1  'x, y, z'
loop_
 _atom_site_type_symbol
 _atom_site_label
 _atom_site_symmetry_multiplicity
 _atom_site_fract_x
 _atom_site_fract_y
 _atom_site_fract_z
 _atom_site_occupancy
  Ta  Ta0  1  0.171311  0.170547  0.001428  1
  Ti  Ti1  1  0.995750  0.149247  0.621639  1
  Ti  Ti2  1  0.351286  0.496001  0.873058  1
  Ti  Ti3  1  0.650735  0.505737  0.370836  1
  Ti  Ti4  1  0.494179  0.349463  0.129663  1
  Ti  Ti5  1  0.504043  0.648922  0.626322  1
  Ti  Ti6  1  0.003181  0.850687  0.121501  1
  Ti  Ti7  1  0.148751  0.997337  0.378892  1
  Ti  Ti8  1  0.850039  0.004852  0.878300  1
  Ti  Ti9  1  0.001596  0.340292  0.221056  1
  Ti  Ti10  1  0.154848  0.503005  0.470241  1
  Ti  Ti11  1  0.841049  0.497571  0.971160  1
  Ti  Ti12  1  0.502142  0.157331  0.529419  1
  Ti  Ti13  1  0.497220  0.843596  0.028823  1
  Ti  Ti14  1  0.997807  0.657131  0.719118  1
  Ti  Ti15  1  0.344621  0.002861  0.780511  1
  Ti  Ti16  1  0.661448  0.998489  0.279796  1
  Ti  Ti17  1  0.670336  0.329022  0.749765  1
  Ti  Ti18  1  0.829423  0.828659  0.498537  1
  Re  Re19  1  0.328411  0.671117  0.249904  1
  Si  Si20  1  0.042784  0.303899  0.812337  1
  Si  Si21  1  0.198744  0.547048  0.065164  1
  Si  Si22  1  0.801997  0.455843  0.564044  1
  Si  Si23  1  0.546386  0.199009  0.935592  1
  Si  Si24  1  0.455057  0.801565  0.434982  1
  Si  Si25  1  0.959268  0.698197  0.313781  1
  Si  Si26  1  0.304167  0.038817  0.188527  1
  Si  Si27  1  0.697950  0.955373  0.685587  1
  Si  Si28  1  0.294625  0.358170  0.673651  1
  Si  Si29  1  0.140739  0.792730  0.921949  1
  Si  Si30  1  0.856639  0.205640  0.424222  1
  Si  Si31  1  0.792207  0.141790  0.077685  1
  Si  Si32  1  0.205364  0.857915  0.576222  1
  Si  Si33  1  0.704802  0.641305  0.172094  1
  Si  Si34  1  0.358794  0.295506  0.328736  1
  Si  Si35  1  0.642305  0.705323  0.825459  1
