# generated using pymatgen
data_Hf3Cr(Co4P3)2
_symmetry_space_group_name_H-M   'P 1'
_cell_length_a   11.89791276
_cell_length_b   11.92924060
_cell_length_c   3.60761800
_cell_angle_alpha   90.00000000
_cell_angle_beta   90.00000000
_cell_angle_gamma   120.08714250
_symmetry_Int_Tables_number   1
_chemical_formula_structural   Hf3Cr(Co4P3)2
_chemical_formula_sum   'Hf6 Cr2 Co16 P12'
_cell_volume   443.04998716
_cell_formula_units_Z   2
loop_
 _symmetry_equiv_pos_site_id
 _symmetry_equiv_pos_as_xyz
  1  'x, y, z'
loop_
 _atom_site_type_symbol
 _atom_site_label
 _atom_site_symmetry_multiplicity
 _atom_site_fract_x
 _atom_site_fract_y
 _atom_site_fract_z
 _atom_site_occupancy
  Hf  Hf0  1  0.820051  0.819794  0.500000  1
  Hf  Hf1  1  0.000000  0.175804  0.500000  1
  Hf  Hf2  1  0.335031  0.666645  0.000000  1
  Hf  Hf3  1  0.664969  0.331613  0.000000  1
  Hf  Hf4  1  0.000000  0.555494  0.000000  1
  Hf  Hf5  1  0.179949  0.999743  0.500000  1
  Cr  Cr6  1  0.446153  0.445509  0.000000  1
  Cr  Cr7  1  0.553847  0.999356  0.000000  1
  Co  Co8  1  0.624590  0.821711  0.000000  1
  Co  Co9  1  0.375410  0.197121  0.000000  1
  Co  Co10  1  0.000000  0.721298  0.500000  1
  Co  Co11  1  0.282709  0.282558  0.500000  1
  Co  Co12  1  0.870832  0.351772  0.500000  1
  Co  Co13  1  0.717291  0.999849  0.500000  1
  Co  Co14  1  0.817545  0.627514  0.000000  1
  Co  Co15  1  0.182455  0.809969  0.000000  1
  Co  Co16  1  0.358941  0.875167  0.500000  1
  Co  Co17  1  0.129168  0.480940  0.500000  1
  Co  Co18  1  0.641059  0.516226  0.500000  1
  Co  Co19  1  0.000000  0.001306  0.000000  1
  Co  Co20  1  0.516653  0.645137  0.500000  1
  Co  Co21  1  0.483347  0.128484  0.500000  1
  Co  Co22  1  0.198584  0.374171  0.000000  1
  Co  Co23  1  0.801416  0.175587  0.000000  1
  P  P24  1  0.000000  0.344377  0.000000  1
  P  P25  1  0.824090  0.515099  0.500000  1
  P  P26  1  0.682131  0.164436  0.500000  1
  P  P27  1  0.177604  0.176293  0.000000  1
  P  P28  1  0.640821  0.644789  0.000000  1
  P  P29  1  0.822396  0.998689  0.000000  1
  P  P30  1  0.518259  0.834325  0.500000  1
  P  P31  1  0.175910  0.691008  0.500000  1
  P  P32  1  0.359179  0.003968  0.000000  1
  P  P33  1  0.481741  0.316067  0.500000  1
  P  P34  1  0.000000  0.825876  0.000000  1
  P  P35  1  0.317869  0.482304  0.500000  1
