# generated using pymatgen
data_Pr5NiOsO12
_symmetry_space_group_name_H-M   'P 1'
_cell_length_a   7.11068201
_cell_length_b   7.11068150
_cell_length_c   7.66397500
_cell_angle_alpha   74.48674590
_cell_angle_beta   74.48674703
_cell_angle_gamma   51.02437231
_symmetry_Int_Tables_number   1
_chemical_formula_structural   Pr5NiOsO12
_chemical_formula_sum   'Pr5 Ni1 Os1 O12'
_cell_volume   287.71800292
_cell_formula_units_Z   1
loop_
 _symmetry_equiv_pos_site_id
 _symmetry_equiv_pos_as_xyz
  1  'x, y, z'
loop_
 _atom_site_type_symbol
 _atom_site_label
 _atom_site_symmetry_multiplicity
 _atom_site_fract_x
 _atom_site_fract_y
 _atom_site_fract_z
 _atom_site_occupancy
  Pr  Pr0  1  0.325812  0.286872  0.355833  1
  Pr  Pr1  1  0.713128  0.674188  0.644167  1
  Pr  Pr2  1  0.693014  0.688992  0.166726  1
  Pr  Pr3  1  0.311008  0.306986  0.833274  1
  Pr  Pr4  1  0.014354  0.985646  0.500000  1
  Ni  Ni5  1  0.742554  0.257446  0.000000  1
  Os  Os6  1  0.230475  0.769525  0.000000  1
  O  O7  1  0.106361  0.590563  0.570960  1
  O  O8  1  0.010118  0.990402  0.172380  1
  O  O9  1  0.409437  0.893639  0.429040  1
  O  O10  1  0.469192  0.532964  0.175147  1
  O  O11  1  0.101800  0.593516  0.079225  1
  O  O12  1  0.916951  0.396058  0.418485  1
  O  O13  1  0.009598  0.989882  0.827620  1
  O  O14  1  0.603942  0.083048  0.581515  1
  O  O15  1  0.467036  0.530808  0.824853  1
  O  O16  1  0.567530  0.098795  0.079843  1
  O  O17  1  0.406484  0.898200  0.920775  1
  O  O18  1  0.901205  0.432470  0.920157  1
