# generated using pymatgen
data_Hf3Ti2Ir3
_symmetry_space_group_name_H-M   'P 1'
_cell_length_a   7.89865700
_cell_length_b   7.89865758
_cell_length_c   5.24402600
_cell_angle_alpha   90.00000000
_cell_angle_beta   90.00000000
_cell_angle_gamma   120.00000175
_symmetry_Int_Tables_number   1
_chemical_formula_structural   Hf3Ti2Ir3
_chemical_formula_sum   'Hf6 Ti4 Ir6'
_cell_volume   283.33615898
_cell_formula_units_Z   2
loop_
 _symmetry_equiv_pos_site_id
 _symmetry_equiv_pos_as_xyz
  1  'x, y, z'
loop_
 _atom_site_type_symbol
 _atom_site_label
 _atom_site_symmetry_multiplicity
 _atom_site_fract_x
 _atom_site_fract_y
 _atom_site_fract_z
 _atom_site_occupancy
  Hf  Hf0  1  0.244219  0.000000  0.250000  1
  Hf  Hf1  1  0.755781  0.000000  0.750000  1
  Hf  Hf2  1  0.000000  0.244219  0.250000  1
  Hf  Hf3  1  0.000000  0.755781  0.750000  1
  Hf  Hf4  1  0.755781  0.755781  0.250000  1
  Hf  Hf5  1  0.244219  0.244219  0.750000  1
  Ti  Ti6  1  0.333333  0.666667  0.000000  1
  Ti  Ti7  1  0.666667  0.333333  0.000000  1
  Ti  Ti8  1  0.666667  0.333333  0.500000  1
  Ti  Ti9  1  0.333333  0.666667  0.500000  1
  Ir  Ir10  1  0.597342  0.000000  0.250000  1
  Ir  Ir11  1  0.402658  0.000000  0.750000  1
  Ir  Ir12  1  0.000000  0.597342  0.250000  1
  Ir  Ir13  1  0.000000  0.402658  0.750000  1
  Ir  Ir14  1  0.402658  0.402658  0.250000  1
  Ir  Ir15  1  0.597342  0.597342  0.750000  1
