# generated using pymatgen
data_Y2Co2Tc3(NiAs)7
_symmetry_space_group_name_H-M   'P 1'
_cell_length_a   3.84716500
_cell_length_b   9.42504348
_cell_length_c   9.42395099
_cell_angle_alpha   119.92183067
_cell_angle_beta   90.00000000
_cell_angle_gamma   90.00000000
_symmetry_Int_Tables_number   1
_chemical_formula_structural   Y2Co2Tc3(NiAs)7
_chemical_formula_sum   'Y2 Co2 Tc3 Ni7 As7'
_cell_volume   296.16202792
_cell_formula_units_Z   1
loop_
 _symmetry_equiv_pos_site_id
 _symmetry_equiv_pos_as_xyz
  1  'x, y, z'
loop_
 _atom_site_type_symbol
 _atom_site_label
 _atom_site_symmetry_multiplicity
 _atom_site_fract_x
 _atom_site_fract_y
 _atom_site_fract_z
 _atom_site_occupancy
  Y  Y0  1  0.000000  0.666085  0.334100  1
  Y  Y1  1  0.500000  0.333788  0.667510  1
  Co  Co2  1  0.000000  0.282291  0.128319  1
  Co  Co3  1  0.000000  0.845607  0.718256  1
  Tc  Tc4  1  0.500000  0.787352  0.897273  1
  Tc  Tc5  1  0.500000  0.112964  0.212304  1
  Tc  Tc6  1  0.500000  0.099344  0.888253  1
  Ni  Ni7  1  0.000000  0.566704  0.939068  1
  Ni  Ni8  1  0.000000  0.373528  0.434534  1
  Ni  Ni9  1  0.000000  0.061687  0.627722  1
  Ni  Ni10  1  0.000000  0.872405  0.154947  1
  Ni  Ni11  1  0.500000  0.943053  0.381516  1
  Ni  Ni12  1  0.500000  0.436713  0.054799  1
  Ni  Ni13  1  0.500000  0.617552  0.561680  1
  As  As14  1  0.000000  0.001095  0.999503  1
  As  As15  1  0.500000  0.707994  0.114642  1
  As  As16  1  0.500000  0.405982  0.289400  1
  As  As17  1  0.500000  0.884396  0.594169  1
  As  As18  1  0.000000  0.592966  0.705079  1
  As  As19  1  0.000000  0.114011  0.408911  1
  As  As20  1  0.000000  0.294483  0.888014  1
