# generated using pymatgen
data_TbHoBC
_symmetry_space_group_name_H-M   'P 1'
_cell_length_a   6.35414543
_cell_length_b   6.35414466
_cell_length_c   9.17197800
_cell_angle_alpha   51.89151118
_cell_angle_beta   51.89151662
_cell_angle_gamma   32.11482108
_symmetry_Int_Tables_number   1
_chemical_formula_structural   TbHoBC
_chemical_formula_sum   'Tb2 Ho2 B2 C2'
_cell_volume   150.90582297
_cell_formula_units_Z   2
loop_
 _symmetry_equiv_pos_site_id
 _symmetry_equiv_pos_as_xyz
  1  'x, y, z'
loop_
 _atom_site_type_symbol
 _atom_site_label
 _atom_site_symmetry_multiplicity
 _atom_site_fract_x
 _atom_site_fract_y
 _atom_site_fract_z
 _atom_site_occupancy
  Tb  Tb0  1  0.563365  0.563365  0.640477  1
  Tb  Tb1  1  0.436635  0.436635  0.359523  1
  Ho  Ho2  1  0.201818  0.201818  0.887543  1
  Ho  Ho3  1  0.798182  0.798182  0.112457  1
  B  B4  1  0.918329  0.918329  0.609137  1
  B  B5  1  0.081671  0.081671  0.390863  1
  C  C6  1  0.127694  0.127694  0.194219  1
  C  C7  1  0.872306  0.872306  0.805781  1
