# generated using pymatgen
data_Sc6Nb4Al12Os7
_symmetry_space_group_name_H-M   'P 1'
_cell_length_a   8.89292565
_cell_length_b   8.89292588
_cell_length_c   8.89292600
_cell_angle_alpha   60.00000699
_cell_angle_beta   60.00000613
_cell_angle_gamma   60.00000280
_symmetry_Int_Tables_number   1
_chemical_formula_structural   Sc6Nb4Al12Os7
_chemical_formula_sum   'Sc6 Nb4 Al12 Os7'
_cell_volume   497.30069560
_cell_formula_units_Z   1
loop_
 _symmetry_equiv_pos_site_id
 _symmetry_equiv_pos_as_xyz
  1  'x, y, z'
loop_
 _atom_site_type_symbol
 _atom_site_label
 _atom_site_symmetry_multiplicity
 _atom_site_fract_x
 _atom_site_fract_y
 _atom_site_fract_z
 _atom_site_occupancy
  Sc  Sc0  1  0.710864  0.710864  0.289136  1
  Sc  Sc1  1  0.289136  0.710864  0.289136  1
  Sc  Sc2  1  0.710864  0.289136  0.289136  1
  Sc  Sc3  1  0.289136  0.289136  0.710864  1
  Sc  Sc4  1  0.710864  0.289136  0.710864  1
  Sc  Sc5  1  0.289136  0.710864  0.710864  1
  Nb  Nb6  1  0.879298  0.879298  0.362103  1
  Nb  Nb7  1  0.879298  0.362103  0.879298  1
  Nb  Nb8  1  0.362103  0.879298  0.879298  1
  Nb  Nb9  1  0.879298  0.879298  0.879298  1
  Al  Al10  1  0.121312  0.121312  0.636064  1
  Al  Al11  1  0.121312  0.636064  0.121312  1
  Al  Al12  1  0.636064  0.121312  0.121312  1
  Al  Al13  1  0.121312  0.121312  0.121312  1
  Al  Al14  1  0.661810  0.661810  0.014571  1
  Al  Al15  1  0.661810  0.014571  0.661810  1
  Al  Al16  1  0.014571  0.661810  0.661810  1
  Al  Al17  1  0.661810  0.661810  0.661810  1
  Al  Al18  1  0.335226  0.335226  0.994322  1
  Al  Al19  1  0.335226  0.994322  0.335226  1
  Al  Al20  1  0.994322  0.335226  0.335226  1
  Al  Al21  1  0.335226  0.335226  0.335226  1
  Os  Os22  1  0.000000  0.000000  0.000000  1
  Os  Os23  1  0.997528  0.997528  0.502472  1
  Os  Os24  1  0.502472  0.997528  0.502472  1
  Os  Os25  1  0.997528  0.502472  0.502472  1
  Os  Os26  1  0.502472  0.502472  0.997528  1
  Os  Os27  1  0.997528  0.502472  0.997528  1
  Os  Os28  1  0.502472  0.997528  0.997528  1
