# generated using pymatgen
data_Sc17Si16Tc3
_symmetry_space_group_name_H-M   'P 1'
_cell_length_a   6.72204766
_cell_length_b   7.08378833
_cell_length_c   13.38103100
_cell_angle_alpha   90.00000000
_cell_angle_beta   90.00000000
_cell_angle_gamma   89.80038582
_symmetry_Int_Tables_number   1
_chemical_formula_structural   Sc17Si16Tc3
_chemical_formula_sum   'Sc17 Si16 Tc3'
_cell_volume   637.16821669
_cell_formula_units_Z   1
loop_
 _symmetry_equiv_pos_site_id
 _symmetry_equiv_pos_as_xyz
  1  'x, y, z'
loop_
 _atom_site_type_symbol
 _atom_site_label
 _atom_site_symmetry_multiplicity
 _atom_site_fract_x
 _atom_site_fract_y
 _atom_site_fract_z
 _atom_site_occupancy
  Sc  Sc0  1  0.646545  0.508274  0.750000  1
  Sc  Sc1  1  0.987749  0.684403  0.592868  1
  Sc  Sc2  1  0.009290  0.317837  0.406427  1
  Sc  Sc3  1  0.510345  0.181035  0.404218  1
  Sc  Sc4  1  0.009290  0.317837  0.093573  1
  Sc  Sc5  1  0.486390  0.820480  0.590719  1
  Sc  Sc6  1  0.987749  0.684403  0.907132  1
  Sc  Sc7  1  0.486390  0.820480  0.909281  1
  Sc  Sc8  1  0.510345  0.181035  0.095782  1
  Sc  Sc9  1  0.321692  0.327211  0.623282  1
  Sc  Sc10  1  0.678048  0.671569  0.370478  1
  Sc  Sc11  1  0.179540  0.831531  0.372863  1
  Sc  Sc12  1  0.678048  0.671569  0.129522  1
  Sc  Sc13  1  0.822484  0.166521  0.626034  1
  Sc  Sc14  1  0.321692  0.327211  0.876718  1
  Sc  Sc15  1  0.822484  0.166521  0.873966  1
  Sc  Sc16  1  0.179540  0.831531  0.127137  1
  Si  Si17  1  0.022753  0.392150  0.750000  1
  Si  Si18  1  0.991738  0.588752  0.250000  1
  Si  Si19  1  0.488911  0.912596  0.250000  1
  Si  Si20  1  0.508255  0.089848  0.750000  1
  Si  Si21  1  0.274255  0.654300  0.750000  1
  Si  Si22  1  0.718345  0.352108  0.250000  1
  Si  Si23  1  0.216185  0.150898  0.250000  1
  Si  Si24  1  0.787569  0.859399  0.750000  1
  Si  Si25  1  0.158718  0.029545  0.544528  1
  Si  Si26  1  0.838088  0.970863  0.453019  1
  Si  Si27  1  0.342574  0.527594  0.450561  1
  Si  Si28  1  0.838088  0.970863  0.046981  1
  Si  Si29  1  0.663421  0.466141  0.536277  1
  Si  Si30  1  0.158718  0.029545  0.955472  1
  Si  Si31  1  0.663421  0.466141  0.963723  1
  Si  Si32  1  0.342574  0.527594  0.049439  1
  Tc  Tc33  1  0.143163  0.999607  0.750000  1
  Tc  Tc34  1  0.852347  0.005356  0.250000  1
  Tc  Tc35  1  0.353255  0.497255  0.250000  1
