# generated using pymatgen
data_Lu10AlSnPb4
_symmetry_space_group_name_H-M   'P 1'
_cell_length_a   6.46475100
_cell_length_b   8.76976275
_cell_length_c   8.82566807
_cell_angle_alpha   119.79067848
_cell_angle_beta   90.00160585
_cell_angle_gamma   89.99675355
_symmetry_Int_Tables_number   1
_chemical_formula_structural   Lu10AlSnPb4
_chemical_formula_sum   'Lu10 Al1 Sn1 Pb4'
_cell_volume   434.24022330
_cell_formula_units_Z   1
loop_
 _symmetry_equiv_pos_site_id
 _symmetry_equiv_pos_as_xyz
  1  'x, y, z'
loop_
 _atom_site_type_symbol
 _atom_site_label
 _atom_site_symmetry_multiplicity
 _atom_site_fract_x
 _atom_site_fract_y
 _atom_site_fract_z
 _atom_site_occupancy
  Lu  Lu0  1  0.750004  0.239871  0.000000  1
  Lu  Lu1  1  0.750037  0.759802  0.772469  1
  Lu  Lu2  1  0.750037  0.987335  0.227531  1
  Lu  Lu3  1  0.250120  0.763999  0.000000  1
  Lu  Lu4  1  0.249923  0.236504  0.233393  1
  Lu  Lu5  1  0.249923  0.003110  0.766607  1
  Lu  Lu6  1  0.502626  0.342110  0.677540  1
  Lu  Lu7  1  0.502626  0.664570  0.322460  1
  Lu  Lu8  1  0.997373  0.664339  0.322110  1
  Lu  Lu9  1  0.997373  0.342230  0.677890  1
  Al  Al10  1  0.749781  0.598778  0.000000  1
  Sn  Sn11  1  0.250513  0.398309  0.000000  1
  Pb  Pb12  1  0.749962  0.391224  0.393056  1
  Pb  Pb13  1  0.749962  0.998169  0.606944  1
  Pb  Pb14  1  0.249870  0.605680  0.601711  1
  Pb  Pb15  1  0.249870  0.003969  0.398289  1
