# generated using pymatgen
data_Er4Tm8Ni4SnRu
_symmetry_space_group_name_H-M   'P 1'
_cell_length_a   8.21949758
_cell_length_b   8.21949683
_cell_length_c   8.21949780
_cell_angle_alpha   111.08531692
_cell_angle_beta   110.22033525
_cell_angle_gamma   107.13421245
_symmetry_Int_Tables_number   1
_chemical_formula_structural   Er4Tm8Ni4SnRu
_chemical_formula_sum   'Er4 Tm8 Ni4 Sn1 Ru1'
_cell_volume   426.92204206
_cell_formula_units_Z   1
loop_
 _symmetry_equiv_pos_site_id
 _symmetry_equiv_pos_as_xyz
  1  'x, y, z'
loop_
 _atom_site_type_symbol
 _atom_site_label
 _atom_site_symmetry_multiplicity
 _atom_site_fract_x
 _atom_site_fract_y
 _atom_site_fract_z
 _atom_site_occupancy
  Er  Er0  1  0.182332  0.787395  0.969727  1
  Er  Er1  1  0.817668  0.787395  0.605064  1
  Er  Er2  1  0.182332  0.212605  0.394936  1
  Er  Er3  1  0.817668  0.212605  0.030273  1
  Tm  Tm4  1  0.320259  0.126972  0.806713  1
  Tm  Tm5  1  0.679741  0.486455  0.806713  1
  Tm  Tm6  1  0.407276  0.717182  0.690094  1
  Tm  Tm7  1  0.592724  0.282818  0.309906  1
  Tm  Tm8  1  0.972911  0.282818  0.690094  1
  Tm  Tm9  1  0.027089  0.717182  0.309906  1
  Tm  Tm10  1  0.320259  0.513545  0.193287  1
  Tm  Tm11  1  0.679741  0.873028  0.193287  1
  Ni  Ni12  1  0.877734  0.877734  0.000000  1
  Ni  Ni13  1  0.122266  0.122266  0.000000  1
  Ni  Ni14  1  0.639829  0.500000  0.139829  1
  Ni  Ni15  1  0.360171  0.500000  0.860171  1
  Sn  Sn16  1  0.500000  0.000000  0.500000  1
  Ru  Ru17  1  0.000000  0.500000  0.500000  1
