# generated using pymatgen
data_DyLu3Zr4F28
_symmetry_space_group_name_H-M   'P 1'
_cell_length_a   5.68340069
_cell_length_b   8.99216523
_cell_length_c   12.10497346
_cell_angle_alpha   62.55379353
_cell_angle_beta   89.96829136
_cell_angle_gamma   90.03572331
_symmetry_Int_Tables_number   1
_chemical_formula_structural   DyLu3Zr4F28
_chemical_formula_sum   'Dy1 Lu3 Zr4 F28'
_cell_volume   549.00595767
_cell_formula_units_Z   1
loop_
 _symmetry_equiv_pos_site_id
 _symmetry_equiv_pos_as_xyz
  1  'x, y, z'
loop_
 _atom_site_type_symbol
 _atom_site_label
 _atom_site_symmetry_multiplicity
 _atom_site_fract_x
 _atom_site_fract_y
 _atom_site_fract_z
 _atom_site_occupancy
  Dy  Dy0  1  0.756702  0.818087  0.765919  1
  Lu  Lu1  1  0.743919  0.819025  0.265628  1
  Lu  Lu2  1  0.243682  0.182875  0.234367  1
  Lu  Lu3  1  0.257377  0.185661  0.733662  1
  Zr  Zr4  1  0.743884  0.276979  0.453088  1
  Zr  Zr5  1  0.244488  0.725004  0.048344  1
  Zr  Zr6  1  0.255057  0.725356  0.542348  1
  Zr  Zr7  1  0.755513  0.272007  0.956094  1
  F  F8  1  0.466351  0.709626  0.922147  1
  F  F9  1  0.969278  0.289113  0.579331  1
  F  F10  1  0.528791  0.287143  0.080773  1
  F  F11  1  0.028799  0.710842  0.417670  1
  F  F12  1  0.450142  0.280586  0.551243  1
  F  F13  1  0.950494  0.717435  0.952878  1
  F  F14  1  0.551252  0.720664  0.446509  1
  F  F15  1  0.049233  0.277853  0.053453  1
  F  F16  1  0.769179  0.525440  0.857873  1
  F  F17  1  0.268002  0.470921  0.641680  1
  F  F18  1  0.233981  0.470266  0.144908  1
  F  F19  1  0.732306  0.530456  0.355442  1
  F  F20  1  0.759647  0.018199  0.060597  1
  F  F21  1  0.259147  0.979468  0.438862  1
  F  F22  1  0.239744  0.978327  0.941309  1
  F  F23  1  0.739708  0.022811  0.556670  1
  F  F24  1  0.981293  0.732459  0.648339  1
  F  F25  1  0.481570  0.265592  0.849148  1
  F  F26  1  0.015960  0.265071  0.347006  1
  F  F27  1  0.517637  0.735057  0.154010  1
  F  F28  1  0.029499  0.747354  0.176608  1
  F  F29  1  0.527893  0.253334  0.325187  1
  F  F30  1  0.970966  0.251187  0.826670  1
  F  F31  1  0.465389  0.744991  0.672928  1
  F  F32  1  0.432544  0.975885  0.235823  1
  F  F33  1  0.933492  0.025325  0.264237  1
  F  F34  1  0.569019  0.032341  0.765119  1
  F  F35  1  0.078062  0.977259  0.734129  1
