# generated using pymatgen
data_Hf4In2FeCu3
_symmetry_space_group_name_H-M   'P 1'
_cell_length_a   7.23488197
_cell_length_b   7.23488197
_cell_length_c   6.70686047
_cell_angle_alpha   90.08401941
_cell_angle_beta   90.08401941
_cell_angle_gamma   90.66524661
_symmetry_Int_Tables_number   1
_chemical_formula_structural   Hf4In2FeCu3
_chemical_formula_sum   'Hf8 In4 Fe2 Cu6'
_cell_volume   351.03623922
_cell_formula_units_Z   2
loop_
 _symmetry_equiv_pos_site_id
 _symmetry_equiv_pos_as_xyz
  1  'x, y, z'
loop_
 _atom_site_type_symbol
 _atom_site_label
 _atom_site_symmetry_multiplicity
 _atom_site_fract_x
 _atom_site_fract_y
 _atom_site_fract_z
 _atom_site_occupancy
  Hf  Hf0  1  0.159832  0.159832  0.011469  1
  Hf  Hf1  1  0.840168  0.840168  0.988531  1
  Hf  Hf2  1  0.649288  0.350712  0.500000  1
  Hf  Hf3  1  0.350712  0.649288  0.500000  1
  Hf  Hf4  1  0.673453  0.326547  0.000000  1
  Hf  Hf5  1  0.326547  0.673453  0.000000  1
  Hf  Hf6  1  0.806777  0.806777  0.511263  1
  Hf  Hf7  1  0.193223  0.193223  0.488737  1
  In  In8  1  0.502157  0.004548  0.247891  1
  In  In9  1  0.497843  0.995452  0.752109  1
  In  In10  1  0.004548  0.502157  0.247891  1
  In  In11  1  0.995452  0.497843  0.752109  1
  Fe  Fe12  1  0.376821  0.376821  0.232211  1
  Fe  Fe13  1  0.623179  0.623179  0.767789  1
  Cu  Cu14  1  0.629147  0.629147  0.213452  1
  Cu  Cu15  1  0.879094  0.124975  0.713093  1
  Cu  Cu16  1  0.875025  0.120906  0.286907  1
  Cu  Cu17  1  0.370853  0.370853  0.786548  1
  Cu  Cu18  1  0.120906  0.875025  0.286907  1
  Cu  Cu19  1  0.124975  0.879094  0.713093  1
