# generated using pymatgen
data_Dy2Fe2O7
_symmetry_space_group_name_H-M   'P 1'
_cell_length_a   7.16822306
_cell_length_b   7.16822368
_cell_length_c   7.16822300
_cell_angle_alpha   59.99999850
_cell_angle_beta   59.99999567
_cell_angle_gamma   59.99999728
_symmetry_Int_Tables_number   1
_chemical_formula_structural   Dy2Fe2O7
_chemical_formula_sum   'Dy4 Fe4 O14'
_cell_volume   260.44710922
_cell_formula_units_Z   2
loop_
 _symmetry_equiv_pos_site_id
 _symmetry_equiv_pos_as_xyz
  1  'x, y, z'
loop_
 _atom_site_type_symbol
 _atom_site_label
 _atom_site_symmetry_multiplicity
 _atom_site_fract_x
 _atom_site_fract_y
 _atom_site_fract_z
 _atom_site_occupancy
  Dy  Dy0  1  0.500000  0.000000  0.500000  1
  Dy  Dy1  1  0.000000  0.500000  0.500001  1
  Dy  Dy2  1  0.500000  0.500000  0.000000  1
  Dy  Dy3  1  0.500000  0.500000  0.500000  1
  Fe  Fe4  1  0.000000  0.500000  0.000001  1
  Fe  Fe5  1  0.500000  0.000000  0.000000  1
  Fe  Fe6  1  0.000000  0.000000  0.500000  1
  Fe  Fe7  1  0.000000  0.000000  0.000000  1
  O  O8  1  0.333523  0.916477  0.916476  1
  O  O9  1  0.083524  0.666477  0.666476  1
  O  O10  1  0.916475  0.333524  0.916476  1
  O  O11  1  0.916475  0.916477  0.333524  1
  O  O12  1  0.333523  0.333524  0.916476  1
  O  O13  1  0.333523  0.916477  0.333524  1
  O  O14  1  0.083524  0.666477  0.083524  1
  O  O15  1  0.666476  0.083524  0.666476  1
  O  O16  1  0.375000  0.375001  0.375000  1
  O  O17  1  0.624999  0.625000  0.625000  1
  O  O18  1  0.916475  0.333524  0.333524  1
  O  O19  1  0.666476  0.083524  0.083524  1
  O  O20  1  0.083524  0.083524  0.666476  1
  O  O21  1  0.666476  0.666477  0.083524  1
