# generated using pymatgen
data_Ca5Np(PaH12)2
_symmetry_space_group_name_H-M   'P 1'
_cell_length_a   6.67215000
_cell_length_b   6.79423500
_cell_length_c   6.67215000
_cell_angle_alpha   90.00000000
_cell_angle_beta   90.00000000
_cell_angle_gamma   90.00000000
_symmetry_Int_Tables_number   1
_chemical_formula_structural   Ca5Np(PaH12)2
_chemical_formula_sum   'Ca5 Np1 Pa2 H24'
_cell_volume   302.46293835
_cell_formula_units_Z   1
loop_
 _symmetry_equiv_pos_site_id
 _symmetry_equiv_pos_as_xyz
  1  'x, y, z'
loop_
 _atom_site_type_symbol
 _atom_site_label
 _atom_site_symmetry_multiplicity
 _atom_site_fract_x
 _atom_site_fract_y
 _atom_site_fract_z
 _atom_site_occupancy
  Ca  Ca0  1  0.247273  0.996752  0.500000  1
  Ca  Ca1  1  0.752727  0.996752  0.500000  1
  Ca  Ca2  1  0.000000  0.503248  0.252727  1
  Ca  Ca3  1  0.000000  0.503248  0.747273  1
  Ca  Ca4  1  0.500000  0.750000  0.000000  1
  Np  Np5  1  0.500000  0.250000  0.000000  1
  Pa  Pa6  1  0.000000  0.001959  0.000000  1
  Pa  Pa7  1  0.500000  0.498041  0.500000  1
  H  H8  1  0.000000  0.152117  0.285437  1
  H  H9  1  0.500000  0.215233  0.665308  1
  H  H10  1  0.500000  0.780252  0.347742  1
  H  H11  1  0.787447  0.649936  0.500000  1
  H  H12  1  0.212553  0.649936  0.500000  1
  H  H13  1  0.353582  0.481816  0.805027  1
  H  H14  1  0.646418  0.481816  0.805027  1
  H  H15  1  0.305027  0.018184  0.146418  1
  H  H16  1  0.165308  0.284767  0.000000  1
  H  H17  1  0.847742  0.719748  0.000000  1
  H  H18  1  0.305027  0.018184  0.853582  1
  H  H19  1  0.834692  0.284767  0.000000  1
  H  H20  1  0.694973  0.018184  0.146418  1
  H  H21  1  0.694973  0.018184  0.853582  1
  H  H22  1  0.152258  0.719748  0.000000  1
  H  H23  1  0.000000  0.850064  0.712553  1
  H  H24  1  0.000000  0.152117  0.714563  1
  H  H25  1  0.000000  0.850064  0.287447  1
  H  H26  1  0.646418  0.481816  0.194973  1
  H  H27  1  0.353582  0.481816  0.194973  1
  H  H28  1  0.785437  0.347883  0.500000  1
  H  H29  1  0.214563  0.347883  0.500000  1
  H  H30  1  0.500000  0.780252  0.652258  1
  H  H31  1  0.500000  0.215233  0.334692  1
