# generated using pymatgen
data_Nd4In2Cu3Pd
_symmetry_space_group_name_H-M   'P 1'
_cell_length_a   7.84543205
_cell_length_b   7.84543205
_cell_length_c   3.81497100
_cell_angle_alpha   90.00000000
_cell_angle_beta   90.00000000
_cell_angle_gamma   90.01248826
_symmetry_Int_Tables_number   1
_chemical_formula_structural   Nd4In2Cu3Pd
_chemical_formula_sum   'Nd4 In2 Cu3 Pd1'
_cell_volume   234.81452670
_cell_formula_units_Z   1
loop_
 _symmetry_equiv_pos_site_id
 _symmetry_equiv_pos_as_xyz
  1  'x, y, z'
loop_
 _atom_site_type_symbol
 _atom_site_label
 _atom_site_symmetry_multiplicity
 _atom_site_fract_x
 _atom_site_fract_y
 _atom_site_fract_z
 _atom_site_occupancy
  Nd  Nd0  1  0.325306  0.822491  0.500000  1
  Nd  Nd1  1  0.823977  0.676023  0.500000  1
  Nd  Nd2  1  0.174523  0.325477  0.500000  1
  Nd  Nd3  1  0.677509  0.174694  0.500000  1
  In  In4  1  0.002344  0.000755  0.000000  1
  In  In5  1  0.499245  0.497656  0.000000  1
  Cu  Cu6  1  0.376487  0.123513  0.000000  1
  Cu  Cu7  1  0.881790  0.381686  0.000000  1
  Cu  Cu8  1  0.118314  0.618210  0.000000  1
  Pd  Pd9  1  0.620504  0.879496  0.000000  1
