# generated using pymatgen
data_Y4Cd3Au10
_symmetry_space_group_name_H-M   'P 1'
_cell_length_a   8.59128000
_cell_length_b   8.59127891
_cell_length_c   10.24331300
_cell_angle_alpha   90.00000000
_cell_angle_beta   90.00000000
_cell_angle_gamma   107.97029722
_symmetry_Int_Tables_number   1
_chemical_formula_structural   Y4Cd3Au10
_chemical_formula_sum   'Y8 Cd6 Au20'
_cell_volume   719.17660267
_cell_formula_units_Z   2
loop_
 _symmetry_equiv_pos_site_id
 _symmetry_equiv_pos_as_xyz
  1  'x, y, z'
loop_
 _atom_site_type_symbol
 _atom_site_label
 _atom_site_symmetry_multiplicity
 _atom_site_fract_x
 _atom_site_fract_y
 _atom_site_fract_z
 _atom_site_occupancy
  Y  Y0  1  0.699187  0.300813  0.000000  1
  Y  Y1  1  0.199187  0.800813  0.500000  1
  Y  Y2  1  0.804689  0.804689  0.295558  1
  Y  Y3  1  0.304689  0.304689  0.204442  1
  Y  Y4  1  0.800813  0.199187  0.500000  1
  Y  Y5  1  0.300813  0.699187  0.000000  1
  Y  Y6  1  0.695311  0.695311  0.795558  1
  Y  Y7  1  0.195311  0.195311  0.704442  1
  Cd  Cd8  1  0.520574  0.020573  0.250000  1
  Cd  Cd9  1  0.979426  0.479427  0.750000  1
  Cd  Cd10  1  0.000000  0.000000  0.000000  1
  Cd  Cd11  1  0.020574  0.520573  0.250000  1
  Cd  Cd12  1  0.479426  0.979427  0.750000  1
  Cd  Cd13  1  0.500000  0.500000  0.500000  1
  Au  Au14  1  0.148755  0.430457  0.489034  1
  Au  Au15  1  0.900375  0.900375  0.594875  1
  Au  Au16  1  0.569543  0.851245  0.510966  1
  Au  Au17  1  0.881508  0.164131  0.210673  1
  Au  Au18  1  0.381508  0.664131  0.289327  1
  Au  Au19  1  0.664131  0.381508  0.289328  1
  Au  Au20  1  0.400375  0.400375  0.905125  1
  Au  Au21  1  0.930457  0.648755  0.010966  1
  Au  Au22  1  0.335869  0.618492  0.710672  1
  Au  Au23  1  0.351245  0.069543  0.989034  1
  Au  Au24  1  0.599625  0.599625  0.094875  1
  Au  Au25  1  0.648755  0.930457  0.010966  1
  Au  Au26  1  0.099625  0.099625  0.405125  1
  Au  Au27  1  0.618492  0.335869  0.710673  1
  Au  Au28  1  0.118492  0.835869  0.789327  1
  Au  Au29  1  0.069543  0.351245  0.989034  1
  Au  Au30  1  0.851245  0.569543  0.510966  1
  Au  Au31  1  0.164131  0.881508  0.210672  1
  Au  Au32  1  0.430457  0.148755  0.489034  1
  Au  Au33  1  0.835869  0.118492  0.789328  1
