# generated using pymatgen
data_Nd6Al24Os2(RuPt)3
_symmetry_space_group_name_H-M   'P 1'
_cell_length_a   8.93864000
_cell_length_b   8.94715541
_cell_length_c   9.65473911
_cell_angle_alpha   90.11791837
_cell_angle_beta   90.00000000
_cell_angle_gamma   119.96852890
_symmetry_Int_Tables_number   1
_chemical_formula_structural   Nd6Al24Os2(RuPt)3
_chemical_formula_sum   'Nd6 Al24 Os2 Ru3 Pt3'
_cell_volume   668.90434106
_cell_formula_units_Z   1
loop_
 _symmetry_equiv_pos_site_id
 _symmetry_equiv_pos_as_xyz
  1  'x, y, z'
loop_
 _atom_site_type_symbol
 _atom_site_label
 _atom_site_symmetry_multiplicity
 _atom_site_fract_x
 _atom_site_fract_y
 _atom_site_fract_z
 _atom_site_occupancy
  Nd  Nd0  1  0.191275  0.382548  0.250530  1
  Nd  Nd1  1  0.808725  0.617452  0.749470  1
  Nd  Nd2  1  0.618201  0.807856  0.248276  1
  Nd  Nd3  1  0.381799  0.192144  0.751724  1
  Nd  Nd4  1  0.189656  0.807856  0.248276  1
  Nd  Nd5  1  0.810344  0.192144  0.751724  1
  Al  Al6  1  0.331023  0.662046  0.020292  1
  Al  Al7  1  0.668977  0.337954  0.979708  1
  Al  Al8  1  0.663534  0.327066  0.520545  1
  Al  Al9  1  0.336466  0.672934  0.479455  1
  Al  Al10  1  0.162324  0.324647  0.577610  1
  Al  Al11  1  0.837676  0.675353  0.422390  1
  Al  Al12  1  0.675037  0.843341  0.577685  1
  Al  Al13  1  0.835844  0.671690  0.073980  1
  Al  Al14  1  0.324963  0.156659  0.422315  1
  Al  Al15  1  0.164156  0.328310  0.926020  1
  Al  Al16  1  0.168305  0.843341  0.577685  1
  Al  Al17  1  0.325853  0.168064  0.076937  1
  Al  Al18  1  0.831695  0.156659  0.422315  1
  Al  Al19  1  0.674147  0.831936  0.923063  1
  Al  Al20  1  0.842211  0.168064  0.076937  1
  Al  Al21  1  0.157789  0.831936  0.923063  1
  Al  Al22  1  0.562386  0.124774  0.254054  1
  Al  Al23  1  0.437614  0.875226  0.745946  1
  Al  Al24  1  0.873349  0.436282  0.247337  1
  Al  Al25  1  0.126651  0.563718  0.752663  1
  Al  Al26  1  0.562933  0.436282  0.247337  1
  Al  Al27  1  0.437067  0.563718  0.752663  1
  Al  Al28  1  0.000181  0.000360  0.249645  1
  Al  Al29  1  0.999819  0.999640  0.750355  1
  Os  Os30  1  0.000000  0.500000  0.000000  1
  Os  Os31  1  0.500000  0.500000  0.000000  1
  Ru  Ru32  1  0.500000  0.000000  0.500000  1
  Ru  Ru33  1  0.000000  0.000000  0.000000  1
  Ru  Ru34  1  0.000000  0.000000  0.500000  1
  Pt  Pt35  1  0.500000  0.000000  0.000000  1
  Pt  Pt36  1  0.000000  0.500000  0.500000  1
  Pt  Pt37  1  0.500000  0.500000  0.500000  1
