# generated using pymatgen
data_Na4Co11(Ni3P4)3
_symmetry_space_group_name_H-M   'P 1'
_cell_length_a   3.60368800
_cell_length_b   10.18712621
_cell_length_c   11.87324560
_cell_angle_alpha   90.00657831
_cell_angle_beta   90.00000000
_cell_angle_gamma   90.00000000
_symmetry_Int_Tables_number   1
_chemical_formula_structural   Na4Co11(Ni3P4)3
_chemical_formula_sum   'Na4 Co11 Ni9 P12'
_cell_volume   435.88138141
_cell_formula_units_Z   1
loop_
 _symmetry_equiv_pos_site_id
 _symmetry_equiv_pos_as_xyz
  1  'x, y, z'
loop_
 _atom_site_type_symbol
 _atom_site_label
 _atom_site_symmetry_multiplicity
 _atom_site_fract_x
 _atom_site_fract_y
 _atom_site_fract_z
 _atom_site_occupancy
  Na  Na0  1  0.250000  0.580566  0.705979  1
  Na  Na1  1  0.250000  0.919906  0.206623  1
  Na  Na2  1  0.750000  0.418842  0.293362  1
  Na  Na3  1  0.750000  0.080331  0.793985  1
  Co  Co4  1  0.250000  0.281748  0.672878  1
  Co  Co5  1  0.750000  0.781513  0.826849  1
  Co  Co6  1  0.750000  0.717931  0.327149  1
  Co  Co7  1  0.250000  0.879013  0.698206  1
  Co  Co8  1  0.250000  0.622435  0.198392  1
  Co  Co9  1  0.750000  0.121289  0.301500  1
  Co  Co10  1  0.750000  0.378480  0.801610  1
  Co  Co11  1  0.250000  0.464563  0.931984  1
  Co  Co12  1  0.250000  0.034345  0.432818  1
  Co  Co13  1  0.750000  0.536623  0.066895  1
  Co  Co14  1  0.750000  0.964776  0.567525  1
  Ni  Ni15  1  0.250000  0.711658  0.988793  1
  Ni  Ni16  1  0.250000  0.787392  0.489546  1
  Ni  Ni17  1  0.750000  0.286592  0.009649  1
  Ni  Ni18  1  0.750000  0.212834  0.509772  1
  Ni  Ni19  1  0.250000  0.408069  0.482596  1
  Ni  Ni20  1  0.250000  0.092087  0.983299  1
  Ni  Ni21  1  0.750000  0.592775  0.517872  1
  Ni  Ni22  1  0.750000  0.906323  0.017359  1
  Ni  Ni23  1  0.250000  0.219962  0.173968  1
  P  P24  1  0.250000  0.424289  0.112417  1
  P  P25  1  0.250000  0.079425  0.613285  1
  P  P26  1  0.750000  0.579284  0.886112  1
  P  P27  1  0.750000  0.920138  0.386912  1
  P  P28  1  0.250000  0.267547  0.862223  1
  P  P29  1  0.250000  0.231663  0.365398  1
  P  P30  1  0.750000  0.732772  0.138308  1
  P  P31  1  0.750000  0.768036  0.637909  1
  P  P32  1  0.250000  0.603313  0.388194  1
  P  P33  1  0.250000  0.896309  0.887770  1
  P  P34  1  0.750000  0.396838  0.612042  1
  P  P35  1  0.750000  0.100334  0.110820  1
