# generated using pymatgen
data_Tb19LuSn9Bi7
_symmetry_space_group_name_H-M   'P 1'
_cell_length_a   8.21179007
_cell_length_b   8.24286397
_cell_length_c   15.69490600
_cell_angle_alpha   90.06679175
_cell_angle_beta   89.60507010
_cell_angle_gamma   89.91408288
_symmetry_Int_Tables_number   1
_chemical_formula_structural   Tb19LuSn9Bi7
_chemical_formula_sum   'Tb19 Lu1 Sn9 Bi7'
_cell_volume   1062.34012360
_cell_formula_units_Z   1
loop_
 _symmetry_equiv_pos_site_id
 _symmetry_equiv_pos_as_xyz
  1  'x, y, z'
loop_
 _atom_site_type_symbol
 _atom_site_label
 _atom_site_symmetry_multiplicity
 _atom_site_fract_x
 _atom_site_fract_y
 _atom_site_fract_z
 _atom_site_occupancy
  Tb  Tb0  1  0.394929  0.837834  0.878102  1
  Tb  Tb1  1  0.897806  0.663605  0.621216  1
  Tb  Tb2  1  0.602159  0.161732  0.378071  1
  Tb  Tb3  1  0.101808  0.338049  0.121383  1
  Tb  Tb4  1  0.607133  0.166698  0.121345  1
  Tb  Tb5  1  0.102599  0.336506  0.378100  1
  Tb  Tb6  1  0.396801  0.838372  0.622285  1
  Tb  Tb7  1  0.891900  0.660429  0.880341  1
  Tb  Tb8  1  0.565400  0.333601  0.890064  1
  Tb  Tb9  1  0.065632  0.169219  0.614025  1
  Tb  Tb10  1  0.434500  0.668478  0.386258  1
  Tb  Tb11  1  0.937555  0.823913  0.111538  1
  Tb  Tb12  1  0.445518  0.665980  0.110360  1
  Tb  Tb13  1  0.934520  0.831134  0.385795  1
  Tb  Tb14  1  0.565907  0.331926  0.613502  1
  Tb  Tb15  1  0.056613  0.174120  0.889648  1
  Tb  Tb16  1  0.228569  0.500153  0.750748  1
  Tb  Tb17  1  0.728572  0.002037  0.750759  1
  Tb  Tb18  1  0.771521  0.499732  0.246074  1
  Lu  Lu19  1  0.270940  0.998448  0.248848  1
  Sn  Sn20  1  0.768119  0.480691  0.044657  1
  Sn  Sn21  1  0.594184  0.629637  0.749633  1
  Sn  Sn22  1  0.093019  0.872065  0.751152  1
  Sn  Sn23  1  0.404423  0.369475  0.250385  1
  Sn  Sn24  1  0.907503  0.126714  0.250169  1
  Sn  Sn25  1  0.366109  0.142963  0.751625  1
  Sn  Sn26  1  0.866286  0.360088  0.750065  1
  Sn  Sn27  1  0.631648  0.859366  0.249382  1
  Sn  Sn28  1  0.136164  0.641852  0.249634  1
  Bi  Bi29  1  0.265125  0.015261  0.045977  1
  Bi  Bi30  1  0.762859  0.486961  0.453717  1
  Bi  Bi31  1  0.737219  0.987624  0.545386  1
  Bi  Bi32  1  0.233896  0.517926  0.955519  1
  Bi  Bi33  1  0.732804  0.982473  0.955567  1
  Bi  Bi34  1  0.237755  0.512995  0.545348  1
  Bi  Bi35  1  0.262505  0.011942  0.453316  1
