# generated using pymatgen
data_Lu4PaPt9
_symmetry_space_group_name_H-M   'P 1'
_cell_length_a   9.77038400
_cell_length_b   9.77038400
_cell_length_c   5.72649100
_cell_angle_alpha   90.00000000
_cell_angle_beta   90.00000000
_cell_angle_gamma   90.00000000
_symmetry_Int_Tables_number   1
_chemical_formula_structural   Lu4PaPt9
_chemical_formula_sum   'Lu8 Pa2 Pt18'
_cell_volume   546.65314154
_cell_formula_units_Z   2
loop_
 _symmetry_equiv_pos_site_id
 _symmetry_equiv_pos_as_xyz
  1  'x, y, z'
loop_
 _atom_site_type_symbol
 _atom_site_label
 _atom_site_symmetry_multiplicity
 _atom_site_fract_x
 _atom_site_fract_y
 _atom_site_fract_z
 _atom_site_occupancy
  Lu  Lu0  1  0.454060  0.806978  0.000000  1
  Lu  Lu1  1  0.545940  0.193022  0.000000  1
  Lu  Lu2  1  0.193022  0.545940  0.000000  1
  Lu  Lu3  1  0.806978  0.454060  0.000000  1
  Lu  Lu4  1  0.306978  0.045940  0.500000  1
  Lu  Lu5  1  0.693022  0.954060  0.500000  1
  Lu  Lu6  1  0.954060  0.693022  0.500000  1
  Lu  Lu7  1  0.045940  0.306978  0.500000  1
  Pa  Pa8  1  0.500000  0.500000  0.500000  1
  Pa  Pa9  1  0.000000  0.000000  0.000000  1
  Pt  Pt10  1  0.194295  0.805705  0.249409  1
  Pt  Pt11  1  0.805705  0.194295  0.750591  1
  Pt  Pt12  1  0.805705  0.194295  0.249409  1
  Pt  Pt13  1  0.194295  0.805705  0.750591  1
  Pt  Pt14  1  0.443632  0.779626  0.500000  1
  Pt  Pt15  1  0.556368  0.220374  0.500000  1
  Pt  Pt16  1  0.220374  0.556368  0.500000  1
  Pt  Pt17  1  0.779626  0.443632  0.500000  1
  Pt  Pt18  1  0.305705  0.305705  0.250591  1
  Pt  Pt19  1  0.694295  0.694295  0.749409  1
  Pt  Pt20  1  0.694295  0.694295  0.250591  1
  Pt  Pt21  1  0.305705  0.305705  0.749409  1
  Pt  Pt22  1  0.279626  0.056368  0.000000  1
  Pt  Pt23  1  0.720374  0.943632  0.000000  1
  Pt  Pt24  1  0.943632  0.720374  0.000000  1
  Pt  Pt25  1  0.056368  0.279626  0.000000  1
  Pt  Pt26  1  0.000000  0.000000  0.500000  1
  Pt  Pt27  1  0.500000  0.500000  0.000000  1
