# generated using pymatgen
data_Lu3Al2Ga3Ni
_symmetry_space_group_name_H-M   'P 1'
_cell_length_a   6.77905876
_cell_length_b   6.77905937
_cell_length_c   4.18184800
_cell_angle_alpha   90.00000000
_cell_angle_beta   90.00000000
_cell_angle_gamma   119.73772540
_symmetry_Int_Tables_number   1
_chemical_formula_structural   Lu3Al2Ga3Ni
_chemical_formula_sum   'Lu3 Al2 Ga3 Ni1'
_cell_volume   166.87044762
_cell_formula_units_Z   1
loop_
 _symmetry_equiv_pos_site_id
 _symmetry_equiv_pos_as_xyz
  1  'x, y, z'
loop_
 _atom_site_type_symbol
 _atom_site_label
 _atom_site_symmetry_multiplicity
 _atom_site_fract_x
 _atom_site_fract_y
 _atom_site_fract_z
 _atom_site_occupancy
  Lu  Lu0  1  0.591246  0.999451  0.500000  1
  Lu  Lu1  1  0.409703  0.409703  0.500000  1
  Lu  Lu2  1  0.999451  0.591246  0.500000  1
  Al  Al3  1  0.232454  0.001191  0.000000  1
  Al  Al4  1  0.001191  0.232454  0.000000  1
  Ga  Ga5  1  0.666670  0.330799  0.000000  1
  Ga  Ga6  1  0.330799  0.666670  0.000000  1
  Ga  Ga7  1  0.762729  0.762729  0.000000  1
  Ni  Ni8  1  0.005756  0.005756  0.500000  1
