# generated using pymatgen
data_Yb(CuAu)6
_symmetry_space_group_name_H-M   'P 1'
_cell_length_a   6.82650149
_cell_length_b   6.82650184
_cell_length_c   6.82650056
_cell_angle_alpha   135.16627042
_cell_angle_beta   97.71131798
_cell_angle_gamma   99.01321816
_symmetry_Int_Tables_number   1
_chemical_formula_structural   Yb(CuAu)6
_chemical_formula_sum   'Yb1 Cu6 Au6'
_cell_volume   207.32601728
_cell_formula_units_Z   1
loop_
 _symmetry_equiv_pos_site_id
 _symmetry_equiv_pos_as_xyz
  1  'x, y, z'
loop_
 _atom_site_type_symbol
 _atom_site_label
 _atom_site_symmetry_multiplicity
 _atom_site_fract_x
 _atom_site_fract_y
 _atom_site_fract_z
 _atom_site_occupancy
  Yb  Yb0  1  0.000000  0.000000  0.000000  1
  Cu  Cu1  1  0.500000  0.000000  0.000000  1
  Cu  Cu2  1  0.500000  0.500000  0.500000  1
  Cu  Cu3  1  0.000000  0.000000  0.500000  1
  Cu  Cu4  1  0.000000  0.500000  0.000000  1
  Cu  Cu5  1  0.761391  0.500000  0.261391  1
  Cu  Cu6  1  0.238609  0.500000  0.738609  1
  Au  Au7  1  0.339897  0.339897  0.000000  1
  Au  Au8  1  0.660103  0.660103  0.000000  1
  Au  Au9  1  0.663649  0.000000  0.663649  1
  Au  Au10  1  0.336351  0.000000  0.336351  1
  Au  Au11  1  0.818642  0.318642  0.500000  1
  Au  Au12  1  0.181358  0.681358  0.500000  1
