# generated using pymatgen
data_Pr3ThCdIr
_symmetry_space_group_name_H-M   'P 1'
_cell_length_a   10.05014895
_cell_length_b   10.05014897
_cell_length_c   10.05014900
_cell_angle_alpha   59.99999663
_cell_angle_beta   59.99999655
_cell_angle_gamma   59.99999778
_symmetry_Int_Tables_number   1
_chemical_formula_structural   Pr3ThCdIr
_chemical_formula_sum   'Pr12 Th4 Cd4 Ir4'
_cell_volume   717.79837488
_cell_formula_units_Z   4
loop_
 _symmetry_equiv_pos_site_id
 _symmetry_equiv_pos_as_xyz
  1  'x, y, z'
loop_
 _atom_site_type_symbol
 _atom_site_label
 _atom_site_symmetry_multiplicity
 _atom_site_fract_x
 _atom_site_fract_y
 _atom_site_fract_z
 _atom_site_occupancy
  Pr  Pr0  1  0.808176  0.191824  0.191824  1
  Pr  Pr1  1  0.191824  0.808176  0.808176  1
  Pr  Pr2  1  0.191824  0.808176  0.191824  1
  Pr  Pr3  1  0.808176  0.191824  0.808176  1
  Pr  Pr4  1  0.191824  0.191824  0.808176  1
  Pr  Pr5  1  0.808176  0.808176  0.191824  1
  Pr  Pr6  1  0.938039  0.561961  0.561961  1
  Pr  Pr7  1  0.561961  0.938039  0.938039  1
  Pr  Pr8  1  0.561961  0.938039  0.561961  1
  Pr  Pr9  1  0.938039  0.561961  0.938039  1
  Pr  Pr10  1  0.561961  0.561961  0.938039  1
  Pr  Pr11  1  0.938039  0.938039  0.561961  1
  Th  Th12  1  0.346158  0.346158  0.346158  1
  Th  Th13  1  0.346158  0.346158  0.961526  1
  Th  Th14  1  0.346158  0.961526  0.346158  1
  Th  Th15  1  0.961526  0.346158  0.346158  1
  Cd  Cd16  1  0.579918  0.579918  0.579918  1
  Cd  Cd17  1  0.579918  0.579918  0.260243  1
  Cd  Cd18  1  0.579918  0.260243  0.579918  1
  Cd  Cd19  1  0.260243  0.579918  0.579918  1
  Ir  Ir20  1  0.146063  0.146063  0.146063  1
  Ir  Ir21  1  0.146063  0.146063  0.561810  1
  Ir  Ir22  1  0.146063  0.561810  0.146063  1
  Ir  Ir23  1  0.561810  0.146063  0.146063  1
