# generated using pymatgen
data_DyVCo(PRh)3
_symmetry_space_group_name_H-M   'P 1'
_cell_length_a   3.80598100
_cell_length_b   10.74501100
_cell_length_c   12.39575400
_cell_angle_alpha   90.00000000
_cell_angle_beta   90.00000000
_cell_angle_gamma   90.00000000
_symmetry_Int_Tables_number   1
_chemical_formula_structural   DyVCo(PRh)3
_chemical_formula_sum   'Dy4 V4 Co4 P12 Rh12'
_cell_volume   506.92817414
_cell_formula_units_Z   4
loop_
 _symmetry_equiv_pos_site_id
 _symmetry_equiv_pos_as_xyz
  1  'x, y, z'
loop_
 _atom_site_type_symbol
 _atom_site_label
 _atom_site_symmetry_multiplicity
 _atom_site_fract_x
 _atom_site_fract_y
 _atom_site_fract_z
 _atom_site_occupancy
  Dy  Dy0  1  0.250000  0.582673  0.707756  1
  Dy  Dy1  1  0.250000  0.917327  0.207756  1
  Dy  Dy2  1  0.750000  0.417327  0.292244  1
  Dy  Dy3  1  0.750000  0.082673  0.792244  1
  V  V4  1  0.250000  0.704431  0.986721  1
  V  V5  1  0.250000  0.795569  0.486721  1
  V  V6  1  0.750000  0.295569  0.013279  1
  V  V7  1  0.750000  0.204431  0.513279  1
  Co  Co8  1  0.250000  0.465838  0.937358  1
  Co  Co9  1  0.250000  0.034162  0.437358  1
  Co  Co10  1  0.750000  0.534162  0.062642  1
  Co  Co11  1  0.750000  0.965838  0.562642  1
  P  P12  1  0.250000  0.421111  0.107737  1
  P  P13  1  0.250000  0.078889  0.607737  1
  P  P14  1  0.750000  0.578889  0.892263  1
  P  P15  1  0.750000  0.921111  0.392263  1
  P  P16  1  0.250000  0.270457  0.873675  1
  P  P17  1  0.250000  0.229543  0.373675  1
  P  P18  1  0.750000  0.729543  0.126325  1
  P  P19  1  0.750000  0.770457  0.626325  1
  P  P20  1  0.250000  0.601600  0.391227  1
  P  P21  1  0.250000  0.898400  0.891227  1
  P  P22  1  0.750000  0.398400  0.608773  1
  P  P23  1  0.750000  0.101600  0.108773  1
  Rh  Rh24  1  0.250000  0.404533  0.486114  1
  Rh  Rh25  1  0.250000  0.095467  0.986114  1
  Rh  Rh26  1  0.750000  0.595467  0.513886  1
  Rh  Rh27  1  0.750000  0.904533  0.013886  1
  Rh  Rh28  1  0.250000  0.228126  0.180124  1
  Rh  Rh29  1  0.250000  0.271874  0.680124  1
  Rh  Rh30  1  0.750000  0.771874  0.819876  1
  Rh  Rh31  1  0.750000  0.728126  0.319876  1
  Rh  Rh32  1  0.250000  0.889878  0.696714  1
  Rh  Rh33  1  0.250000  0.610122  0.196714  1
  Rh  Rh34  1  0.750000  0.110122  0.303286  1
  Rh  Rh35  1  0.750000  0.389878  0.803286  1
