# generated using pymatgen
data_Ac5SnSe4
_symmetry_space_group_name_H-M   'P 1'
_cell_length_a   7.89406796
_cell_length_b   7.89406824
_cell_length_c   7.89406736
_cell_angle_alpha   99.55366100
_cell_angle_beta   99.55366082
_cell_angle_gamma   131.91732168
_symmetry_Int_Tables_number   1
_chemical_formula_structural   Ac5SnSe4
_chemical_formula_sum   'Ac5 Sn1 Se4'
_cell_volume   334.29508105
_cell_formula_units_Z   1
loop_
 _symmetry_equiv_pos_site_id
 _symmetry_equiv_pos_as_xyz
  1  'x, y, z'
loop_
 _atom_site_type_symbol
 _atom_site_label
 _atom_site_symmetry_multiplicity
 _atom_site_fract_x
 _atom_site_fract_y
 _atom_site_fract_z
 _atom_site_occupancy
  Ac  Ac0  1  0.400286  0.804677  0.204963  1
  Ac  Ac1  1  0.000000  0.000000  0.000000  1
  Ac  Ac2  1  0.599714  0.195323  0.795037  1
  Ac  Ac3  1  0.195323  0.400286  0.595609  1
  Ac  Ac4  1  0.804677  0.599714  0.404391  1
  Sn  Sn5  1  0.500000  0.500000  0.000000  1
  Se  Se6  1  0.104192  0.700557  0.804748  1
  Se  Se7  1  0.700557  0.895808  0.596364  1
  Se  Se8  1  0.299443  0.104192  0.403636  1
  Se  Se9  1  0.895808  0.299443  0.195252  1
