# generated using pymatgen
data_LiLa2(PrRh)6
_symmetry_space_group_name_H-M   'P 1'
_cell_length_a   7.67988806
_cell_length_b   7.67988760
_cell_length_c   7.67988736
_cell_angle_alpha   69.95870732
_cell_angle_beta   69.95871048
_cell_angle_gamma   69.95869732
_symmetry_Int_Tables_number   1
_chemical_formula_structural   LiLa2(PrRh)6
_chemical_formula_sum   'Li1 La2 Pr6 Rh6'
_cell_volume   386.52786693
_cell_formula_units_Z   1
loop_
 _symmetry_equiv_pos_site_id
 _symmetry_equiv_pos_as_xyz
  1  'x, y, z'
loop_
 _atom_site_type_symbol
 _atom_site_label
 _atom_site_symmetry_multiplicity
 _atom_site_fract_x
 _atom_site_fract_y
 _atom_site_fract_z
 _atom_site_occupancy
  Li  Li0  1  0.000000  0.000000  0.000000  1
  La  La1  1  0.810219  0.810219  0.810219  1
  La  La2  1  0.189781  0.189781  0.189781  1
  Pr  Pr3  1  0.149885  0.384169  0.673459  1
  Pr  Pr4  1  0.673459  0.149885  0.384169  1
  Pr  Pr5  1  0.384169  0.673459  0.149885  1
  Pr  Pr6  1  0.850115  0.615831  0.326541  1
  Pr  Pr7  1  0.326541  0.850115  0.615831  1
  Pr  Pr8  1  0.615831  0.326541  0.850115  1
  Rh  Rh9  1  0.951559  0.177442  0.574319  1
  Rh  Rh10  1  0.574319  0.951559  0.177442  1
  Rh  Rh11  1  0.177442  0.574319  0.951559  1
  Rh  Rh12  1  0.048441  0.822558  0.425681  1
  Rh  Rh13  1  0.425681  0.048441  0.822558  1
  Rh  Rh14  1  0.822558  0.425681  0.048441  1
