# generated using pymatgen
data_Rb5Gd2InCl12
_symmetry_space_group_name_H-M   'P 1'
_cell_length_a   8.34489204
_cell_length_b   7.83751178
_cell_length_c   13.66943800
_cell_angle_alpha   55.58624419
_cell_angle_beta   89.92560033
_cell_angle_gamma   90.17710484
_symmetry_Int_Tables_number   1
_chemical_formula_structural   Rb5Gd2InCl12
_chemical_formula_sum   'Rb5 Gd2 In1 Cl12'
_cell_volume   737.54213193
_cell_formula_units_Z   1
loop_
 _symmetry_equiv_pos_site_id
 _symmetry_equiv_pos_as_xyz
  1  'x, y, z'
loop_
 _atom_site_type_symbol
 _atom_site_label
 _atom_site_symmetry_multiplicity
 _atom_site_fract_x
 _atom_site_fract_y
 _atom_site_fract_z
 _atom_site_occupancy
  Rb  Rb0  1  0.500000  0.500000  0.000000  1
  Rb  Rb1  1  0.069054  0.723869  0.753410  1
  Rb  Rb2  1  0.930946  0.276131  0.246590  1
  Rb  Rb3  1  0.570362  0.277667  0.744497  1
  Rb  Rb4  1  0.429638  0.722333  0.255503  1
  Gd  Gd5  1  0.500000  0.000000  0.500000  1
  Gd  Gd6  1  0.000000  0.000000  0.000000  1
  In  In7  1  0.000000  0.500000  0.500000  1
  Cl  Cl8  1  0.770954  0.770194  0.567329  1
  Cl  Cl9  1  0.229046  0.229806  0.432671  1
  Cl  Cl10  1  0.271954  0.227680  0.931526  1
  Cl  Cl11  1  0.728046  0.772320  0.068474  1
  Cl  Cl12  1  0.449009  0.892492  0.722165  1
  Cl  Cl13  1  0.550991  0.107508  0.277835  1
  Cl  Cl14  1  0.950241  0.111601  0.775469  1
  Cl  Cl15  1  0.049759  0.888399  0.224531  1
  Cl  Cl16  1  0.326243  0.668630  0.549370  1
  Cl  Cl17  1  0.673757  0.331370  0.450630  1
  Cl  Cl18  1  0.830781  0.331120  0.950159  1
  Cl  Cl19  1  0.169219  0.668880  0.049841  1
