# generated using pymatgen
data_Dy7Sn23(Ru2Rh)2
_symmetry_space_group_name_H-M   'P 1'
_cell_length_a   9.86480269
_cell_length_b   9.86480371
_cell_length_c   10.10219960
_cell_angle_alpha   89.84327793
_cell_angle_beta   90.15672330
_cell_angle_gamma   120.06268308
_symmetry_Int_Tables_number   1
_chemical_formula_structural   Dy7Sn23(Ru2Rh)2
_chemical_formula_sum   'Dy7 Sn23 Ru4 Rh2'
_cell_volume   850.83745576
_cell_formula_units_Z   1
loop_
 _symmetry_equiv_pos_site_id
 _symmetry_equiv_pos_as_xyz
  1  'x, y, z'
loop_
 _atom_site_type_symbol
 _atom_site_label
 _atom_site_symmetry_multiplicity
 _atom_site_fract_x
 _atom_site_fract_y
 _atom_site_fract_z
 _atom_site_occupancy
  Dy  Dy0  1  0.000000  0.000000  0.000000  1
  Dy  Dy1  1  0.483647  0.516353  0.303993  1
  Dy  Dy2  1  0.516353  0.483647  0.696007  1
  Dy  Dy3  1  0.482598  0.966995  0.305018  1
  Dy  Dy4  1  0.517402  0.033005  0.694982  1
  Dy  Dy5  1  0.033005  0.517402  0.305018  1
  Dy  Dy6  1  0.966995  0.482598  0.694982  1
  Sn  Sn7  1  0.350929  0.001472  0.000681  1
  Sn  Sn8  1  0.649071  0.998528  0.999319  1
  Sn  Sn9  1  0.001472  0.350929  0.999319  1
  Sn  Sn10  1  0.998528  0.649071  0.000681  1
  Sn  Sn11  1  0.650667  0.650667  0.000000  1
  Sn  Sn12  1  0.349333  0.349333  0.000000  1
  Sn  Sn13  1  0.334210  0.665790  0.820013  1
  Sn  Sn14  1  0.665790  0.334210  0.179987  1
  Sn  Sn15  1  0.000000  0.000000  0.500000  1
  Sn  Sn16  1  0.779870  0.220130  0.461549  1
  Sn  Sn17  1  0.220130  0.779870  0.538451  1
  Sn  Sn18  1  0.780567  0.560509  0.461083  1
  Sn  Sn19  1  0.219433  0.439491  0.538917  1
  Sn  Sn20  1  0.439491  0.219433  0.461083  1
  Sn  Sn21  1  0.560509  0.780567  0.538917  1
  Sn  Sn22  1  0.333335  0.666665  0.125683  1
  Sn  Sn23  1  0.666665  0.333335  0.874317  1
  Sn  Sn24  1  0.118309  0.881691  0.273484  1
  Sn  Sn25  1  0.881691  0.118309  0.726516  1
  Sn  Sn26  1  0.118762  0.236360  0.274801  1
  Sn  Sn27  1  0.881238  0.763640  0.725199  1
  Sn  Sn28  1  0.763640  0.881238  0.274801  1
  Sn  Sn29  1  0.236360  0.118762  0.725199  1
  Ru  Ru30  1  0.830632  0.660848  0.201024  1
  Ru  Ru31  1  0.169368  0.339152  0.798976  1
  Ru  Ru32  1  0.339152  0.169368  0.201024  1
  Ru  Ru33  1  0.660848  0.830632  0.798976  1
  Rh  Rh34  1  0.829902  0.170098  0.199892  1
  Rh  Rh35  1  0.170098  0.829902  0.800108  1
