# generated using pymatgen
data_YbLuZr2(Al3Ir)6
_symmetry_space_group_name_H-M   'P 1'
_cell_length_a   7.51391000
_cell_length_b   7.50553140
_cell_length_c   9.36019800
_cell_angle_alpha   90.00000000
_cell_angle_beta   90.00000000
_cell_angle_gamma   119.68296078
_symmetry_Int_Tables_number   1
_chemical_formula_structural   YbLuZr2(Al3Ir)6
_chemical_formula_sum   'Yb1 Lu1 Zr2 Al18 Ir6'
_cell_volume   458.60807339
_cell_formula_units_Z   1
loop_
 _symmetry_equiv_pos_site_id
 _symmetry_equiv_pos_as_xyz
  1  'x, y, z'
loop_
 _atom_site_type_symbol
 _atom_site_label
 _atom_site_symmetry_multiplicity
 _atom_site_fract_x
 _atom_site_fract_y
 _atom_site_fract_z
 _atom_site_occupancy
  Yb  Yb0  1  0.670812  0.993840  0.250000  1
  Lu  Lu1  1  0.330522  0.006558  0.750000  1
  Zr  Zr2  1  0.994323  0.671564  0.250000  1
  Zr  Zr3  1  0.004541  0.326890  0.750000  1
  Al  Al4  1  0.127257  0.124155  0.250000  1
  Al  Al5  1  0.873846  0.875268  0.750000  1
  Al  Al6  1  0.999013  0.336100  0.075251  1
  Al  Al7  1  0.000578  0.663860  0.924141  1
  Al  Al8  1  0.000578  0.663860  0.575859  1
  Al  Al9  1  0.333696  0.998632  0.422108  1
  Al  Al10  1  0.999013  0.336100  0.424749  1
  Al  Al11  1  0.666304  0.000446  0.577442  1
  Al  Al12  1  0.666304  0.000446  0.922558  1
  Al  Al13  1  0.333696  0.998632  0.077892  1
  Al  Al14  1  0.331539  0.333168  0.556399  1
  Al  Al15  1  0.668860  0.667525  0.444179  1
  Al  Al16  1  0.668860  0.667525  0.055821  1
  Al  Al17  1  0.331539  0.333168  0.943601  1
  Al  Al18  1  0.333425  0.548476  0.250000  1
  Al  Al19  1  0.664248  0.451158  0.750000  1
  Al  Al20  1  0.555826  0.346452  0.250000  1
  Al  Al21  1  0.445353  0.656658  0.750000  1
  Ir  Ir22  1  0.671824  0.327749  0.997833  1
  Ir  Ir23  1  0.326513  0.671390  0.999473  1
  Ir  Ir24  1  0.326513  0.671390  0.500527  1
  Ir  Ir25  1  0.671824  0.327749  0.502167  1
  Ir  Ir26  1  0.001595  0.000618  0.998796  1
  Ir  Ir27  1  0.001595  0.000618  0.501204  1
