# generated using pymatgen
data_Tb7Er(TcBr4)2
_symmetry_space_group_name_H-M   'P 1'
_cell_length_a   9.03964574
_cell_length_b   9.02929450
_cell_length_c   6.61710464
_cell_angle_alpha   89.40895171
_cell_angle_beta   89.65784421
_cell_angle_gamma   89.21478733
_symmetry_Int_Tables_number   1
_chemical_formula_structural   Tb7Er(TcBr4)2
_chemical_formula_sum   'Tb7 Er1 Tc2 Br8'
_cell_volume   540.01018990
_cell_formula_units_Z   1
loop_
 _symmetry_equiv_pos_site_id
 _symmetry_equiv_pos_as_xyz
  1  'x, y, z'
loop_
 _atom_site_type_symbol
 _atom_site_label
 _atom_site_symmetry_multiplicity
 _atom_site_fract_x
 _atom_site_fract_y
 _atom_site_fract_z
 _atom_site_occupancy
  Tb  Tb0  1  0.246915  0.900736  0.011842  1
  Tb  Tb1  1  0.752520  0.098880  0.988616  1
  Tb  Tb2  1  0.097857  0.751400  0.488835  1
  Tb  Tb3  1  0.901106  0.248005  0.512108  1
  Tb  Tb4  1  0.752419  0.902054  0.506014  1
  Tb  Tb5  1  0.247092  0.096724  0.495027  1
  Tb  Tb6  1  0.097170  0.248026  0.994726  1
  Er  Er7  1  0.904271  0.756458  0.006590  1
  Tc  Tc8  1  0.995067  0.004887  0.250127  1
  Tc  Tc9  1  0.004421  0.994987  0.750516  1
  Br  Br10  1  0.416719  0.816113  0.418842  1
  Br  Br11  1  0.582537  0.182342  0.583040  1
  Br  Br12  1  0.180018  0.583056  0.082513  1
  Br  Br13  1  0.818732  0.419486  0.914244  1
  Br  Br14  1  0.412499  0.186688  0.086026  1
  Br  Br15  1  0.590063  0.809993  0.916497  1
  Br  Br16  1  0.812607  0.587523  0.408281  1
  Br  Br17  1  0.187985  0.412641  0.586156  1
