# generated using pymatgen
data_KBa3(MnN2)4
_symmetry_space_group_name_H-M   'P 1'
_cell_length_a   6.42581648
_cell_length_b   6.42581642
_cell_length_c   7.79258343
_cell_angle_alpha   89.52435940
_cell_angle_beta   90.47564033
_cell_angle_gamma   126.58401411
_symmetry_Int_Tables_number   1
_chemical_formula_structural   KBa3(MnN2)4
_chemical_formula_sum   'K1 Ba3 Mn4 N8'
_cell_volume   258.36050217
_cell_formula_units_Z   1
loop_
 _symmetry_equiv_pos_site_id
 _symmetry_equiv_pos_as_xyz
  1  'x, y, z'
loop_
 _atom_site_type_symbol
 _atom_site_label
 _atom_site_symmetry_multiplicity
 _atom_site_fract_x
 _atom_site_fract_y
 _atom_site_fract_z
 _atom_site_occupancy
  K  K0  1  0.844847  0.155153  0.560331  1
  Ba  Ba1  1  0.158607  0.841393  0.448734  1
  Ba  Ba2  1  0.658081  0.341919  0.063501  1
  Ba  Ba3  1  0.343509  0.656491  0.935527  1
  Mn  Mn4  1  0.547787  0.452213  0.635150  1
  Mn  Mn5  1  0.450335  0.549665  0.363720  1
  Mn  Mn6  1  0.951533  0.048467  0.134409  1
  Mn  Mn7  1  0.047519  0.952481  0.867506  1
  N  N8  1  0.891463  0.108537  0.917349  1
  N  N9  1  0.111274  0.888726  0.085865  1
  N  N10  1  0.606611  0.393389  0.417092  1
  N  N11  1  0.392631  0.607369  0.580963  1
  N  N12  1  0.334413  0.166069  0.752649  1
  N  N13  1  0.168538  0.341080  0.242277  1
  N  N14  1  0.658920  0.831462  0.242277  1
  N  N15  1  0.833931  0.665587  0.752649  1
