# generated using pymatgen
data_YbPaCu2Bi3Sb
_symmetry_space_group_name_H-M   'P 1'
_cell_length_a   4.51965000
_cell_length_b   4.51965000
_cell_length_c   9.65475900
_cell_angle_alpha   90.00000000
_cell_angle_beta   90.00000000
_cell_angle_gamma   90.00000000
_symmetry_Int_Tables_number   1
_chemical_formula_structural   YbPaCu2Bi3Sb
_chemical_formula_sum   'Yb1 Pa1 Cu2 Bi3 Sb1'
_cell_volume   197.22004180
_cell_formula_units_Z   1
loop_
 _symmetry_equiv_pos_site_id
 _symmetry_equiv_pos_as_xyz
  1  'x, y, z'
loop_
 _atom_site_type_symbol
 _atom_site_label
 _atom_site_symmetry_multiplicity
 _atom_site_fract_x
 _atom_site_fract_y
 _atom_site_fract_z
 _atom_site_occupancy
  Yb  Yb0  1  0.500000  0.000000  0.266813  1
  Pa  Pa1  1  0.000000  0.500000  0.724969  1
  Cu  Cu2  1  0.500000  0.500000  0.508165  1
  Cu  Cu3  1  0.000000  0.000000  0.508165  1
  Bi  Bi4  1  0.500000  0.500000  0.988435  1
  Bi  Bi5  1  0.000000  0.000000  0.988435  1
  Bi  Bi6  1  0.000000  0.500000  0.345280  1
  Sb  Sb7  1  0.500000  0.000000  0.669737  1
