# generated using pymatgen
data_HoHfAgS4
_symmetry_space_group_name_H-M   'P 1'
_cell_length_a   7.76344516
_cell_length_b   7.76344566
_cell_length_c   7.76344604
_cell_angle_alpha   118.75981648
_cell_angle_beta   121.21694878
_cell_angle_gamma   90.03329012
_symmetry_Int_Tables_number   1
_chemical_formula_structural   HoHfAgS4
_chemical_formula_sum   'Ho2 Hf2 Ag2 S8'
_cell_volume   330.73122450
_cell_formula_units_Z   2
loop_
 _symmetry_equiv_pos_site_id
 _symmetry_equiv_pos_as_xyz
  1  'x, y, z'
loop_
 _atom_site_type_symbol
 _atom_site_label
 _atom_site_symmetry_multiplicity
 _atom_site_fract_x
 _atom_site_fract_y
 _atom_site_fract_z
 _atom_site_occupancy
  Ho  Ho0  1  0.000000  0.000000  0.500000  1
  Ho  Ho1  1  0.000000  0.500000  0.000000  1
  Hf  Hf2  1  0.000000  0.000000  0.000000  1
  Hf  Hf3  1  0.500000  0.000000  0.500000  1
  Ag  Ag4  1  0.375794  0.625794  0.750000  1
  Ag  Ag5  1  0.624206  0.374206  0.250000  1
  S  S6  1  0.249807  0.778007  0.028200  1
  S  S7  1  0.750193  0.778393  0.528200  1
  S  S8  1  0.221096  0.231068  0.990028  1
  S  S9  1  0.741041  0.231068  0.509972  1
  S  S10  1  0.778904  0.768932  0.009972  1
  S  S11  1  0.258959  0.768932  0.490028  1
  S  S12  1  0.750193  0.221993  0.971800  1
  S  S13  1  0.249807  0.221607  0.471800  1
