# generated using pymatgen
data_Pr10Si17
_symmetry_space_group_name_H-M   'P 1'
_cell_length_a   11.49349352
_cell_length_b   11.49349311
_cell_length_c   11.49349350
_cell_angle_alpha   145.10149093
_cell_angle_beta   135.71201837
_cell_angle_gamma   57.58783621
_symmetry_Int_Tables_number   1
_chemical_formula_structural   Pr10Si17
_chemical_formula_sum   'Pr10 Si17'
_cell_volume   601.56790515
_cell_formula_units_Z   1
loop_
 _symmetry_equiv_pos_site_id
 _symmetry_equiv_pos_as_xyz
  1  'x, y, z'
loop_
 _atom_site_type_symbol
 _atom_site_label
 _atom_site_symmetry_multiplicity
 _atom_site_fract_x
 _atom_site_fract_y
 _atom_site_fract_z
 _atom_site_occupancy
  Pr  Pr0  1  0.753109  0.762326  0.515435  1
  Pr  Pr1  1  0.450097  0.962614  0.012763  1
  Pr  Pr2  1  0.848498  0.366088  0.014501  1
  Pr  Pr3  1  0.949851  0.962614  0.512516  1
  Pr  Pr4  1  0.151502  0.166003  0.517590  1
  Pr  Pr5  1  0.351587  0.366088  0.517590  1
  Pr  Pr6  1  0.246891  0.762326  0.009217  1
  Pr  Pr7  1  0.549903  0.562665  0.512516  1
  Pr  Pr8  1  0.050149  0.562665  0.012763  1
  Pr  Pr9  1  0.648413  0.166003  0.014501  1
  Si  Si10  1  0.707703  0.654662  0.946959  1
  Si  Si11  1  0.198482  0.599400  0.400917  1
  Si  Si12  1  0.000000  0.087570  0.087570  1
  Si  Si13  1  0.699827  0.296203  0.596376  1
  Si  Si14  1  0.801518  0.202434  0.400917  1
  Si  Si15  1  0.897225  0.502332  0.605107  1
  Si  Si16  1  0.410499  0.855562  0.445062  1
  Si  Si17  1  0.102775  0.707883  0.605107  1
  Si  Si18  1  0.300173  0.896548  0.596376  1
  Si  Si19  1  0.589501  0.034563  0.445062  1
  Si  Si20  1  0.000000  0.433305  0.433305  1
  Si  Si21  1  0.887047  0.838000  0.950953  1
  Si  Si22  1  0.400059  0.500391  0.100331  1
  Si  Si23  1  0.112953  0.063906  0.950953  1
  Si  Si24  1  0.292297  0.239254  0.946959  1
  Si  Si25  1  0.500000  0.409821  0.909821  1
  Si  Si26  1  0.599941  0.700272  0.100331  1
