# generated using pymatgen
data_Pr8Zn8AgIr7
_symmetry_space_group_name_H-M   'P 1'
_cell_length_a   4.07517200
_cell_length_b   7.38321385
_cell_length_c   16.83971904
_cell_angle_alpha   89.99921460
_cell_angle_beta   90.00000000
_cell_angle_gamma   90.00000000
_symmetry_Int_Tables_number   1
_chemical_formula_structural   Pr8Zn8AgIr7
_chemical_formula_sum   'Pr8 Zn8 Ag1 Ir7'
_cell_volume   506.67121607
_cell_formula_units_Z   1
loop_
 _symmetry_equiv_pos_site_id
 _symmetry_equiv_pos_as_xyz
  1  'x, y, z'
loop_
 _atom_site_type_symbol
 _atom_site_label
 _atom_site_symmetry_multiplicity
 _atom_site_fract_x
 _atom_site_fract_y
 _atom_site_fract_z
 _atom_site_occupancy
  Pr  Pr0  1  0.750000  0.452984  0.213125  1
  Pr  Pr1  1  0.750000  0.948722  0.281447  1
  Pr  Pr2  1  0.750000  0.832689  0.060453  1
  Pr  Pr3  1  0.250000  0.037853  0.725437  1
  Pr  Pr4  1  0.250000  0.168552  0.941014  1
  Pr  Pr5  1  0.250000  0.550532  0.787197  1
  Pr  Pr6  1  0.750000  0.337471  0.428827  1
  Pr  Pr7  1  0.250000  0.674923  0.559312  1
  Zn  Zn8  1  0.250000  0.990669  0.431973  1
  Zn  Zn9  1  0.750000  0.501245  0.940668  1
  Zn  Zn10  1  0.750000  0.992154  0.560541  1
  Zn  Zn11  1  0.250000  0.623885  0.346824  1
  Zn  Zn12  1  0.750000  0.386171  0.660534  1
  Zn  Zn13  1  0.750000  0.876053  0.854401  1
  Zn  Zn14  1  0.250000  0.499402  0.059534  1
  Zn  Zn15  1  0.250000  0.123321  0.149371  1
  Ag  Ag16  1  0.250000  0.242340  0.567194  1
  Ir  Ir17  1  0.750000  0.258896  0.065112  1
  Ir  Ir18  1  0.250000  0.245137  0.313961  1
  Ir  Ir19  1  0.750000  0.253119  0.812346  1
  Ir  Ir20  1  0.250000  0.741919  0.936008  1
  Ir  Ir21  1  0.750000  0.754703  0.684369  1
  Ir  Ir22  1  0.750000  0.757811  0.434609  1
  Ir  Ir23  1  0.250000  0.749450  0.185744  1
