# generated using pymatgen
data_Pm4Fe(CoO4)3
_symmetry_space_group_name_H-M   'P 1'
_cell_length_a   5.34984440
_cell_length_b   5.52111238
_cell_length_c   7.64296399
_cell_angle_alpha   90.42349997
_cell_angle_beta   89.88962092
_cell_angle_gamma   90.00998751
_symmetry_Int_Tables_number   1
_chemical_formula_structural   Pm4Fe(CoO4)3
_chemical_formula_sum   'Pm4 Fe1 Co3 O12'
_cell_volume   225.74434295
_cell_formula_units_Z   1
loop_
 _symmetry_equiv_pos_site_id
 _symmetry_equiv_pos_as_xyz
  1  'x, y, z'
loop_
 _atom_site_type_symbol
 _atom_site_label
 _atom_site_symmetry_multiplicity
 _atom_site_fract_x
 _atom_site_fract_y
 _atom_site_fract_z
 _atom_site_occupancy
  Pm  Pm0  1  0.988223  0.059423  0.252293  1
  Pm  Pm1  1  0.515126  0.555756  0.252636  1
  Pm  Pm2  1  0.484874  0.444245  0.747363  1
  Pm  Pm3  1  0.011778  0.940578  0.747706  1
  Fe  Fe4  1  0.500000  0.000000  0.000000  1
  Co  Co5  1  0.000000  0.500000  0.000000  1
  Co  Co6  1  0.500000  0.000000  0.500001  1
  Co  Co7  1  0.000000  0.500000  0.500001  1
  O  O8  1  0.709041  0.298640  0.043031  1
  O  O9  1  0.800979  0.790866  0.042961  1
  O  O10  1  0.087018  0.481167  0.251714  1
  O  O11  1  0.420375  0.983648  0.255668  1
  O  O12  1  0.705328  0.295050  0.455108  1
  O  O13  1  0.796823  0.794125  0.455188  1
  O  O14  1  0.203178  0.205874  0.544812  1
  O  O15  1  0.294673  0.704950  0.544892  1
  O  O16  1  0.579624  0.016353  0.744331  1
  O  O17  1  0.912983  0.518834  0.748285  1
  O  O18  1  0.199022  0.209133  0.957039  1
  O  O19  1  0.290960  0.701360  0.956969  1
