# generated using pymatgen
data_Ti8Co7Si14Os
_symmetry_space_group_name_H-M   'P 1'
_cell_length_a   9.23145071
_cell_length_b   9.22826377
_cell_length_c   9.25898558
_cell_angle_alpha   94.19186916
_cell_angle_beta   94.20090988
_cell_angle_gamma   148.56259266
_symmetry_Int_Tables_number   1
_chemical_formula_structural   Ti8Co7Si14Os
_chemical_formula_sum   'Ti8 Co7 Si14 Os1'
_cell_volume   396.10773747
_cell_formula_units_Z   1
loop_
 _symmetry_equiv_pos_site_id
 _symmetry_equiv_pos_as_xyz
  1  'x, y, z'
loop_
 _atom_site_type_symbol
 _atom_site_label
 _atom_site_symmetry_multiplicity
 _atom_site_fract_x
 _atom_site_fract_y
 _atom_site_fract_z
 _atom_site_occupancy
  Ti  Ti0  1  0.135466  0.135466  0.270928  1
  Ti  Ti1  1  0.864469  0.864447  0.728934  1
  Ti  Ti2  1  0.863367  0.134431  0.000312  1
  Ti  Ti3  1  0.136917  0.865878  0.000289  1
  Ti  Ti4  1  0.502026  0.692072  0.193850  1
  Ti  Ti5  1  0.500156  0.308304  0.807774  1
  Ti  Ti6  1  0.307549  0.499424  0.807759  1
  Ti  Ti7  1  0.691846  0.501785  0.193833  1
  Co  Co8  1  0.103073  0.603074  0.206212  1
  Co  Co9  1  0.099083  0.898490  0.499221  1
  Co  Co10  1  0.400150  0.600739  0.499240  1
  Co  Co11  1  0.597584  0.397591  0.498143  1
  Co  Co12  1  0.900612  0.100591  0.498155  1
  Co  Co13  1  0.898850  0.398871  0.797738  1
  Co  Co14  1  0.599317  0.099311  0.198647  1
  Si  Si15  1  0.293610  0.293589  0.587238  1
  Si  Si16  1  0.706585  0.706567  0.413090  1
  Si  Si17  1  0.725180  0.316471  0.006449  1
  Si  Si18  1  0.281232  0.689949  0.006460  1
  Si  Si19  1  0.999234  0.292432  0.292860  1
  Si  Si20  1  0.988697  0.701604  0.705409  1
  Si  Si21  1  0.716794  0.003883  0.705418  1
  Si  Si22  1  0.293581  0.000407  0.292842  1
  Si  Si23  1  0.503966  0.908143  0.404467  1
  Si  Si24  1  0.505535  0.100929  0.589002  1
  Si  Si25  1  0.083421  0.488043  0.589017  1
  Si  Si26  1  0.900538  0.496373  0.404482  1
  Si  Si27  1  0.749179  0.750159  0.000049  1
  Si  Si28  1  0.250865  0.249896  0.000051  1
  Os  Os29  1  0.401119  0.901079  0.802131  1
