# generated using pymatgen
data_Y9ErCd3Pt
_symmetry_space_group_name_H-M   'P 1'
_cell_length_a   9.74082300
_cell_length_b   9.74082310
_cell_length_c   9.80313700
_cell_angle_alpha   90.00000000
_cell_angle_beta   90.00000000
_cell_angle_gamma   120.00000305
_symmetry_Int_Tables_number   1
_chemical_formula_structural   Y9ErCd3Pt
_chemical_formula_sum   'Y18 Er2 Cd6 Pt2'
_cell_volume   805.53979212
_cell_formula_units_Z   2
loop_
 _symmetry_equiv_pos_site_id
 _symmetry_equiv_pos_as_xyz
  1  'x, y, z'
loop_
 _atom_site_type_symbol
 _atom_site_label
 _atom_site_symmetry_multiplicity
 _atom_site_fract_x
 _atom_site_fract_y
 _atom_site_fract_z
 _atom_site_occupancy
  Y  Y0  1  0.207195  0.792805  0.940490  1
  Y  Y1  1  0.207195  0.414389  0.940490  1
  Y  Y2  1  0.585611  0.792805  0.940490  1
  Y  Y3  1  0.792805  0.207195  0.059510  1
  Y  Y4  1  0.792805  0.585611  0.059510  1
  Y  Y5  1  0.414389  0.207195  0.059510  1
  Y  Y6  1  0.792805  0.207195  0.440490  1
  Y  Y7  1  0.792805  0.585611  0.440490  1
  Y  Y8  1  0.414389  0.207195  0.440490  1
  Y  Y9  1  0.207195  0.792805  0.559510  1
  Y  Y10  1  0.207195  0.414389  0.559510  1
  Y  Y11  1  0.585611  0.792805  0.559510  1
  Y  Y12  1  0.542530  0.457470  0.750000  1
  Y  Y13  1  0.542530  0.085060  0.750000  1
  Y  Y14  1  0.914940  0.457470  0.750000  1
  Y  Y15  1  0.457470  0.542530  0.250000  1
  Y  Y16  1  0.457470  0.914940  0.250000  1
  Y  Y17  1  0.085060  0.542530  0.250000  1
  Er  Er18  1  0.000000  0.000000  0.000000  1
  Er  Er19  1  0.000000  0.000000  0.500000  1
  Cd  Cd20  1  0.884694  0.115306  0.750000  1
  Cd  Cd21  1  0.884694  0.769387  0.750000  1
  Cd  Cd22  1  0.230613  0.115306  0.750000  1
  Cd  Cd23  1  0.115306  0.884694  0.250000  1
  Cd  Cd24  1  0.115306  0.230613  0.250000  1
  Cd  Cd25  1  0.769387  0.884694  0.250000  1
  Pt  Pt26  1  0.333333  0.666667  0.750000  1
  Pt  Pt27  1  0.666667  0.333333  0.250000  1
