# generated using pymatgen
data_Y8Tm11LuPd16
_symmetry_space_group_name_H-M   'P 1'
_cell_length_a   7.45749000
_cell_length_b   7.52327300
_cell_length_c   14.60982500
_cell_angle_alpha   90.00000000
_cell_angle_beta   90.00000000
_cell_angle_gamma   90.00057880
_symmetry_Int_Tables_number   1
_chemical_formula_structural   Y8Tm11LuPd16
_chemical_formula_sum   'Y8 Tm11 Lu1 Pd16'
_cell_volume   819.68033321
_cell_formula_units_Z   1
loop_
 _symmetry_equiv_pos_site_id
 _symmetry_equiv_pos_as_xyz
  1  'x, y, z'
loop_
 _atom_site_type_symbol
 _atom_site_label
 _atom_site_symmetry_multiplicity
 _atom_site_fract_x
 _atom_site_fract_y
 _atom_site_fract_z
 _atom_site_occupancy
  Y  Y0  1  0.999231  0.821581  0.407421  1
  Y  Y1  1  0.499382  0.678318  0.092586  1
  Y  Y2  1  0.500515  0.321299  0.592859  1
  Y  Y3  1  0.000888  0.178296  0.907115  1
  Y  Y4  1  0.000888  0.178296  0.592885  1
  Y  Y5  1  0.500515  0.321299  0.907141  1
  Y  Y6  1  0.499382  0.678318  0.407414  1
  Y  Y7  1  0.999231  0.821581  0.092579  1
  Tm  Tm8  1  0.680369  0.989065  0.250000  1
  Tm  Tm9  1  0.180495  0.510932  0.250000  1
  Tm  Tm10  1  0.819626  0.489097  0.750000  1
  Tm  Tm11  1  0.657802  0.834012  0.622415  1
  Tm  Tm12  1  0.158190  0.666464  0.877586  1
  Tm  Tm13  1  0.841877  0.333864  0.377915  1
  Tm  Tm14  1  0.341970  0.166201  0.122065  1
  Tm  Tm15  1  0.341970  0.166201  0.377935  1
  Tm  Tm16  1  0.841877  0.333864  0.122085  1
  Tm  Tm17  1  0.158190  0.666464  0.622414  1
  Tm  Tm18  1  0.657802  0.834012  0.877585  1
  Lu  Lu19  1  0.319474  0.010694  0.750000  1
  Pd  Pd20  1  0.815049  0.641494  0.250000  1
  Pd  Pd21  1  0.314937  0.858566  0.250000  1
  Pd  Pd22  1  0.684073  0.141187  0.750000  1
  Pd  Pd23  1  0.185510  0.357539  0.750000  1
  Pd  Pd24  1  0.546166  0.384460  0.250000  1
  Pd  Pd25  1  0.046136  0.115680  0.250000  1
  Pd  Pd26  1  0.954627  0.885122  0.750000  1
  Pd  Pd27  1  0.453563  0.616009  0.750000  1
  Pd  Pd28  1  0.820163  0.535210  0.541823  1
  Pd  Pd29  1  0.320154  0.964902  0.958005  1
  Pd  Pd30  1  0.679887  0.035255  0.458693  1
  Pd  Pd31  1  0.179928  0.464677  0.041264  1
  Pd  Pd32  1  0.179928  0.464677  0.458736  1
  Pd  Pd33  1  0.679887  0.035255  0.041307  1
  Pd  Pd34  1  0.320154  0.964902  0.541995  1
  Pd  Pd35  1  0.820163  0.535210  0.958177  1
