# generated using pymatgen
data_Er7U(ReB6)4
_symmetry_space_group_name_H-M   'P 1'
_cell_length_a   9.12577302
_cell_length_b   11.48621113
_cell_length_c   3.66489000
_cell_angle_alpha   90.00000000
_cell_angle_beta   90.00000000
_cell_angle_gamma   89.81401167
_symmetry_Int_Tables_number   1
_chemical_formula_structural   Er7U(ReB6)4
_chemical_formula_sum   'Er7 U1 Re4 B24'
_cell_volume   384.15378214
_cell_formula_units_Z   1
loop_
 _symmetry_equiv_pos_site_id
 _symmetry_equiv_pos_as_xyz
  1  'x, y, z'
loop_
 _atom_site_type_symbol
 _atom_site_label
 _atom_site_symmetry_multiplicity
 _atom_site_fract_x
 _atom_site_fract_y
 _atom_site_fract_z
 _atom_site_occupancy
  Er  Er0  1  0.442237  0.126832  0.000000  1
  Er  Er1  1  0.943105  0.372904  0.000000  1
  Er  Er2  1  0.323292  0.414550  0.000000  1
  Er  Er3  1  0.675966  0.586727  0.000000  1
  Er  Er4  1  0.057305  0.629747  0.000000  1
  Er  Er5  1  0.554852  0.871973  0.000000  1
  Er  Er6  1  0.180175  0.913500  0.000000  1
  U  U7  1  0.823516  0.085814  0.000000  1
  Re  Re8  1  0.133726  0.177636  0.000000  1
  Re  Re9  1  0.641628  0.316943  0.000000  1
  Re  Re10  1  0.362499  0.678505  0.000000  1
  Re  Re11  1  0.862666  0.825474  0.000000  1
  B  B12  1  0.608998  0.029966  0.500001  1
  B  B13  1  0.050956  0.067814  0.500001  1
  B  B14  1  0.248154  0.080431  0.500001  1
  B  B15  1  0.632926  0.183986  0.500001  1
  B  B16  1  0.980742  0.212153  0.500001  1
  B  B17  1  0.291416  0.233585  0.500001  1
  B  B18  1  0.792603  0.264602  0.500001  1
  B  B19  1  0.481938  0.286850  0.500001  1
  B  B20  1  0.130691  0.315156  0.500001  1
  B  B21  1  0.748549  0.419344  0.500001  1
  B  B22  1  0.553533  0.432069  0.500001  1
  B  B23  1  0.101836  0.472046  0.500001  1
  B  B24  1  0.898023  0.529591  0.500001  1
  B  B25  1  0.447511  0.565662  0.500001  1
  B  B26  1  0.251006  0.580252  0.500001  1
  B  B27  1  0.869668  0.686459  0.500001  1
  B  B28  1  0.518602  0.712108  0.500001  1
  B  B29  1  0.208265  0.734103  0.500001  1
  B  B30  1  0.708055  0.765962  0.500001  1
  B  B31  1  0.018469  0.787933  0.500001  1
  B  B32  1  0.368826  0.814141  0.500001  1
  B  B33  1  0.751225  0.920915  0.500001  1
  B  B34  1  0.945699  0.934509  0.500001  1
  B  B35  1  0.391341  0.969756  0.500001  1
