# generated using pymatgen
data_NdTmBeCoSi4
_symmetry_space_group_name_H-M   'P 1'
_cell_length_a   8.46433374
_cell_length_b   8.46433279
_cell_length_c   3.95320300
_cell_angle_alpha   90.00000000
_cell_angle_beta   90.00000000
_cell_angle_gamma   152.34010357
_symmetry_Int_Tables_number   1
_chemical_formula_structural   NdTmBeCoSi4
_chemical_formula_sum   'Nd1 Tm1 Be1 Co1 Si4'
_cell_volume   131.48025564
_cell_formula_units_Z   1
loop_
 _symmetry_equiv_pos_site_id
 _symmetry_equiv_pos_as_xyz
  1  'x, y, z'
loop_
 _atom_site_type_symbol
 _atom_site_label
 _atom_site_symmetry_multiplicity
 _atom_site_fract_x
 _atom_site_fract_y
 _atom_site_fract_z
 _atom_site_occupancy
  Nd  Nd0  1  0.111978  0.888022  0.250000  1
  Tm  Tm1  1  0.897016  0.102984  0.750000  1
  Be  Be2  1  0.672731  0.327269  0.750000  1
  Co  Co3  1  0.319018  0.680982  0.250000  1
  Si  Si4  1  0.755716  0.244284  0.250000  1
  Si  Si5  1  0.253725  0.746275  0.750000  1
  Si  Si6  1  0.536095  0.463905  0.750000  1
  Si  Si7  1  0.453720  0.546280  0.250000  1
