# generated using pymatgen
data_Dy6ZrV(Co4P3)4
_symmetry_space_group_name_H-M   'P 1'
_cell_length_a   3.69973500
_cell_length_b   10.60048600
_cell_length_c   12.31183800
_cell_angle_alpha   90.00000000
_cell_angle_beta   90.00000000
_cell_angle_gamma   90.00000000
_symmetry_Int_Tables_number   1
_chemical_formula_structural   Dy6ZrV(Co4P3)4
_chemical_formula_sum   'Dy6 Zr1 V1 Co16 P12'
_cell_volume   482.85783997
_cell_formula_units_Z   1
loop_
 _symmetry_equiv_pos_site_id
 _symmetry_equiv_pos_as_xyz
  1  'x, y, z'
loop_
 _atom_site_type_symbol
 _atom_site_label
 _atom_site_symmetry_multiplicity
 _atom_site_fract_x
 _atom_site_fract_y
 _atom_site_fract_z
 _atom_site_occupancy
  Dy  Dy0  1  0.000000  0.500000  0.529151  1
  Dy  Dy1  1  0.500000  0.000000  0.477070  1
  Dy  Dy2  1  0.500000  0.821822  0.205456  1
  Dy  Dy3  1  0.500000  0.178178  0.205456  1
  Dy  Dy4  1  0.000000  0.682200  0.795611  1
  Dy  Dy5  1  0.000000  0.317800  0.795611  1
  Zr  Zr6  1  0.500000  0.500000  0.154730  1
  V  V7  1  0.000000  0.000000  0.843065  1
  Co  Co8  1  0.500000  0.500000  0.702494  1
  Co  Co9  1  0.000000  0.000000  0.297396  1
  Co  Co10  1  0.000000  0.500000  0.982883  1
  Co  Co11  1  0.500000  0.000000  0.011259  1
  Co  Co12  1  0.500000  0.327426  0.988339  1
  Co  Co13  1  0.500000  0.672574  0.988339  1
  Co  Co14  1  0.000000  0.162958  0.002720  1
  Co  Co15  1  0.000000  0.837042  0.002720  1
  Co  Co16  1  0.500000  0.294002  0.434668  1
  Co  Co17  1  0.500000  0.705998  0.434668  1
  Co  Co18  1  0.000000  0.202902  0.570014  1
  Co  Co19  1  0.000000  0.797098  0.570014  1
  Co  Co20  1  0.500000  0.879761  0.706740  1
  Co  Co21  1  0.500000  0.120239  0.706740  1
  Co  Co22  1  0.000000  0.623097  0.298293  1
  Co  Co23  1  0.000000  0.376903  0.298293  1
  P  P24  1  0.500000  0.500000  0.881484  1
  P  P25  1  0.000000  0.000000  0.116760  1
  P  P26  1  0.500000  0.500000  0.361622  1
  P  P27  1  0.000000  0.000000  0.651784  1
  P  P28  1  0.500000  0.309350  0.617398  1
  P  P29  1  0.500000  0.690650  0.617398  1
  P  P30  1  0.000000  0.188228  0.386099  1
  P  P31  1  0.000000  0.811772  0.386099  1
  P  P32  1  0.500000  0.848554  0.888427  1
  P  P33  1  0.500000  0.151446  0.888427  1
  P  P34  1  0.000000  0.664290  0.101386  1
  P  P35  1  0.000000  0.335710  0.101386  1
