# generated using pymatgen
data_Be3Al2Fe
_symmetry_space_group_name_H-M   'P 1'
_cell_length_a   4.51322059
_cell_length_b   4.51322141
_cell_length_c   4.51322073
_cell_angle_alpha   58.69925193
_cell_angle_beta   58.69924963
_cell_angle_gamma   58.69924089
_symmetry_Int_Tables_number   1
_chemical_formula_structural   Be3Al2Fe
_chemical_formula_sum   'Be3 Al2 Fe1'
_cell_volume   63.07261286
_cell_formula_units_Z   1
loop_
 _symmetry_equiv_pos_site_id
 _symmetry_equiv_pos_as_xyz
  1  'x, y, z'
loop_
 _atom_site_type_symbol
 _atom_site_label
 _atom_site_symmetry_multiplicity
 _atom_site_fract_x
 _atom_site_fract_y
 _atom_site_fract_z
 _atom_site_occupancy
  Be  Be0  1  0.624999  0.624999  0.125003  1
  Be  Be1  1  0.125003  0.624999  0.624999  1
  Be  Be2  1  0.624999  0.125003  0.624999  1
  Al  Al3  1  0.997314  0.997314  0.997314  1
  Al  Al4  1  0.252687  0.252687  0.252687  1
  Fe  Fe5  1  0.624999  0.624999  0.624999  1
