# generated using pymatgen
data_Tm3Ag2Hg3Pt
_symmetry_space_group_name_H-M   'P 1'
_cell_length_a   7.92879700
_cell_length_b   7.92879534
_cell_length_c   3.70101800
_cell_angle_alpha   90.00000000
_cell_angle_beta   90.00000000
_cell_angle_gamma   120.00000274
_symmetry_Int_Tables_number   1
_chemical_formula_structural   Tm3Ag2Hg3Pt
_chemical_formula_sum   'Tm3 Ag2 Hg3 Pt1'
_cell_volume   201.49595118
_cell_formula_units_Z   1
loop_
 _symmetry_equiv_pos_site_id
 _symmetry_equiv_pos_as_xyz
  1  'x, y, z'
loop_
 _atom_site_type_symbol
 _atom_site_label
 _atom_site_symmetry_multiplicity
 _atom_site_fract_x
 _atom_site_fract_y
 _atom_site_fract_z
 _atom_site_occupancy
  Tm  Tm0  1  0.382302  0.415261  0.500000  1
  Tm  Tm1  1  0.584739  0.967040  0.500000  1
  Tm  Tm2  1  0.032960  0.617698  0.500000  1
  Ag  Ag3  1  0.666667  0.333333  0.000000  1
  Ag  Ag4  1  0.000000  0.000000  0.500000  1
  Hg  Hg5  1  0.987078  0.270119  0.000000  1
  Hg  Hg6  1  0.729881  0.716959  0.000000  1
  Hg  Hg7  1  0.283041  0.012922  0.000000  1
  Pt  Pt8  1  0.333333  0.666667  0.000000  1
