# generated using pymatgen
data_Dy5Zr3(Ta3Ge4)4
_symmetry_space_group_name_H-M   'P 1'
_cell_length_a   6.94536476
_cell_length_b   7.08245931
_cell_length_c   13.47779758
_cell_angle_alpha   90.14042468
_cell_angle_beta   89.91861282
_cell_angle_gamma   89.99216670
_symmetry_Int_Tables_number   1
_chemical_formula_structural   Dy5Zr3(Ta3Ge4)4
_chemical_formula_sum   'Dy5 Zr3 Ta12 Ge16'
_cell_volume   662.97374537
_cell_formula_units_Z   1
loop_
 _symmetry_equiv_pos_site_id
 _symmetry_equiv_pos_as_xyz
  1  'x, y, z'
loop_
 _atom_site_type_symbol
 _atom_site_label
 _atom_site_symmetry_multiplicity
 _atom_site_fract_x
 _atom_site_fract_y
 _atom_site_fract_z
 _atom_site_occupancy
  Dy  Dy0  1  0.492243  0.674089  0.593023  1
  Dy  Dy1  1  0.991974  0.826889  0.908066  1
  Dy  Dy2  1  0.507764  0.327130  0.091928  1
  Dy  Dy3  1  0.006312  0.171869  0.407829  1
  Dy  Dy4  1  0.505938  0.325702  0.406579  1
  Zr  Zr5  1  0.008953  0.175199  0.093552  1
  Zr  Zr6  1  0.490503  0.676409  0.905622  1
  Zr  Zr7  1  0.989891  0.822692  0.596031  1
  Ta  Ta8  1  0.661363  0.164160  0.626781  1
  Ta  Ta9  1  0.159461  0.333197  0.874758  1
  Ta  Ta10  1  0.340704  0.832939  0.123532  1
  Ta  Ta11  1  0.842569  0.669376  0.373960  1
  Ta  Ta12  1  0.340064  0.833790  0.372939  1
  Ta  Ta13  1  0.840962  0.668265  0.125434  1
  Ta  Ta14  1  0.660542  0.166552  0.874269  1
  Ta  Ta15  1  0.160390  0.334009  0.626432  1
  Ta  Ta16  1  0.836848  0.488159  0.750251  1
  Ta  Ta17  1  0.336233  0.011064  0.751429  1
  Ta  Ta18  1  0.163606  0.512570  0.247738  1
  Ta  Ta19  1  0.665432  0.987121  0.248778  1
  Ge  Ge20  1  0.678237  0.958942  0.460058  1
  Ge  Ge21  1  0.177185  0.538335  0.040445  1
  Ge  Ge22  1  0.323180  0.039538  0.958766  1
  Ge  Ge23  1  0.825796  0.461569  0.542567  1
  Ge  Ge24  1  0.316423  0.036965  0.542805  1
  Ge  Ge25  1  0.818002  0.460107  0.959167  1
  Ge  Ge26  1  0.681359  0.960230  0.040448  1
  Ge  Ge27  1  0.175508  0.544014  0.459851  1
  Ge  Ge28  1  0.461013  0.382543  0.750877  1
  Ge  Ge29  1  0.961138  0.116518  0.749622  1
  Ge  Ge30  1  0.539748  0.619260  0.249624  1
  Ge  Ge31  1  0.040398  0.883077  0.248367  1
  Ge  Ge32  1  0.693515  0.852636  0.751096  1
  Ge  Ge33  1  0.194093  0.646180  0.750067  1
  Ge  Ge34  1  0.304578  0.145093  0.248610  1
  Ge  Ge35  1  0.808077  0.353812  0.248700  1
