# generated using pymatgen
data_Tb5Dy11(HoBi3)4
_symmetry_space_group_name_H-M   'P 1'
_cell_length_a   8.28360764
_cell_length_b   9.53461109
_cell_length_c   12.06451906
_cell_angle_alpha   89.99258352
_cell_angle_beta   90.03054245
_cell_angle_gamma   90.00195457
_symmetry_Int_Tables_number   1
_chemical_formula_structural   Tb5Dy11(HoBi3)4
_chemical_formula_sum   'Tb5 Dy11 Ho4 Bi12'
_cell_volume   952.86736100
_cell_formula_units_Z   1
loop_
 _symmetry_equiv_pos_site_id
 _symmetry_equiv_pos_as_xyz
  1  'x, y, z'
loop_
 _atom_site_type_symbol
 _atom_site_label
 _atom_site_symmetry_multiplicity
 _atom_site_fract_x
 _atom_site_fract_y
 _atom_site_fract_z
 _atom_site_occupancy
  Tb  Tb0  1  0.193271  0.563776  0.441223  1
  Tb  Tb1  1  0.312656  0.250012  0.219037  1
  Tb  Tb2  1  0.812758  0.249987  0.280932  1
  Tb  Tb3  1  0.687335  0.750021  0.781018  1
  Tb  Tb4  1  0.187334  0.750151  0.719161  1
  Dy  Dy5  1  0.353037  0.750222  0.215611  1
  Dy  Dy6  1  0.852585  0.750255  0.284140  1
  Dy  Dy7  1  0.647318  0.249983  0.784346  1
  Dy  Dy8  1  0.147304  0.250137  0.715695  1
  Dy  Dy9  1  0.693311  0.564298  0.058777  1
  Dy  Dy10  1  0.193178  0.935805  0.441172  1
  Dy  Dy11  1  0.306660  0.064304  0.941248  1
  Dy  Dy12  1  0.806893  0.435610  0.558720  1
  Dy  Dy13  1  0.306684  0.435634  0.941227  1
  Dy  Dy14  1  0.806547  0.064300  0.558813  1
  Dy  Dy15  1  0.693394  0.935701  0.058741  1
  Ho  Ho16  1  0.475044  0.250015  0.488164  1
  Ho  Ho17  1  0.974888  0.250150  0.011720  1
  Ho  Ho18  1  0.525451  0.750071  0.511900  1
  Ho  Ho19  1  0.025163  0.749938  0.988214  1
  Bi  Bi20  1  0.407471  0.749977  0.957784  1
  Bi  Bi21  1  0.907090  0.750341  0.542359  1
  Bi  Bi22  1  0.592516  0.249999  0.042183  1
  Bi  Bi23  1  0.092156  0.248955  0.457977  1
  Bi  Bi24  1  0.565122  0.994909  0.325472  1
  Bi  Bi25  1  0.064993  0.505204  0.174278  1
  Bi  Bi26  1  0.434875  0.494858  0.674647  1
  Bi  Bi27  1  0.934819  0.005268  0.825551  1
  Bi  Bi28  1  0.434898  0.005257  0.674485  1
  Bi  Bi29  1  0.934761  0.494837  0.825609  1
  Bi  Bi30  1  0.565392  0.505158  0.325387  1
  Bi  Bi31  1  0.065097  0.994868  0.174409  1
