# generated using pymatgen
data_Ag2Pb(SO4)4
_symmetry_space_group_name_H-M   'P 1'
_cell_length_a   6.67602001
_cell_length_b   6.67602040
_cell_length_c   9.12560540
_cell_angle_alpha   74.41508110
_cell_angle_beta   74.41508594
_cell_angle_gamma   87.48995232
_symmetry_Int_Tables_number   1
_chemical_formula_structural   Ag2Pb(SO4)4
_chemical_formula_sum   'Ag2 Pb1 S4 O16'
_cell_volume   377.18690814
_cell_formula_units_Z   1
loop_
 _symmetry_equiv_pos_site_id
 _symmetry_equiv_pos_as_xyz
  1  'x, y, z'
loop_
 _atom_site_type_symbol
 _atom_site_label
 _atom_site_symmetry_multiplicity
 _atom_site_fract_x
 _atom_site_fract_y
 _atom_site_fract_z
 _atom_site_occupancy
  Ag  Ag0  1  0.000000  0.000000  0.500000  1
  Ag  Ag1  1  0.500000  0.500000  0.500000  1
  Pb  Pb2  1  0.000000  0.000000  0.000000  1
  S  S3  1  0.086529  0.589373  0.733475  1
  S  S4  1  0.589373  0.086529  0.733475  1
  S  S5  1  0.913471  0.410627  0.266525  1
  S  S6  1  0.410627  0.913471  0.266525  1
  O  O7  1  0.322155  0.627936  0.672816  1
  O  O8  1  0.627936  0.322155  0.672816  1
  O  O9  1  0.677845  0.372064  0.327184  1
  O  O10  1  0.372064  0.677845  0.327184  1
  O  O11  1  0.020897  0.699139  0.855810  1
  O  O12  1  0.699139  0.020897  0.855810  1
  O  O13  1  0.979103  0.300861  0.144190  1
  O  O14  1  0.300861  0.979103  0.144190  1
  O  O15  1  0.988387  0.680844  0.596902  1
  O  O16  1  0.680844  0.988387  0.596902  1
  O  O17  1  0.011613  0.319156  0.403098  1
  O  O18  1  0.319156  0.011613  0.403098  1
  O  O19  1  0.031999  0.367765  0.780975  1
  O  O20  1  0.367765  0.031999  0.780975  1
  O  O21  1  0.968001  0.632235  0.219025  1
  O  O22  1  0.632235  0.968001  0.219025  1
