# generated using pymatgen
data_Tm3ThAl14(Ga2Ir3)2
_symmetry_space_group_name_H-M   'P 1'
_cell_length_a   7.54955200
_cell_length_b   7.56036665
_cell_length_c   9.51114800
_cell_angle_alpha   90.00000000
_cell_angle_beta   90.00000000
_cell_angle_gamma   119.44687104
_symmetry_Int_Tables_number   1
_chemical_formula_structural   Tm3ThAl14(Ga2Ir3)2
_chemical_formula_sum   'Tm3 Th1 Al14 Ga4 Ir6'
_cell_volume   472.73891085
_cell_formula_units_Z   1
loop_
 _symmetry_equiv_pos_site_id
 _symmetry_equiv_pos_as_xyz
  1  'x, y, z'
loop_
 _atom_site_type_symbol
 _atom_site_label
 _atom_site_symmetry_multiplicity
 _atom_site_fract_x
 _atom_site_fract_y
 _atom_site_fract_z
 _atom_site_occupancy
  Tm  Tm0  1  0.001938  0.325230  0.750000  1
  Tm  Tm1  1  0.673408  0.995272  0.250000  1
  Tm  Tm2  1  0.325189  0.003212  0.750000  1
  Th  Th3  1  0.995008  0.671381  0.250000  1
  Al  Al4  1  0.002056  0.330966  0.071344  1
  Al  Al5  1  0.999447  0.663832  0.918186  1
  Al  Al6  1  0.999447  0.663832  0.581814  1
  Al  Al7  1  0.340775  0.006138  0.428692  1
  Al  Al8  1  0.002056  0.330966  0.428656  1
  Al  Al9  1  0.664002  0.000420  0.576419  1
  Al  Al10  1  0.664002  0.000420  0.923581  1
  Al  Al11  1  0.340775  0.006138  0.071308  1
  Al  Al12  1  0.332223  0.332359  0.561524  1
  Al  Al13  1  0.662573  0.666313  0.454892  1
  Al  Al14  1  0.662573  0.666313  0.045108  1
  Al  Al15  1  0.332223  0.332359  0.938476  1
  Al  Al16  1  0.660103  0.447534  0.750000  1
  Al  Al17  1  0.447997  0.662981  0.750000  1
  Ga  Ga18  1  0.131678  0.134684  0.250000  1
  Ga  Ga19  1  0.867963  0.870668  0.750000  1
  Ga  Ga20  1  0.347834  0.550556  0.250000  1
  Ga  Ga21  1  0.543659  0.336923  0.250000  1
  Ir  Ir22  1  0.673354  0.329863  0.997849  1
  Ir  Ir23  1  0.326851  0.671674  0.998038  1
  Ir  Ir24  1  0.326851  0.671674  0.501962  1
  Ir  Ir25  1  0.673354  0.329863  0.502151  1
  Ir  Ir26  1  0.001331  0.999215  0.000536  1
  Ir  Ir27  1  0.001331  0.999215  0.499464  1
