# generated using pymatgen
data_Yb5Pt
_symmetry_space_group_name_H-M   'P 1'
_cell_length_a   6.80523100
_cell_length_b   7.55519500
_cell_length_c   15.77349000
_cell_angle_alpha   90.00000000
_cell_angle_beta   90.00000000
_cell_angle_gamma   90.00000000
_symmetry_Int_Tables_number   1
_chemical_formula_structural   Yb5Pt
_chemical_formula_sum   'Yb20 Pt4'
_cell_volume   810.99157856
_cell_formula_units_Z   4
loop_
 _symmetry_equiv_pos_site_id
 _symmetry_equiv_pos_as_xyz
  1  'x, y, z'
loop_
 _atom_site_type_symbol
 _atom_site_label
 _atom_site_symmetry_multiplicity
 _atom_site_fract_x
 _atom_site_fract_y
 _atom_site_fract_z
 _atom_site_occupancy
  Yb  Yb0  1  0.353854  0.310658  0.063688  1
  Yb  Yb1  1  0.646146  0.689342  0.936312  1
  Yb  Yb2  1  0.853854  0.189342  0.936312  1
  Yb  Yb3  1  0.646146  0.689342  0.563688  1
  Yb  Yb4  1  0.146146  0.810658  0.063688  1
  Yb  Yb5  1  0.353854  0.310658  0.436312  1
  Yb  Yb6  1  0.146146  0.810658  0.436312  1
  Yb  Yb7  1  0.853854  0.189342  0.563688  1
  Yb  Yb8  1  0.156410  0.096263  0.250000  1
  Yb  Yb9  1  0.843590  0.903737  0.750000  1
  Yb  Yb10  1  0.656410  0.403737  0.750000  1
  Yb  Yb11  1  0.343590  0.596263  0.250000  1
  Yb  Yb12  1  0.324407  0.036639  0.643309  1
  Yb  Yb13  1  0.675593  0.963361  0.356691  1
  Yb  Yb14  1  0.824407  0.463361  0.356691  1
  Yb  Yb15  1  0.675593  0.963361  0.143309  1
  Yb  Yb16  1  0.175593  0.536639  0.643309  1
  Yb  Yb17  1  0.324407  0.036639  0.856691  1
  Yb  Yb18  1  0.175593  0.536639  0.856691  1
  Yb  Yb19  1  0.824407  0.463361  0.143309  1
  Pt  Pt20  1  0.539255  0.262070  0.250000  1
  Pt  Pt21  1  0.460745  0.737930  0.750000  1
  Pt  Pt22  1  0.039255  0.237930  0.750000  1
  Pt  Pt23  1  0.960745  0.762070  0.250000  1
