# generated using pymatgen
data_CeHo2Er3(SiPd5)2
_symmetry_space_group_name_H-M   'P 1'
_cell_length_a   8.22573058
_cell_length_b   8.22516673
_cell_length_c   8.22516804
_cell_angle_alpha   128.01942775
_cell_angle_beta   125.58814587
_cell_angle_gamma   78.58524570
_symmetry_Int_Tables_number   1
_chemical_formula_structural   CeHo2Er3(SiPd5)2
_chemical_formula_sum   'Ce1 Ho2 Er3 Si2 Pd10'
_cell_volume   345.15060519
_cell_formula_units_Z   1
loop_
 _symmetry_equiv_pos_site_id
 _symmetry_equiv_pos_as_xyz
  1  'x, y, z'
loop_
 _atom_site_type_symbol
 _atom_site_label
 _atom_site_symmetry_multiplicity
 _atom_site_fract_x
 _atom_site_fract_y
 _atom_site_fract_z
 _atom_site_occupancy
  Ce  Ce0  1  0.616043  0.750002  0.866042  1
  Ho  Ho1  1  0.175883  0.950568  0.225315  1
  Ho  Ho2  1  0.389883  0.249994  0.139889  1
  Er  Er3  1  0.224692  0.448019  0.776673  1
  Er  Er4  1  0.774936  0.549457  0.225479  1
  Er  Er5  1  0.828562  0.052137  0.776426  1
  Si  Si6  1  0.783191  0.250036  0.533155  1
  Si  Si7  1  0.217014  0.750062  0.466952  1
  Pd  Pd8  1  0.165796  0.398298  0.354208  1
  Pd  Pd9  1  0.831531  0.187693  0.229193  1
  Pd  Pd10  1  0.456774  0.101754  0.768084  1
  Pd  Pd11  1  0.542372  0.313329  0.645295  1
  Pd  Pd12  1  0.998424  0.501156  0.000623  1
  Pd  Pd13  1  0.998424  0.997802  0.497267  1
  Pd  Pd14  1  0.456774  0.688691  0.355020  1
  Pd  Pd15  1  0.542372  0.897076  0.229043  1
  Pd  Pd16  1  0.165796  0.811588  0.767498  1
  Pd  Pd17  1  0.831531  0.602338  0.643838  1
