# generated using pymatgen
data_Ho16InAg3(IrRh)2
_symmetry_space_group_name_H-M   'P 1'
_cell_length_a   9.55705943
_cell_length_b   9.54565832
_cell_length_c   9.55694770
_cell_angle_alpha   59.79729534
_cell_angle_beta   59.86067177
_cell_angle_gamma   59.79710843
_symmetry_Int_Tables_number   1
_chemical_formula_structural   Ho16InAg3(IrRh)2
_chemical_formula_sum   'Ho16 In1 Ag3 Ir2 Rh2'
_cell_volume   613.95953857
_cell_formula_units_Z   1
loop_
 _symmetry_equiv_pos_site_id
 _symmetry_equiv_pos_as_xyz
  1  'x, y, z'
loop_
 _atom_site_type_symbol
 _atom_site_label
 _atom_site_symmetry_multiplicity
 _atom_site_fract_x
 _atom_site_fract_y
 _atom_site_fract_z
 _atom_site_occupancy
  Ho  Ho0  1  0.188804  0.182472  0.813568  1
  Ho  Ho1  1  0.601343  0.600716  0.197830  1
  Ho  Ho2  1  0.438179  0.061415  0.438183  1
  Ho  Ho3  1  0.440719  0.438585  0.059862  1
  Ho  Ho4  1  0.815099  0.181282  0.815103  1
  Ho  Ho5  1  0.188643  0.809906  0.188648  1
  Ho  Ho6  1  0.436345  0.061685  0.060868  1
  Ho  Ho7  1  0.188258  0.811846  0.812839  1
  Ho  Ho8  1  0.059152  0.439647  0.059153  1
  Ho  Ho9  1  0.812835  0.811846  0.188262  1
  Ho  Ho10  1  0.197830  0.600716  0.601345  1
  Ho  Ho11  1  0.059859  0.438584  0.440721  1
  Ho  Ho12  1  0.060864  0.061685  0.436348  1
  Ho  Ho13  1  0.813566  0.182474  0.188805  1
  Ho  Ho14  1  0.601844  0.196212  0.601849  1
  Ho  Ho15  1  0.600998  0.601069  0.601004  1
  In  In16  1  0.829260  0.511246  0.829206  1
  Ag  Ag17  1  0.832165  0.835220  0.832156  1
  Ag  Ag18  1  0.832639  0.834775  0.500640  1
  Ag  Ag19  1  0.500639  0.834774  0.832645  1
  Ir  Ir20  1  0.393156  0.823023  0.393160  1
  Ir  Ir21  1  0.391788  0.393485  0.391787  1
  Rh  Rh22  1  0.822993  0.393673  0.393024  1
  Rh  Rh23  1  0.393020  0.393666  0.822994  1
