# generated using pymatgen
data_Tb2Ti3As3P4Rh9
_symmetry_space_group_name_H-M   'P 1'
_cell_length_a   3.89493300
_cell_length_b   9.80365945
_cell_length_c   9.80385013
_cell_angle_alpha   119.99405788
_cell_angle_beta   90.00004583
_cell_angle_gamma   90.00087269
_symmetry_Int_Tables_number   1
_chemical_formula_structural   Tb2Ti3As3P4Rh9
_chemical_formula_sum   'Tb2 Ti3 As3 P4 Rh9'
_cell_volume   324.22127156
_cell_formula_units_Z   1
loop_
 _symmetry_equiv_pos_site_id
 _symmetry_equiv_pos_as_xyz
  1  'x, y, z'
loop_
 _atom_site_type_symbol
 _atom_site_label
 _atom_site_symmetry_multiplicity
 _atom_site_fract_x
 _atom_site_fract_y
 _atom_site_fract_z
 _atom_site_occupancy
  Tb  Tb0  1  0.261881  0.666597  0.333339  1
  Tb  Tb1  1  0.761876  0.333368  0.666659  1
  Ti  Ti2  1  0.761977  0.101319  0.882888  1
  Ti  Ti3  1  0.761972  0.117075  0.218366  1
  Ti  Ti4  1  0.761983  0.781559  0.898711  1
  As  As5  1  0.761852  0.877324  0.588288  1
  As  As6  1  0.761849  0.411608  0.289006  1
  As  As7  1  0.761829  0.710987  0.122743  1
  P  P8  1  0.262226  0.999981  0.000034  1
  P  P9  1  0.261835  0.117472  0.418390  1
  P  P10  1  0.261863  0.581624  0.699043  1
  P  P11  1  0.261842  0.300970  0.882517  1
  Rh  Rh12  1  0.261876  0.891120  0.161011  1
  Rh  Rh13  1  0.261894  0.839019  0.730214  1
  Rh  Rh14  1  0.261895  0.269845  0.108739  1
  Rh  Rh15  1  0.761915  0.608734  0.571181  1
  Rh  Rh16  1  0.761884  0.428823  0.037545  1
  Rh  Rh17  1  0.761878  0.962490  0.391334  1
  Rh  Rh18  1  0.261917  0.362586  0.438434  1
  Rh  Rh19  1  0.261887  0.561593  0.924085  1
  Rh  Rh20  1  0.261868  0.075904  0.637474  1
