# generated using pymatgen
data_LiPr6RuI12
_symmetry_space_group_name_H-M   'P 1'
_cell_length_a   10.18706860
_cell_length_b   10.18706946
_cell_length_c   10.18706900
_cell_angle_alpha   107.61565440
_cell_angle_beta   107.61565004
_cell_angle_gamma   107.61565535
_symmetry_Int_Tables_number   1
_chemical_formula_structural   LiPr6RuI12
_chemical_formula_sum   'Li1 Pr6 Ru1 I12'
_cell_volume   865.21525114
_cell_formula_units_Z   1
loop_
 _symmetry_equiv_pos_site_id
 _symmetry_equiv_pos_as_xyz
  1  'x, y, z'
loop_
 _atom_site_type_symbol
 _atom_site_label
 _atom_site_symmetry_multiplicity
 _atom_site_fract_x
 _atom_site_fract_y
 _atom_site_fract_z
 _atom_site_occupancy
  Li  Li0  1  0.500000  0.500000  0.500000  1
  Pr  Pr1  1  0.308333  0.108195  0.033723  1
  Pr  Pr2  1  0.033723  0.308333  0.108195  1
  Pr  Pr3  1  0.108195  0.033723  0.308333  1
  Pr  Pr4  1  0.691667  0.891805  0.966277  1
  Pr  Pr5  1  0.966277  0.691667  0.891805  1
  Pr  Pr6  1  0.891805  0.966277  0.691667  1
  Ru  Ru7  1  0.000000  0.000000  0.000000  1
  I  I8  1  0.684790  0.220867  0.072880  1
  I  I9  1  0.072880  0.684790  0.220867  1
  I  I10  1  0.220867  0.072880  0.684790  1
  I  I11  1  0.315210  0.779133  0.927120  1
  I  I12  1  0.927120  0.315210  0.779133  1
  I  I13  1  0.779133  0.927120  0.315210  1
  I  I14  1  0.463527  0.168767  0.384875  1
  I  I15  1  0.384875  0.463527  0.168767  1
  I  I16  1  0.168767  0.384875  0.463527  1
  I  I17  1  0.536473  0.831233  0.615125  1
  I  I18  1  0.615125  0.536473  0.831233  1
  I  I19  1  0.831233  0.615125  0.536473  1
