# generated using pymatgen
data_Er18Tm2(Ir3Pt)3
_symmetry_space_group_name_H-M   'P 1'
_cell_length_a   10.85271230
_cell_length_b   10.85211261
_cell_length_c   6.28835606
_cell_angle_alpha   89.97274337
_cell_angle_beta   89.97436116
_cell_angle_gamma   90.27327402
_symmetry_Int_Tables_number   1
_chemical_formula_structural   Er18Tm2(Ir3Pt)3
_chemical_formula_sum   'Er18 Tm2 Ir9 Pt3'
_cell_volume   740.60164680
_cell_formula_units_Z   1
loop_
 _symmetry_equiv_pos_site_id
 _symmetry_equiv_pos_as_xyz
  1  'x, y, z'
loop_
 _atom_site_type_symbol
 _atom_site_label
 _atom_site_symmetry_multiplicity
 _atom_site_fract_x
 _atom_site_fract_y
 _atom_site_fract_z
 _atom_site_occupancy
  Er  Er0  1  0.293735  0.086206  0.371125  1
  Er  Er1  1  0.292984  0.908875  0.876173  1
  Er  Er2  1  0.705407  0.089638  0.873361  1
  Er  Er3  1  0.704282  0.910208  0.372632  1
  Er  Er4  1  0.584447  0.790507  0.877308  1
  Er  Er5  1  0.584950  0.209496  0.377093  1
  Er  Er6  1  0.411160  0.790746  0.377241  1
  Er  Er7  1  0.414694  0.209390  0.876909  1
  Er  Er8  1  0.209491  0.415559  0.622649  1
  Er  Er9  1  0.209244  0.588832  0.122876  1
  Er  Er10  1  0.790459  0.415037  0.122934  1
  Er  Er11  1  0.790586  0.585301  0.623098  1
  Er  Er12  1  0.913788  0.706288  0.128966  1
  Er  Er13  1  0.910384  0.294581  0.626560  1
  Er  Er14  1  0.091159  0.707005  0.623723  1
  Er  Er15  1  0.089752  0.295712  0.127409  1
  Er  Er16  1  0.001181  0.998074  0.499552  1
  Er  Er17  1  0.001931  0.998846  0.000400  1
  Tm  Tm18  1  0.499756  0.499848  0.000470  1
  Tm  Tm19  1  0.500146  0.500261  0.499513  1
  Ir  Ir20  1  0.152588  0.847395  0.250000  1
  Ir  Ir21  1  0.654002  0.346036  0.749979  1
  Ir  Ir22  1  0.654561  0.654005  0.249603  1
  Ir  Ir23  1  0.345974  0.345481  0.250404  1
  Ir  Ir24  1  0.346960  0.653053  0.750023  1
  Ir  Ir25  1  0.500333  0.000015  0.122767  1
  Ir  Ir26  1  0.500205  0.000218  0.624275  1
  Ir  Ir27  1  0.999790  0.499785  0.875712  1
  Ir  Ir28  1  0.999980  0.499650  0.377242  1
  Pt  Pt29  1  0.846891  0.153127  0.249983  1
  Pt  Pt30  1  0.845293  0.846107  0.749904  1
  Pt  Pt31  1  0.153888  0.154714  0.750116  1
