# generated using pymatgen
data_RbBa2As6(IrRu)3
_symmetry_space_group_name_H-M   'P 1'
_cell_length_a   9.26519481
_cell_length_b   9.26519562
_cell_length_c   7.14183175
_cell_angle_alpha   67.08177369
_cell_angle_beta   67.08177327
_cell_angle_gamma   36.78907920
_symmetry_Int_Tables_number   1
_chemical_formula_structural   RbBa2As6(IrRu)3
_chemical_formula_sum   'Rb1 Ba2 As6 Ir3 Ru3'
_cell_volume   334.81514122
_cell_formula_units_Z   1
loop_
 _symmetry_equiv_pos_site_id
 _symmetry_equiv_pos_as_xyz
  1  'x, y, z'
loop_
 _atom_site_type_symbol
 _atom_site_label
 _atom_site_symmetry_multiplicity
 _atom_site_fract_x
 _atom_site_fract_y
 _atom_site_fract_z
 _atom_site_occupancy
  Rb  Rb0  1  0.000140  0.999860  0.000000  1
  Ba  Ba1  1  0.664957  0.664309  0.000811  1
  Ba  Ba2  1  0.335691  0.335043  0.999189  1
  As  As3  1  0.882402  0.882592  0.703220  1
  As  As4  1  0.215759  0.215389  0.705115  1
  As  As5  1  0.549917  0.550587  0.701138  1
  As  As6  1  0.449413  0.450083  0.298862  1
  As  As7  1  0.784611  0.784241  0.294885  1
  As  As8  1  0.117408  0.117598  0.296780  1
  Ir  Ir9  1  0.749794  0.250206  0.500000  1
  Ir  Ir10  1  0.082490  0.582337  0.502566  1
  Ir  Ir11  1  0.417663  0.917510  0.497434  1
  Ru  Ru12  1  0.582447  0.082678  0.502089  1
  Ru  Ru13  1  0.917322  0.417553  0.497911  1
  Ru  Ru14  1  0.249985  0.750015  0.500000  1
