# generated using pymatgen
data_CaYb3(Ga3Ir)6
_symmetry_space_group_name_H-M   'P 1'
_cell_length_a   7.55280808
_cell_length_b   7.55506880
_cell_length_c   9.69985800
_cell_angle_alpha   90.00000000
_cell_angle_beta   90.00000000
_cell_angle_gamma   119.64494921
_symmetry_Int_Tables_number   1
_chemical_formula_structural   CaYb3(Ga3Ir)6
_chemical_formula_sum   'Ca1 Yb3 Ga18 Ir6'
_cell_volume   481.04485771
_cell_formula_units_Z   1
loop_
 _symmetry_equiv_pos_site_id
 _symmetry_equiv_pos_as_xyz
  1  'x, y, z'
loop_
 _atom_site_type_symbol
 _atom_site_label
 _atom_site_symmetry_multiplicity
 _atom_site_fract_x
 _atom_site_fract_y
 _atom_site_fract_z
 _atom_site_occupancy
  Ca  Ca0  1  0.997416  0.669408  0.250000  1
  Yb  Yb1  1  0.002367  0.330330  0.750000  1
  Yb  Yb2  1  0.669586  0.997633  0.250000  1
  Yb  Yb3  1  0.330683  0.002668  0.750000  1
  Ga  Ga4  1  0.127066  0.128806  0.250000  1
  Ga  Ga5  1  0.872551  0.872862  0.750000  1
  Ga  Ga6  1  0.000778  0.333718  0.074315  1
  Ga  Ga7  1  0.999645  0.665534  0.922894  1
  Ga  Ga8  1  0.999645  0.665534  0.577106  1
  Ga  Ga9  1  0.335337  0.001623  0.425572  1
  Ga  Ga10  1  0.000778  0.333718  0.425685  1
  Ga  Ga11  1  0.665515  0.999406  0.575790  1
  Ga  Ga12  1  0.665515  0.999406  0.924210  1
  Ga  Ga13  1  0.335337  0.001623  0.074428  1
  Ga  Ga14  1  0.333619  0.333632  0.562886  1
  Ga  Ga15  1  0.665339  0.666098  0.439146  1
  Ga  Ga16  1  0.665339  0.666098  0.060854  1
  Ga  Ga17  1  0.333619  0.333632  0.937114  1
  Ga  Ga18  1  0.338036  0.546930  0.250000  1
  Ga  Ga19  1  0.663424  0.453321  0.750000  1
  Ga  Ga20  1  0.545034  0.334403  0.250000  1
  Ga  Ga21  1  0.453371  0.663733  0.750000  1
  Ir  Ir22  1  0.671580  0.328211  0.999576  1
  Ir  Ir23  1  0.328369  0.671629  0.999632  1
  Ir  Ir24  1  0.328369  0.671629  0.500368  1
  Ir  Ir25  1  0.671580  0.328211  0.500424  1
  Ir  Ir26  1  0.000052  0.000102  0.999614  1
  Ir  Ir27  1  0.000052  0.000102  0.500386  1
