# generated using pymatgen
data_Tb8Y4InCo5
_symmetry_space_group_name_H-M   'P 1'
_cell_length_a   8.33475936
_cell_length_b   8.33475912
_cell_length_c   8.33476021
_cell_angle_alpha   110.68580123
_cell_angle_beta   110.58054334
_cell_angle_gamma   107.17152003
_symmetry_Int_Tables_number   1
_chemical_formula_structural   Tb8Y4InCo5
_chemical_formula_sum   'Tb8 Y4 In1 Co5'
_cell_volume   445.17887899
_cell_formula_units_Z   1
loop_
 _symmetry_equiv_pos_site_id
 _symmetry_equiv_pos_as_xyz
  1  'x, y, z'
loop_
 _atom_site_type_symbol
 _atom_site_label
 _atom_site_symmetry_multiplicity
 _atom_site_fract_x
 _atom_site_fract_y
 _atom_site_fract_z
 _atom_site_occupancy
  Tb  Tb0  1  0.685910  0.379766  0.693857  1
  Tb  Tb1  1  0.314090  0.620234  0.306143  1
  Tb  Tb2  1  0.685910  0.992053  0.306143  1
  Tb  Tb3  1  0.314090  0.007947  0.693857  1
  Tb  Tb4  1  0.602490  0.793592  0.808899  1
  Tb  Tb5  1  0.397510  0.206408  0.191101  1
  Tb  Tb6  1  0.984692  0.793592  0.191101  1
  Tb  Tb7  1  0.015308  0.206408  0.808899  1
  Y  Y8  1  0.813323  0.705967  0.519289  1
  Y  Y9  1  0.186677  0.294033  0.480711  1
  Y  Y10  1  0.186677  0.705967  0.892645  1
  Y  Y11  1  0.813323  0.294033  0.107355  1
  In  In12  1  0.500000  0.500000  0.000000  1
  Co  Co13  1  0.620191  0.000000  0.620191  1
  Co  Co14  1  0.379809  0.000000  0.379809  1
  Co  Co15  1  0.112240  0.612240  0.500000  1
  Co  Co16  1  0.887760  0.387760  0.500000  1
  Co  Co17  1  0.000000  0.000000  0.000000  1
