# generated using pymatgen
data_Rb2GaBi2
_symmetry_space_group_name_H-M   'P 1'
_cell_length_a   9.60200700
_cell_length_b   11.26839500
_cell_length_c   15.88368700
_cell_angle_alpha   90.00000000
_cell_angle_beta   90.00000000
_cell_angle_gamma   90.00000000
_symmetry_Int_Tables_number   1
_chemical_formula_structural   Rb2GaBi2
_chemical_formula_sum   'Rb16 Ga8 Bi16'
_cell_volume   1718.60234826
_cell_formula_units_Z   8
loop_
 _symmetry_equiv_pos_site_id
 _symmetry_equiv_pos_as_xyz
  1  'x, y, z'
loop_
 _atom_site_type_symbol
 _atom_site_label
 _atom_site_symmetry_multiplicity
 _atom_site_fract_x
 _atom_site_fract_y
 _atom_site_fract_z
 _atom_site_occupancy
  Rb  Rb0  1  0.231714  0.976118  0.482182  1
  Rb  Rb1  1  0.399705  0.972664  0.729732  1
  Rb  Rb2  1  0.100295  0.527336  0.229732  1
  Rb  Rb3  1  0.899705  0.027336  0.770268  1
  Rb  Rb4  1  0.100295  0.972664  0.229732  1
  Rb  Rb5  1  0.600295  0.027336  0.270268  1
  Rb  Rb6  1  0.899705  0.472664  0.770268  1
  Rb  Rb7  1  0.399705  0.527336  0.729732  1
  Rb  Rb8  1  0.731714  0.023882  0.017818  1
  Rb  Rb9  1  0.768286  0.476118  0.517818  1
  Rb  Rb10  1  0.268286  0.523882  0.982182  1
  Rb  Rb11  1  0.768286  0.023882  0.517818  1
  Rb  Rb12  1  0.731714  0.476118  0.017818  1
  Rb  Rb13  1  0.231714  0.523882  0.482182  1
  Rb  Rb14  1  0.600295  0.472664  0.270268  1
  Rb  Rb15  1  0.268286  0.976118  0.982182  1
  Ga  Ga16  1  0.719608  0.750000  0.680119  1
  Ga  Ga17  1  0.219608  0.250000  0.819881  1
  Ga  Ga18  1  0.780392  0.750000  0.180119  1
  Ga  Ga19  1  0.901952  0.750000  0.906518  1
  Ga  Ga20  1  0.401952  0.250000  0.593482  1
  Ga  Ga21  1  0.098048  0.250000  0.093482  1
  Ga  Ga22  1  0.598048  0.750000  0.406518  1
  Ga  Ga23  1  0.280392  0.250000  0.319881  1
  Bi  Bi24  1  0.126514  0.750000  0.803900  1
  Bi  Bi25  1  0.626514  0.250000  0.696100  1
  Bi  Bi26  1  0.873486  0.250000  0.196100  1
  Bi  Bi27  1  0.373486  0.750000  0.303900  1
  Bi  Bi28  1  0.991220  0.750000  0.629283  1
  Bi  Bi29  1  0.491220  0.250000  0.870717  1
  Bi  Bi30  1  0.008780  0.250000  0.370717  1
  Bi  Bi31  1  0.508780  0.750000  0.129283  1
  Bi  Bi32  1  0.636847  0.750000  0.849840  1
  Bi  Bi33  1  0.136847  0.250000  0.650160  1
  Bi  Bi34  1  0.363153  0.250000  0.150160  1
  Bi  Bi35  1  0.863153  0.750000  0.349840  1
  Bi  Bi36  1  0.997615  0.750000  0.067319  1
  Bi  Bi37  1  0.497615  0.250000  0.432681  1
  Bi  Bi38  1  0.002385  0.250000  0.932681  1
  Bi  Bi39  1  0.502385  0.750000  0.567319  1
