# generated using pymatgen
data_Sr10VAs5O26
_symmetry_space_group_name_H-M   'P 1'
_cell_length_a   7.48819400
_cell_length_b   10.22251183
_cell_length_c   10.21770289
_cell_angle_alpha   60.10666118
_cell_angle_beta   90.00000000
_cell_angle_gamma   90.00000000
_symmetry_Int_Tables_number   1
_chemical_formula_structural   Sr10VAs5O26
_chemical_formula_sum   'Sr10 V1 As5 O26'
_cell_volume   678.08538367
_cell_formula_units_Z   1
loop_
 _symmetry_equiv_pos_site_id
 _symmetry_equiv_pos_as_xyz
  1  'x, y, z'
loop_
 _atom_site_type_symbol
 _atom_site_label
 _atom_site_symmetry_multiplicity
 _atom_site_fract_x
 _atom_site_fract_y
 _atom_site_fract_z
 _atom_site_occupancy
  Sr  Sr0  1  0.500000  0.008881  0.492866  1
  Sr  Sr1  1  0.751524  0.671497  0.911416  1
  Sr  Sr2  1  0.248476  0.671497  0.911416  1
  Sr  Sr3  1  0.749843  0.336937  0.578156  1
  Sr  Sr4  1  0.250157  0.336937  0.578156  1
  Sr  Sr5  1  0.500000  0.251300  0.992426  1
  Sr  Sr6  1  0.000000  0.758088  0.498015  1
  Sr  Sr7  1  0.000000  0.257318  0.238918  1
  Sr  Sr8  1  0.000000  0.999151  0.997215  1
  Sr  Sr9  1  0.500000  0.753374  0.251496  1
  V  V10  1  0.000000  0.605613  0.275767  1
  As  As11  1  0.500000  0.634891  0.645060  1
  As  As12  1  0.500000  0.973899  0.877581  1
  As  As13  1  0.000000  0.372782  0.845544  1
  As  As14  1  0.000000  0.034465  0.611226  1
  As  As15  1  0.500000  0.403998  0.214307  1
  O  O16  1  0.500000  0.536143  0.840334  1
  O  O17  1  0.000000  0.682528  0.079780  1
  O  O18  1  0.500000  0.517036  0.569822  1
  O  O19  1  0.500000  0.166492  0.758848  1
  O  O20  1  0.684356  0.349226  0.152776  1
  O  O21  1  0.315644  0.349226  0.152776  1
  O  O22  1  0.815806  0.256421  0.900162  1
  O  O23  1  0.184194  0.256421  0.900162  1
  O  O24  1  0.000000  0.490046  0.921425  1
  O  O25  1  0.684072  0.913459  0.994064  1
  O  O26  1  0.315928  0.913459  0.994064  1
  O  O27  1  0.500000  0.877240  0.778704  1
  O  O28  1  0.000000  0.407867  0.374999  1
  O  O29  1  0.500000  0.328600  0.407342  1
  O  O30  1  0.000000  0.129614  0.711659  1
  O  O31  1  0.684084  0.751363  0.590224  1
  O  O32  1  0.315916  0.751363  0.590224  1
  O  O33  1  0.500000  0.599233  0.119221  1
  O  O34  1  0.000000  0.472112  0.650180  1
  O  O35  1  0.815524  0.095344  0.495178  1
  O  O36  1  0.184476  0.095344  0.495178  1
  O  O37  1  0.000000  0.841572  0.727339  1
  O  O38  1  0.815651  0.662997  0.336790  1
  O  O39  1  0.184349  0.662997  0.336790  1
  O  O40  1  0.500000  0.005406  0.245294  1
  O  O41  1  0.000000  0.004417  0.244565  1
