# generated using pymatgen
data_Re3I2Br7
_symmetry_space_group_name_H-M   'P 1'
_cell_length_a   10.96789573
_cell_length_b   9.15464932
_cell_length_c   9.81122692
_cell_angle_alpha   69.80281240
_cell_angle_beta   88.92740311
_cell_angle_gamma   90.21719207
_symmetry_Int_Tables_number   1
_chemical_formula_structural   Re3I2Br7
_chemical_formula_sum   'Re6 I4 Br14'
_cell_volume   924.32607170
_cell_formula_units_Z   2
loop_
 _symmetry_equiv_pos_site_id
 _symmetry_equiv_pos_as_xyz
  1  'x, y, z'
loop_
 _atom_site_type_symbol
 _atom_site_label
 _atom_site_symmetry_multiplicity
 _atom_site_fract_x
 _atom_site_fract_y
 _atom_site_fract_z
 _atom_site_occupancy
  Re  Re0  1  0.750459  0.162974  0.649940  1
  Re  Re1  1  0.860265  0.161751  0.865790  1
  Re  Re2  1  0.366284  0.842099  0.132919  1
  Re  Re3  1  0.139906  0.835739  0.136089  1
  Re  Re4  1  0.633313  0.157300  0.866633  1
  Re  Re5  1  0.250856  0.836296  0.350414  1
  I  I6  1  0.091226  0.149007  0.018811  1
  I  I7  1  0.908319  0.847170  0.984669  1
  I  I8  1  0.499634  0.158496  0.630992  1
  I  I9  1  0.906520  0.460697  0.807150  1
  Br  Br10  1  0.411757  0.567895  0.188184  1
  Br  Br11  1  0.411178  0.134774  0.023002  1
  Br  Br12  1  0.247612  0.089492  0.377257  1
  Br  Br13  1  0.986931  0.167731  0.639536  1
  Br  Br14  1  0.252168  0.575131  0.519106  1
  Br  Br15  1  0.588767  0.864145  0.979328  1
  Br  Br16  1  0.743028  0.147717  0.100202  1
  Br  Br17  1  0.015620  0.827958  0.364139  1
  Br  Br18  1  0.256164  0.849228  0.901741  1
  Br  Br19  1  0.752861  0.423976  0.479686  1
  Br  Br20  1  0.486305  0.841354  0.356808  1
  Br  Br21  1  0.587136  0.431319  0.813299  1
  Br  Br22  1  0.098529  0.557869  0.191819  1
  Br  Br23  1  0.755163  0.909884  0.622486  1
