# generated using pymatgen
data_CeGd(WN3)2
_symmetry_space_group_name_H-M   'P 1'
_cell_length_a   5.52716900
_cell_length_b   5.65472400
_cell_length_c   7.87070700
_cell_angle_alpha   90.00000000
_cell_angle_beta   90.00000000
_cell_angle_gamma   90.00000000
_symmetry_Int_Tables_number   1
_chemical_formula_structural   CeGd(WN3)2
_chemical_formula_sum   'Ce2 Gd2 W4 N12'
_cell_volume   245.99591861
_cell_formula_units_Z   2
loop_
 _symmetry_equiv_pos_site_id
 _symmetry_equiv_pos_as_xyz
  1  'x, y, z'
loop_
 _atom_site_type_symbol
 _atom_site_label
 _atom_site_symmetry_multiplicity
 _atom_site_fract_x
 _atom_site_fract_y
 _atom_site_fract_z
 _atom_site_occupancy
  Ce  Ce0  1  0.490564  0.450505  0.250000  1
  Ce  Ce1  1  0.009436  0.950505  0.250000  1
  Gd  Gd2  1  0.504706  0.552000  0.750000  1
  Gd  Gd3  1  0.995294  0.052000  0.750000  1
  W  W4  1  0.503101  0.000021  0.502046  1
  W  W5  1  0.996899  0.500021  0.997954  1
  W  W6  1  0.996899  0.500021  0.502046  1
  W  W7  1  0.503101  0.000021  0.997954  1
  N  N8  1  0.702284  0.296311  0.540978  1
  N  N9  1  0.297964  0.702212  0.044447  1
  N  N10  1  0.202036  0.202212  0.044447  1
  N  N11  1  0.420184  0.981509  0.750000  1
  N  N12  1  0.918558  0.518897  0.250000  1
  N  N13  1  0.297964  0.702212  0.455553  1
  N  N14  1  0.797716  0.796311  0.959022  1
  N  N15  1  0.702284  0.296311  0.959022  1
  N  N16  1  0.797716  0.796311  0.540978  1
  N  N17  1  0.079816  0.481509  0.750000  1
  N  N18  1  0.202036  0.202212  0.455553  1
  N  N19  1  0.581442  0.018897  0.250000  1
