# generated using pymatgen
data_Tb2CeY2(SiB4)2
_symmetry_space_group_name_H-M   'P 1'
_cell_length_a   7.26425884
_cell_length_b   7.26425813
_cell_length_c   8.17959500
_cell_angle_alpha   90.00000000
_cell_angle_beta   90.00000000
_cell_angle_gamma   89.89505868
_symmetry_Int_Tables_number   1
_chemical_formula_structural   Tb2CeY2(SiB4)2
_chemical_formula_sum   'Tb4 Ce2 Y4 Si4 B16'
_cell_volume   431.63201631
_cell_formula_units_Z   2
loop_
 _symmetry_equiv_pos_site_id
 _symmetry_equiv_pos_as_xyz
  1  'x, y, z'
loop_
 _atom_site_type_symbol
 _atom_site_label
 _atom_site_symmetry_multiplicity
 _atom_site_fract_x
 _atom_site_fract_y
 _atom_site_fract_z
 _atom_site_occupancy
  Tb  Tb0  1  0.680067  0.180481  0.222452  1
  Tb  Tb1  1  0.319519  0.819933  0.777548  1
  Tb  Tb2  1  0.319519  0.819933  0.222452  1
  Tb  Tb3  1  0.680067  0.180481  0.777548  1
  Ce  Ce4  1  0.817645  0.682355  0.229317  1
  Ce  Ce5  1  0.817645  0.682355  0.770683  1
  Y  Y6  1  0.181324  0.318676  0.778725  1
  Y  Y7  1  0.181324  0.318676  0.221275  1
  Y  Y8  1  0.002154  0.001624  0.500000  1
  Y  Y9  1  0.498376  0.497846  0.500000  1
  Si  Si10  1  0.115280  0.613209  0.500000  1
  Si  Si11  1  0.886791  0.384720  0.500000  1
  Si  Si12  1  0.383587  0.116413  0.500000  1
  Si  Si13  1  0.613133  0.886868  0.500000  1
  B  B14  1  0.172894  0.040316  0.000000  1
  B  B15  1  0.828712  0.961136  0.000000  1
  B  B16  1  0.961247  0.172926  0.000000  1
  B  B17  1  0.327074  0.538753  0.000000  1
  B  B18  1  0.039037  0.827908  0.000000  1
  B  B19  1  0.672092  0.460963  0.000000  1
  B  B20  1  0.538864  0.671288  0.000000  1
  B  B21  1  0.459684  0.327106  0.000000  1
  B  B22  1  0.090712  0.589884  0.000000  1
  B  B23  1  0.910116  0.409288  0.000000  1
  B  B24  1  0.409294  0.090706  0.000000  1
  B  B25  1  0.591319  0.908681  0.000000  1
  B  B26  1  0.000730  0.999470  0.160645  1
  B  B27  1  0.000730  0.999470  0.839355  1
  B  B28  1  0.500530  0.499270  0.839355  1
  B  B29  1  0.500530  0.499270  0.160645  1
