# generated using pymatgen
data_LiTb16Ag3Rh4
_symmetry_space_group_name_H-M   'P 1'
_cell_length_a   9.61160193
_cell_length_b   9.61024070
_cell_length_c   9.61024100
_cell_angle_alpha   60.00000242
_cell_angle_beta   60.00468717
_cell_angle_gamma   60.00468800
_symmetry_Int_Tables_number   1
_chemical_formula_structural   LiTb16Ag3Rh4
_chemical_formula_sum   'Li1 Tb16 Ag3 Rh4'
_cell_volume   627.74042571
_cell_formula_units_Z   1
loop_
 _symmetry_equiv_pos_site_id
 _symmetry_equiv_pos_as_xyz
  1  'x, y, z'
loop_
 _atom_site_type_symbol
 _atom_site_label
 _atom_site_symmetry_multiplicity
 _atom_site_fract_x
 _atom_site_fract_y
 _atom_site_fract_z
 _atom_site_occupancy
  Li  Li0  1  0.292211  0.569263  0.569263  1
  Tb  Tb1  1  0.352215  0.350851  0.350851  1
  Tb  Tb2  1  0.352215  0.350851  0.946081  1
  Tb  Tb3  1  0.352215  0.946081  0.350851  1
  Tb  Tb4  1  0.934074  0.355308  0.355308  1
  Tb  Tb5  1  0.810150  0.188369  0.188369  1
  Tb  Tb6  1  0.185311  0.814523  0.814523  1
  Tb  Tb7  1  0.185311  0.814523  0.185643  1
  Tb  Tb8  1  0.810150  0.188369  0.813112  1
  Tb  Tb9  1  0.185311  0.185643  0.814523  1
  Tb  Tb10  1  0.810150  0.813112  0.188369  1
  Tb  Tb11  1  0.933982  0.563958  0.563958  1
  Tb  Tb12  1  0.563807  0.935456  0.935456  1
  Tb  Tb13  1  0.563807  0.935456  0.565283  1
  Tb  Tb14  1  0.933982  0.563958  0.938102  1
  Tb  Tb15  1  0.563807  0.565283  0.935456  1
  Tb  Tb16  1  0.933982  0.938102  0.563958  1
  Ag  Ag17  1  0.582755  0.584276  0.584276  1
  Ag  Ag18  1  0.582755  0.584276  0.248696  1
  Ag  Ag19  1  0.582755  0.248696  0.584276  1
  Rh  Rh20  1  0.140304  0.145073  0.145073  1
  Rh  Rh21  1  0.140304  0.145073  0.569548  1
  Rh  Rh22  1  0.140304  0.569548  0.145073  1
  Rh  Rh23  1  0.568143  0.143952  0.143952  1
