# generated using pymatgen
data_Li4ErPa3Ir8
_symmetry_space_group_name_H-M   'P 1'
_cell_length_a   5.92940700
_cell_length_b   5.92960000
_cell_length_c   7.48980400
_cell_angle_alpha   90.00005798
_cell_angle_beta   89.99991303
_cell_angle_gamma   90.00137210
_symmetry_Int_Tables_number   1
_chemical_formula_structural   Li4ErPa3Ir8
_chemical_formula_sum   'Li4 Er1 Pa3 Ir8'
_cell_volume   263.33410682
_cell_formula_units_Z   1
loop_
 _symmetry_equiv_pos_site_id
 _symmetry_equiv_pos_as_xyz
  1  'x, y, z'
loop_
 _atom_site_type_symbol
 _atom_site_label
 _atom_site_symmetry_multiplicity
 _atom_site_fract_x
 _atom_site_fract_y
 _atom_site_fract_z
 _atom_site_occupancy
  Li  Li0  1  0.749813  0.249997  0.000001  1
  Li  Li1  1  0.250183  0.749998  0.000000  1
  Li  Li2  1  0.750164  0.249998  0.499998  1
  Li  Li3  1  0.249799  0.749998  0.500003  1
  Er  Er4  1  0.250373  0.250011  0.500008  1
  Pa  Pa5  1  0.249647  0.250001  0.000000  1
  Pa  Pa6  1  0.750440  0.750006  0.999995  1
  Pa  Pa7  1  0.749591  0.750000  0.499993  1
  Ir  Ir8  1  0.501983  0.997999  0.247376  1
  Ir  Ir9  1  0.501984  0.502004  0.247372  1
  Ir  Ir10  1  0.998012  0.998019  0.247647  1
  Ir  Ir11  1  0.998009  0.501970  0.247650  1
  Ir  Ir12  1  0.998008  0.998022  0.752355  1
  Ir  Ir13  1  0.998009  0.501988  0.752352  1
  Ir  Ir14  1  0.501992  0.997992  0.752622  1
  Ir  Ir15  1  0.501993  0.502001  0.752627  1
