# generated using pymatgen
data_Zr4Nb5MoN12
_symmetry_space_group_name_H-M   'P 1'
_cell_length_a   5.32977400
_cell_length_b   5.31841657
_cell_length_c   10.69471700
_cell_angle_alpha   90.00000000
_cell_angle_beta   90.00000000
_cell_angle_gamma   120.07067910
_symmetry_Int_Tables_number   1
_chemical_formula_structural   Zr4Nb5MoN12
_chemical_formula_sum   'Zr4 Nb5 Mo1 N12'
_cell_volume   262.35015428
_cell_formula_units_Z   1
loop_
 _symmetry_equiv_pos_site_id
 _symmetry_equiv_pos_as_xyz
  1  'x, y, z'
loop_
 _atom_site_type_symbol
 _atom_site_label
 _atom_site_symmetry_multiplicity
 _atom_site_fract_x
 _atom_site_fract_y
 _atom_site_fract_z
 _atom_site_occupancy
  Zr  Zr0  1  0.332994  0.666154  0.499200  1
  Zr  Zr1  1  0.666842  0.333846  0.000800  1
  Zr  Zr2  1  0.666842  0.333846  0.499200  1
  Zr  Zr3  1  0.332994  0.666154  0.000800  1
  Nb  Nb4  1  0.678520  0.678378  0.250000  1
  Nb  Nb5  1  0.000142  0.321622  0.250000  1
  Nb  Nb6  1  0.999008  0.674277  0.750000  1
  Nb  Nb7  1  0.324731  0.325723  0.750000  1
  Nb  Nb8  1  0.321511  0.000000  0.250000  1
  Mo  Mo9  1  0.674032  0.000000  0.750000  1
  N  N10  1  0.342629  0.342372  0.372452  1
  N  N11  1  0.657181  0.000000  0.372904  1
  N  N12  1  0.000257  0.657628  0.372452  1
  N  N13  1  0.998450  0.340206  0.871169  1
  N  N14  1  0.657181  0.000000  0.127096  1
  N  N15  1  0.658245  0.659794  0.871169  1
  N  N16  1  0.344431  0.000000  0.871037  1
  N  N17  1  0.658245  0.659794  0.628831  1
  N  N18  1  0.998450  0.340206  0.628831  1
  N  N19  1  0.000257  0.657628  0.127548  1
  N  N20  1  0.344431  0.000000  0.628963  1
  N  N21  1  0.342629  0.342372  0.127548  1
