# generated using pymatgen
data_Tb2Dy2MnTc7
_symmetry_space_group_name_H-M   'P 1'
_cell_length_a   5.33946103
_cell_length_b   5.33900609
_cell_length_c   8.97105800
_cell_angle_alpha   89.99446666
_cell_angle_beta   90.00572353
_cell_angle_gamma   119.99765810
_symmetry_Int_Tables_number   1
_chemical_formula_structural   Tb2Dy2MnTc7
_chemical_formula_sum   'Tb2 Dy2 Mn1 Tc7'
_cell_volume   221.48401067
_cell_formula_units_Z   1
loop_
 _symmetry_equiv_pos_site_id
 _symmetry_equiv_pos_as_xyz
  1  'x, y, z'
loop_
 _atom_site_type_symbol
 _atom_site_label
 _atom_site_symmetry_multiplicity
 _atom_site_fract_x
 _atom_site_fract_y
 _atom_site_fract_z
 _atom_site_occupancy
  Tb  Tb0  1  0.666675  0.333352  0.564362  1
  Tb  Tb1  1  0.333325  0.666648  0.435638  1
  Dy  Dy2  1  0.333339  0.666663  0.063516  1
  Dy  Dy3  1  0.666661  0.333337  0.936484  1
  Mn  Mn4  1  0.000000  0.000000  0.000000  1
  Tc  Tc5  1  0.000000  0.000000  0.500000  1
  Tc  Tc6  1  0.170148  0.340345  0.752963  1
  Tc  Tc7  1  0.170100  0.829863  0.752957  1
  Tc  Tc8  1  0.659615  0.829816  0.752995  1
  Tc  Tc9  1  0.829852  0.659655  0.247037  1
  Tc  Tc10  1  0.829900  0.170137  0.247043  1
  Tc  Tc11  1  0.340385  0.170184  0.247005  1
