# generated using pymatgen
data_HoNbReB6
_symmetry_space_group_name_H-M   'P 1'
_cell_length_a   3.55272300
_cell_length_b   8.94644900
_cell_length_c   11.30773500
_cell_angle_alpha   90.00000000
_cell_angle_beta   90.00000000
_cell_angle_gamma   90.00000000
_symmetry_Int_Tables_number   1
_chemical_formula_structural   HoNbReB6
_chemical_formula_sum   'Ho4 Nb4 Re4 B24'
_cell_volume   359.40793419
_cell_formula_units_Z   4
loop_
 _symmetry_equiv_pos_site_id
 _symmetry_equiv_pos_as_xyz
  1  'x, y, z'
loop_
 _atom_site_type_symbol
 _atom_site_label
 _atom_site_symmetry_multiplicity
 _atom_site_fract_x
 _atom_site_fract_y
 _atom_site_fract_z
 _atom_site_occupancy
  Ho  Ho0  1  0.000000  0.322101  0.413191  1
  Ho  Ho1  1  0.000000  0.677899  0.586809  1
  Ho  Ho2  1  0.000000  0.822101  0.086809  1
  Ho  Ho3  1  0.000000  0.177899  0.913191  1
  Nb  Nb4  1  0.000000  0.945181  0.374568  1
  Nb  Nb5  1  0.000000  0.054819  0.625432  1
  Nb  Nb6  1  0.000000  0.445181  0.125432  1
  Nb  Nb7  1  0.000000  0.554819  0.874568  1
  Re  Re8  1  0.000000  0.642800  0.318132  1
  Re  Re9  1  0.000000  0.357200  0.681868  1
  Re  Re10  1  0.000000  0.142800  0.181868  1
  Re  Re11  1  0.000000  0.857200  0.818132  1
  B  B12  1  0.500000  0.554109  0.434064  1
  B  B13  1  0.500000  0.445891  0.565936  1
  B  B14  1  0.500000  0.054109  0.065936  1
  B  B15  1  0.500000  0.945891  0.934064  1
  B  B16  1  0.500000  0.754044  0.418795  1
  B  B17  1  0.500000  0.245956  0.581205  1
  B  B18  1  0.500000  0.254044  0.081205  1
  B  B19  1  0.500000  0.745956  0.918795  1
  B  B20  1  0.500000  0.796740  0.263280  1
  B  B21  1  0.500000  0.203260  0.736720  1
  B  B22  1  0.500000  0.296740  0.236720  1
  B  B23  1  0.500000  0.703260  0.763280  1
  B  B24  1  0.500000  0.629331  0.181632  1
  B  B25  1  0.500000  0.370669  0.818368  1
  B  B26  1  0.500000  0.129331  0.318368  1
  B  B27  1  0.500000  0.870669  0.681632  1
  B  B28  1  0.500000  0.980887  0.213515  1
  B  B29  1  0.500000  0.019113  0.786485  1
  B  B30  1  0.500000  0.480887  0.286485  1
  B  B31  1  0.500000  0.519113  0.713515  1
  B  B32  1  0.500000  0.599160  0.026785  1
  B  B33  1  0.500000  0.400840  0.973215  1
  B  B34  1  0.500000  0.099160  0.473215  1
  B  B35  1  0.500000  0.900840  0.526785  1
