# generated using pymatgen
data_Pa2Co3Si5
_symmetry_space_group_name_H-M   'P 1'
_cell_length_a   5.64652348
_cell_length_b   7.84996863
_cell_length_c   7.84996844
_cell_angle_alpha   105.06955483
_cell_angle_beta   111.07887364
_cell_angle_gamma   68.92113706
_symmetry_Int_Tables_number   1
_chemical_formula_structural   Pa2Co3Si5
_chemical_formula_sum   'Pa4 Co6 Si10'
_cell_volume   299.51292437
_cell_formula_units_Z   2
loop_
 _symmetry_equiv_pos_site_id
 _symmetry_equiv_pos_as_xyz
  1  'x, y, z'
loop_
 _atom_site_type_symbol
 _atom_site_label
 _atom_site_symmetry_multiplicity
 _atom_site_fract_x
 _atom_site_fract_y
 _atom_site_fract_z
 _atom_site_occupancy
  Pa  Pa0  1  0.865864  0.401102  0.132830  1
  Pa  Pa1  1  0.634136  0.132830  0.401102  1
  Pa  Pa2  1  0.365863  0.867169  0.598897  1
  Pa  Pa3  1  0.134136  0.598897  0.867169  1
  Co  Co4  1  0.250000  0.000000  0.000000  1
  Co  Co5  1  0.750001  0.000000  0.000000  1
  Co  Co6  1  0.361119  0.524658  0.246897  1
  Co  Co7  1  0.861120  0.753103  0.475342  1
  Co  Co8  1  0.138880  0.246897  0.524658  1
  Co  Co9  1  0.638880  0.475342  0.753103  1
  Si  Si10  1  0.395353  0.256360  0.047066  1
  Si  Si11  1  0.478949  0.771052  0.228948  1
  Si  Si12  1  0.978949  0.771052  0.228948  1
  Si  Si13  1  0.104646  0.047066  0.256360  1
  Si  Si14  1  0.250000  0.500000  0.500000  1
  Si  Si15  1  0.750001  0.500000  0.500000  1
  Si  Si16  1  0.895354  0.952934  0.743640  1
  Si  Si17  1  0.021052  0.228948  0.771052  1
  Si  Si18  1  0.521051  0.228948  0.771052  1
  Si  Si19  1  0.604646  0.743640  0.952934  1
