# generated using pymatgen
data_Zr6Ti16BeIr6
_symmetry_space_group_name_H-M   'P 1'
_cell_length_a   8.93429437
_cell_length_b   8.93429344
_cell_length_c   8.93429400
_cell_angle_alpha   59.99999792
_cell_angle_beta   60.00000138
_cell_angle_gamma   60.00000173
_symmetry_Int_Tables_number   1
_chemical_formula_structural   Zr6Ti16BeIr6
_chemical_formula_sum   'Zr6 Ti16 Be1 Ir6'
_cell_volume   504.27299970
_cell_formula_units_Z   1
loop_
 _symmetry_equiv_pos_site_id
 _symmetry_equiv_pos_as_xyz
  1  'x, y, z'
loop_
 _atom_site_type_symbol
 _atom_site_label
 _atom_site_symmetry_multiplicity
 _atom_site_fract_x
 _atom_site_fract_y
 _atom_site_fract_z
 _atom_site_occupancy
  Zr  Zr0  1  0.686355  0.686355  0.313645  1
  Zr  Zr1  1  0.313645  0.686355  0.313645  1
  Zr  Zr2  1  0.686355  0.313645  0.313645  1
  Zr  Zr3  1  0.313645  0.313645  0.686355  1
  Zr  Zr4  1  0.686355  0.313645  0.686355  1
  Zr  Zr5  1  0.313645  0.686355  0.686355  1
  Ti  Ti6  1  0.884959  0.884959  0.345124  1
  Ti  Ti7  1  0.884959  0.345124  0.884959  1
  Ti  Ti8  1  0.345124  0.884959  0.884959  1
  Ti  Ti9  1  0.884959  0.884959  0.884959  1
  Ti  Ti10  1  0.115041  0.115041  0.654876  1
  Ti  Ti11  1  0.115041  0.654876  0.115041  1
  Ti  Ti12  1  0.654876  0.115041  0.115041  1
  Ti  Ti13  1  0.115041  0.115041  0.115041  1
  Ti  Ti14  1  0.669714  0.669714  0.990855  1
  Ti  Ti15  1  0.669714  0.990855  0.669714  1
  Ti  Ti16  1  0.990855  0.669714  0.669714  1
  Ti  Ti17  1  0.669714  0.669714  0.669714  1
  Ti  Ti18  1  0.330286  0.330286  0.009145  1
  Ti  Ti19  1  0.330286  0.009145  0.330286  1
  Ti  Ti20  1  0.009145  0.330286  0.330286  1
  Ti  Ti21  1  0.330286  0.330286  0.330286  1
  Be  Be22  1  0.000000  0.000000  0.000000  1
  Ir  Ir23  1  0.000000  0.000000  0.500000  1
  Ir  Ir24  1  0.500000  0.000000  0.500000  1
  Ir  Ir25  1  0.000000  0.500000  0.500000  1
  Ir  Ir26  1  0.500000  0.500000  0.000000  1
  Ir  Ir27  1  0.000000  0.500000  0.000000  1
  Ir  Ir28  1  0.500000  0.000000  0.000000  1
