# generated using pymatgen
data_NpTe29
_symmetry_space_group_name_H-M   'P 1'
_cell_length_a   8.41748261
_cell_length_b   10.98395614
_cell_length_c   13.10795200
_cell_angle_alpha   74.86425218
_cell_angle_beta   80.59295872
_cell_angle_gamma   67.65512667
_symmetry_Int_Tables_number   1
_chemical_formula_structural   NpTe29
_chemical_formula_sum   'Np1 Te29'
_cell_volume   1079.24041154
_cell_formula_units_Z   1
loop_
 _symmetry_equiv_pos_site_id
 _symmetry_equiv_pos_as_xyz
  1  'x, y, z'
loop_
 _atom_site_type_symbol
 _atom_site_label
 _atom_site_symmetry_multiplicity
 _atom_site_fract_x
 _atom_site_fract_y
 _atom_site_fract_z
 _atom_site_occupancy
  Np  Np0  1  0.000000  0.000000  0.000000  1
  Te  Te1  1  0.500000  0.000000  0.000000  1
  Te  Te2  1  0.099513  0.202667  0.201816  1
  Te  Te3  1  0.699140  0.399922  0.401503  1
  Te  Te4  1  0.300860  0.600078  0.598497  1
  Te  Te5  1  0.597636  0.201469  0.202273  1
  Te  Te6  1  0.900487  0.797333  0.798184  1
  Te  Te7  1  0.199191  0.401610  0.402289  1
  Te  Te8  1  0.800809  0.598390  0.597711  1
  Te  Te9  1  0.402364  0.798531  0.797727  1
  Te  Te10  1  0.247743  0.090934  0.827707  1
  Te  Te11  1  0.650729  0.710550  0.970421  1
  Te  Te12  1  0.848931  0.290795  0.028941  1
  Te  Te13  1  0.250505  0.909053  0.171639  1
  Te  Te14  1  0.446619  0.490192  0.230217  1
  Te  Te15  1  0.749495  0.090947  0.828361  1
  Te  Te16  1  0.850649  0.110386  0.373279  1
  Te  Te17  1  0.151069  0.709205  0.971059  1
  Te  Te18  1  0.048711  0.691772  0.427244  1
  Te  Te19  1  0.349271  0.289450  0.029579  1
  Te  Te20  1  0.752257  0.909066  0.172293  1
  Te  Te21  1  0.451216  0.310301  0.572059  1
  Te  Te22  1  0.651795  0.885630  0.625721  1
  Te  Te23  1  0.950809  0.490399  0.230289  1
  Te  Te24  1  0.049191  0.509601  0.769711  1
  Te  Te25  1  0.348205  0.114370  0.374279  1
  Te  Te26  1  0.548784  0.689699  0.427941  1
  Te  Te27  1  0.951289  0.308228  0.572756  1
  Te  Te28  1  0.149351  0.889614  0.626721  1
  Te  Te29  1  0.553381  0.509808  0.769783  1
