# generated using pymatgen
data_LuB4Mo
_symmetry_space_group_name_H-M   'P 1'
_cell_length_a   3.58371200
_cell_length_b   5.98676999
_cell_length_c   11.55200005
_cell_angle_alpha   90.00126743
_cell_angle_beta   90.00000000
_cell_angle_gamma   90.00000000
_symmetry_Int_Tables_number   1
_chemical_formula_structural   LuB4Mo
_chemical_formula_sum   'Lu4 B16 Mo4'
_cell_volume   247.84653729
_cell_formula_units_Z   4
loop_
 _symmetry_equiv_pos_site_id
 _symmetry_equiv_pos_as_xyz
  1  'x, y, z'
loop_
 _atom_site_type_symbol
 _atom_site_label
 _atom_site_symmetry_multiplicity
 _atom_site_fract_x
 _atom_site_fract_y
 _atom_site_fract_z
 _atom_site_occupancy
  Lu  Lu0  1  0.000000  0.627296  0.350810  1
  Lu  Lu1  1  0.000000  0.372745  0.649307  1
  Lu  Lu2  1  0.000000  0.127625  0.149428  1
  Lu  Lu3  1  0.000000  0.872448  0.850434  1
  B  B4  1  0.500000  0.788973  0.186780  1
  B  B5  1  0.500000  0.211085  0.813114  1
  B  B6  1  0.500000  0.288898  0.313295  1
  B  B7  1  0.500000  0.711167  0.686759  1
  B  B8  1  0.500000  0.868263  0.031662  1
  B  B9  1  0.500000  0.131868  0.968099  1
  B  B10  1  0.500000  0.368160  0.468354  1
  B  B11  1  0.500000  0.631894  0.531879  1
  B  B12  1  0.500000  0.884648  0.451803  1
  B  B13  1  0.500000  0.115138  0.548431  1
  B  B14  1  0.500000  0.384711  0.048275  1
  B  B15  1  0.500000  0.615333  0.951616  1
  B  B16  1  0.500000  0.977153  0.305300  1
  B  B17  1  0.500000  0.022751  0.694771  1
  B  B18  1  0.500000  0.477021  0.194750  1
  B  B19  1  0.500000  0.522752  0.805154  1
  Mo  Mo20  1  0.000000  0.869018  0.584337  1
  Mo  Mo21  1  0.000000  0.630845  0.084111  1
  Mo  Mo22  1  0.000000  0.369242  0.915590  1
  Mo  Mo23  1  0.000000  0.130965  0.415937  1
