# generated using pymatgen
data_Tb6IrPd6Au
_symmetry_space_group_name_H-M   'P 1'
_cell_length_a   7.92240676
_cell_length_b   7.90394583
_cell_length_c   7.94925380
_cell_angle_alpha   114.35777040
_cell_angle_beta   114.38056687
_cell_angle_gamma   114.03916390
_symmetry_Int_Tables_number   1
_chemical_formula_structural   Tb6IrPd6Au
_chemical_formula_sum   'Tb6 Ir1 Pd6 Au1'
_cell_volume   296.51674171
_cell_formula_units_Z   1
loop_
 _symmetry_equiv_pos_site_id
 _symmetry_equiv_pos_as_xyz
  1  'x, y, z'
loop_
 _atom_site_type_symbol
 _atom_site_label
 _atom_site_symmetry_multiplicity
 _atom_site_fract_x
 _atom_site_fract_y
 _atom_site_fract_z
 _atom_site_occupancy
  Tb  Tb0  1  0.976885  0.601635  0.730587  1
  Tb  Tb1  1  0.726474  0.980075  0.607246  1
  Tb  Tb2  1  0.602653  0.726360  0.974511  1
  Tb  Tb3  1  0.024183  0.395226  0.271761  1
  Tb  Tb4  1  0.276951  0.027678  0.393790  1
  Tb  Tb5  1  0.390550  0.268330  0.022303  1
  Ir  Ir6  1  0.997644  0.998126  0.998545  1
  Pd  Pd7  1  0.500343  0.501130  0.501070  1
  Pd  Pd8  1  0.447161  0.938022  0.773289  1
  Pd  Pd9  1  0.771453  0.443988  0.935098  1
  Pd  Pd10  1  0.061915  0.228624  0.553848  1
  Pd  Pd11  1  0.555219  0.063231  0.228466  1
  Pd  Pd12  1  0.229022  0.554727  0.064300  1
  Au  Au13  1  0.939547  0.772849  0.445185  1
