# generated using pymatgen
data_Tb5TcBi2
_symmetry_space_group_name_H-M   'P 1'
_cell_length_a   8.03024000
_cell_length_b   9.13150800
_cell_length_c   12.44137700
_cell_angle_alpha   90.00000000
_cell_angle_beta   90.00000000
_cell_angle_gamma   90.00000000
_symmetry_Int_Tables_number   1
_chemical_formula_structural   Tb5TcBi2
_chemical_formula_sum   'Tb20 Tc4 Bi8'
_cell_volume   912.30379091
_cell_formula_units_Z   4
loop_
 _symmetry_equiv_pos_site_id
 _symmetry_equiv_pos_as_xyz
  1  'x, y, z'
loop_
 _atom_site_type_symbol
 _atom_site_label
 _atom_site_symmetry_multiplicity
 _atom_site_fract_x
 _atom_site_fract_y
 _atom_site_fract_z
 _atom_site_occupancy
  Tb  Tb0  1  0.845107  0.750000  0.791934  1
  Tb  Tb1  1  0.154893  0.250000  0.208066  1
  Tb  Tb2  1  0.345107  0.250000  0.708066  1
  Tb  Tb3  1  0.654893  0.750000  0.291934  1
  Tb  Tb4  1  0.376624  0.750000  0.692066  1
  Tb  Tb5  1  0.623376  0.250000  0.307934  1
  Tb  Tb6  1  0.876624  0.250000  0.807934  1
  Tb  Tb7  1  0.123376  0.750000  0.192066  1
  Tb  Tb8  1  0.947543  0.750000  0.505209  1
  Tb  Tb9  1  0.052457  0.250000  0.494791  1
  Tb  Tb10  1  0.447543  0.250000  0.994791  1
  Tb  Tb11  1  0.552457  0.750000  0.005209  1
  Tb  Tb12  1  0.675795  0.038975  0.565150  1
  Tb  Tb13  1  0.324205  0.961025  0.434850  1
  Tb  Tb14  1  0.175795  0.961025  0.934850  1
  Tb  Tb15  1  0.324205  0.538975  0.434850  1
  Tb  Tb16  1  0.824205  0.038975  0.065150  1
  Tb  Tb17  1  0.675795  0.461025  0.565150  1
  Tb  Tb18  1  0.824205  0.461025  0.065150  1
  Tb  Tb19  1  0.175795  0.538975  0.934850  1
  Tc  Tc20  1  0.578419  0.750000  0.511642  1
  Tc  Tc21  1  0.421581  0.250000  0.488358  1
  Tc  Tc22  1  0.078419  0.250000  0.988358  1
  Tc  Tc23  1  0.921581  0.750000  0.011642  1
  Bi  Bi24  1  0.571602  0.495773  0.827613  1
  Bi  Bi25  1  0.428398  0.504227  0.172387  1
  Bi  Bi26  1  0.071602  0.504227  0.672387  1
  Bi  Bi27  1  0.428398  0.995773  0.172387  1
  Bi  Bi28  1  0.928398  0.495773  0.327613  1
  Bi  Bi29  1  0.571602  0.004227  0.827613  1
  Bi  Bi30  1  0.928398  0.004227  0.327613  1
  Bi  Bi31  1  0.071602  0.995773  0.672387  1
