# generated using pymatgen
data_Tb2Dy2Sn5SbRh7
_symmetry_space_group_name_H-M   'P 1'
_cell_length_a   7.61944032
_cell_length_b   7.61944116
_cell_length_c   7.61831893
_cell_angle_alpha   109.40532896
_cell_angle_beta   109.40532989
_cell_angle_gamma   109.60901937
_symmetry_Int_Tables_number   1
_chemical_formula_structural   Tb2Dy2Sn5SbRh7
_chemical_formula_sum   'Tb2 Dy2 Sn5 Sb1 Rh7'
_cell_volume   340.44724734
_cell_formula_units_Z   1
loop_
 _symmetry_equiv_pos_site_id
 _symmetry_equiv_pos_as_xyz
  1  'x, y, z'
loop_
 _atom_site_type_symbol
 _atom_site_label
 _atom_site_symmetry_multiplicity
 _atom_site_fract_x
 _atom_site_fract_y
 _atom_site_fract_z
 _atom_site_occupancy
  Tb  Tb0  1  0.998705  0.998705  0.502604  1
  Tb  Tb1  1  0.496101  0.496101  0.497396  1
  Dy  Dy2  1  0.496037  0.998585  0.000000  1
  Dy  Dy3  1  0.998585  0.496037  0.000000  1
  Sn  Sn4  1  0.996932  0.314040  0.316577  1
  Sn  Sn5  1  0.680355  0.997463  0.683423  1
  Sn  Sn6  1  0.690831  0.690831  0.000000  1
  Sn  Sn7  1  0.997463  0.680355  0.683423  1
  Sn  Sn8  1  0.314040  0.996932  0.316577  1
  Sb  Sb9  1  0.321234  0.321234  0.000000  1
  Rh  Rh10  1  0.008019  0.008019  0.000000  1
  Rh  Rh11  1  0.501150  0.750364  0.248642  1
  Rh  Rh12  1  0.750364  0.501150  0.248642  1
  Rh  Rh13  1  0.247976  0.747976  0.500000  1
  Rh  Rh14  1  0.252509  0.501723  0.751358  1
  Rh  Rh15  1  0.501723  0.252509  0.751358  1
  Rh  Rh16  1  0.747976  0.247976  0.500000  1
