# generated using pymatgen
data_LaFe3CoB4
_symmetry_space_group_name_H-M   'P 1'
_cell_length_a   7.11412300
_cell_length_b   7.10591846
_cell_length_c   3.79574400
_cell_angle_alpha   90.00000000
_cell_angle_beta   90.00000000
_cell_angle_gamma   89.72137127
_symmetry_Int_Tables_number   1
_chemical_formula_structural   LaFe3CoB4
_chemical_formula_sum   'La2 Fe6 Co2 B8'
_cell_volume   191.88161643
_cell_formula_units_Z   2
loop_
 _symmetry_equiv_pos_site_id
 _symmetry_equiv_pos_as_xyz
  1  'x, y, z'
loop_
 _atom_site_type_symbol
 _atom_site_label
 _atom_site_symmetry_multiplicity
 _atom_site_fract_x
 _atom_site_fract_y
 _atom_site_fract_z
 _atom_site_occupancy
  La  La0  1  0.000000  0.000000  0.998064  1
  La  La1  1  0.500000  0.500000  0.497980  1
  Fe  Fe2  1  0.887136  0.368494  0.394925  1
  Fe  Fe3  1  0.112864  0.631506  0.394925  1
  Fe  Fe4  1  0.367945  0.112887  0.604886  1
  Fe  Fe5  1  0.632055  0.887113  0.604886  1
  Fe  Fe6  1  0.612246  0.130931  0.104729  1
  Fe  Fe7  1  0.387754  0.869069  0.104729  1
  Co  Co8  1  0.135652  0.387855  0.894570  1
  Co  Co9  1  0.864348  0.612145  0.894570  1
  B  B10  1  0.664352  0.802007  0.106558  1
  B  B11  1  0.335648  0.197993  0.106558  1
  B  B12  1  0.298448  0.835615  0.604587  1
  B  B13  1  0.701552  0.164385  0.604587  1
  B  B14  1  0.837449  0.703260  0.396237  1
  B  B15  1  0.162551  0.296740  0.396237  1
  B  B16  1  0.204767  0.666770  0.895485  1
  B  B17  1  0.795233  0.333230  0.895485  1
