# generated using pymatgen
data_LiEr3As6Rh7
_symmetry_space_group_name_H-M   'P 1'
_cell_length_a   7.18989404
_cell_length_b   7.18989424
_cell_length_c   7.18989208
_cell_angle_alpha   109.41947498
_cell_angle_beta   109.41947611
_cell_angle_gamma   109.41946225
_symmetry_Int_Tables_number   1
_chemical_formula_structural   LiEr3As6Rh7
_chemical_formula_sum   'Li1 Er3 As6 Rh7'
_cell_volume   286.66507752
_cell_formula_units_Z   1
loop_
 _symmetry_equiv_pos_site_id
 _symmetry_equiv_pos_as_xyz
  1  'x, y, z'
loop_
 _atom_site_type_symbol
 _atom_site_label
 _atom_site_symmetry_multiplicity
 _atom_site_fract_x
 _atom_site_fract_y
 _atom_site_fract_z
 _atom_site_occupancy
  Li  Li0  1  0.500000  0.500000  0.500000  1
  Er  Er1  1  0.000000  0.500000  0.000000  1
  Er  Er2  1  0.500000  0.000000  0.000000  1
  Er  Er3  1  0.000000  0.000000  0.500000  1
  As  As4  1  0.677428  0.989262  0.677428  1
  As  As5  1  0.677428  0.677428  0.989262  1
  As  As6  1  0.322572  0.322572  0.010738  1
  As  As7  1  0.989262  0.677428  0.677428  1
  As  As8  1  0.010738  0.322572  0.322572  1
  As  As9  1  0.322572  0.010738  0.322572  1
  Rh  Rh10  1  0.500000  0.749513  0.250487  1
  Rh  Rh11  1  0.749513  0.250487  0.500000  1
  Rh  Rh12  1  0.250487  0.749513  0.500000  1
  Rh  Rh13  1  0.250487  0.500000  0.749513  1
  Rh  Rh14  1  0.000000  0.000000  0.000000  1
  Rh  Rh15  1  0.500000  0.250487  0.749513  1
  Rh  Rh16  1  0.749513  0.500000  0.250487  1
