# generated using pymatgen
data_Ta4VGaSi2
_symmetry_space_group_name_H-M   'P 1'
_cell_length_a   7.56351493
_cell_length_b   7.56351501
_cell_length_c   7.56351532
_cell_angle_alpha   129.29466000
_cell_angle_beta   129.29466097
_cell_angle_gamma   74.53690904
_symmetry_Int_Tables_number   1
_chemical_formula_structural   Ta4VGaSi2
_chemical_formula_sum   'Ta8 V2 Ga2 Si4'
_cell_volume   252.52787561
_cell_formula_units_Z   2
loop_
 _symmetry_equiv_pos_site_id
 _symmetry_equiv_pos_as_xyz
  1  'x, y, z'
loop_
 _atom_site_type_symbol
 _atom_site_label
 _atom_site_symmetry_multiplicity
 _atom_site_fract_x
 _atom_site_fract_y
 _atom_site_fract_z
 _atom_site_occupancy
  Ta  Ta0  1  0.015079  0.515079  0.827430  1
  Ta  Ta1  1  0.687649  0.187649  0.172570  1
  Ta  Ta2  1  0.515079  0.687649  0.500000  1
  Ta  Ta3  1  0.187649  0.015079  0.500000  1
  Ta  Ta4  1  0.984921  0.484921  0.172570  1
  Ta  Ta5  1  0.312351  0.812351  0.827430  1
  Ta  Ta6  1  0.484921  0.312351  0.500000  1
  Ta  Ta7  1  0.812351  0.984921  0.500000  1
  V  V8  1  0.000000  0.000000  0.000000  1
  V  V9  1  0.500000  0.500000  0.000000  1
  Ga  Ga10  1  0.750000  0.750000  0.000000  1
  Ga  Ga11  1  0.250000  0.250000  0.000000  1
  Si  Si12  1  0.633657  0.133657  0.767313  1
  Si  Si13  1  0.366343  0.866343  0.232687  1
  Si  Si14  1  0.133657  0.366343  0.500000  1
  Si  Si15  1  0.866343  0.633657  0.500000  1
