# generated using pymatgen
data_Tm7Sc(MnB6)4
_symmetry_space_group_name_H-M   'P 1'
_cell_length_a   3.48792200
_cell_length_b   9.00693009
_cell_length_c   11.37538550
_cell_angle_alpha   89.97007842
_cell_angle_beta   90.00000000
_cell_angle_gamma   90.00000000
_symmetry_Int_Tables_number   1
_chemical_formula_structural   Tm7Sc(MnB6)4
_chemical_formula_sum   'Tm7 Sc1 Mn4 B24'
_cell_volume   357.36302876
_cell_formula_units_Z   1
loop_
 _symmetry_equiv_pos_site_id
 _symmetry_equiv_pos_as_xyz
  1  'x, y, z'
loop_
 _atom_site_type_symbol
 _atom_site_label
 _atom_site_symmetry_multiplicity
 _atom_site_fract_x
 _atom_site_fract_y
 _atom_site_fract_z
 _atom_site_occupancy
  Tm  Tm0  1  0.000000  0.941982  0.368211  1
  Tm  Tm1  1  0.000000  0.057967  0.630805  1
  Tm  Tm2  1  0.000000  0.556157  0.870569  1
  Tm  Tm3  1  0.000000  0.178520  0.915019  1
  Tm  Tm4  1  0.000000  0.821600  0.086559  1
  Tm  Tm5  1  0.000000  0.674028  0.584152  1
  Tm  Tm6  1  0.000000  0.325524  0.414174  1
  Sc  Sc7  1  0.000000  0.443239  0.132294  1
  Mn  Mn8  1  0.000000  0.142173  0.179537  1
  Mn  Mn9  1  0.000000  0.361527  0.680691  1
  Mn  Mn10  1  0.000000  0.860393  0.820891  1
  Mn  Mn11  1  0.000000  0.636716  0.317775  1
  B  B12  1  0.500000  0.368410  0.814670  1
  B  B13  1  0.500000  0.984307  0.210678  1
  B  B14  1  0.500000  0.553007  0.431107  1
  B  B15  1  0.500000  0.294600  0.233989  1
  B  B16  1  0.500000  0.209308  0.735399  1
  B  B17  1  0.500000  0.103676  0.471185  1
  B  B18  1  0.500000  0.789377  0.263984  1
  B  B19  1  0.500000  0.446094  0.567532  1
  B  B20  1  0.500000  0.253114  0.582347  1
  B  B21  1  0.500000  0.482968  0.286640  1
  B  B22  1  0.500000  0.708029  0.765245  1
  B  B23  1  0.500000  0.746168  0.416803  1
  B  B24  1  0.500000  0.515351  0.711441  1
  B  B25  1  0.500000  0.896255  0.527872  1
  B  B26  1  0.500000  0.055888  0.067313  1
  B  B27  1  0.500000  0.598132  0.030292  1
  B  B28  1  0.500000  0.751485  0.919459  1
  B  B29  1  0.500000  0.016566  0.789013  1
  B  B30  1  0.500000  0.399328  0.975265  1
  B  B31  1  0.500000  0.946545  0.933341  1
  B  B32  1  0.500000  0.628534  0.184611  1
  B  B33  1  0.500000  0.252204  0.081783  1
  B  B34  1  0.500000  0.867797  0.685689  1
  B  B35  1  0.500000  0.133028  0.313666  1
