# generated using pymatgen
data_Pa2Tc8Ni4P7
_symmetry_space_group_name_H-M   'P 1'
_cell_length_a   3.80697300
_cell_length_b   9.51354267
_cell_length_c   9.40447710
_cell_angle_alpha   120.31727421
_cell_angle_beta   90.00000000
_cell_angle_gamma   90.00000000
_symmetry_Int_Tables_number   1
_chemical_formula_structural   Pa2Tc8Ni4P7
_chemical_formula_sum   'Pa2 Tc8 Ni4 P7'
_cell_volume   294.02887855
_cell_formula_units_Z   1
loop_
 _symmetry_equiv_pos_site_id
 _symmetry_equiv_pos_as_xyz
  1  'x, y, z'
loop_
 _atom_site_type_symbol
 _atom_site_label
 _atom_site_symmetry_multiplicity
 _atom_site_fract_x
 _atom_site_fract_y
 _atom_site_fract_z
 _atom_site_occupancy
  Pa  Pa0  1  0.000000  0.668606  0.334663  1
  Pa  Pa1  1  0.500000  0.327051  0.665196  1
  Tc  Tc2  1  0.000000  0.368180  0.934946  1
  Tc  Tc3  1  0.000000  0.068926  0.433480  1
  Tc  Tc4  1  0.500000  0.940041  0.566042  1
  Tc  Tc5  1  0.500000  0.435395  0.384357  1
  Tc  Tc6  1  0.500000  0.625139  0.054079  1
  Tc  Tc7  1  0.500000  0.122081  0.911904  1
  Tc  Tc8  1  0.500000  0.086591  0.203027  1
  Tc  Tc9  1  0.500000  0.784447  0.879147  1
  Ni  Ni10  1  0.000000  0.570212  0.633825  1
  Ni  Ni11  1  0.000000  0.877993  0.729071  1
  Ni  Ni12  1  0.000000  0.272812  0.156316  1
  Ni  Ni13  1  0.000000  0.847639  0.114226  1
  P  P14  1  0.000000  0.106093  0.704222  1
  P  P15  1  0.000000  0.300510  0.407859  1
  P  P16  1  0.000000  0.592757  0.885107  1
  P  P17  1  0.500000  0.708094  0.598828  1
  P  P18  1  0.500000  0.404206  0.111195  1
  P  P19  1  0.500000  0.891365  0.292467  1
  P  P20  1  0.000000  0.001861  0.000044  1
