# generated using pymatgen
data_Ce4Al2CoSi2Rh3
_symmetry_space_group_name_H-M   'P 1'
_cell_length_a   4.13040600
_cell_length_b   7.01518682
_cell_length_c   15.54519727
_cell_angle_alpha   89.76368481
_cell_angle_beta   90.00000000
_cell_angle_gamma   90.00000000
_symmetry_Int_Tables_number   1
_chemical_formula_structural   Ce4Al2CoSi2Rh3
_chemical_formula_sum   'Ce8 Al4 Co2 Si4 Rh6'
_cell_volume   450.42711634
_cell_formula_units_Z   2
loop_
 _symmetry_equiv_pos_site_id
 _symmetry_equiv_pos_as_xyz
  1  'x, y, z'
loop_
 _atom_site_type_symbol
 _atom_site_label
 _atom_site_symmetry_multiplicity
 _atom_site_fract_x
 _atom_site_fract_y
 _atom_site_fract_z
 _atom_site_occupancy
  Ce  Ce0  1  0.250000  0.129354  0.554998  1
  Ce  Ce1  1  0.750000  0.870646  0.445002  1
  Ce  Ce2  1  0.250000  0.642647  0.939970  1
  Ce  Ce3  1  0.750000  0.357353  0.060030  1
  Ce  Ce4  1  0.250000  0.023105  0.772986  1
  Ce  Ce5  1  0.750000  0.976895  0.227014  1
  Ce  Ce6  1  0.250000  0.529621  0.714258  1
  Ce  Ce7  1  0.750000  0.470379  0.285742  1
  Al  Al8  1  0.250000  0.006732  0.062038  1
  Al  Al9  1  0.750000  0.993268  0.937962  1
  Al  Al10  1  0.250000  0.511018  0.442501  1
  Al  Al11  1  0.750000  0.488982  0.557499  1
  Co  Co12  1  0.750000  0.285764  0.415905  1
  Co  Co13  1  0.250000  0.714236  0.584095  1
  Si  Si14  1  0.250000  0.155543  0.356113  1
  Si  Si15  1  0.750000  0.844457  0.643887  1
  Si  Si16  1  0.250000  0.641689  0.154318  1
  Si  Si17  1  0.750000  0.358311  0.845682  1
  Rh  Rh18  1  0.750000  0.774882  0.081152  1
  Rh  Rh19  1  0.250000  0.225118  0.918848  1
  Rh  Rh20  1  0.750000  0.735495  0.815543  1
  Rh  Rh21  1  0.250000  0.264505  0.184457  1
  Rh  Rh22  1  0.750000  0.227746  0.679966  1
  Rh  Rh23  1  0.250000  0.772254  0.320034  1
