# generated using pymatgen
data_Hf4MnCo2Si4Ir
_symmetry_space_group_name_H-M   'P 1'
_cell_length_a   3.86367500
_cell_length_b   6.39923190
_cell_length_c   7.26180152
_cell_angle_alpha   89.48843835
_cell_angle_beta   90.00000000
_cell_angle_gamma   90.00000000
_symmetry_Int_Tables_number   1
_chemical_formula_structural   Hf4MnCo2Si4Ir
_chemical_formula_sum   'Hf4 Mn1 Co2 Si4 Ir1'
_cell_volume   179.53763530
_cell_formula_units_Z   1
loop_
 _symmetry_equiv_pos_site_id
 _symmetry_equiv_pos_as_xyz
  1  'x, y, z'
loop_
 _atom_site_type_symbol
 _atom_site_label
 _atom_site_symmetry_multiplicity
 _atom_site_fract_x
 _atom_site_fract_y
 _atom_site_fract_z
 _atom_site_occupancy
  Hf  Hf0  1  0.250000  0.008903  0.319990  1
  Hf  Hf1  1  0.250000  0.521784  0.193049  1
  Hf  Hf2  1  0.750000  0.987680  0.678336  1
  Hf  Hf3  1  0.750000  0.487368  0.805759  1
  Mn  Mn4  1  0.750000  0.841266  0.065991  1
  Co  Co5  1  0.250000  0.647040  0.567054  1
  Co  Co6  1  0.750000  0.351736  0.435348  1
  Si  Si7  1  0.250000  0.283853  0.603496  1
  Si  Si8  1  0.250000  0.777774  0.876436  1
  Si  Si9  1  0.750000  0.716260  0.392061  1
  Si  Si10  1  0.750000  0.220992  0.127067  1
  Ir  Ir11  1  0.250000  0.155346  0.935410  1
