# generated using pymatgen
data_TiB8(RuW)6
_symmetry_space_group_name_H-M   'P 1'
_cell_length_a   9.50185800
_cell_length_b   9.50185901
_cell_length_c   3.03567700
_cell_angle_alpha   90.00000000
_cell_angle_beta   90.00000000
_cell_angle_gamma   120.00000345
_symmetry_Int_Tables_number   1
_chemical_formula_structural   TiB8(RuW)6
_chemical_formula_sum   'Ti1 B8 Ru6 W6'
_cell_volume   237.35768340
_cell_formula_units_Z   1
loop_
 _symmetry_equiv_pos_site_id
 _symmetry_equiv_pos_as_xyz
  1  'x, y, z'
loop_
 _atom_site_type_symbol
 _atom_site_label
 _atom_site_symmetry_multiplicity
 _atom_site_fract_x
 _atom_site_fract_y
 _atom_site_fract_z
 _atom_site_occupancy
  Ti  Ti0  1  0.000000  0.000000  0.000000  1
  B  B1  1  0.666667  0.333333  0.000000  1
  B  B2  1  0.333333  0.666667  0.000000  1
  B  B3  1  0.151377  0.936746  0.500000  1
  B  B4  1  0.063254  0.214631  0.500000  1
  B  B5  1  0.785369  0.848623  0.500000  1
  B  B6  1  0.848623  0.063254  0.500000  1
  B  B7  1  0.936746  0.785369  0.500000  1
  B  B8  1  0.214631  0.151377  0.500000  1
  Ru  Ru9  1  0.367178  0.851263  0.500000  1
  Ru  Ru10  1  0.148737  0.515916  0.500000  1
  Ru  Ru11  1  0.484084  0.632822  0.500000  1
  Ru  Ru12  1  0.632822  0.148737  0.500000  1
  Ru  Ru13  1  0.851263  0.484084  0.500000  1
  Ru  Ru14  1  0.515916  0.367178  0.500000  1
  W  W15  1  0.734525  0.647376  0.000000  1
  W  W16  1  0.352624  0.087149  0.000000  1
  W  W17  1  0.912851  0.265475  0.000000  1
  W  W18  1  0.265475  0.352624  0.000000  1
  W  W19  1  0.647376  0.912851  0.000000  1
  W  W20  1  0.087149  0.734525  0.000000  1
