# generated using pymatgen
data_Cr5Si7(W6C)2
_symmetry_space_group_name_H-M   'P 1'
_cell_length_a   7.84291291
_cell_length_b   7.84291244
_cell_length_c   7.84291181
_cell_angle_alpha   59.98932610
_cell_angle_beta   59.98932557
_cell_angle_gamma   59.98933083
_symmetry_Int_Tables_number   1
_chemical_formula_structural   Cr5Si7(W6C)2
_chemical_formula_sum   'Cr5 Si7 W12 C2'
_cell_volume   341.04523449
_cell_formula_units_Z   1
loop_
 _symmetry_equiv_pos_site_id
 _symmetry_equiv_pos_as_xyz
  1  'x, y, z'
loop_
 _atom_site_type_symbol
 _atom_site_label
 _atom_site_symmetry_multiplicity
 _atom_site_fract_x
 _atom_site_fract_y
 _atom_site_fract_z
 _atom_site_occupancy
  Cr  Cr0  1  0.825425  0.825425  0.825425  1
  Cr  Cr1  1  0.626623  0.626623  0.123228  1
  Cr  Cr2  1  0.626623  0.123228  0.626623  1
  Cr  Cr3  1  0.123228  0.626623  0.626623  1
  Cr  Cr4  1  0.624620  0.624620  0.624620  1
  Si  Si5  1  0.415797  0.415797  0.754205  1
  Si  Si6  1  0.415797  0.754205  0.415797  1
  Si  Si7  1  0.754205  0.415797  0.415797  1
  Si  Si8  1  0.414370  0.414370  0.414370  1
  Si  Si9  1  0.835602  0.835602  0.494562  1
  Si  Si10  1  0.835602  0.494562  0.835602  1
  Si  Si11  1  0.494562  0.835602  0.835602  1
  W  W12  1  0.057529  0.057529  0.444243  1
  W  W13  1  0.447139  0.051818  0.447139  1
  W  W14  1  0.051818  0.447139  0.447139  1
  W  W15  1  0.447139  0.447139  0.051818  1
  W  W16  1  0.057529  0.444243  0.057529  1
  W  W17  1  0.444243  0.057529  0.057529  1
  W  W18  1  0.194998  0.194998  0.807100  1
  W  W19  1  0.807185  0.189713  0.807185  1
  W  W20  1  0.189713  0.807185  0.807185  1
  W  W21  1  0.807185  0.807185  0.189713  1
  W  W22  1  0.194998  0.807100  0.194998  1
  W  W23  1  0.807100  0.194998  0.194998  1
  C  C24  1  0.251321  0.251321  0.251321  1
  C  C25  1  0.999651  0.999651  0.999651  1
