# generated using pymatgen
data_NdY7(AgRh)2
_symmetry_space_group_name_H-M   'P 1'
_cell_length_a   9.61235737
_cell_length_b   9.61235564
_cell_length_c   9.61610000
_cell_angle_alpha   59.98712028
_cell_angle_beta   59.98712624
_cell_angle_gamma   60.02576156
_symmetry_Int_Tables_number   1
_chemical_formula_structural   NdY7(AgRh)2
_chemical_formula_sum   'Nd2 Y14 Ag4 Rh4'
_cell_volume   628.26607148
_cell_formula_units_Z   2
loop_
 _symmetry_equiv_pos_site_id
 _symmetry_equiv_pos_as_xyz
  1  'x, y, z'
loop_
 _atom_site_type_symbol
 _atom_site_label
 _atom_site_symmetry_multiplicity
 _atom_site_fract_x
 _atom_site_fract_y
 _atom_site_fract_z
 _atom_site_occupancy
  Nd  Nd0  1  0.814661  0.814661  0.185339  1
  Nd  Nd1  1  0.185339  0.185339  0.814661  1
  Y  Y2  1  0.602228  0.602228  0.603078  1
  Y  Y3  1  0.602228  0.602228  0.192466  1
  Y  Y4  1  0.603078  0.192466  0.602228  1
  Y  Y5  1  0.192466  0.603078  0.602228  1
  Y  Y6  1  0.062735  0.437265  0.437265  1
  Y  Y7  1  0.437265  0.062735  0.062735  1
  Y  Y8  1  0.437265  0.062735  0.437265  1
  Y  Y9  1  0.062735  0.437265  0.062735  1
  Y  Y10  1  0.437966  0.437966  0.062034  1
  Y  Y11  1  0.062034  0.062034  0.437966  1
  Y  Y12  1  0.186919  0.813081  0.813081  1
  Y  Y13  1  0.813081  0.186919  0.186919  1
  Y  Y14  1  0.813081  0.186919  0.813081  1
  Y  Y15  1  0.186919  0.813081  0.186919  1
  Ag  Ag16  1  0.831833  0.831833  0.830007  1
  Ag  Ag17  1  0.831833  0.831833  0.506329  1
  Ag  Ag18  1  0.830007  0.506329  0.831833  1
  Ag  Ag19  1  0.506329  0.830007  0.831833  1
  Rh  Rh20  1  0.393965  0.393965  0.391823  1
  Rh  Rh21  1  0.393965  0.393965  0.820246  1
  Rh  Rh22  1  0.391823  0.820246  0.393965  1
  Rh  Rh23  1  0.820246  0.391823  0.393965  1
