# generated using pymatgen
data_Ba20MnRu11O48
_symmetry_space_group_name_H-M   'P 1'
_cell_length_a   5.98756800
_cell_length_b   11.02429130
_cell_length_c   20.12045400
_cell_angle_alpha   89.69685974
_cell_angle_beta   90.00000000
_cell_angle_gamma   90.00000000
_symmetry_Int_Tables_number   1
_chemical_formula_structural   Ba20MnRu11O48
_chemical_formula_sum   'Ba20 Mn1 Ru11 O48'
_cell_volume   1328.10629850
_cell_formula_units_Z   1
loop_
 _symmetry_equiv_pos_site_id
 _symmetry_equiv_pos_as_xyz
  1  'x, y, z'
loop_
 _atom_site_type_symbol
 _atom_site_label
 _atom_site_symmetry_multiplicity
 _atom_site_fract_x
 _atom_site_fract_y
 _atom_site_fract_z
 _atom_site_occupancy
  Ba  Ba0  1  0.000000  0.890118  0.972565  1
  Ba  Ba1  1  0.000000  0.387354  0.529599  1
  Ba  Ba2  1  0.500000  0.114077  0.029633  1
  Ba  Ba3  1  0.500000  0.613542  0.471396  1
  Ba  Ba4  1  0.000000  0.698506  0.756438  1
  Ba  Ba5  1  0.000000  0.198892  0.743807  1
  Ba  Ba6  1  0.500000  0.298688  0.242463  1
  Ba  Ba7  1  0.500000  0.801476  0.254729  1
  Ba  Ba8  1  0.000000  0.046347  0.174191  1
  Ba  Ba9  1  0.000000  0.549074  0.325616  1
  Ba  Ba10  1  0.500000  0.954741  0.824247  1
  Ba  Ba11  1  0.500000  0.454252  0.676398  1
  Ba  Ba12  1  0.000000  0.681489  0.130281  1
  Ba  Ba13  1  0.000000  0.184823  0.370158  1
  Ba  Ba14  1  0.500000  0.315356  0.870029  1
  Ba  Ba15  1  0.500000  0.814838  0.630625  1
  Ba  Ba16  1  0.000000  0.524175  0.926763  1
  Ba  Ba17  1  0.000000  0.024033  0.574872  1
  Ba  Ba18  1  0.500000  0.471442  0.072206  1
  Ba  Ba19  1  0.500000  0.974123  0.423730  1
  Mn  Mn20  1  0.000000  0.284726  0.054178  1
  Ru  Ru21  1  0.000000  0.378793  0.176382  1
  Ru  Ru22  1  0.000000  0.875712  0.326607  1
  Ru  Ru23  1  0.500000  0.623634  0.827681  1
  Ru  Ru24  1  0.500000  0.124262  0.673127  1
  Ru  Ru25  1  0.000000  0.194749  0.930583  1
  Ru  Ru26  1  0.000000  0.694932  0.569326  1
  Ru  Ru27  1  0.500000  0.804659  0.068960  1
  Ru  Ru28  1  0.500000  0.305521  0.430671  1
  Ru  Ru29  1  0.000000  0.785503  0.442119  1
  Ru  Ru30  1  0.500000  0.715373  0.942035  1
  Ru  Ru31  1  0.500000  0.214846  0.557921  1
  O  O32  1  0.221017  0.308744  0.984415  1
  O  O33  1  0.774782  0.807168  0.516459  1
  O  O34  1  0.723383  0.691567  0.015913  1
  O  O35  1  0.275544  0.192830  0.483845  1
  O  O36  1  0.276617  0.691567  0.015913  1
  O  O37  1  0.724456  0.192830  0.483845  1
  O  O38  1  0.778983  0.308744  0.984415  1
  O  O39  1  0.225218  0.807168  0.516459  1
  O  O40  1  0.000000  0.116326  0.025702  1
  O  O41  1  0.000000  0.613270  0.475415  1
  O  O42  1  0.500000  0.888562  0.975880  1
  O  O43  1  0.500000  0.387160  0.524382  1
  O  O44  1  0.224069  0.261926  0.125447  1
  O  O45  1  0.761689  0.758434  0.370125  1
  O  O46  1  0.734932  0.743551  0.870353  1
  O  O47  1  0.262689  0.242385  0.629813  1
  O  O48  1  0.265068  0.743551  0.870353  1
  O  O49  1  0.737311  0.242385  0.629813  1
  O  O50  1  0.775931  0.261926  0.125447  1
  O  O51  1  0.238311  0.758434  0.370125  1
  O  O52  1  0.000000  0.307905  0.859163  1
  O  O53  1  0.000000  0.807139  0.640972  1
  O  O54  1  0.500000  0.690402  0.140166  1
  O  O55  1  0.500000  0.193381  0.358899  1
  O  O56  1  0.764483  0.094910  0.899290  1
  O  O57  1  0.234211  0.594395  0.602320  1
  O  O58  1  0.265572  0.903756  0.102277  1
  O  O59  1  0.734550  0.405517  0.397899  1
  O  O60  1  0.734428  0.903756  0.102277  1
  O  O61  1  0.265450  0.405517  0.397899  1
  O  O62  1  0.235517  0.094910  0.899290  1
  O  O63  1  0.765789  0.594395  0.602320  1
  O  O64  1  0.000000  0.453724  0.081183  1
  O  O65  1  0.000000  0.962391  0.418797  1
  O  O66  1  0.500000  0.536170  0.919442  1
  O  O67  1  0.500000  0.037469  0.581264  1
  O  O68  1  0.000000  0.272485  0.251701  1
  O  O69  1  0.000000  0.777716  0.247542  1
  O  O70  1  0.500000  0.721759  0.748167  1
  O  O71  1  0.500000  0.221313  0.752576  1
  O  O72  1  0.768880  0.482427  0.207288  1
  O  O73  1  0.228552  0.981259  0.293478  1
  O  O74  1  0.272000  0.518677  0.794484  1
  O  O75  1  0.728739  0.018841  0.706301  1
  O  O76  1  0.728000  0.518677  0.794484  1
  O  O77  1  0.271261  0.018841  0.706301  1
  O  O78  1  0.231120  0.482427  0.207288  1
  O  O79  1  0.771448  0.981259  0.293478  1
