# generated using pymatgen
data_DyTa5(B2Ru5)2
_symmetry_space_group_name_H-M   'P 1'
_cell_length_a   9.50665572
_cell_length_b   9.50665572
_cell_length_c   3.05566900
_cell_angle_alpha   90.00000000
_cell_angle_beta   90.00000000
_cell_angle_gamma   90.32706892
_symmetry_Int_Tables_number   1
_chemical_formula_structural   DyTa5(B2Ru5)2
_chemical_formula_sum   'Dy1 Ta5 B4 Ru10'
_cell_volume   276.15617917
_cell_formula_units_Z   1
loop_
 _symmetry_equiv_pos_site_id
 _symmetry_equiv_pos_as_xyz
  1  'x, y, z'
loop_
 _atom_site_type_symbol
 _atom_site_label
 _atom_site_symmetry_multiplicity
 _atom_site_fract_x
 _atom_site_fract_y
 _atom_site_fract_z
 _atom_site_occupancy
  Dy  Dy0  1  0.824615  0.675385  0.000000  1
  Ta  Ta1  1  0.178234  0.321766  0.000000  1
  Ta  Ta2  1  0.324581  0.823596  0.000000  1
  Ta  Ta3  1  0.676404  0.175419  0.000000  1
  Ta  Ta4  1  0.500442  0.500408  0.000000  1
  Ta  Ta5  1  0.999592  0.999558  0.000000  1
  B  B6  1  0.619029  0.880971  0.000000  1
  B  B7  1  0.377585  0.122415  0.000000  1
  B  B8  1  0.123027  0.620445  0.000000  1
  B  B9  1  0.879555  0.376973  0.000000  1
  Ru  Ru10  1  0.558491  0.724159  0.500000  1
  Ru  Ru11  1  0.426900  0.283058  0.500000  1
  Ru  Ru12  1  0.082300  0.783325  0.500000  1
  Ru  Ru13  1  0.930683  0.216092  0.500000  1
  Ru  Ru14  1  0.283908  0.569317  0.500000  1
  Ru  Ru15  1  0.716675  0.417700  0.500000  1
  Ru  Ru16  1  0.216942  0.073100  0.500000  1
  Ru  Ru17  1  0.775841  0.941509  0.500000  1
  Ru  Ru18  1  0.496239  0.003761  0.500000  1
  Ru  Ru19  1  0.008955  0.491045  0.500000  1
