# generated using pymatgen
data_BeAl2(FeRh2)3
_symmetry_space_group_name_H-M   'P 1'
_cell_length_a   4.23794500
_cell_length_b   5.96201500
_cell_length_c   12.70281700
_cell_angle_alpha   90.00030261
_cell_angle_beta   90.00096482
_cell_angle_gamma   89.99994413
_symmetry_Int_Tables_number   1
_chemical_formula_structural   BeAl2(FeRh2)3
_chemical_formula_sum   'Be2 Al4 Fe6 Rh12'
_cell_volume   320.95816032
_cell_formula_units_Z   2
loop_
 _symmetry_equiv_pos_site_id
 _symmetry_equiv_pos_as_xyz
  1  'x, y, z'
loop_
 _atom_site_type_symbol
 _atom_site_label
 _atom_site_symmetry_multiplicity
 _atom_site_fract_x
 _atom_site_fract_y
 _atom_site_fract_z
 _atom_site_occupancy
  Be  Be0  1  0.000286  0.500000  0.669333  1
  Be  Be1  1  0.500293  0.000001  0.830658  1
  Al  Al2  1  0.000006  0.500001  0.996102  1
  Al  Al3  1  0.499777  0.000000  0.165247  1
  Al  Al4  1  0.999774  0.499999  0.334710  1
  Al  Al5  1  0.500009  0.000000  0.503937  1
  Fe  Fe6  1  0.000000  0.999999  0.993940  1
  Fe  Fe7  1  0.499769  0.500000  0.163350  1
  Fe  Fe8  1  0.999768  0.999999  0.336648  1
  Fe  Fe9  1  0.500003  0.500000  0.506057  1
  Fe  Fe10  1  0.000206  0.000000  0.668870  1
  Fe  Fe11  1  0.500213  0.500000  0.831111  1
  Rh  Rh12  1  0.500007  0.246092  0.995485  1
  Rh  Rh13  1  0.500008  0.753909  0.995485  1
  Rh  Rh14  1  0.999780  0.249111  0.165653  1
  Rh  Rh15  1  0.999782  0.750888  0.165655  1
  Rh  Rh16  1  0.499782  0.251069  0.334415  1
  Rh  Rh17  1  0.499786  0.748931  0.334415  1
  Rh  Rh18  1  0.000011  0.254156  0.504532  1
  Rh  Rh19  1  0.000008  0.745842  0.504532  1
  Rh  Rh20  1  0.500184  0.252556  0.670197  1
  Rh  Rh21  1  0.500183  0.747445  0.670196  1
  Rh  Rh22  1  0.000189  0.247571  0.829736  1
  Rh  Rh23  1  0.000187  0.752428  0.829734  1
