# generated using pymatgen
data_Sc4Fe7Ni13P12
_symmetry_space_group_name_H-M   'P 1'
_cell_length_a   3.63926500
_cell_length_b   10.16471318
_cell_length_c   11.77374245
_cell_angle_alpha   89.91611676
_cell_angle_beta   90.00000000
_cell_angle_gamma   90.00000000
_symmetry_Int_Tables_number   1
_chemical_formula_structural   Sc4Fe7Ni13P12
_chemical_formula_sum   'Sc4 Fe7 Ni13 P12'
_cell_volume   435.53481348
_cell_formula_units_Z   1
loop_
 _symmetry_equiv_pos_site_id
 _symmetry_equiv_pos_as_xyz
  1  'x, y, z'
loop_
 _atom_site_type_symbol
 _atom_site_label
 _atom_site_symmetry_multiplicity
 _atom_site_fract_x
 _atom_site_fract_y
 _atom_site_fract_z
 _atom_site_occupancy
  Sc  Sc0  1  0.250000  0.572238  0.707307  1
  Sc  Sc1  1  0.250000  0.924495  0.207807  1
  Sc  Sc2  1  0.750000  0.423279  0.291589  1
  Sc  Sc3  1  0.750000  0.078422  0.793031  1
  Fe  Fe4  1  0.250000  0.630337  0.202329  1
  Fe  Fe5  1  0.750000  0.128819  0.297593  1
  Fe  Fe6  1  0.750000  0.371948  0.798231  1
  Fe  Fe7  1  0.250000  0.461200  0.931184  1
  Fe  Fe8  1  0.250000  0.038041  0.431688  1
  Fe  Fe9  1  0.750000  0.541746  0.068519  1
  Fe  Fe10  1  0.750000  0.958784  0.571026  1
  Ni  Ni11  1  0.250000  0.715164  0.992873  1
  Ni  Ni12  1  0.250000  0.781088  0.496432  1
  Ni  Ni13  1  0.750000  0.286811  0.007393  1
  Ni  Ni14  1  0.750000  0.213479  0.508055  1
  Ni  Ni15  1  0.250000  0.407663  0.480866  1
  Ni  Ni16  1  0.250000  0.091723  0.983017  1
  Ni  Ni17  1  0.750000  0.587056  0.516051  1
  Ni  Ni18  1  0.750000  0.909994  0.016599  1
  Ni  Ni19  1  0.250000  0.229748  0.169901  1
  Ni  Ni20  1  0.250000  0.272372  0.671436  1
  Ni  Ni21  1  0.750000  0.771955  0.824567  1
  Ni  Ni22  1  0.750000  0.728774  0.330197  1
  Ni  Ni23  1  0.250000  0.872356  0.704216  1
  P  P24  1  0.250000  0.436164  0.116004  1
  P  P25  1  0.250000  0.069623  0.614118  1
  P  P26  1  0.750000  0.567520  0.883976  1
  P  P27  1  0.750000  0.933696  0.384899  1
  P  P28  1  0.250000  0.264974  0.862688  1
  P  P29  1  0.250000  0.234803  0.361608  1
  P  P30  1  0.750000  0.737012  0.138849  1
  P  P31  1  0.750000  0.758870  0.632918  1
  P  P32  1  0.250000  0.601344  0.387152  1
  P  P33  1  0.250000  0.899265  0.891838  1
  P  P34  1  0.750000  0.396402  0.611943  1
  P  P35  1  0.750000  0.102839  0.112103  1
