# generated using pymatgen
data_DyEr7SnPd24
_symmetry_space_group_name_H-M   'P 1'
_cell_length_a   8.36924700
_cell_length_b   8.36924700
_cell_length_c   8.36924700
_cell_angle_alpha   90.00032861
_cell_angle_beta   90.00032861
_cell_angle_gamma   90.00032861
_symmetry_Int_Tables_number   1
_chemical_formula_structural   DyEr7SnPd24
_chemical_formula_sum   'Dy1 Er7 Sn1 Pd24'
_cell_volume   586.21800870
_cell_formula_units_Z   1
loop_
 _symmetry_equiv_pos_site_id
 _symmetry_equiv_pos_as_xyz
  1  'x, y, z'
loop_
 _atom_site_type_symbol
 _atom_site_label
 _atom_site_symmetry_multiplicity
 _atom_site_fract_x
 _atom_site_fract_y
 _atom_site_fract_z
 _atom_site_occupancy
  Dy  Dy0  1  0.252693  0.252693  0.252693  1
  Er  Er1  1  0.747253  0.747253  0.747253  1
  Er  Er2  1  0.747244  0.747244  0.252751  1
  Er  Er3  1  0.747244  0.252751  0.747244  1
  Er  Er4  1  0.252727  0.252727  0.747294  1
  Er  Er5  1  0.252727  0.747294  0.252727  1
  Er  Er6  1  0.252751  0.747244  0.747244  1
  Er  Er7  1  0.747294  0.252727  0.252727  1
  Sn  Sn8  1  0.000042  0.000042  0.000042  1
  Pd  Pd9  1  0.264690  0.500660  0.999144  1
  Pd  Pd10  1  0.735312  0.500049  0.999960  1
  Pd  Pd11  1  0.999144  0.264690  0.500660  1
  Pd  Pd12  1  0.500660  0.264690  0.999144  1
  Pd  Pd13  1  0.999960  0.735312  0.500049  1
  Pd  Pd14  1  0.500049  0.735312  0.999960  1
  Pd  Pd15  1  0.500660  0.999144  0.264690  1
  Pd  Pd16  1  0.264690  0.999144  0.500660  1
  Pd  Pd17  1  0.500049  0.999960  0.735312  1
  Pd  Pd18  1  0.735312  0.999960  0.500049  1
  Pd  Pd19  1  0.999144  0.500660  0.264690  1
  Pd  Pd20  1  0.999960  0.500049  0.735312  1
  Pd  Pd21  1  0.254330  0.500835  0.500835  1
  Pd  Pd22  1  0.745693  0.500030  0.500030  1
  Pd  Pd23  1  0.500835  0.254330  0.500835  1
  Pd  Pd24  1  0.500030  0.745693  0.500030  1
  Pd  Pd25  1  0.500835  0.500835  0.254330  1
  Pd  Pd26  1  0.500030  0.500030  0.745693  1
  Pd  Pd27  1  0.307826  0.999260  0.999260  1
  Pd  Pd28  1  0.692379  0.999961  0.999961  1
  Pd  Pd29  1  0.999260  0.307826  0.999260  1
  Pd  Pd30  1  0.999961  0.692379  0.999961  1
  Pd  Pd31  1  0.999260  0.999260  0.307826  1
  Pd  Pd32  1  0.999961  0.999961  0.692379  1
