# generated using pymatgen
data_Er4TmLu5Pb6
_symmetry_space_group_name_H-M   'P 1'
_cell_length_a   6.49612708
_cell_length_b   8.93764647
_cell_length_c   8.94293820
_cell_angle_alpha   119.98938789
_cell_angle_beta   90.01963174
_cell_angle_gamma   89.99217729
_symmetry_Int_Tables_number   1
_chemical_formula_structural   Er4TmLu5Pb6
_chemical_formula_sum   'Er4 Tm1 Lu5 Pb6'
_cell_volume   449.71249144
_cell_formula_units_Z   1
loop_
 _symmetry_equiv_pos_site_id
 _symmetry_equiv_pos_as_xyz
  1  'x, y, z'
loop_
 _atom_site_type_symbol
 _atom_site_label
 _atom_site_symmetry_multiplicity
 _atom_site_fract_x
 _atom_site_fract_y
 _atom_site_fract_z
 _atom_site_occupancy
  Er  Er0  1  0.750041  0.236700  0.999969  1
  Er  Er1  1  0.749994  0.763000  0.762771  1
  Er  Er2  1  0.749995  0.000202  0.237291  1
  Er  Er3  1  0.250022  0.763279  0.999960  1
  Tm  Tm4  1  0.249988  0.236796  0.236689  1
  Lu  Lu5  1  0.249991  0.000059  0.763283  1
  Lu  Lu6  1  0.499839  0.333327  0.666717  1
  Lu  Lu7  1  0.499855  0.666637  0.333305  1
  Lu  Lu8  1  0.000130  0.666689  0.333312  1
  Lu  Lu9  1  0.000135  0.333354  0.666707  1
  Pb  Pb10  1  0.750007  0.604456  0.000011  1
  Pb  Pb11  1  0.750038  0.395715  0.395772  1
  Pb  Pb12  1  0.750056  0.999941  0.604201  1
  Pb  Pb13  1  0.249983  0.394077  0.999898  1
  Pb  Pb14  1  0.249969  0.605073  0.604254  1
  Pb  Pb15  1  0.249958  0.000696  0.395858  1
