# generated using pymatgen
data_CuNi6Mo12RhN4
_symmetry_space_group_name_H-M   'P 1'
_cell_length_a   6.70517915
_cell_length_b   6.70517881
_cell_length_c   6.70517950
_cell_angle_alpha   90.07850409
_cell_angle_beta   89.92149284
_cell_angle_gamma   90.07850134
_symmetry_Int_Tables_number   1
_chemical_formula_structural   CuNi6Mo12RhN4
_chemical_formula_sum   'Cu1 Ni6 Mo12 Rh1 N4'
_cell_volume   301.46016783
_cell_formula_units_Z   1
loop_
 _symmetry_equiv_pos_site_id
 _symmetry_equiv_pos_as_xyz
  1  'x, y, z'
loop_
 _atom_site_type_symbol
 _atom_site_label
 _atom_site_symmetry_multiplicity
 _atom_site_fract_x
 _atom_site_fract_y
 _atom_site_fract_z
 _atom_site_occupancy
  Cu  Cu0  1  0.316920  0.183080  0.816920  1
  Ni  Ni1  1  0.189733  0.821353  0.313897  1
  Ni  Ni2  1  0.434093  0.933570  0.567167  1
  Ni  Ni3  1  0.678647  0.686103  0.689733  1
  Ni  Ni4  1  0.813897  0.310267  0.178647  1
  Ni  Ni5  1  0.566430  0.432833  0.934093  1
  Ni  Ni6  1  0.067167  0.065907  0.066430  1
  Mo  Mo7  1  0.197860  0.453762  0.125402  1
  Mo  Mo8  1  0.046238  0.874598  0.697860  1
  Mo  Mo9  1  0.452816  0.124323  0.202997  1
  Mo  Mo10  1  0.301619  0.550924  0.626051  1
  Mo  Mo11  1  0.949076  0.373949  0.801619  1
  Mo  Mo12  1  0.547011  0.624551  0.298897  1
  Mo  Mo13  1  0.702997  0.047184  0.875677  1
  Mo  Mo14  1  0.625402  0.302140  0.546238  1
  Mo  Mo15  1  0.875449  0.701103  0.047011  1
  Mo  Mo16  1  0.375677  0.797003  0.952816  1
  Mo  Mo17  1  0.126051  0.198381  0.449076  1
  Mo  Mo18  1  0.798897  0.952989  0.375449  1
  Rh  Rh19  1  0.934705  0.565295  0.434705  1
  N  N20  1  0.875625  0.126091  0.624295  1
  N  N21  1  0.625483  0.874517  0.125483  1
  N  N22  1  0.124295  0.624375  0.873909  1
  N  N23  1  0.373909  0.375705  0.375625  1
