# generated using pymatgen
data_Hf6Zn21Ni2Se
_symmetry_space_group_name_H-M   'P 1'
_cell_length_a   8.72105442
_cell_length_b   8.67187517
_cell_length_c   8.67186700
_cell_angle_alpha   59.94150178
_cell_angle_beta   59.81065169
_cell_angle_gamma   59.81063485
_symmetry_Int_Tables_number   1
_chemical_formula_structural   Hf6Zn21Ni2Se
_chemical_formula_sum   'Hf6 Zn21 Ni2 Se1'
_cell_volume   462.21007588
_cell_formula_units_Z   1
loop_
 _symmetry_equiv_pos_site_id
 _symmetry_equiv_pos_as_xyz
  1  'x, y, z'
loop_
 _atom_site_type_symbol
 _atom_site_label
 _atom_site_symmetry_multiplicity
 _atom_site_fract_x
 _atom_site_fract_y
 _atom_site_fract_z
 _atom_site_occupancy
  Hf  Hf0  1  0.712763  0.287242  0.287242  1
  Hf  Hf1  1  0.287237  0.712758  0.712758  1
  Hf  Hf2  1  0.286438  0.709048  0.290944  1
  Hf  Hf3  1  0.713562  0.290952  0.709056  1
  Hf  Hf4  1  0.286438  0.290944  0.709048  1
  Hf  Hf5  1  0.713562  0.709056  0.290952  1
  Zn  Zn6  1  0.118510  0.118400  0.118400  1
  Zn  Zn7  1  0.881490  0.881600  0.881600  1
  Zn  Zn8  1  0.115665  0.128125  0.640523  1
  Zn  Zn9  1  0.115665  0.640523  0.128125  1
  Zn  Zn10  1  0.884335  0.871875  0.359477  1
  Zn  Zn11  1  0.884335  0.359477  0.871875  1
  Zn  Zn12  1  0.644671  0.118405  0.118405  1
  Zn  Zn13  1  0.355329  0.881595  0.881595  1
  Zn  Zn14  1  0.500000  0.000000  0.000000  1
  Zn  Zn15  1  0.000000  0.500000  0.000000  1
  Zn  Zn16  1  0.500000  0.000000  0.500000  1
  Zn  Zn17  1  0.000000  0.000000  0.500000  1
  Zn  Zn18  1  0.500000  0.500000  0.000000  1
  Zn  Zn19  1  0.328128  0.338174  0.338174  1
  Zn  Zn20  1  0.671872  0.661826  0.661826  1
  Zn  Zn21  1  0.334696  0.336109  0.994512  1
  Zn  Zn22  1  0.334696  0.994512  0.336109  1
  Zn  Zn23  1  0.665304  0.663891  0.005488  1
  Zn  Zn24  1  0.665304  0.005488  0.663891  1
  Zn  Zn25  1  0.995505  0.338181  0.338181  1
  Zn  Zn26  1  0.004495  0.661819  0.661819  1
  Ni  Ni27  1  0.000000  0.500000  0.500000  1
  Ni  Ni28  1  0.000000  0.000000  0.000000  1
  Se  Se29  1  0.500000  0.500000  0.500000  1
