# generated using pymatgen
data_Y2Ho4Al19Si5Os8
_symmetry_space_group_name_H-M   'P 1'
_cell_length_a   8.69673301
_cell_length_b   8.68244747
_cell_length_c   9.58041700
_cell_angle_alpha   89.99993617
_cell_angle_beta   89.99969297
_cell_angle_gamma   120.04948341
_symmetry_Int_Tables_number   1
_chemical_formula_structural   Y2Ho4Al19Si5Os8
_chemical_formula_sum   'Y2 Ho4 Al19 Si5 Os8'
_cell_volume   626.17623181
_cell_formula_units_Z   1
loop_
 _symmetry_equiv_pos_site_id
 _symmetry_equiv_pos_as_xyz
  1  'x, y, z'
loop_
 _atom_site_type_symbol
 _atom_site_label
 _atom_site_symmetry_multiplicity
 _atom_site_fract_x
 _atom_site_fract_y
 _atom_site_fract_z
 _atom_site_occupancy
  Y  Y0  1  0.806056  0.611876  0.749997  1
  Y  Y1  1  0.389176  0.194669  0.749997  1
  Ho  Ho2  1  0.195001  0.389974  0.249987  1
  Ho  Ho3  1  0.607973  0.806321  0.249992  1
  Ho  Ho4  1  0.198347  0.806338  0.249999  1
  Ho  Ho5  1  0.805542  0.195110  0.750037  1
  Al  Al6  1  0.164568  0.329416  0.578107  1
  Al  Al7  1  0.834728  0.669479  0.421802  1
  Al  Al8  1  0.669815  0.835406  0.576827  1
  Al  Al9  1  0.834728  0.669478  0.078194  1
  Al  Al10  1  0.329079  0.165505  0.421927  1
  Al  Al11  1  0.164568  0.329416  0.921896  1
  Al  Al12  1  0.165479  0.835234  0.576719  1
  Al  Al13  1  0.329080  0.165507  0.078067  1
  Al  Al14  1  0.836388  0.165513  0.422091  1
  Al  Al15  1  0.669815  0.835405  0.923176  1
  Al  Al16  1  0.836389  0.165514  0.077904  1
  Al  Al17  1  0.165479  0.835233  0.923284  1
  Al  Al18  1  0.437178  0.874015  0.750004  1
  Al  Al19  1  0.872954  0.433593  0.249994  1
  Al  Al20  1  0.127713  0.564292  0.750006  1
  Al  Al21  1  0.560622  0.433575  0.249993  1
  Al  Al22  1  0.436597  0.564605  0.750007  1
  Al  Al23  1  0.999923  0.999848  0.249990  1
  Al  Al24  1  0.000188  0.001034  0.750008  1
  Si  Si25  1  0.332582  0.665175  0.037935  1
  Si  Si26  1  0.667456  0.334349  0.961248  1
  Si  Si27  1  0.667456  0.334347  0.538749  1
  Si  Si28  1  0.332583  0.665175  0.462063  1
  Si  Si29  1  0.563737  0.127508  0.249996  1
  Os  Os30  1  0.500785  0.001335  0.006492  1
  Os  Os31  1  0.999169  0.498925  0.000669  1
  Os  Os32  1  0.500784  0.001325  0.493503  1
  Os  Os33  1  0.499861  0.499141  0.000874  1
  Os  Os34  1  0.999171  0.498927  0.499336  1
  Os  Os35  1  0.499859  0.499140  0.499127  1
  Os  Os36  1  0.999584  0.999146  0.999940  1
  Os  Os37  1  0.999589  0.999152  0.500061  1
