# generated using pymatgen
data_Ho5Tm15(Cd3Re)2
_symmetry_space_group_name_H-M   'P 1'
_cell_length_a   9.44152300
_cell_length_b   9.44152326
_cell_length_c   9.90396700
_cell_angle_alpha   90.00000000
_cell_angle_beta   90.00000000
_cell_angle_gamma   119.99427079
_symmetry_Int_Tables_number   1
_chemical_formula_structural   Ho5Tm15(Cd3Re)2
_chemical_formula_sum   'Ho5 Tm15 Cd6 Re2'
_cell_volume   764.62590708
_cell_formula_units_Z   1
loop_
 _symmetry_equiv_pos_site_id
 _symmetry_equiv_pos_as_xyz
  1  'x, y, z'
loop_
 _atom_site_type_symbol
 _atom_site_label
 _atom_site_symmetry_multiplicity
 _atom_site_fract_x
 _atom_site_fract_y
 _atom_site_fract_z
 _atom_site_occupancy
  Ho  Ho0  1  0.537700  0.076173  0.250000  1
  Ho  Ho1  1  0.923827  0.462300  0.250000  1
  Ho  Ho2  1  0.462319  0.537681  0.750000  1
  Ho  Ho3  1  0.462779  0.926011  0.750000  1
  Ho  Ho4  1  0.073989  0.537221  0.750000  1
  Tm  Tm5  1  0.000213  0.999787  0.499883  1
  Tm  Tm6  1  0.000213  0.999787  0.000117  1
  Tm  Tm7  1  0.210221  0.789779  0.442896  1
  Tm  Tm8  1  0.210398  0.419393  0.443044  1
  Tm  Tm9  1  0.580607  0.789602  0.443044  1
  Tm  Tm10  1  0.790080  0.209920  0.556346  1
  Tm  Tm11  1  0.789126  0.579713  0.556297  1
  Tm  Tm12  1  0.420287  0.210874  0.556297  1
  Tm  Tm13  1  0.790080  0.209920  0.943654  1
  Tm  Tm14  1  0.789126  0.579713  0.943703  1
  Tm  Tm15  1  0.420287  0.210874  0.943703  1
  Tm  Tm16  1  0.210221  0.789779  0.057104  1
  Tm  Tm17  1  0.210398  0.419393  0.056956  1
  Tm  Tm18  1  0.580607  0.789602  0.056956  1
  Tm  Tm19  1  0.536055  0.463945  0.250000  1
  Cd  Cd20  1  0.886729  0.113271  0.250000  1
  Cd  Cd21  1  0.885796  0.772586  0.250000  1
  Cd  Cd22  1  0.227414  0.114204  0.250000  1
  Cd  Cd23  1  0.113221  0.886779  0.750000  1
  Cd  Cd24  1  0.113256  0.226273  0.750000  1
  Cd  Cd25  1  0.773727  0.886744  0.750000  1
  Re  Re26  1  0.334174  0.665826  0.250000  1
  Re  Re27  1  0.667145  0.332855  0.750000  1
