# generated using pymatgen
data_Tb2Dy2Al18ZnIr5
_symmetry_space_group_name_H-M   'P 1'
_cell_length_a   7.58689938
_cell_length_b   7.58676551
_cell_length_c   9.45241408
_cell_angle_alpha   90.03356762
_cell_angle_beta   90.01593678
_cell_angle_gamma   119.56483825
_symmetry_Int_Tables_number   1
_chemical_formula_structural   Tb2Dy2Al18ZnIr5
_chemical_formula_sum   'Tb2 Dy2 Al18 Zn1 Ir5'
_cell_volume   473.24050349
_cell_formula_units_Z   1
loop_
 _symmetry_equiv_pos_site_id
 _symmetry_equiv_pos_as_xyz
  1  'x, y, z'
loop_
 _atom_site_type_symbol
 _atom_site_label
 _atom_site_symmetry_multiplicity
 _atom_site_fract_x
 _atom_site_fract_y
 _atom_site_fract_z
 _atom_site_occupancy
  Tb  Tb0  1  0.674104  0.994855  0.249605  1
  Tb  Tb1  1  0.325896  0.005145  0.750395  1
  Dy  Dy2  1  0.994874  0.674024  0.249698  1
  Dy  Dy3  1  0.005126  0.325976  0.750302  1
  Al  Al4  1  0.134685  0.134626  0.256388  1
  Al  Al5  1  0.865315  0.865374  0.743612  1
  Al  Al6  1  0.001761  0.344345  0.078886  1
  Al  Al7  1  0.998239  0.655655  0.921114  1
  Al  Al8  1  0.000802  0.664803  0.571531  1
  Al  Al9  1  0.334991  0.999105  0.428371  1
  Al  Al10  1  0.999198  0.335197  0.428469  1
  Al  Al11  1  0.665009  0.000895  0.571629  1
  Al  Al12  1  0.655853  0.998329  0.921056  1
  Al  Al13  1  0.344147  0.001671  0.078944  1
  Al  Al14  1  0.332993  0.333074  0.551307  1
  Al  Al15  1  0.667007  0.666926  0.448693  1
  Al  Al16  1  0.657899  0.657811  0.059252  1
  Al  Al17  1  0.342101  0.342189  0.940748  1
  Al  Al18  1  0.338290  0.549539  0.251556  1
  Al  Al19  1  0.661710  0.450461  0.748444  1
  Al  Al20  1  0.549621  0.338436  0.251556  1
  Al  Al21  1  0.450379  0.661564  0.748444  1
  Zn  Zn22  1  0.000000  0.000000  0.000000  1
  Ir  Ir23  1  0.671660  0.328537  0.999999  1
  Ir  Ir24  1  0.328340  0.671463  0.000001  1
  Ir  Ir25  1  0.328503  0.671352  0.500003  1
  Ir  Ir26  1  0.671497  0.328648  0.499997  1
  Ir  Ir27  1  0.000000  0.000000  0.500000  1
