# generated using pymatgen
data_NaBi3(AsO5)2
_symmetry_space_group_name_H-M   'P 1'
_cell_length_a   5.76606688
_cell_length_b   6.99827243
_cell_length_c   7.18404178
_cell_angle_alpha   106.28309552
_cell_angle_beta   108.64593541
_cell_angle_gamma   99.74263290
_symmetry_Int_Tables_number   1
_chemical_formula_structural   NaBi3(AsO5)2
_chemical_formula_sum   'Na1 Bi3 As2 O10'
_cell_volume   252.75521253
_cell_formula_units_Z   1
loop_
 _symmetry_equiv_pos_site_id
 _symmetry_equiv_pos_as_xyz
  1  'x, y, z'
loop_
 _atom_site_type_symbol
 _atom_site_label
 _atom_site_symmetry_multiplicity
 _atom_site_fract_x
 _atom_site_fract_y
 _atom_site_fract_z
 _atom_site_occupancy
  Na  Na0  1  0.810302  0.458901  0.908279  1
  Bi  Bi1  1  0.581569  0.814546  0.238224  1
  Bi  Bi2  1  0.262128  0.615742  0.661542  1
  Bi  Bi3  1  0.020256  0.983945  0.996562  1
  As  As4  1  0.235274  0.070208  0.580636  1
  As  As5  1  0.632153  0.386216  0.341757  1
  O  O6  1  0.349498  0.327085  0.743069  1
  O  O7  1  0.476121  0.960620  0.572533  1
  O  O8  1  0.184281  0.726640  0.980837  1
  O  O9  1  0.021437  0.039528  0.333094  1
  O  O10  1  0.798472  0.517945  0.233774  1
  O  O11  1  0.656697  0.758146  0.936148  1
  O  O12  1  0.839167  0.410556  0.585111  1
  O  O13  1  0.489248  0.123520  0.186404  1
  O  O14  1  0.389921  0.499706  0.349687  1
  O  O15  1  0.049876  0.917117  0.664441  1
