# generated using pymatgen
data_Ho3MnCrC6
_symmetry_space_group_name_H-M   'P 1'
_cell_length_a   8.09021200
_cell_length_b   8.09021277
_cell_length_c   4.97029200
_cell_angle_alpha   90.00000000
_cell_angle_beta   90.00000000
_cell_angle_gamma   119.99999686
_symmetry_Int_Tables_number   1
_chemical_formula_structural   Ho3MnCrC6
_chemical_formula_sum   'Ho6 Mn2 Cr2 C12'
_cell_volume   281.72954571
_cell_formula_units_Z   2
loop_
 _symmetry_equiv_pos_site_id
 _symmetry_equiv_pos_as_xyz
  1  'x, y, z'
loop_
 _atom_site_type_symbol
 _atom_site_label
 _atom_site_symmetry_multiplicity
 _atom_site_fract_x
 _atom_site_fract_y
 _atom_site_fract_z
 _atom_site_occupancy
  Ho  Ho0  1  0.623605  0.684435  0.750000  1
  Ho  Ho1  1  0.939170  0.623605  0.250000  1
  Ho  Ho2  1  0.684435  0.060830  0.250000  1
  Ho  Ho3  1  0.315565  0.939170  0.750000  1
  Ho  Ho4  1  0.060830  0.376395  0.750000  1
  Ho  Ho5  1  0.376395  0.315565  0.250000  1
  Mn  Mn6  1  0.666667  0.333333  0.750000  1
  Mn  Mn7  1  0.333333  0.666667  0.250000  1
  Cr  Cr8  1  0.000000  0.000000  0.500000  1
  Cr  Cr9  1  0.000000  0.000000  0.000000  1
  C  C10  1  0.964253  0.771637  0.750000  1
  C  C11  1  0.192617  0.964253  0.250000  1
  C  C12  1  0.771637  0.807383  0.250000  1
  C  C13  1  0.228363  0.192617  0.750000  1
  C  C14  1  0.807383  0.035747  0.750000  1
  C  C15  1  0.035747  0.228363  0.250000  1
  C  C16  1  0.865763  0.575941  0.750000  1
  C  C17  1  0.289822  0.865763  0.250000  1
  C  C18  1  0.575941  0.710178  0.250000  1
  C  C19  1  0.424059  0.289822  0.750000  1
  C  C20  1  0.134237  0.424059  0.250000  1
  C  C21  1  0.710178  0.134237  0.750000  1
