# generated using pymatgen
data_PaNb(CoNi2)2
_symmetry_space_group_name_H-M   'P 1'
_cell_length_a   5.24316000
_cell_length_b   5.24316021
_cell_length_c   4.32548900
_cell_angle_alpha   90.00000000
_cell_angle_beta   90.00000000
_cell_angle_gamma   118.71634884
_symmetry_Int_Tables_number   1
_chemical_formula_structural   PaNb(CoNi2)2
_chemical_formula_sum   'Pa1 Nb1 Co2 Ni4'
_cell_volume   104.28588976
_cell_formula_units_Z   1
loop_
 _symmetry_equiv_pos_site_id
 _symmetry_equiv_pos_as_xyz
  1  'x, y, z'
loop_
 _atom_site_type_symbol
 _atom_site_label
 _atom_site_symmetry_multiplicity
 _atom_site_fract_x
 _atom_site_fract_y
 _atom_site_fract_z
 _atom_site_occupancy
  Pa  Pa0  1  0.334746  0.665254  0.000000  1
  Nb  Nb1  1  0.663069  0.336931  0.500000  1
  Co  Co2  1  0.839670  0.675724  0.000000  1
  Co  Co3  1  0.324276  0.160330  0.000000  1
  Ni  Ni4  1  0.838965  0.161035  0.000000  1
  Ni  Ni5  1  0.149755  0.306239  0.500000  1
  Ni  Ni6  1  0.693761  0.850245  0.500000  1
  Ni  Ni7  1  0.155519  0.844481  0.500000  1
