# generated using pymatgen
data_Y5Lu(Si3Ru)8
_symmetry_space_group_name_H-M   'P 1'
_cell_length_a   10.11433550
_cell_length_b   10.11433546
_cell_length_c   8.13620503
_cell_angle_alpha   90.01570347
_cell_angle_beta   90.01570431
_cell_angle_gamma   132.57483202
_symmetry_Int_Tables_number   1
_chemical_formula_structural   Y5Lu(Si3Ru)8
_chemical_formula_sum   'Y5 Lu1 Si24 Ru8'
_cell_volume   612.92443691
_cell_formula_units_Z   1
loop_
 _symmetry_equiv_pos_site_id
 _symmetry_equiv_pos_as_xyz
  1  'x, y, z'
loop_
 _atom_site_type_symbol
 _atom_site_label
 _atom_site_symmetry_multiplicity
 _atom_site_fract_x
 _atom_site_fract_y
 _atom_site_fract_z
 _atom_site_occupancy
  Y  Y0  1  0.500000  0.500000  0.500000  1
  Y  Y1  1  0.002602  0.502345  0.249432  1
  Y  Y2  1  0.497655  0.997398  0.750568  1
  Y  Y3  1  0.997398  0.497655  0.750568  1
  Y  Y4  1  0.502345  0.002602  0.249432  1
  Lu  Lu5  1  0.000000  0.000000  0.000000  1
  Si  Si6  1  0.294116  0.705884  0.000000  1
  Si  Si7  1  0.794876  0.205124  0.500000  1
  Si  Si8  1  0.705884  0.294116  0.000000  1
  Si  Si9  1  0.205124  0.794876  0.500000  1
  Si  Si10  1  0.832378  0.832378  0.332402  1
  Si  Si11  1  0.167622  0.167622  0.667598  1
  Si  Si12  1  0.667961  0.667961  0.833264  1
  Si  Si13  1  0.332039  0.332039  0.166736  1
  Si  Si14  1  0.620710  0.386147  0.227710  1
  Si  Si15  1  0.613853  0.379290  0.772290  1
  Si  Si16  1  0.111156  0.878070  0.729064  1
  Si  Si17  1  0.121930  0.888844  0.270936  1
  Si  Si18  1  0.379290  0.613853  0.772290  1
  Si  Si19  1  0.386147  0.620710  0.227710  1
  Si  Si20  1  0.888844  0.121930  0.270936  1
  Si  Si21  1  0.878070  0.111156  0.729064  1
  Si  Si22  1  0.844963  0.612028  0.004341  1
  Si  Si23  1  0.387972  0.155037  0.995659  1
  Si  Si24  1  0.888062  0.654694  0.504846  1
  Si  Si25  1  0.345306  0.111938  0.495154  1
  Si  Si26  1  0.155037  0.387972  0.995659  1
  Si  Si27  1  0.612028  0.844963  0.004341  1
  Si  Si28  1  0.111938  0.345306  0.495154  1
  Si  Si29  1  0.654694  0.888062  0.504846  1
  Ru  Ru30  1  0.167872  0.832128  0.000000  1
  Ru  Ru31  1  0.669232  0.330768  0.500000  1
  Ru  Ru32  1  0.832128  0.167872  0.000000  1
  Ru  Ru33  1  0.330768  0.669232  0.500000  1
  Ru  Ru34  1  0.626611  0.626611  0.125824  1
  Ru  Ru35  1  0.373389  0.373389  0.874176  1
  Ru  Ru36  1  0.874380  0.874380  0.628054  1
  Ru  Ru37  1  0.125620  0.125620  0.371946  1
