# generated using pymatgen
data_CsK6Rb11(GaAs4)2
_symmetry_space_group_name_H-M   'P 1'
_cell_length_a   10.34637729
_cell_length_b   10.36947166
_cell_length_c   10.99632420
_cell_angle_alpha   89.99995846
_cell_angle_beta   90.10768442
_cell_angle_gamma   120.07373896
_symmetry_Int_Tables_number   1
_chemical_formula_structural   CsK6Rb11(GaAs4)2
_chemical_formula_sum   'Cs1 K6 Rb11 Ga2 As8'
_cell_volume   1020.93690925
_cell_formula_units_Z   1
loop_
 _symmetry_equiv_pos_site_id
 _symmetry_equiv_pos_as_xyz
  1  'x, y, z'
loop_
 _atom_site_type_symbol
 _atom_site_label
 _atom_site_symmetry_multiplicity
 _atom_site_fract_x
 _atom_site_fract_y
 _atom_site_fract_z
 _atom_site_occupancy
  Cs  Cs0  1  0.581084  0.790544  0.954576  1
  K  K1  1  0.119477  0.238807  0.250186  1
  K  K2  1  0.119471  0.880663  0.250182  1
  K  K3  1  0.761871  0.880935  0.251055  1
  K  K4  1  0.239125  0.119559  0.749777  1
  K  K5  1  0.881262  0.120186  0.749604  1
  K  K6  1  0.881249  0.761067  0.749609  1
  Rb  Rb7  1  0.416986  0.208493  0.043408  1
  Rb  Rb8  1  0.791717  0.209274  0.043288  1
  Rb  Rb9  1  0.791715  0.582439  0.043290  1
  Rb  Rb10  1  0.791125  0.582658  0.456891  1
  Rb  Rb11  1  0.416846  0.208424  0.457120  1
  Rb  Rb12  1  0.791125  0.208470  0.456887  1
  Rb  Rb13  1  0.208698  0.791720  0.543154  1
  Rb  Rb14  1  0.582941  0.791474  0.542445  1
  Rb  Rb15  1  0.208695  0.416976  0.543150  1
  Rb  Rb16  1  0.207530  0.416080  0.956947  1
  Rb  Rb17  1  0.207531  0.791448  0.956947  1
  Ga  Ga18  1  0.333252  0.666623  0.250705  1
  Ga  Ga19  1  0.666104  0.333059  0.749119  1
  As  As20  1  0.002390  0.001195  0.000190  1
  As  As21  1  0.053743  0.526871  0.249701  1
  As  As22  1  0.472439  0.526931  0.251938  1
  As  As23  1  0.472437  0.945505  0.251940  1
  As  As24  1  0.999557  0.999775  0.500105  1
  As  As25  1  0.527760  0.055439  0.748852  1
  As  As26  1  0.527752  0.472325  0.748848  1
  As  As27  1  0.946119  0.473061  0.750083  1
