# generated using pymatgen
data_HoTiNbB2Ru5
_symmetry_space_group_name_H-M   'P 1'
_cell_length_a   9.47859419
_cell_length_b   9.47859374
_cell_length_c   3.07895700
_cell_angle_alpha   90.00000000
_cell_angle_beta   90.00000000
_cell_angle_gamma   90.60277059
_symmetry_Int_Tables_number   1
_chemical_formula_structural   HoTiNbB2Ru5
_chemical_formula_sum   'Ho2 Ti2 Nb2 B4 Ru10'
_cell_volume   276.60971519
_cell_formula_units_Z   2
loop_
 _symmetry_equiv_pos_site_id
 _symmetry_equiv_pos_as_xyz
  1  'x, y, z'
loop_
 _atom_site_type_symbol
 _atom_site_label
 _atom_site_symmetry_multiplicity
 _atom_site_fract_x
 _atom_site_fract_y
 _atom_site_fract_z
 _atom_site_occupancy
  Ho  Ho0  1  0.823899  0.676101  0.000000  1
  Ho  Ho1  1  0.176101  0.323899  0.000000  1
  Ti  Ti2  1  0.500000  0.500000  0.000000  1
  Ti  Ti3  1  0.000000  0.000000  0.000000  1
  Nb  Nb4  1  0.324275  0.824275  0.000000  1
  Nb  Nb5  1  0.675725  0.175725  0.000000  1
  B  B6  1  0.622141  0.877859  0.000000  1
  B  B7  1  0.377859  0.122141  0.000000  1
  B  B8  1  0.123856  0.623856  0.000000  1
  B  B9  1  0.876144  0.376144  0.000000  1
  Ru  Ru10  1  0.559467  0.720994  0.500000  1
  Ru  Ru11  1  0.440533  0.279006  0.500000  1
  Ru  Ru12  1  0.081829  0.787082  0.500000  1
  Ru  Ru13  1  0.918171  0.212918  0.500000  1
  Ru  Ru14  1  0.287082  0.581829  0.500000  1
  Ru  Ru15  1  0.712918  0.418171  0.500000  1
  Ru  Ru16  1  0.220994  0.059467  0.500000  1
  Ru  Ru17  1  0.779006  0.940533  0.500000  1
  Ru  Ru18  1  0.500000  0.000000  0.500000  1
  Ru  Ru19  1  0.000000  0.500000  0.500000  1
