# generated using pymatgen
data_Tl(RhSe2)4
_symmetry_space_group_name_H-M   'P 1'
_cell_length_a   3.72337482
_cell_length_b   8.16441173
_cell_length_c   9.25410100
_cell_angle_alpha   80.72446979
_cell_angle_beta   78.39435207
_cell_angle_gamma   76.81919147
_symmetry_Int_Tables_number   1
_chemical_formula_structural   Tl(RhSe2)4
_chemical_formula_sum   'Tl1 Rh4 Se8'
_cell_volume   266.33770613
_cell_formula_units_Z   1
loop_
 _symmetry_equiv_pos_site_id
 _symmetry_equiv_pos_as_xyz
  1  'x, y, z'
loop_
 _atom_site_type_symbol
 _atom_site_label
 _atom_site_symmetry_multiplicity
 _atom_site_fract_x
 _atom_site_fract_y
 _atom_site_fract_z
 _atom_site_occupancy
  Tl  Tl0  1  0.499632  0.000157  0.000578  1
  Rh  Rh1  1  0.633708  0.194516  0.538068  1
  Rh  Rh2  1  0.838791  0.498171  0.824244  1
  Rh  Rh3  1  0.161371  0.501645  0.175614  1
  Rh  Rh4  1  0.366280  0.805604  0.461835  1
  Se  Se5  1  0.457330  0.315072  0.770270  1
  Se  Se6  1  0.542804  0.684649  0.229741  1
  Se  Se7  1  0.898680  0.633344  0.569298  1
  Se  Se8  1  0.101209  0.366869  0.430712  1
  Se  Se9  1  0.207385  0.664908  0.920322  1
  Se  Se10  1  0.792778  0.334885  0.079562  1
  Se  Se11  1  0.830425  0.994160  0.344990  1
  Se  Se12  1  0.169608  0.006021  0.654762  1
