# generated using pymatgen
data_Dy5AsRhO12
_symmetry_space_group_name_H-M   'P 1'
_cell_length_a   6.83468452
_cell_length_b   6.83468379
_cell_length_c   7.23575683
_cell_angle_alpha   74.52062603
_cell_angle_beta   74.52062989
_cell_angle_gamma   50.84521675
_symmetry_Int_Tables_number   1
_chemical_formula_structural   Dy5AsRhO12
_chemical_formula_sum   'Dy5 As1 Rh1 O12'
_cell_volume   250.39696040
_cell_formula_units_Z   1
loop_
 _symmetry_equiv_pos_site_id
 _symmetry_equiv_pos_as_xyz
  1  'x, y, z'
loop_
 _atom_site_type_symbol
 _atom_site_label
 _atom_site_symmetry_multiplicity
 _atom_site_fract_x
 _atom_site_fract_y
 _atom_site_fract_z
 _atom_site_occupancy
  Dy  Dy0  1  0.305807  0.298068  0.359478  1
  Dy  Dy1  1  0.701932  0.694193  0.640522  1
  Dy  Dy2  1  0.308233  0.303690  0.832977  1
  Dy  Dy3  1  0.696310  0.691767  0.167023  1
  Dy  Dy4  1  0.009186  0.990814  0.500000  1
  As  As5  1  0.239210  0.760790  0.000000  1
  Rh  Rh6  1  0.748812  0.251188  0.000000  1
  O  O7  1  0.904172  0.431783  0.917708  1
  O  O8  1  0.414657  0.898326  0.919545  1
  O  O9  1  0.101674  0.585343  0.080455  1
  O  O10  1  0.568217  0.095828  0.082292  1
  O  O11  1  0.102046  0.592997  0.572937  1
  O  O12  1  0.602682  0.092469  0.576406  1
  O  O13  1  0.907531  0.397318  0.423594  1
  O  O14  1  0.407003  0.897954  0.427063  1
  O  O15  1  0.011982  0.987749  0.822293  1
  O  O16  1  0.012251  0.988018  0.177707  1
  O  O17  1  0.479008  0.520713  0.820104  1
  O  O18  1  0.479287  0.520992  0.179896  1
