# generated using pymatgen
data_BaAl4SiPdAu
_symmetry_space_group_name_H-M   'P 1'
_cell_length_a   4.35041300
_cell_length_b   4.35041300
_cell_length_c   8.52791000
_cell_angle_alpha   90.00000000
_cell_angle_beta   90.00000000
_cell_angle_gamma   90.00000000
_symmetry_Int_Tables_number   1
_chemical_formula_structural   BaAl4SiPdAu
_chemical_formula_sum   'Ba1 Al4 Si1 Pd1 Au1'
_cell_volume   161.40002006
_cell_formula_units_Z   1
loop_
 _symmetry_equiv_pos_site_id
 _symmetry_equiv_pos_as_xyz
  1  'x, y, z'
loop_
 _atom_site_type_symbol
 _atom_site_label
 _atom_site_symmetry_multiplicity
 _atom_site_fract_x
 _atom_site_fract_y
 _atom_site_fract_z
 _atom_site_occupancy
  Ba  Ba0  1  0.000000  0.000000  0.512779  1
  Al  Al1  1  0.000000  0.500000  0.162636  1
  Al  Al2  1  0.000000  0.500000  0.835570  1
  Al  Al3  1  0.500000  0.000000  0.162636  1
  Al  Al4  1  0.500000  0.000000  0.835570  1
  Si  Si5  1  0.500000  0.500000  0.653447  1
  Pd  Pd6  1  0.000000  0.000000  0.993750  1
  Au  Au7  1  0.500000  0.500000  0.343612  1
