# generated using pymatgen
data_Tc3B(WN4)2
_symmetry_space_group_name_H-M   'P 1'
_cell_length_a   5.84830824
_cell_length_b   5.84830889
_cell_length_c   5.86880987
_cell_angle_alpha   60.11547948
_cell_angle_beta   60.11547807
_cell_angle_gamma   59.99999704
_symmetry_Int_Tables_number   1
_chemical_formula_structural   Tc3B(WN4)2
_chemical_formula_sum   'Tc3 B1 W2 N8'
_cell_volume   142.18423084
_cell_formula_units_Z   1
loop_
 _symmetry_equiv_pos_site_id
 _symmetry_equiv_pos_as_xyz
  1  'x, y, z'
loop_
 _atom_site_type_symbol
 _atom_site_label
 _atom_site_symmetry_multiplicity
 _atom_site_fract_x
 _atom_site_fract_y
 _atom_site_fract_z
 _atom_site_occupancy
  Tc  Tc0  1  0.918336  0.359445  0.362773  1
  Tc  Tc1  1  0.359445  0.918336  0.362773  1
  Tc  Tc2  1  0.359445  0.359445  0.362773  1
  B  B3  1  0.998225  0.998225  0.005325  1
  W  W4  1  0.748483  0.748483  0.754551  1
  W  W5  1  0.359956  0.359956  0.920133  1
  N  N6  1  0.115471  0.115471  0.104526  1
  N  N7  1  0.664529  0.115471  0.104526  1
  N  N8  1  0.115471  0.664529  0.104526  1
  N  N9  1  0.615936  0.615936  0.152191  1
  N  N10  1  0.140822  0.620822  0.617534  1
  N  N11  1  0.620822  0.140822  0.617534  1
  N  N12  1  0.620822  0.620822  0.617534  1
  N  N13  1  0.112233  0.112233  0.663300  1
