# generated using pymatgen
data_La2Pr6Er12Si15Pd
_symmetry_space_group_name_H-M   'P 1'
_cell_length_a   7.48380895
_cell_length_b   7.86781047
_cell_length_c   14.77215403
_cell_angle_alpha   89.90001883
_cell_angle_beta   89.98892573
_cell_angle_gamma   90.00196288
_symmetry_Int_Tables_number   1
_chemical_formula_structural   La2Pr6Er12Si15Pd
_chemical_formula_sum   'La2 Pr6 Er12 Si15 Pd1'
_cell_volume   869.80067329
_cell_formula_units_Z   1
loop_
 _symmetry_equiv_pos_site_id
 _symmetry_equiv_pos_as_xyz
  1  'x, y, z'
loop_
 _atom_site_type_symbol
 _atom_site_label
 _atom_site_symmetry_multiplicity
 _atom_site_fract_x
 _atom_site_fract_y
 _atom_site_fract_z
 _atom_site_occupancy
  La  La0  1  0.520681  0.571380  0.343478  1
  La  La1  1  0.020110  0.426751  0.655924  1
  Pr  Pr2  1  0.480520  0.930404  0.845334  1
  Pr  Pr3  1  0.979006  0.070834  0.153820  1
  Pr  Pr4  1  0.479364  0.931150  0.153802  1
  Pr  Pr5  1  0.977827  0.070877  0.847332  1
  Pr  Pr6  1  0.522906  0.569380  0.653332  1
  Pr  Pr7  1  0.022385  0.429733  0.346512  1
  Er  Er8  1  0.811991  0.577769  0.876002  1
  Er  Er9  1  0.318472  0.425351  0.124946  1
  Er  Er10  1  0.181622  0.925294  0.374534  1
  Er  Er11  1  0.681125  0.071484  0.625809  1
  Er  Er12  1  0.182009  0.925270  0.626285  1
  Er  Er13  1  0.681676  0.071884  0.373466  1
  Er  Er14  1  0.814421  0.575556  0.124814  1
  Er  Er15  1  0.320011  0.427693  0.874379  1
  Er  Er16  1  0.647888  0.234856  0.999379  1
  Er  Er17  1  0.156646  0.757558  0.000343  1
  Er  Er18  1  0.349037  0.261707  0.499722  1
  Er  Er19  1  0.848201  0.737806  0.500021  1
  Si  Si20  1  0.020655  0.360368  0.999997  1
  Si  Si21  1  0.477381  0.864779  0.500015  1
  Si  Si22  1  0.977276  0.134814  0.500050  1
  Si  Si23  1  0.647827  0.280000  0.789526  1
  Si  Si24  1  0.148229  0.718014  0.210125  1
  Si  Si25  1  0.353362  0.216275  0.288717  1
  Si  Si26  1  0.854166  0.783265  0.711515  1
  Si  Si27  1  0.356684  0.218304  0.710745  1
  Si  Si28  1  0.857145  0.781970  0.288952  1
  Si  Si29  1  0.646310  0.277278  0.209272  1
  Si  Si30  1  0.145897  0.720192  0.790876  1
  Si  Si31  1  0.776048  0.877149  0.000537  1
  Si  Si32  1  0.266484  0.129156  0.999661  1
  Si  Si33  1  0.228107  0.629204  0.500968  1
  Si  Si34  1  0.728058  0.371448  0.499181  1
  Pd  Pd35  1  0.520471  0.645044  0.000635  1
