# generated using pymatgen
data_Rb2EuBr4
_symmetry_space_group_name_H-M   'P 1'
_cell_length_a   8.56705900
_cell_length_b   9.45915800
_cell_length_c   14.15383000
_cell_angle_alpha   90.00000000
_cell_angle_beta   90.00000000
_cell_angle_gamma   90.00000000
_symmetry_Int_Tables_number   1
_chemical_formula_structural   Rb2EuBr4
_chemical_formula_sum   'Rb8 Eu4 Br16'
_cell_volume   1146.98625251
_cell_formula_units_Z   4
loop_
 _symmetry_equiv_pos_site_id
 _symmetry_equiv_pos_as_xyz
  1  'x, y, z'
loop_
 _atom_site_type_symbol
 _atom_site_label
 _atom_site_symmetry_multiplicity
 _atom_site_fract_x
 _atom_site_fract_y
 _atom_site_fract_z
 _atom_site_occupancy
  Rb  Rb0  1  0.579461  0.500000  0.187109  1
  Rb  Rb1  1  0.079461  0.500000  0.312892  1
  Rb  Rb2  1  0.920539  0.000000  0.687108  1
  Rb  Rb3  1  0.420539  0.000000  0.812891  1
  Rb  Rb4  1  0.573999  0.000000  0.176689  1
  Rb  Rb5  1  0.073997  0.000000  0.323312  1
  Rb  Rb6  1  0.926003  0.500000  0.676688  1
  Rb  Rb7  1  0.426003  0.500000  0.823311  1
  Eu  Eu8  1  0.000000  0.250000  0.000000  1
  Eu  Eu9  1  0.000000  0.750000  0.000000  1
  Eu  Eu10  1  0.500000  0.250000  0.500000  1
  Eu  Eu11  1  0.500000  0.750000  0.500000  1
  Br  Br12  1  0.220036  0.000000  0.049270  1
  Br  Br13  1  0.223046  0.500000  0.051306  1
  Br  Br14  1  0.865121  0.248216  0.195929  1
  Br  Br15  1  0.865121  0.751784  0.195929  1
  Br  Br16  1  0.365121  0.248216  0.304070  1
  Br  Br17  1  0.365121  0.751784  0.304070  1
  Br  Br18  1  0.723046  0.500000  0.448694  1
  Br  Br19  1  0.720037  0.000000  0.450730  1
  Br  Br20  1  0.279963  0.500000  0.549270  1
  Br  Br21  1  0.276956  0.000000  0.551305  1
  Br  Br22  1  0.634880  0.251784  0.695930  1
  Br  Br23  1  0.634880  0.748217  0.695930  1
  Br  Br24  1  0.134879  0.251784  0.804070  1
  Br  Br25  1  0.134879  0.748217  0.804070  1
  Br  Br26  1  0.776956  0.000000  0.948694  1
  Br  Br27  1  0.779963  0.500000  0.950730  1
