# generated using pymatgen
data_Rb6LuTe4Br
_symmetry_space_group_name_H-M   'P 1'
_cell_length_a   11.95172900
_cell_length_b   11.95172931
_cell_length_c   8.74030200
_cell_angle_alpha   90.00000000
_cell_angle_beta   90.00000000
_cell_angle_gamma   120.00000192
_symmetry_Int_Tables_number   1
_chemical_formula_structural   Rb6LuTe4Br
_chemical_formula_sum   'Rb12 Lu2 Te8 Br2'
_cell_volume   1081.23114645
_cell_formula_units_Z   2
loop_
 _symmetry_equiv_pos_site_id
 _symmetry_equiv_pos_as_xyz
  1  'x, y, z'
loop_
 _atom_site_type_symbol
 _atom_site_label
 _atom_site_symmetry_multiplicity
 _atom_site_fract_x
 _atom_site_fract_y
 _atom_site_fract_z
 _atom_site_occupancy
  Rb  Rb0  1  0.127676  0.872324  0.513313  1
  Rb  Rb1  1  0.744646  0.872324  0.513313  1
  Rb  Rb2  1  0.946944  0.473472  0.319762  1
  Rb  Rb3  1  0.526528  0.473472  0.319762  1
  Rb  Rb4  1  0.872324  0.744646  0.013313  1
  Rb  Rb5  1  0.255354  0.127676  0.013313  1
  Rb  Rb6  1  0.526528  0.053056  0.319762  1
  Rb  Rb7  1  0.127676  0.255354  0.513313  1
  Rb  Rb8  1  0.872324  0.127676  0.013313  1
  Rb  Rb9  1  0.053056  0.526528  0.819762  1
  Rb  Rb10  1  0.473472  0.946944  0.819762  1
  Rb  Rb11  1  0.473472  0.526528  0.819762  1
  Lu  Lu12  1  0.666667  0.333333  0.711406  1
  Lu  Lu13  1  0.333333  0.666667  0.211406  1
  Te  Te14  1  0.403047  0.201524  0.604400  1
  Te  Te15  1  0.596953  0.798476  0.104400  1
  Te  Te16  1  0.666667  0.333333  0.043471  1
  Te  Te17  1  0.798476  0.596953  0.604400  1
  Te  Te18  1  0.201524  0.403047  0.104400  1
  Te  Te19  1  0.333333  0.666667  0.543471  1
  Te  Te20  1  0.201524  0.798476  0.104400  1
  Te  Te21  1  0.798476  0.201524  0.604400  1
  Br  Br22  1  0.000000  0.000000  0.273295  1
  Br  Br23  1  0.000000  0.000000  0.773295  1
