# generated using pymatgen
data_SrLaNd2(Pt2O7)2
_symmetry_space_group_name_H-M   'P 1'
_cell_length_a   7.44607885
_cell_length_b   7.48543787
_cell_length_c   7.48543716
_cell_angle_alpha   60.05188302
_cell_angle_beta   59.98368396
_cell_angle_gamma   59.98368462
_symmetry_Int_Tables_number   1
_chemical_formula_structural   SrLaNd2(Pt2O7)2
_chemical_formula_sum   'Sr1 La1 Nd2 Pt4 O14'
_cell_volume   295.05962233
_cell_formula_units_Z   1
loop_
 _symmetry_equiv_pos_site_id
 _symmetry_equiv_pos_as_xyz
  1  'x, y, z'
loop_
 _atom_site_type_symbol
 _atom_site_label
 _atom_site_symmetry_multiplicity
 _atom_site_fract_x
 _atom_site_fract_y
 _atom_site_fract_z
 _atom_site_occupancy
  Sr  Sr0  1  0.125000  0.625000  0.625000  1
  La  La1  1  0.625000  0.625000  0.625000  1
  Nd  Nd2  1  0.625000  0.625000  0.125000  1
  Nd  Nd3  1  0.625000  0.125000  0.625000  1
  Pt  Pt4  1  0.125000  0.125000  0.625000  1
  Pt  Pt5  1  0.125000  0.625000  0.125000  1
  Pt  Pt6  1  0.625000  0.125000  0.125000  1
  Pt  Pt7  1  0.125000  0.125000  0.125000  1
  O  O8  1  0.511530  0.495874  0.495874  1
  O  O9  1  0.738470  0.754126  0.754126  1
  O  O10  1  0.458212  0.046615  0.456157  1
  O  O11  1  0.212967  0.795706  0.196674  1
  O  O12  1  0.458212  0.456157  0.046615  1
  O  O13  1  0.042464  0.453140  0.453140  1
  O  O14  1  0.459138  0.041444  0.041444  1
  O  O15  1  0.037033  0.053326  0.454294  1
  O  O16  1  0.037033  0.454294  0.053326  1
  O  O17  1  0.790862  0.208556  0.208556  1
  O  O18  1  0.207536  0.796860  0.796860  1
  O  O19  1  0.791788  0.203385  0.793843  1
  O  O20  1  0.212967  0.196674  0.795706  1
  O  O21  1  0.791788  0.793843  0.203385  1
