# generated using pymatgen
data_Pr8Si15Ru
_symmetry_space_group_name_H-M   'P 1'
_cell_length_a   8.22874000
_cell_length_b   8.22874060
_cell_length_c   8.53092500
_cell_angle_alpha   90.00000000
_cell_angle_beta   90.00000000
_cell_angle_gamma   120.00000562
_symmetry_Int_Tables_number   1
_chemical_formula_structural   Pr8Si15Ru
_chemical_formula_sum   'Pr8 Si15 Ru1'
_cell_volume   500.25730996
_cell_formula_units_Z   1
loop_
 _symmetry_equiv_pos_site_id
 _symmetry_equiv_pos_as_xyz
  1  'x, y, z'
loop_
 _atom_site_type_symbol
 _atom_site_label
 _atom_site_symmetry_multiplicity
 _atom_site_fract_x
 _atom_site_fract_y
 _atom_site_fract_z
 _atom_site_occupancy
  Pr  Pr0  1  0.500469  0.499531  0.747169  1
  Pr  Pr1  1  0.500724  0.499276  0.252932  1
  Pr  Pr2  1  0.999064  0.499531  0.747169  1
  Pr  Pr3  1  0.998552  0.499276  0.252932  1
  Pr  Pr4  1  0.500469  0.000936  0.747169  1
  Pr  Pr5  1  0.500724  0.001448  0.252932  1
  Pr  Pr6  1  0.000000  0.000000  0.748221  1
  Pr  Pr7  1  0.000000  0.000000  0.251483  1
  Si  Si8  1  0.828343  0.171657  0.000046  1
  Si  Si9  1  0.162468  0.837532  0.999862  1
  Si  Si10  1  0.343314  0.171657  0.000046  1
  Si  Si11  1  0.167380  0.832620  0.500122  1
  Si  Si12  1  0.675064  0.837532  0.999862  1
  Si  Si13  1  0.834134  0.165866  0.499793  1
  Si  Si14  1  0.828343  0.656686  0.000046  1
  Si  Si15  1  0.665238  0.832620  0.500122  1
  Si  Si16  1  0.162468  0.324936  0.999862  1
  Si  Si17  1  0.331730  0.165866  0.499793  1
  Si  Si18  1  0.167380  0.334762  0.500122  1
  Si  Si19  1  0.834134  0.668270  0.499793  1
  Si  Si20  1  0.333333  0.666667  0.000869  1
  Si  Si21  1  0.333333  0.666667  0.499482  1
  Si  Si22  1  0.666667  0.333333  0.500749  1
  Ru  Ru23  1  0.666667  0.333333  0.999429  1
