# generated using pymatgen
data_LiCa20Zn11
_symmetry_space_group_name_H-M   'P 1'
_cell_length_a   7.96831800
_cell_length_b   7.96831800
_cell_length_c   15.08738500
_cell_angle_alpha   90.00000000
_cell_angle_beta   90.00000000
_cell_angle_gamma   90.00000000
_symmetry_Int_Tables_number   1
_chemical_formula_structural   LiCa20Zn11
_chemical_formula_sum   'Li1 Ca20 Zn11'
_cell_volume   957.95980744
_cell_formula_units_Z   1
loop_
 _symmetry_equiv_pos_site_id
 _symmetry_equiv_pos_as_xyz
  1  'x, y, z'
loop_
 _atom_site_type_symbol
 _atom_site_label
 _atom_site_symmetry_multiplicity
 _atom_site_fract_x
 _atom_site_fract_y
 _atom_site_fract_z
 _atom_site_occupancy
  Li  Li0  1  0.000000  0.000000  0.000000  1
  Ca  Ca1  1  0.661256  0.174627  0.104920  1
  Ca  Ca2  1  0.171196  0.667592  0.602989  1
  Ca  Ca3  1  0.338744  0.825373  0.104920  1
  Ca  Ca4  1  0.828804  0.332408  0.602989  1
  Ca  Ca5  1  0.825373  0.661256  0.104920  1
  Ca  Ca6  1  0.332408  0.171196  0.602989  1
  Ca  Ca7  1  0.174627  0.338744  0.104920  1
  Ca  Ca8  1  0.667592  0.828804  0.602989  1
  Ca  Ca9  1  0.825373  0.338744  0.895080  1
  Ca  Ca10  1  0.332408  0.828804  0.397011  1
  Ca  Ca11  1  0.174627  0.661256  0.895080  1
  Ca  Ca12  1  0.667592  0.171196  0.397011  1
  Ca  Ca13  1  0.661256  0.825373  0.895080  1
  Ca  Ca14  1  0.171196  0.332408  0.397011  1
  Ca  Ca15  1  0.338744  0.174627  0.895080  1
  Ca  Ca16  1  0.828804  0.667592  0.397011  1
  Ca  Ca17  1  0.500000  0.500000  0.747855  1
  Ca  Ca18  1  0.000000  0.000000  0.252847  1
  Ca  Ca19  1  0.000000  0.000000  0.747153  1
  Ca  Ca20  1  0.500000  0.500000  0.252145  1
  Zn  Zn21  1  0.620105  0.118302  0.750260  1
  Zn  Zn22  1  0.118302  0.620105  0.249740  1
  Zn  Zn23  1  0.881698  0.379895  0.249740  1
  Zn  Zn24  1  0.379895  0.881698  0.750260  1
  Zn  Zn25  1  0.881698  0.620105  0.750260  1
  Zn  Zn26  1  0.379895  0.118302  0.249740  1
  Zn  Zn27  1  0.118302  0.379895  0.750260  1
  Zn  Zn28  1  0.620105  0.881698  0.249740  1
  Zn  Zn29  1  0.500000  0.500000  0.500000  1
  Zn  Zn30  1  0.500000  0.500000  0.000000  1
  Zn  Zn31  1  0.000000  0.000000  0.500000  1
