# generated using pymatgen
data_Tb2Yb(AlIr2)3
_symmetry_space_group_name_H-M   'P 1'
_cell_length_a   5.59573100
_cell_length_b   5.59551355
_cell_length_c   15.61303700
_cell_angle_alpha   90.00000000
_cell_angle_beta   90.00000000
_cell_angle_gamma   119.99950607
_symmetry_Int_Tables_number   1
_chemical_formula_structural   Tb2Yb(AlIr2)3
_chemical_formula_sum   'Tb4 Yb2 Al6 Ir12'
_cell_volume   423.36696044
_cell_formula_units_Z   2
loop_
 _symmetry_equiv_pos_site_id
 _symmetry_equiv_pos_as_xyz
  1  'x, y, z'
loop_
 _atom_site_type_symbol
 _atom_site_label
 _atom_site_symmetry_multiplicity
 _atom_site_fract_x
 _atom_site_fract_y
 _atom_site_fract_z
 _atom_site_occupancy
  Tb  Tb0  1  0.333331  0.666671  0.543601  1
  Tb  Tb1  1  0.666669  0.333329  0.456399  1
  Tb  Tb2  1  0.666669  0.333329  0.043601  1
  Tb  Tb3  1  0.333331  0.666671  0.956399  1
  Yb  Yb4  1  0.333331  0.666671  0.750000  1
  Yb  Yb5  1  0.666669  0.333329  0.250000  1
  Al  Al6  1  0.000001  0.999949  0.250000  1
  Al  Al7  1  0.999999  0.000051  0.750000  1
  Al  Al8  1  0.333330  0.666728  0.250000  1
  Al  Al9  1  0.666670  0.333272  0.750000  1
  Al  Al10  1  0.000000  0.000000  0.000000  1
  Al  Al11  1  0.000000  0.000000  0.500000  1
  Ir  Ir12  1  0.169066  0.338125  0.125296  1
  Ir  Ir13  1  0.830934  0.661875  0.874704  1
  Ir  Ir14  1  0.661896  0.830944  0.125311  1
  Ir  Ir15  1  0.830934  0.661875  0.625296  1
  Ir  Ir16  1  0.338104  0.169056  0.874689  1
  Ir  Ir17  1  0.169066  0.338125  0.374704  1
  Ir  Ir18  1  0.169040  0.830957  0.125312  1
  Ir  Ir19  1  0.338104  0.169056  0.625311  1
  Ir  Ir20  1  0.830960  0.169043  0.874688  1
  Ir  Ir21  1  0.661896  0.830944  0.374689  1
  Ir  Ir22  1  0.830960  0.169043  0.625312  1
  Ir  Ir23  1  0.169040  0.830957  0.374688  1
