# generated using pymatgen
data_CeHo7(TcB6)4
_symmetry_space_group_name_H-M   'P 1'
_cell_length_a   3.68879300
_cell_length_b   9.14645689
_cell_length_c   11.52801708
_cell_angle_alpha   90.03876470
_cell_angle_beta   90.00000000
_cell_angle_gamma   90.00000000
_symmetry_Int_Tables_number   1
_chemical_formula_structural   CeHo7(TcB6)4
_chemical_formula_sum   'Ce1 Ho7 Tc4 B24'
_cell_volume   388.94813102
_cell_formula_units_Z   1
loop_
 _symmetry_equiv_pos_site_id
 _symmetry_equiv_pos_as_xyz
  1  'x, y, z'
loop_
 _atom_site_type_symbol
 _atom_site_label
 _atom_site_symmetry_multiplicity
 _atom_site_fract_x
 _atom_site_fract_y
 _atom_site_fract_z
 _atom_site_occupancy
  Ce  Ce0  1  0.000000  0.323586  0.414130  1
  Ho  Ho1  1  0.000000  0.676707  0.586568  1
  Ho  Ho2  1  0.000000  0.824019  0.085110  1
  Ho  Ho3  1  0.000000  0.175560  0.914220  1
  Ho  Ho4  1  0.000000  0.942164  0.369074  1
  Ho  Ho5  1  0.000000  0.056707  0.631256  1
  Ho  Ho6  1  0.000000  0.443048  0.129704  1
  Ho  Ho7  1  0.000000  0.557516  0.869782  1
  Tc  Tc8  1  0.000000  0.638381  0.320788  1
  Tc  Tc9  1  0.000000  0.361481  0.679216  1
  Tc  Tc10  1  0.000000  0.139152  0.179391  1
  Tc  Tc11  1  0.000000  0.861342  0.820715  1
  B  B12  1  0.500000  0.554168  0.432541  1
  B  B13  1  0.500000  0.446369  0.568012  1
  B  B14  1  0.500000  0.053340  0.066734  1
  B  B15  1  0.500000  0.946735  0.933001  1
  B  B16  1  0.500000  0.749476  0.418566  1
  B  B17  1  0.500000  0.251012  0.582740  1
  B  B18  1  0.500000  0.248836  0.080675  1
  B  B19  1  0.500000  0.750915  0.918693  1
  B  B20  1  0.500000  0.791962  0.265080  1
  B  B21  1  0.500000  0.208221  0.735563  1
  B  B22  1  0.500000  0.291098  0.233857  1
  B  B23  1  0.500000  0.708025  0.765105  1
  B  B24  1  0.500000  0.631570  0.184862  1
  B  B25  1  0.500000  0.369323  0.814929  1
  B  B26  1  0.500000  0.130577  0.313792  1
  B  B27  1  0.500000  0.868979  0.685691  1
  B  B28  1  0.500000  0.982317  0.211274  1
  B  B29  1  0.500000  0.017419  0.788491  1
  B  B30  1  0.500000  0.483859  0.287633  1
  B  B31  1  0.500000  0.517864  0.712514  1
  B  B32  1  0.500000  0.601370  0.027942  1
  B  B33  1  0.500000  0.399114  0.971615  1
  B  B34  1  0.500000  0.099233  0.472332  1
  B  B35  1  0.500000  0.898554  0.528405  1
