# generated using pymatgen
data_Ho4TmZnIn3
_symmetry_space_group_name_H-M   'P 1'
_cell_length_a   9.10793200
_cell_length_b   9.10793244
_cell_length_c   6.65646800
_cell_angle_alpha   90.00000000
_cell_angle_beta   90.00000000
_cell_angle_gamma   119.99999839
_symmetry_Int_Tables_number   1
_chemical_formula_structural   Ho4TmZnIn3
_chemical_formula_sum   'Ho8 Tm2 Zn2 In6'
_cell_volume   478.20495018
_cell_formula_units_Z   2
loop_
 _symmetry_equiv_pos_site_id
 _symmetry_equiv_pos_as_xyz
  1  'x, y, z'
loop_
 _atom_site_type_symbol
 _atom_site_label
 _atom_site_symmetry_multiplicity
 _atom_site_fract_x
 _atom_site_fract_y
 _atom_site_fract_z
 _atom_site_occupancy
  Ho  Ho0  1  0.333333  0.666667  0.500000  1
  Ho  Ho1  1  0.666667  0.333333  0.500000  1
  Ho  Ho2  1  0.276095  0.000000  0.750414  1
  Ho  Ho3  1  0.723905  0.000000  0.249586  1
  Ho  Ho4  1  0.000000  0.276095  0.750414  1
  Ho  Ho5  1  0.000000  0.723905  0.249586  1
  Ho  Ho6  1  0.723905  0.723905  0.750414  1
  Ho  Ho7  1  0.276095  0.276095  0.249586  1
  Tm  Tm8  1  0.666667  0.333333  0.000000  1
  Tm  Tm9  1  0.333333  0.666667  0.000000  1
  Zn  Zn10  1  0.000000  0.000000  0.500000  1
  Zn  Zn11  1  0.000000  0.000000  0.000000  1
  In  In12  1  0.621683  0.000000  0.750406  1
  In  In13  1  0.378317  0.000000  0.249594  1
  In  In14  1  0.000000  0.621683  0.750406  1
  In  In15  1  0.000000  0.378317  0.249594  1
  In  In16  1  0.378317  0.378317  0.750406  1
  In  In17  1  0.621683  0.621683  0.249594  1
