# generated using pymatgen
data_Ce4Al(B3Os)2
_symmetry_space_group_name_H-M   'P 1'
_cell_length_a   5.39839771
_cell_length_b   5.39839666
_cell_length_c   8.26226185
_cell_angle_alpha   70.93200238
_cell_angle_beta   70.93199808
_cell_angle_gamma   60.00000027
_symmetry_Int_Tables_number   1
_chemical_formula_structural   Ce4Al(B3Os)2
_chemical_formula_sum   'Ce4 Al1 B6 Os2'
_cell_volume   193.11965835
_cell_formula_units_Z   1
loop_
 _symmetry_equiv_pos_site_id
 _symmetry_equiv_pos_as_xyz
  1  'x, y, z'
loop_
 _atom_site_type_symbol
 _atom_site_label
 _atom_site_symmetry_multiplicity
 _atom_site_fract_x
 _atom_site_fract_y
 _atom_site_fract_z
 _atom_site_occupancy
  Ce  Ce0  1  0.257678  0.257678  0.226968  1
  Ce  Ce1  1  0.742322  0.742322  0.773032  1
  Ce  Ce2  1  0.408638  0.408638  0.774087  1
  Ce  Ce3  1  0.591362  0.591362  0.225914  1
  Al  Al4  1  0.000000  0.000000  0.000000  1
  B  B5  1  0.173412  0.826588  0.500000  1
  B  B6  1  0.826588  0.500000  0.500000  1
  B  B7  1  0.500000  0.173412  0.500000  1
  B  B8  1  0.173412  0.500000  0.500000  1
  B  B9  1  0.500000  0.826588  0.500000  1
  B  B10  1  0.826588  0.173412  0.500000  1
  Os  Os11  1  0.110263  0.110263  0.669214  1
  Os  Os12  1  0.889737  0.889737  0.330786  1
