# generated using pymatgen
data_Nd12IrRu3
_symmetry_space_group_name_H-M   'P 1'
_cell_length_a   6.47876820
_cell_length_b   7.42871546
_cell_length_c   9.78967500
_cell_angle_alpha   90.00000000
_cell_angle_beta   90.00000000
_cell_angle_gamma   90.09380427
_symmetry_Int_Tables_number   1
_chemical_formula_structural   Nd12IrRu3
_chemical_formula_sum   'Nd12 Ir1 Ru3'
_cell_volume   471.16590690
_cell_formula_units_Z   1
loop_
 _symmetry_equiv_pos_site_id
 _symmetry_equiv_pos_as_xyz
  1  'x, y, z'
loop_
 _atom_site_type_symbol
 _atom_site_label
 _atom_site_symmetry_multiplicity
 _atom_site_fract_x
 _atom_site_fract_y
 _atom_site_fract_z
 _atom_site_occupancy
  Nd  Nd0  1  0.328555  0.675266  0.068250  1
  Nd  Nd1  1  0.170572  0.176623  0.431323  1
  Nd  Nd2  1  0.670110  0.322516  0.565996  1
  Nd  Nd3  1  0.831937  0.825027  0.932588  1
  Nd  Nd4  1  0.670110  0.322516  0.934004  1
  Nd  Nd5  1  0.831937  0.825027  0.567412  1
  Nd  Nd6  1  0.328555  0.675266  0.431750  1
  Nd  Nd7  1  0.170572  0.176623  0.068677  1
  Nd  Nd8  1  0.854278  0.539156  0.250000  1
  Nd  Nd9  1  0.644435  0.038132  0.250000  1
  Nd  Nd10  1  0.142523  0.459800  0.750000  1
  Nd  Nd11  1  0.355203  0.963150  0.750000  1
  Ir  Ir12  1  0.556306  0.617267  0.750000  1
  Ru  Ru13  1  0.054937  0.882290  0.250000  1
  Ru  Ru14  1  0.448211  0.383555  0.250000  1
  Ru  Ru15  1  0.941756  0.117786  0.750000  1
