# generated using pymatgen
data_Ca4TaIn2SbO12
_symmetry_space_group_name_H-M   'P 1'
_cell_length_a   5.57595471
_cell_length_b   5.77806925
_cell_length_c   8.01132749
_cell_angle_alpha   90.20083764
_cell_angle_beta   89.88394283
_cell_angle_gamma   90.10303401
_symmetry_Int_Tables_number   1
_chemical_formula_structural   Ca4TaIn2SbO12
_chemical_formula_sum   'Ca4 Ta1 In2 Sb1 O12'
_cell_volume   258.10844207
_cell_formula_units_Z   1
loop_
 _symmetry_equiv_pos_site_id
 _symmetry_equiv_pos_as_xyz
  1  'x, y, z'
loop_
 _atom_site_type_symbol
 _atom_site_label
 _atom_site_symmetry_multiplicity
 _atom_site_fract_x
 _atom_site_fract_y
 _atom_site_fract_z
 _atom_site_occupancy
  Ca  Ca0  1  0.487028  0.554533  0.247215  1
  Ca  Ca1  1  0.017085  0.055365  0.251035  1
  Ca  Ca2  1  0.982914  0.944635  0.748966  1
  Ca  Ca3  1  0.512973  0.445467  0.752785  1
  Ta  Ta4  1  0.000000  0.499999  0.000000  1
  In  In5  1  0.499999  0.000000  0.000000  1
  In  In6  1  0.000000  0.499999  0.500000  1
  Sb  Sb7  1  0.500000  0.000000  0.500000  1
  O  O8  1  0.291421  0.310848  0.049555  1
  O  O9  1  0.185499  0.787323  0.058171  1
  O  O10  1  0.896532  0.459314  0.238593  1
  O  O11  1  0.612559  0.954850  0.262445  1
  O  O12  1  0.316663  0.287909  0.436510  1
  O  O13  1  0.207772  0.810764  0.443685  1
  O  O14  1  0.792227  0.189236  0.556316  1
  O  O15  1  0.683337  0.712091  0.563490  1
  O  O16  1  0.387441  0.045150  0.737554  1
  O  O17  1  0.103468  0.540686  0.761407  1
  O  O18  1  0.814501  0.212677  0.941828  1
  O  O19  1  0.708578  0.689153  0.950445  1
