# generated using pymatgen
data_KPa9O20
_symmetry_space_group_name_H-M   'P 1'
_cell_length_a   6.71432936
_cell_length_b   7.75227945
_cell_length_c   8.66655417
_cell_angle_alpha   102.92857789
_cell_angle_beta   97.39469514
_cell_angle_gamma   106.76199098
_symmetry_Int_Tables_number   1
_chemical_formula_structural   KPa9O20
_chemical_formula_sum   'K1 Pa9 O20'
_cell_volume   411.86626879
_cell_formula_units_Z   1
loop_
 _symmetry_equiv_pos_site_id
 _symmetry_equiv_pos_as_xyz
  1  'x, y, z'
loop_
 _atom_site_type_symbol
 _atom_site_label
 _atom_site_symmetry_multiplicity
 _atom_site_fract_x
 _atom_site_fract_y
 _atom_site_fract_z
 _atom_site_occupancy
  K  K0  1  0.000000  0.500000  0.000000  1
  Pa  Pa1  1  0.799283  0.599182  0.602385  1
  Pa  Pa2  1  0.605319  0.202157  0.199177  1
  Pa  Pa3  1  0.394681  0.797843  0.800823  1
  Pa  Pa4  1  0.800202  0.102104  0.602884  1
  Pa  Pa5  1  0.200717  0.400818  0.397615  1
  Pa  Pa6  1  0.599923  0.698246  0.197940  1
  Pa  Pa7  1  0.000000  0.000000  0.000000  1
  Pa  Pa8  1  0.400077  0.301754  0.802060  1
  Pa  Pa9  1  0.199798  0.897896  0.397116  1
  O  O10  1  0.645486  0.926605  0.047937  1
  O  O11  1  0.444006  0.525521  0.645090  1
  O  O12  1  0.724770  0.363229  0.728351  1
  O  O13  1  0.261880  0.127847  0.250959  1
  O  O14  1  0.620752  0.416527  0.057022  1
  O  O15  1  0.556507  0.980017  0.351293  1
  O  O16  1  0.443493  0.019983  0.648707  1
  O  O17  1  0.050287  0.745892  0.836736  1
  O  O18  1  0.738120  0.872153  0.749041  1
  O  O19  1  0.379248  0.583473  0.942978  1
  O  O20  1  0.854114  0.327236  0.451639  1
  O  O21  1  0.275230  0.636771  0.271649  1
  O  O22  1  0.555994  0.474479  0.354910  1
  O  O23  1  0.150661  0.174572  0.544728  1
  O  O24  1  0.054323  0.197798  0.835358  1
  O  O25  1  0.354514  0.073395  0.952063  1
  O  O26  1  0.849339  0.825428  0.455272  1
  O  O27  1  0.945677  0.802202  0.164642  1
  O  O28  1  0.145886  0.672764  0.548361  1
  O  O29  1  0.949713  0.254108  0.163264  1
