# generated using pymatgen
data_Y3Er9Co4IrPb
_symmetry_space_group_name_H-M   'P 1'
_cell_length_a   8.28375337
_cell_length_b   8.28375183
_cell_length_c   8.27400787
_cell_angle_alpha   110.67692611
_cell_angle_beta   110.98220243
_cell_angle_gamma   106.83762386
_symmetry_Int_Tables_number   1
_chemical_formula_structural   Y3Er9Co4IrPb
_chemical_formula_sum   'Y3 Er9 Co4 Ir1 Pb1'
_cell_volume   436.09217847
_cell_formula_units_Z   1
loop_
 _symmetry_equiv_pos_site_id
 _symmetry_equiv_pos_as_xyz
  1  'x, y, z'
loop_
 _atom_site_type_symbol
 _atom_site_label
 _atom_site_symmetry_multiplicity
 _atom_site_fract_x
 _atom_site_fract_y
 _atom_site_fract_z
 _atom_site_occupancy
  Y  Y0  1  0.286252  0.184953  0.471205  1
  Y  Y1  1  0.714427  0.815341  0.529768  1
  Y  Y2  1  0.286378  0.814961  0.101338  1
  Er  Er3  1  0.713895  0.183529  0.897424  1
  Er  Er4  1  0.622235  0.313153  0.307948  1
  Er  Er5  1  0.378648  0.687481  0.691869  1
  Er  Er6  1  0.004390  0.313220  0.691869  1
  Er  Er7  1  0.994793  0.685715  0.307948  1
  Er  Er8  1  0.212653  0.408799  0.194801  1
  Er  Er9  1  0.786276  0.589478  0.804173  1
  Er  Er10  1  0.214694  0.017897  0.804173  1
  Er  Er11  1  0.786002  0.982148  0.194801  1
  Co  Co12  1  0.999580  0.378082  0.377661  1
  Co  Co13  1  0.999971  0.621826  0.621798  1
  Co  Co14  1  0.389428  0.890040  0.502592  1
  Co  Co15  1  0.612551  0.113164  0.502592  1
  Ir  Ir16  1  0.998103  0.999712  0.997815  1
  Pb  Pb17  1  0.499722  0.500502  0.000225  1
