# generated using pymatgen
data_TbLu15(ZnIn3)2
_symmetry_space_group_name_H-M   'P 1'
_cell_length_a   10.42450500
_cell_length_b   10.42450462
_cell_length_c   6.67820900
_cell_angle_alpha   90.00000000
_cell_angle_beta   90.00000000
_cell_angle_gamma   119.99999804
_symmetry_Int_Tables_number   1
_chemical_formula_structural   TbLu15(ZnIn3)2
_chemical_formula_sum   'Tb1 Lu15 Zn2 In6'
_cell_volume   628.49454831
_cell_formula_units_Z   1
loop_
 _symmetry_equiv_pos_site_id
 _symmetry_equiv_pos_as_xyz
  1  'x, y, z'
loop_
 _atom_site_type_symbol
 _atom_site_label
 _atom_site_symmetry_multiplicity
 _atom_site_fract_x
 _atom_site_fract_y
 _atom_site_fract_z
 _atom_site_occupancy
  Tb  Tb0  1  0.000000  0.000000  0.271923  1
  Lu  Lu1  1  0.826373  0.652747  0.508977  1
  Lu  Lu2  1  0.347253  0.173627  0.508977  1
  Lu  Lu3  1  0.826373  0.173627  0.508977  1
  Lu  Lu4  1  0.173926  0.347849  0.007081  1
  Lu  Lu5  1  0.652151  0.826074  0.007081  1
  Lu  Lu6  1  0.173926  0.826074  0.007081  1
  Lu  Lu7  1  0.666667  0.333333  0.141047  1
  Lu  Lu8  1  0.333333  0.666667  0.642342  1
  Lu  Lu9  1  0.519407  0.038812  0.790923  1
  Lu  Lu10  1  0.961188  0.480593  0.790923  1
  Lu  Lu11  1  0.519407  0.480593  0.790923  1
  Lu  Lu12  1  0.480676  0.961354  0.290994  1
  Lu  Lu13  1  0.038646  0.519324  0.290994  1
  Lu  Lu14  1  0.480676  0.519324  0.290994  1
  Lu  Lu15  1  0.000000  0.000000  0.771142  1
  Zn  Zn16  1  0.666667  0.333333  0.577670  1
  Zn  Zn17  1  0.333333  0.666667  0.080427  1
  In  In18  1  0.834304  0.668611  0.023675  1
  In  In19  1  0.331389  0.165696  0.023675  1
  In  In20  1  0.834304  0.165696  0.023675  1
  In  In21  1  0.165715  0.331429  0.525524  1
  In  In22  1  0.668571  0.834285  0.525524  1
  In  In23  1  0.165715  0.834285  0.525524  1
