# generated using pymatgen
data_Dy6Lu4Si5Sn
_symmetry_space_group_name_H-M   'P 1'
_cell_length_a   8.45435700
_cell_length_b   8.47403755
_cell_length_c   6.28636400
_cell_angle_alpha   90.00000000
_cell_angle_beta   90.00000000
_cell_angle_gamma   119.92320748
_symmetry_Int_Tables_number   1
_chemical_formula_structural   Dy6Lu4Si5Sn
_chemical_formula_sum   'Dy6 Lu4 Si5 Sn1'
_cell_volume   390.33425480
_cell_formula_units_Z   1
loop_
 _symmetry_equiv_pos_site_id
 _symmetry_equiv_pos_as_xyz
  1  'x, y, z'
loop_
 _atom_site_type_symbol
 _atom_site_label
 _atom_site_symmetry_multiplicity
 _atom_site_fract_x
 _atom_site_fract_y
 _atom_site_fract_z
 _atom_site_occupancy
  Dy  Dy0  1  0.989524  0.748211  0.750000  1
  Dy  Dy1  1  0.998734  0.243393  0.250000  1
  Dy  Dy2  1  0.755341  0.756607  0.250000  1
  Dy  Dy3  1  0.764653  0.000000  0.750000  1
  Dy  Dy4  1  0.241313  0.251789  0.750000  1
  Dy  Dy5  1  0.241824  0.000000  0.250000  1
  Lu  Lu6  1  0.673512  0.342005  0.002923  1
  Lu  Lu7  1  0.331506  0.657995  0.497077  1
  Lu  Lu8  1  0.331506  0.657995  0.002923  1
  Lu  Lu9  1  0.673512  0.342005  0.497077  1
  Si  Si10  1  0.394617  0.393329  0.250000  1
  Si  Si11  1  0.001288  0.606671  0.250000  1
  Si  Si12  1  0.998569  0.395270  0.750000  1
  Si  Si13  1  0.603299  0.604730  0.750000  1
  Si  Si14  1  0.604765  0.000000  0.250000  1
  Sn  Sn15  1  0.396035  0.000000  0.750000  1
