# generated using pymatgen
data_Dy3YReRu7
_symmetry_space_group_name_H-M   'P 1'
_cell_length_a   5.24589646
_cell_length_b   5.43090492
_cell_length_c   8.94095561
_cell_angle_alpha   90.00000196
_cell_angle_beta   89.96420406
_cell_angle_gamma   121.17364167
_symmetry_Int_Tables_number   1
_chemical_formula_structural   Dy3YReRu7
_chemical_formula_sum   'Dy3 Y1 Re1 Ru7'
_cell_volume   217.94543309
_cell_formula_units_Z   1
loop_
 _symmetry_equiv_pos_site_id
 _symmetry_equiv_pos_as_xyz
  1  'x, y, z'
loop_
 _atom_site_type_symbol
 _atom_site_label
 _atom_site_symmetry_multiplicity
 _atom_site_fract_x
 _atom_site_fract_y
 _atom_site_fract_z
 _atom_site_occupancy
  Dy  Dy0  1  0.653192  0.326596  0.565717  1
  Dy  Dy1  1  0.653197  0.326598  0.934580  1
  Dy  Dy2  1  0.325976  0.662989  0.067457  1
  Y  Y3  1  0.326036  0.663019  0.432325  1
  Re  Re4  1  0.691846  0.845923  0.750000  1
  Ru  Ru5  1  0.972871  0.986436  0.500591  1
  Ru  Ru6  1  0.971836  0.985919  0.999639  1
  Ru  Ru7  1  0.837559  0.166011  0.249735  1
  Ru  Ru8  1  0.837559  0.671548  0.249735  1
  Ru  Ru9  1  0.362778  0.181390  0.249817  1
  Ru  Ru10  1  0.183575  0.824143  0.750202  1
  Ru  Ru11  1  0.183575  0.359431  0.750202  1
