# generated using pymatgen
data_LiCa2LaCd2Pb3
_symmetry_space_group_name_H-M   'P 1'
_cell_length_a   7.75436437
_cell_length_b   7.73584136
_cell_length_c   4.82861000
_cell_angle_alpha   90.00000000
_cell_angle_beta   90.00000000
_cell_angle_gamma   119.09619160
_symmetry_Int_Tables_number   1
_chemical_formula_structural   LiCa2LaCd2Pb3
_chemical_formula_sum   'Li1 Ca2 La1 Cd2 Pb3'
_cell_volume   253.09886024
_cell_formula_units_Z   1
loop_
 _symmetry_equiv_pos_site_id
 _symmetry_equiv_pos_as_xyz
  1  'x, y, z'
loop_
 _atom_site_type_symbol
 _atom_site_label
 _atom_site_symmetry_multiplicity
 _atom_site_fract_x
 _atom_site_fract_y
 _atom_site_fract_z
 _atom_site_occupancy
  Li  Li0  1  0.233938  0.999615  0.000000  1
  Ca  Ca1  1  0.573920  0.998787  0.500000  1
  Ca  Ca2  1  0.434066  0.439691  0.500000  1
  La  La3  1  0.994117  0.560301  0.500000  1
  Cd  Cd4  1  0.757782  0.755672  0.000000  1
  Cd  Cd5  1  0.001335  0.241891  0.000000  1
  Pb  Pb6  1  0.023477  0.003607  0.500000  1
  Pb  Pb7  1  0.648749  0.319386  0.000000  1
  Pb  Pb8  1  0.332618  0.681051  0.000000  1
