# generated using pymatgen
data_Ho4AlCo9B4
_symmetry_space_group_name_H-M   'P 1'
_cell_length_a   5.12899600
_cell_length_b   5.12899615
_cell_length_c   19.68352600
_cell_angle_alpha   90.00000000
_cell_angle_beta   90.00000000
_cell_angle_gamma   119.99999906
_symmetry_Int_Tables_number   1
_chemical_formula_structural   Ho4AlCo9B4
_chemical_formula_sum   'Ho8 Al2 Co18 B8'
_cell_volume   448.43372531
_cell_formula_units_Z   2
loop_
 _symmetry_equiv_pos_site_id
 _symmetry_equiv_pos_as_xyz
  1  'x, y, z'
loop_
 _atom_site_type_symbol
 _atom_site_label
 _atom_site_symmetry_multiplicity
 _atom_site_fract_x
 _atom_site_fract_y
 _atom_site_fract_z
 _atom_site_occupancy
  Ho  Ho0  1  0.666667  0.333333  0.825128  1
  Ho  Ho1  1  0.666667  0.333333  0.976545  1
  Ho  Ho2  1  0.333333  0.666667  0.476545  1
  Ho  Ho3  1  0.333333  0.666667  0.023455  1
  Ho  Ho4  1  0.333333  0.666667  0.174872  1
  Ho  Ho5  1  0.666667  0.333333  0.523455  1
  Ho  Ho6  1  0.666667  0.333333  0.674872  1
  Ho  Ho7  1  0.333333  0.666667  0.325128  1
  Al  Al8  1  0.000000  0.000000  0.000000  1
  Al  Al9  1  0.000000  0.000000  0.500000  1
  Co  Co10  1  0.166087  0.332172  0.894572  1
  Co  Co11  1  0.166087  0.833913  0.605428  1
  Co  Co12  1  0.833913  0.166087  0.394572  1
  Co  Co13  1  0.333657  0.166828  0.250000  1
  Co  Co14  1  0.332172  0.166087  0.394572  1
  Co  Co15  1  0.833913  0.667828  0.105428  1
  Co  Co16  1  0.833913  0.667828  0.394572  1
  Co  Co17  1  0.833172  0.666343  0.250000  1
  Co  Co18  1  0.667828  0.833913  0.605428  1
  Co  Co19  1  0.666343  0.833172  0.750000  1
  Co  Co20  1  0.833913  0.166087  0.105428  1
  Co  Co21  1  0.667828  0.833913  0.894572  1
  Co  Co22  1  0.166828  0.333657  0.750000  1
  Co  Co23  1  0.166828  0.833172  0.750000  1
  Co  Co24  1  0.833172  0.166828  0.250000  1
  Co  Co25  1  0.332172  0.166087  0.105428  1
  Co  Co26  1  0.166087  0.833913  0.894572  1
  Co  Co27  1  0.166087  0.332172  0.605428  1
  B  B28  1  0.333333  0.666667  0.824848  1
  B  B29  1  0.333333  0.666667  0.675152  1
  B  B30  1  0.666667  0.333333  0.324848  1
  B  B31  1  0.000000  0.000000  0.824495  1
  B  B32  1  0.666667  0.333333  0.175152  1
  B  B33  1  0.000000  0.000000  0.675505  1
  B  B34  1  0.000000  0.000000  0.324495  1
  B  B35  1  0.000000  0.000000  0.175505  1
