# generated using pymatgen
data_Ca10TlSi4Hg
_symmetry_space_group_name_H-M   'P 1'
_cell_length_a   9.43453865
_cell_length_b   9.43453850
_cell_length_c   9.43453800
_cell_angle_alpha   131.55472894
_cell_angle_beta   131.55472003
_cell_angle_gamma   70.93320420
_symmetry_Int_Tables_number   1
_chemical_formula_structural   Ca10TlSi4Hg
_chemical_formula_sum   'Ca10 Tl1 Si4 Hg1'
_cell_volume   460.52828480
_cell_formula_units_Z   1
loop_
 _symmetry_equiv_pos_site_id
 _symmetry_equiv_pos_as_xyz
  1  'x, y, z'
loop_
 _atom_site_type_symbol
 _atom_site_label
 _atom_site_symmetry_multiplicity
 _atom_site_fract_x
 _atom_site_fract_y
 _atom_site_fract_z
 _atom_site_occupancy
  Ca  Ca0  1  0.535812  0.038956  0.848666  1
  Ca  Ca1  1  0.190288  0.687144  0.151334  1
  Ca  Ca2  1  0.038956  0.190288  0.503144  1
  Ca  Ca3  1  0.687144  0.535812  0.496856  1
  Ca  Ca4  1  0.461044  0.964188  0.151334  1
  Ca  Ca5  1  0.812856  0.309712  0.848666  1
  Ca  Ca6  1  0.964188  0.812856  0.503144  1
  Ca  Ca7  1  0.309712  0.461044  0.496856  1
  Ca  Ca8  1  0.502520  0.502520  0.000000  1
  Ca  Ca9  1  0.997480  0.997480  0.000000  1
  Tl  Tl10  1  0.750000  0.750000  0.000000  1
  Si  Si11  1  0.612315  0.887685  0.500000  1
  Si  Si12  1  0.387685  0.112315  0.500000  1
  Si  Si13  1  0.112315  0.612315  0.724632  1
  Si  Si14  1  0.887685  0.387685  0.275368  1
  Hg  Hg15  1  0.250000  0.250000  0.000000  1
