# generated using pymatgen
data_CeEr2In3Ir2Au
_symmetry_space_group_name_H-M   'P 1'
_cell_length_a   7.72785739
_cell_length_b   7.72227962
_cell_length_c   3.86219800
_cell_angle_alpha   90.00000000
_cell_angle_beta   90.00000000
_cell_angle_gamma   119.81058697
_symmetry_Int_Tables_number   1
_chemical_formula_structural   CeEr2In3Ir2Au
_chemical_formula_sum   'Ce1 Er2 In3 Ir2 Au1'
_cell_volume   199.98413536
_cell_formula_units_Z   1
loop_
 _symmetry_equiv_pos_site_id
 _symmetry_equiv_pos_as_xyz
  1  'x, y, z'
loop_
 _atom_site_type_symbol
 _atom_site_label
 _atom_site_symmetry_multiplicity
 _atom_site_fract_x
 _atom_site_fract_y
 _atom_site_fract_z
 _atom_site_occupancy
  Ce  Ce0  1  0.608520  0.023594  0.500000  1
  Er  Er1  1  0.411945  0.389837  0.500000  1
  Er  Er2  1  0.979811  0.590585  0.500000  1
  In  In3  1  0.006151  0.262573  0.000000  1
  In  In4  1  0.742127  0.739178  0.000000  1
  In  In5  1  0.254795  0.999768  0.000000  1
  Ir  Ir6  1  0.665799  0.329323  0.000000  1
  Ir  Ir7  1  0.998612  0.999940  0.500000  1
  Au  Au8  1  0.332240  0.665201  0.000000  1
