# generated using pymatgen
data_PaSb(PO5)2
_symmetry_space_group_name_H-M   'P 1'
_cell_length_a   5.75248269
_cell_length_b   5.26434478
_cell_length_c   7.69651100
_cell_angle_alpha   107.02015170
_cell_angle_beta   110.75376984
_cell_angle_gamma   94.36391272
_symmetry_Int_Tables_number   1
_chemical_formula_structural   PaSb(PO5)2
_chemical_formula_sum   'Pa1 Sb1 P2 O10'
_cell_volume   204.14685389
_cell_formula_units_Z   1
loop_
 _symmetry_equiv_pos_site_id
 _symmetry_equiv_pos_as_xyz
  1  'x, y, z'
loop_
 _atom_site_type_symbol
 _atom_site_label
 _atom_site_symmetry_multiplicity
 _atom_site_fract_x
 _atom_site_fract_y
 _atom_site_fract_z
 _atom_site_occupancy
  Pa  Pa0  1  0.000000  0.500000  0.000000  1
  Sb  Sb1  1  0.000000  0.500000  0.500000  1
  P  P2  1  0.331521  0.120004  0.737363  1
  P  P3  1  0.668479  0.879996  0.262637  1
  O  O4  1  0.183362  0.177297  0.872315  1
  O  O5  1  0.303457  0.809694  0.638104  1
  O  O6  1  0.937711  0.574024  0.741102  1
  O  O7  1  0.235413  0.246511  0.571470  1
  O  O8  1  0.764587  0.753489  0.428530  1
  O  O9  1  0.615948  0.234594  0.858862  1
  O  O10  1  0.384052  0.765406  0.141138  1
  O  O11  1  0.062289  0.425976  0.258898  1
  O  O12  1  0.696543  0.190306  0.361896  1
  O  O13  1  0.816638  0.822703  0.127685  1
