# generated using pymatgen
data_Na2Co9Tc3P7
_symmetry_space_group_name_H-M   'P 1'
_cell_length_a   3.66590000
_cell_length_b   8.99423029
_cell_length_c   8.99423200
_cell_angle_alpha   119.99999894
_cell_angle_beta   90.00000000
_cell_angle_gamma   90.00000000
_symmetry_Int_Tables_number   1
_chemical_formula_structural   Na2Co9Tc3P7
_chemical_formula_sum   'Na2 Co9 Tc3 P7'
_cell_volume   256.82620768
_cell_formula_units_Z   1
loop_
 _symmetry_equiv_pos_site_id
 _symmetry_equiv_pos_as_xyz
  1  'x, y, z'
loop_
 _atom_site_type_symbol
 _atom_site_label
 _atom_site_symmetry_multiplicity
 _atom_site_fract_x
 _atom_site_fract_y
 _atom_site_fract_z
 _atom_site_occupancy
  Na  Na0  1  0.000000  0.666667  0.333333  1
  Na  Na1  1  0.500000  0.333333  0.666667  1
  Co  Co2  1  0.000000  0.569236  0.942868  1
  Co  Co3  1  0.000000  0.373631  0.430764  1
  Co  Co4  1  0.000000  0.057132  0.626369  1
  Co  Co5  1  0.000000  0.881882  0.161293  1
  Co  Co6  1  0.000000  0.279410  0.118118  1
  Co  Co7  1  0.000000  0.838707  0.720590  1
  Co  Co8  1  0.500000  0.952569  0.388696  1
  Co  Co9  1  0.500000  0.436126  0.047431  1
  Co  Co10  1  0.500000  0.611304  0.563874  1
  Tc  Tc11  1  0.500000  0.783557  0.907058  1
  Tc  Tc12  1  0.500000  0.123501  0.216443  1
  Tc  Tc13  1  0.500000  0.092942  0.876499  1
  P  P14  1  0.000000  0.000000  0.000000  1
  P  P15  1  0.500000  0.710256  0.122907  1
  P  P16  1  0.500000  0.412652  0.289744  1
  P  P17  1  0.500000  0.877093  0.587348  1
  P  P18  1  0.000000  0.584025  0.701156  1
  P  P19  1  0.000000  0.117131  0.415975  1
  P  P20  1  0.000000  0.298844  0.882869  1
