# generated using pymatgen
data_Pr2Co2GeP3Ir2
_symmetry_space_group_name_H-M   'P 1'
_cell_length_a   4.12068100
_cell_length_b   4.12068100
_cell_length_c   9.55422200
_cell_angle_alpha   90.00000000
_cell_angle_beta   90.00000000
_cell_angle_gamma   90.00000000
_symmetry_Int_Tables_number   1
_chemical_formula_structural   Pr2Co2GeP3Ir2
_chemical_formula_sum   'Pr2 Co2 Ge1 P3 Ir2'
_cell_volume   162.23080329
_cell_formula_units_Z   1
loop_
 _symmetry_equiv_pos_site_id
 _symmetry_equiv_pos_as_xyz
  1  'x, y, z'
loop_
 _atom_site_type_symbol
 _atom_site_label
 _atom_site_symmetry_multiplicity
 _atom_site_fract_x
 _atom_site_fract_y
 _atom_site_fract_z
 _atom_site_occupancy
  Pr  Pr0  1  0.000000  0.500000  0.269212  1
  Pr  Pr1  1  0.500000  0.000000  0.732806  1
  Co  Co2  1  0.000000  0.500000  0.607579  1
  Co  Co3  1  0.500000  0.000000  0.403862  1
  Ge  Ge4  1  0.500000  0.000000  0.147235  1
  P  P5  1  0.000000  0.500000  0.854696  1
  P  P6  1  0.000000  0.000000  0.503071  1
  P  P7  1  0.500000  0.500000  0.503071  1
  Ir  Ir8  1  0.000000  0.000000  0.989233  1
  Ir  Ir9  1  0.500000  0.500000  0.989233  1
