# generated using pymatgen
data_Dy3Ho3(LuIn2)4
_symmetry_space_group_name_H-M   'P 1'
_cell_length_a   9.23733233
_cell_length_b   9.22872155
_cell_length_c   6.58177900
_cell_angle_alpha   90.00000000
_cell_angle_beta   90.00000000
_cell_angle_gamma   120.09233632
_symmetry_Int_Tables_number   1
_chemical_formula_structural   Dy3Ho3(LuIn2)4
_chemical_formula_sum   'Dy3 Ho3 Lu4 In8'
_cell_volume   485.46419016
_cell_formula_units_Z   1
loop_
 _symmetry_equiv_pos_site_id
 _symmetry_equiv_pos_as_xyz
  1  'x, y, z'
loop_
 _atom_site_type_symbol
 _atom_site_label
 _atom_site_symmetry_multiplicity
 _atom_site_fract_x
 _atom_site_fract_y
 _atom_site_fract_z
 _atom_site_occupancy
  Dy  Dy0  1  0.000638  0.709800  0.250000  1
  Dy  Dy1  1  0.708322  0.708708  0.750000  1
  Dy  Dy2  1  0.291666  0.291091  0.250000  1
  Ho  Ho3  1  0.290293  0.999470  0.750000  1
  Ho  Ho4  1  0.709569  0.999933  0.250000  1
  Ho  Ho5  1  0.999158  0.291143  0.750000  1
  Lu  Lu6  1  0.333208  0.667319  0.499869  1
  Lu  Lu7  1  0.666721  0.332352  0.499836  1
  Lu  Lu8  1  0.666721  0.332352  0.000164  1
  Lu  Lu9  1  0.333208  0.667319  0.000131  1
  In  In10  1  0.999770  0.000425  0.500193  1
  In  In11  1  0.999770  0.000425  0.999807  1
  In  In12  1  0.629029  0.000743  0.750000  1
  In  In13  1  0.372421  0.000135  0.250000  1
  In  In14  1  0.000409  0.629053  0.750000  1
  In  In15  1  0.000066  0.370405  0.250000  1
  In  In16  1  0.369192  0.369484  0.750000  1
  In  In17  1  0.629839  0.629844  0.250000  1
