# generated using pymatgen
data_Dy2Ho10GaCo4Sn
_symmetry_space_group_name_H-M   'P 1'
_cell_length_a   8.28641594
_cell_length_b   8.29545570
_cell_length_c   8.29569609
_cell_angle_alpha   112.17300545
_cell_angle_beta   109.20915522
_cell_angle_gamma   107.11441351
_symmetry_Int_Tables_number   1
_chemical_formula_structural   Dy2Ho10GaCo4Sn
_chemical_formula_sum   'Dy2 Ho10 Ga1 Co4 Sn1'
_cell_volume   437.87400971
_cell_formula_units_Z   1
loop_
 _symmetry_equiv_pos_site_id
 _symmetry_equiv_pos_as_xyz
  1  'x, y, z'
loop_
 _atom_site_type_symbol
 _atom_site_label
 _atom_site_symmetry_multiplicity
 _atom_site_fract_x
 _atom_site_fract_y
 _atom_site_fract_z
 _atom_site_occupancy
  Dy  Dy0  1  0.967155  0.266402  0.700747  1
  Dy  Dy1  1  0.032845  0.733598  0.299253  1
  Ho  Ho2  1  0.674249  0.860050  0.185069  1
  Ho  Ho3  1  0.325750  0.510816  0.185797  1
  Ho  Ho4  1  0.325751  0.139950  0.814931  1
  Ho  Ho5  1  0.674250  0.489184  0.814203  1
  Ho  Ho6  1  0.565431  0.266272  0.299156  1
  Ho  Ho7  1  0.434569  0.733728  0.700844  1
  Ho  Ho8  1  0.179998  0.781098  0.960633  1
  Ho  Ho9  1  0.819989  0.780619  0.601101  1
  Ho  Ho10  1  0.180011  0.219381  0.398899  1
  Ho  Ho11  1  0.820002  0.218902  0.039367  1
  Ga  Ga12  1  0.000000  0.500000  0.500000  1
  Co  Co13  1  0.114624  0.114289  0.000328  1
  Co  Co14  1  0.885376  0.885711  0.999672  1
  Co  Co15  1  0.661751  0.499807  0.161944  1
  Co  Co16  1  0.338249  0.500193  0.838056  1
  Sn  Sn17  1  0.500000  0.000000  0.500000  1
