# generated using pymatgen
data_Nd8Dy2Sn5Bi3
_symmetry_space_group_name_H-M   'P 1'
_cell_length_a   8.32691100
_cell_length_b   8.39755715
_cell_length_c   16.07455500
_cell_angle_alpha   90.00000000
_cell_angle_beta   90.00000000
_cell_angle_gamma   90.06347355
_symmetry_Int_Tables_number   1
_chemical_formula_structural   Nd8Dy2Sn5Bi3
_chemical_formula_sum   'Nd16 Dy4 Sn10 Bi6'
_cell_volume   1124.02399814
_cell_formula_units_Z   2
loop_
 _symmetry_equiv_pos_site_id
 _symmetry_equiv_pos_as_xyz
  1  'x, y, z'
loop_
 _atom_site_type_symbol
 _atom_site_label
 _atom_site_symmetry_multiplicity
 _atom_site_fract_x
 _atom_site_fract_y
 _atom_site_fract_z
 _atom_site_occupancy
  Nd  Nd0  1  0.043347  0.172391  0.395033  1
  Nd  Nd1  1  0.380723  0.840148  0.121557  1
  Nd  Nd2  1  0.125043  0.335624  0.622261  1
  Nd  Nd3  1  0.463624  0.678288  0.894189  1
  Nd  Nd4  1  0.874957  0.664376  0.122261  1
  Nd  Nd5  1  0.122781  0.339921  0.877541  1
  Nd  Nd6  1  0.460084  0.679337  0.606691  1
  Nd  Nd7  1  0.619277  0.159852  0.621557  1
  Nd  Nd8  1  0.877219  0.660079  0.377541  1
  Nd  Nd9  1  0.033364  0.172225  0.105004  1
  Nd  Nd10  1  0.956653  0.827609  0.895033  1
  Nd  Nd11  1  0.624153  0.158437  0.879550  1
  Nd  Nd12  1  0.539916  0.320663  0.106691  1
  Nd  Nd13  1  0.375847  0.841563  0.379550  1
  Nd  Nd14  1  0.966636  0.827775  0.605004  1
  Nd  Nd15  1  0.536376  0.321712  0.394189  1
  Dy  Dy16  1  0.207158  0.497233  0.249620  1
  Dy  Dy17  1  0.707110  0.001116  0.246555  1
  Dy  Dy18  1  0.292890  0.998884  0.746555  1
  Dy  Dy19  1  0.792842  0.502767  0.749620  1
  Sn  Sn20  1  0.659615  0.855676  0.749839  1
  Sn  Sn21  1  0.841643  0.354162  0.250884  1
  Sn  Sn22  1  0.571836  0.622467  0.251252  1
  Sn  Sn23  1  0.428164  0.377533  0.751252  1
  Sn  Sn24  1  0.158357  0.645838  0.750884  1
  Sn  Sn25  1  0.926577  0.123449  0.750390  1
  Sn  Sn26  1  0.279068  0.026721  0.546501  1
  Sn  Sn27  1  0.720932  0.973279  0.046501  1
  Sn  Sn28  1  0.340385  0.144324  0.249839  1
  Sn  Sn29  1  0.073423  0.876551  0.250390  1
  Bi  Bi30  1  0.777709  0.475674  0.546765  1
  Bi  Bi31  1  0.722250  0.974555  0.452870  1
  Bi  Bi32  1  0.221369  0.525580  0.453497  1
  Bi  Bi33  1  0.277750  0.025445  0.952870  1
  Bi  Bi34  1  0.778631  0.474420  0.953497  1
  Bi  Bi35  1  0.222291  0.524326  0.046765  1
