# generated using pymatgen
data_La7Mg2ScSi8O3
_symmetry_space_group_name_H-M   'P 1'
_cell_length_a   10.63927400
_cell_length_b   10.56155495
_cell_length_c   4.44600000
_cell_angle_alpha   90.00000000
_cell_angle_beta   90.00000000
_cell_angle_gamma   120.24372302
_symmetry_Int_Tables_number   1
_chemical_formula_structural   La7Mg2ScSi8O3
_chemical_formula_sum   'La7 Mg2 Sc1 Si8 O3'
_cell_volume   431.58675591
_cell_formula_units_Z   1
loop_
 _symmetry_equiv_pos_site_id
 _symmetry_equiv_pos_as_xyz
  1  'x, y, z'
loop_
 _atom_site_type_symbol
 _atom_site_label
 _atom_site_symmetry_multiplicity
 _atom_site_fract_x
 _atom_site_fract_y
 _atom_site_fract_z
 _atom_site_occupancy
  La  La0  1  0.208245  0.779371  0.000000  1
  La  La1  1  0.571127  0.779371  0.000000  1
  La  La2  1  0.784550  0.569102  0.000000  1
  La  La3  1  0.000000  0.000000  0.000000  1
  La  La4  1  0.215450  0.430898  0.000000  1
  La  La5  1  0.428873  0.220629  0.000000  1
  La  La6  1  0.791755  0.220629  0.000000  1
  Mg  Mg7  1  0.000000  0.500000  0.500000  1
  Mg  Mg8  1  0.500000  0.500000  0.500000  1
  Sc  Sc9  1  0.500000  0.000000  0.500000  1
  Si  Si10  1  0.999898  0.777447  0.500000  1
  Si  Si11  1  0.000102  0.222553  0.500000  1
  Si  Si12  1  0.222452  0.222553  0.500000  1
  Si  Si13  1  0.772693  0.000000  0.500000  1
  Si  Si14  1  0.335390  0.670781  0.500000  1
  Si  Si15  1  0.227307  0.000000  0.500000  1
  Si  Si16  1  0.664610  0.329219  0.500000  1
  Si  Si17  1  0.777548  0.777447  0.500000  1
  O  O18  1  0.000000  0.500000  0.000000  1
  O  O19  1  0.500000  0.500000  0.000000  1
  O  O20  1  0.500000  0.000000  0.000000  1
