# generated using pymatgen
data_Ta6Al4VCuC2
_symmetry_space_group_name_H-M   'P 1'
_cell_length_a   8.30694609
_cell_length_b   8.30694725
_cell_length_c   8.34236000
_cell_angle_alpha   59.85887969
_cell_angle_beta   59.85887504
_cell_angle_gamma   59.73880237
_symmetry_Int_Tables_number   1
_chemical_formula_structural   Ta6Al4VCuC2
_chemical_formula_sum   'Ta12 Al8 V2 Cu2 C4'
_cell_volume   405.38354463
_cell_formula_units_Z   2
loop_
 _symmetry_equiv_pos_site_id
 _symmetry_equiv_pos_as_xyz
  1  'x, y, z'
loop_
 _atom_site_type_symbol
 _atom_site_label
 _atom_site_symmetry_multiplicity
 _atom_site_fract_x
 _atom_site_fract_y
 _atom_site_fract_z
 _atom_site_occupancy
  Ta  Ta0  1  0.552977  0.940151  0.567868  1
  Ta  Ta1  1  0.309849  0.697023  0.682132  1
  Ta  Ta2  1  0.697023  0.309849  0.310995  1
  Ta  Ta3  1  0.309849  0.697023  0.310995  1
  Ta  Ta4  1  0.682709  0.682709  0.317291  1
  Ta  Ta5  1  0.306421  0.306421  0.693579  1
  Ta  Ta6  1  0.567291  0.567291  0.932709  1
  Ta  Ta7  1  0.940151  0.552977  0.567868  1
  Ta  Ta8  1  0.552977  0.940151  0.939005  1
  Ta  Ta9  1  0.943579  0.943579  0.556421  1
  Ta  Ta10  1  0.697023  0.309849  0.682132  1
  Ta  Ta11  1  0.940151  0.552977  0.939005  1
  Al  Al12  1  0.913311  0.913311  0.917358  1
  Al  Al13  1  0.001126  0.339335  0.329769  1
  Al  Al14  1  0.339335  0.001126  0.329769  1
  Al  Al15  1  0.336689  0.336689  0.993977  1
  Al  Al16  1  0.910665  0.248874  0.920231  1
  Al  Al17  1  0.913311  0.913311  0.256023  1
  Al  Al18  1  0.248874  0.910665  0.920231  1
  Al  Al19  1  0.336689  0.336689  0.332642  1
  V  V20  1  0.125000  0.125000  0.125000  1
  V  V21  1  0.125000  0.125000  0.625000  1
  Cu  Cu22  1  0.625000  0.125000  0.125000  1
  Cu  Cu23  1  0.125000  0.625000  0.125000  1
  C  C24  1  0.625000  0.625000  0.625000  1
  C  C25  1  0.125000  0.625000  0.625000  1
  C  C26  1  0.625000  0.125000  0.625000  1
  C  C27  1  0.625000  0.625000  0.125000  1
