# generated using pymatgen
data_CuMo12Pt7N4
_symmetry_space_group_name_H-M   'P 1'
_cell_length_a   6.87574945
_cell_length_b   6.87574945
_cell_length_c   6.87574945
_cell_angle_alpha   90.05261928
_cell_angle_beta   90.05261928
_cell_angle_gamma   90.05261928
_symmetry_Int_Tables_number   1
_chemical_formula_structural   CuMo12Pt7N4
_chemical_formula_sum   'Cu1 Mo12 Pt7 N4'
_cell_volume   325.05704170
_cell_formula_units_Z   1
loop_
 _symmetry_equiv_pos_site_id
 _symmetry_equiv_pos_as_xyz
  1  'x, y, z'
loop_
 _atom_site_type_symbol
 _atom_site_label
 _atom_site_symmetry_multiplicity
 _atom_site_fract_x
 _atom_site_fract_y
 _atom_site_fract_z
 _atom_site_occupancy
  Cu  Cu0  1  0.190751  0.190751  0.190751  1
  Mo  Mo1  1  0.622524  0.702405  0.949964  1
  Mo  Mo2  1  0.455422  0.875017  0.303813  1
  Mo  Mo3  1  0.702405  0.949964  0.622524  1
  Mo  Mo4  1  0.546014  0.373138  0.200201  1
  Mo  Mo5  1  0.373138  0.200201  0.546014  1
  Mo  Mo6  1  0.200201  0.546014  0.373138  1
  Mo  Mo7  1  0.875017  0.303813  0.455422  1
  Mo  Mo8  1  0.047941  0.121994  0.799424  1
  Mo  Mo9  1  0.303813  0.455422  0.875017  1
  Mo  Mo10  1  0.121994  0.799424  0.047941  1
  Mo  Mo11  1  0.799424  0.047941  0.121994  1
  Mo  Mo12  1  0.949964  0.622524  0.702405  1
  Pt  Pt13  1  0.306524  0.811347  0.690381  1
  Pt  Pt14  1  0.431550  0.062149  0.951145  1
  Pt  Pt15  1  0.811347  0.690381  0.306524  1
  Pt  Pt16  1  0.690381  0.306524  0.811347  1
  Pt  Pt17  1  0.557599  0.557599  0.557599  1
  Pt  Pt18  1  0.062149  0.951145  0.431550  1
  Pt  Pt19  1  0.951145  0.431550  0.062149  1
  N  N20  1  0.375488  0.626115  0.125293  1
  N  N21  1  0.873801  0.873801  0.873801  1
  N  N22  1  0.125293  0.375488  0.626115  1
  N  N23  1  0.626115  0.125293  0.375488  1
