# generated using pymatgen
data_LiTm2BRh5
_symmetry_space_group_name_H-M   'P 1'
_cell_length_a   5.84593010
_cell_length_b   5.76369086
_cell_length_c   5.76369126
_cell_angle_alpha   60.94625873
_cell_angle_beta   59.52687431
_cell_angle_gamma   59.52687785
_symmetry_Int_Tables_number   1
_chemical_formula_structural   LiTm2BRh5
_chemical_formula_sum   'Li1 Tm2 B1 Rh5'
_cell_volume   137.26524980
_cell_formula_units_Z   1
loop_
 _symmetry_equiv_pos_site_id
 _symmetry_equiv_pos_as_xyz
  1  'x, y, z'
loop_
 _atom_site_type_symbol
 _atom_site_label
 _atom_site_symmetry_multiplicity
 _atom_site_fract_x
 _atom_site_fract_y
 _atom_site_fract_z
 _atom_site_occupancy
  Li  Li0  1  0.770871  0.229128  0.229128  1
  Tm  Tm1  1  0.250969  0.249031  0.249031  1
  Tm  Tm2  1  0.750969  0.749031  0.749031  1
  B  B3  1  0.489259  0.510741  0.510741  1
  Rh  Rh4  1  0.247966  0.752033  0.245798  1
  Rh  Rh5  1  0.754201  0.752033  0.245798  1
  Rh  Rh6  1  0.247966  0.245798  0.752033  1
  Rh  Rh7  1  0.754201  0.245798  0.752033  1
  Rh  Rh8  1  0.233594  0.766405  0.766405  1
