# generated using pymatgen
data_Y4Co15Si2(P2Ru)5
_symmetry_space_group_name_H-M   'P 1'
_cell_length_a   3.71856600
_cell_length_b   10.45669092
_cell_length_c   11.84862826
_cell_angle_alpha   89.69693210
_cell_angle_beta   90.00000000
_cell_angle_gamma   90.00000000
_symmetry_Int_Tables_number   1
_chemical_formula_structural   Y4Co15Si2(P2Ru)5
_chemical_formula_sum   'Y4 Co15 Si2 P10 Ru5'
_cell_volume   460.71437544
_cell_formula_units_Z   1
loop_
 _symmetry_equiv_pos_site_id
 _symmetry_equiv_pos_as_xyz
  1  'x, y, z'
loop_
 _atom_site_type_symbol
 _atom_site_label
 _atom_site_symmetry_multiplicity
 _atom_site_fract_x
 _atom_site_fract_y
 _atom_site_fract_z
 _atom_site_occupancy
  Y  Y0  1  0.250000  0.911808  0.204423  1
  Y  Y1  1  0.750000  0.086428  0.792867  1
  Y  Y2  1  0.750000  0.414057  0.298334  1
  Y  Y3  1  0.250000  0.586416  0.702228  1
  Co  Co4  1  0.750000  0.902390  0.012566  1
  Co  Co5  1  0.750000  0.591223  0.509849  1
  Co  Co6  1  0.250000  0.409504  0.490392  1
  Co  Co7  1  0.250000  0.286950  0.677173  1
  Co  Co8  1  0.750000  0.720923  0.324359  1
  Co  Co9  1  0.750000  0.777584  0.823067  1
  Co  Co10  1  0.250000  0.217668  0.182676  1
  Co  Co11  1  0.250000  0.615417  0.202605  1
  Co  Co12  1  0.750000  0.387744  0.799044  1
  Co  Co13  1  0.750000  0.112290  0.299950  1
  Co  Co14  1  0.250000  0.883106  0.700445  1
  Co  Co15  1  0.250000  0.031486  0.426290  1
  Co  Co16  1  0.750000  0.961643  0.564989  1
  Co  Co17  1  0.750000  0.538964  0.065360  1
  Co  Co18  1  0.250000  0.468144  0.927567  1
  Si  Si19  1  0.250000  0.083372  0.608629  1
  Si  Si20  1  0.250000  0.418605  0.111511  1
  P  P21  1  0.750000  0.919070  0.386695  1
  P  P22  1  0.750000  0.579841  0.885722  1
  P  P23  1  0.250000  0.227360  0.370001  1
  P  P24  1  0.750000  0.772041  0.632772  1
  P  P25  1  0.750000  0.727453  0.134109  1
  P  P26  1  0.250000  0.275086  0.865602  1
  P  P27  1  0.250000  0.899622  0.886836  1
  P  P28  1  0.750000  0.098145  0.113498  1
  P  P29  1  0.750000  0.403855  0.610270  1
  P  P30  1  0.250000  0.596238  0.389825  1
  Ru  Ru31  1  0.250000  0.780891  0.492611  1
  Ru  Ru32  1  0.750000  0.216386  0.510737  1
  Ru  Ru33  1  0.750000  0.291489  0.016025  1
  Ru  Ru34  1  0.250000  0.715570  0.991710  1
  Ru  Ru35  1  0.250000  0.091237  0.989263  1
