# generated using pymatgen
data_Er3Al2Co8NiB4
_symmetry_space_group_name_H-M   'P 1'
_cell_length_a   5.11417341
_cell_length_b   5.11417418
_cell_length_c   9.54505000
_cell_angle_alpha   90.00000000
_cell_angle_beta   90.00000000
_cell_angle_gamma   119.78017057
_symmetry_Int_Tables_number   1
_chemical_formula_structural   Er3Al2Co8NiB4
_chemical_formula_sum   'Er3 Al2 Co8 Ni1 B4'
_cell_volume   216.67937538
_cell_formula_units_Z   1
loop_
 _symmetry_equiv_pos_site_id
 _symmetry_equiv_pos_as_xyz
  1  'x, y, z'
loop_
 _atom_site_type_symbol
 _atom_site_label
 _atom_site_symmetry_multiplicity
 _atom_site_fract_x
 _atom_site_fract_y
 _atom_site_fract_z
 _atom_site_occupancy
  Er  Er0  1  0.000000  0.000000  0.004224  1
  Er  Er1  1  0.000000  0.000000  0.660350  1
  Er  Er2  1  0.000000  0.000000  0.340442  1
  Al  Al3  1  0.668616  0.331384  0.000297  1
  Al  Al4  1  0.331384  0.668616  0.000297  1
  Co  Co5  1  0.500000  0.500000  0.499881  1
  Co  Co6  1  0.500000  0.000000  0.499790  1
  Co  Co7  1  0.000000  0.500000  0.499790  1
  Co  Co8  1  0.500000  0.000000  0.792853  1
  Co  Co9  1  0.000000  0.500000  0.792853  1
  Co  Co10  1  0.500000  0.500000  0.205790  1
  Co  Co11  1  0.500000  0.000000  0.206914  1
  Co  Co12  1  0.000000  0.500000  0.206914  1
  Ni  Ni13  1  0.500000  0.500000  0.793550  1
  B  B14  1  0.670502  0.329498  0.649571  1
  B  B15  1  0.329498  0.670502  0.649571  1
  B  B16  1  0.333327  0.666673  0.348457  1
  B  B17  1  0.666673  0.333327  0.348457  1
