# generated using pymatgen
data_Gd3Ga3GePt2
_symmetry_space_group_name_H-M   'P 1'
_cell_length_a   7.01661100
_cell_length_b   7.01661129
_cell_length_c   4.14050600
_cell_angle_alpha   90.00000000
_cell_angle_beta   90.00000000
_cell_angle_gamma   119.99999391
_symmetry_Int_Tables_number   1
_chemical_formula_structural   Gd3Ga3GePt2
_chemical_formula_sum   'Gd3 Ga3 Ge1 Pt2'
_cell_volume   176.53828150
_cell_formula_units_Z   1
loop_
 _symmetry_equiv_pos_site_id
 _symmetry_equiv_pos_as_xyz
  1  'x, y, z'
loop_
 _atom_site_type_symbol
 _atom_site_label
 _atom_site_symmetry_multiplicity
 _atom_site_fract_x
 _atom_site_fract_y
 _atom_site_fract_z
 _atom_site_occupancy
  Gd  Gd0  1  0.419031  0.003315  0.500000  1
  Gd  Gd1  1  0.996685  0.415717  0.500000  1
  Gd  Gd2  1  0.584283  0.580969  0.500000  1
  Ga  Ga3  1  0.768153  0.015383  0.000000  1
  Ga  Ga4  1  0.984617  0.752771  0.000000  1
  Ga  Ga5  1  0.247229  0.231847  0.000000  1
  Ge  Ge6  1  0.333333  0.666667  0.000000  1
  Pt  Pt7  1  0.666667  0.333333  0.000000  1
  Pt  Pt8  1  0.000000  0.000000  0.500000  1
