# generated using pymatgen
data_Tm4Nb2B4(IrRu)5
_symmetry_space_group_name_H-M   'P 1'
_cell_length_a   9.68052120
_cell_length_b   9.69513219
_cell_length_c   3.11581300
_cell_angle_alpha   90.00000000
_cell_angle_beta   90.00000000
_cell_angle_gamma   90.02301814
_symmetry_Int_Tables_number   1
_chemical_formula_structural   Tm4Nb2B4(IrRu)5
_chemical_formula_sum   'Tm4 Nb2 B4 Ir5 Ru5'
_cell_volume   292.43128004
_cell_formula_units_Z   1
loop_
 _symmetry_equiv_pos_site_id
 _symmetry_equiv_pos_as_xyz
  1  'x, y, z'
loop_
 _atom_site_type_symbol
 _atom_site_label
 _atom_site_symmetry_multiplicity
 _atom_site_fract_x
 _atom_site_fract_y
 _atom_site_fract_z
 _atom_site_occupancy
  Tm  Tm0  1  0.824728  0.675060  0.000000  1
  Tm  Tm1  1  0.173655  0.322846  0.000000  1
  Tm  Tm2  1  0.325596  0.828695  0.000000  1
  Tm  Tm3  1  0.675112  0.173575  0.000000  1
  Nb  Nb4  1  0.505411  0.498167  0.000000  1
  Nb  Nb5  1  0.999301  0.999989  0.000000  1
  B  B6  1  0.623824  0.885860  0.000000  1
  B  B7  1  0.375580  0.114693  0.000000  1
  B  B8  1  0.118930  0.617074  0.000000  1
  B  B9  1  0.877372  0.383242  0.000000  1
  Ir  Ir10  1  0.570056  0.720780  0.500000  1
  Ir  Ir11  1  0.428337  0.279934  0.500000  1
  Ir  Ir12  1  0.072427  0.779100  0.500000  1
  Ir  Ir13  1  0.928481  0.220714  0.500000  1
  Ir  Ir14  1  0.281866  0.570112  0.500000  1
  Ru  Ru15  1  0.718917  0.429966  0.500000  1
  Ru  Ru16  1  0.217636  0.070440  0.500000  1
  Ru  Ru17  1  0.782009  0.928932  0.500000  1
  Ru  Ru18  1  0.500236  0.000753  0.500000  1
  Ru  Ru19  1  0.000528  0.500067  0.500000  1
