# generated using pymatgen
data_LiDy5MoP12Ir17
_symmetry_space_group_name_H-M   'P 1'
_cell_length_a   12.62005933
_cell_length_b   12.71255274
_cell_length_c   3.97681400
_cell_angle_alpha   90.00000000
_cell_angle_beta   90.00000000
_cell_angle_gamma   119.33765592
_symmetry_Int_Tables_number   1
_chemical_formula_structural   LiDy5MoP12Ir17
_chemical_formula_sum   'Li1 Dy5 Mo1 P12 Ir17'
_cell_volume   556.18609870
_cell_formula_units_Z   1
loop_
 _symmetry_equiv_pos_site_id
 _symmetry_equiv_pos_as_xyz
  1  'x, y, z'
loop_
 _atom_site_type_symbol
 _atom_site_label
 _atom_site_symmetry_multiplicity
 _atom_site_fract_x
 _atom_site_fract_y
 _atom_site_fract_z
 _atom_site_occupancy
  Li  Li0  1  0.998974  0.443587  0.500000  1
  Dy  Dy1  1  0.331236  0.661979  0.500000  1
  Dy  Dy2  1  0.669182  0.337245  0.500000  1
  Dy  Dy3  1  0.998182  0.809445  0.000000  1
  Dy  Dy4  1  0.189025  0.186761  0.000000  1
  Dy  Dy5  1  0.810913  0.995698  0.000000  1
  Mo  Mo6  1  0.548255  0.549364  0.500000  1
  P  P7  1  0.000796  0.634084  0.500000  1
  P  P8  1  0.364320  0.364169  0.500000  1
  P  P9  1  0.643717  0.000875  0.500000  1
  P  P10  1  0.513404  0.682052  0.000000  1
  P  P11  1  0.306850  0.824202  0.000000  1
  P  P12  1  0.166424  0.482446  0.000000  1
  P  P13  1  0.485738  0.175845  0.000000  1
  P  P14  1  0.685228  0.519597  0.000000  1
  P  P15  1  0.830413  0.315646  0.000000  1
  P  P16  1  0.000360  0.179931  0.500000  1
  P  P17  1  0.824736  0.825414  0.500000  1
  P  P18  1  0.179785  0.001890  0.500000  1
  Ir  Ir19  1  0.503036  0.862661  0.000000  1
  Ir  Ir20  1  0.126941  0.641626  0.000000  1
  Ir  Ir21  1  0.357563  0.490079  0.000000  1
  Ir  Ir22  1  0.490767  0.361995  0.000000  1
  Ir  Ir23  1  0.863179  0.508520  0.000000  1
  Ir  Ir24  1  0.639847  0.132163  0.000000  1
  Ir  Ir25  1  0.461853  0.999044  0.500000  1
  Ir  Ir26  1  0.998524  0.280789  0.000000  1
  Ir  Ir27  1  0.711325  0.715300  0.000000  1
  Ir  Ir28  1  0.289441  0.003166  0.000000  1
  Ir  Ir29  1  0.623983  0.806486  0.500000  1
  Ir  Ir30  1  0.201168  0.825671  0.500000  1
  Ir  Ir31  1  0.179552  0.372750  0.500000  1
  Ir  Ir32  1  0.378288  0.180090  0.500000  1
  Ir  Ir33  1  0.808397  0.632611  0.500000  1
  Ir  Ir34  1  0.816786  0.193653  0.500000  1
  Ir  Ir35  1  0.001813  0.003162  0.500000  1
