# generated using pymatgen
data_HfTa2Nb2Si3
_symmetry_space_group_name_H-M   'P 1'
_cell_length_a   7.66423249
_cell_length_b   7.66423151
_cell_length_c   7.66849360
_cell_angle_alpha   128.82775486
_cell_angle_beta   128.82775056
_cell_angle_gamma   75.24651815
_symmetry_Int_Tables_number   1
_chemical_formula_structural   HfTa2Nb2Si3
_chemical_formula_sum   'Hf2 Ta4 Nb4 Si6'
_cell_volume   266.16802015
_cell_formula_units_Z   2
loop_
 _symmetry_equiv_pos_site_id
 _symmetry_equiv_pos_as_xyz
  1  'x, y, z'
loop_
 _atom_site_type_symbol
 _atom_site_label
 _atom_site_symmetry_multiplicity
 _atom_site_fract_x
 _atom_site_fract_y
 _atom_site_fract_z
 _atom_site_occupancy
  Hf  Hf0  1  0.014917  0.181901  0.500000  1
  Hf  Hf1  1  0.681901  0.514917  0.500000  1
  Ta  Ta2  1  0.485286  0.985286  0.169750  1
  Ta  Ta3  1  0.815536  0.315536  0.830248  1
  Ta  Ta4  1  0.003812  0.003812  0.000000  1
  Ta  Ta5  1  0.503812  0.503812  0.000000  1
  Nb  Nb6  1  0.517620  0.017620  0.830785  1
  Nb  Nb7  1  0.186837  0.686837  0.169216  1
  Nb  Nb8  1  0.981512  0.811414  0.500000  1
  Nb  Nb9  1  0.311414  0.481512  0.500000  1
  Si  Si10  1  0.746711  0.746711  0.000000  1
  Si  Si11  1  0.246711  0.246711  0.000000  1
  Si  Si12  1  0.372680  0.129952  0.500000  1
  Si  Si13  1  0.629952  0.872680  0.500000  1
  Si  Si14  1  0.870114  0.370114  0.238928  1
  Si  Si15  1  0.131185  0.631185  0.761072  1
