# generated using pymatgen
data_Er8Ga12Ni3Ag
_symmetry_space_group_name_H-M   'P 1'
_cell_length_a   6.92348600
_cell_length_b   8.79102254
_cell_length_c   8.79102300
_cell_angle_alpha   119.99999797
_cell_angle_beta   90.00000000
_cell_angle_gamma   90.00000000
_symmetry_Int_Tables_number   1
_chemical_formula_structural   Er8Ga12Ni3Ag
_chemical_formula_sum   'Er8 Ga12 Ni3 Ag1'
_cell_volume   463.37678155
_cell_formula_units_Z   1
loop_
 _symmetry_equiv_pos_site_id
 _symmetry_equiv_pos_as_xyz
  1  'x, y, z'
loop_
 _atom_site_type_symbol
 _atom_site_label
 _atom_site_symmetry_multiplicity
 _atom_site_fract_x
 _atom_site_fract_y
 _atom_site_fract_z
 _atom_site_occupancy
  Er  Er0  1  0.758001  0.000000  0.000000  1
  Er  Er1  1  0.251875  0.000000  0.000000  1
  Er  Er2  1  0.750467  0.477602  0.522398  1
  Er  Er3  1  0.244559  0.514714  0.485286  1
  Er  Er4  1  0.750467  0.044798  0.522398  1
  Er  Er5  1  0.244559  0.970573  0.485286  1
  Er  Er6  1  0.750467  0.477602  0.955202  1
  Er  Er7  1  0.244559  0.514714  0.029427  1
  Ga  Ga8  1  0.956743  0.827009  0.172991  1
  Ga  Ga9  1  0.040416  0.170400  0.829600  1
  Ga  Ga10  1  0.956743  0.345982  0.172991  1
  Ga  Ga11  1  0.456117  0.172278  0.827722  1
  Ga  Ga12  1  0.040416  0.659199  0.829600  1
  Ga  Ga13  1  0.539350  0.836074  0.163926  1
  Ga  Ga14  1  0.956743  0.827009  0.654018  1
  Ga  Ga15  1  0.456117  0.655443  0.827722  1
  Ga  Ga16  1  0.040416  0.170400  0.340801  1
  Ga  Ga17  1  0.539350  0.327853  0.163926  1
  Ga  Ga18  1  0.456117  0.172278  0.344557  1
  Ga  Ga19  1  0.539350  0.836074  0.672147  1
  Ni  Ni20  1  0.980823  0.666667  0.333333  1
  Ni  Ni21  1  0.024423  0.333333  0.666667  1
  Ni  Ni22  1  0.473396  0.333333  0.666667  1
  Ag  Ag23  1  0.548525  0.666667  0.333333  1
