# generated using pymatgen
data_Y2Ho2Zn4IrPt3
_symmetry_space_group_name_H-M   'P 1'
_cell_length_a   4.20228800
_cell_length_b   6.91068949
_cell_length_c   8.09232641
_cell_angle_alpha   90.07943936
_cell_angle_beta   90.00000000
_cell_angle_gamma   90.00000000
_symmetry_Int_Tables_number   1
_chemical_formula_structural   Y2Ho2Zn4IrPt3
_chemical_formula_sum   'Y2 Ho2 Zn4 Ir1 Pt3'
_cell_volume   235.00665841
_cell_formula_units_Z   1
loop_
 _symmetry_equiv_pos_site_id
 _symmetry_equiv_pos_as_xyz
  1  'x, y, z'
loop_
 _atom_site_type_symbol
 _atom_site_label
 _atom_site_symmetry_multiplicity
 _atom_site_fract_x
 _atom_site_fract_y
 _atom_site_fract_z
 _atom_site_occupancy
  Y  Y0  1  0.750000  0.959971  0.691263  1
  Y  Y1  1  0.250000  0.036020  0.312521  1
  Ho  Ho2  1  0.250000  0.538664  0.181666  1
  Ho  Ho3  1  0.750000  0.469633  0.815059  1
  Zn  Zn4  1  0.250000  0.644313  0.567405  1
  Zn  Zn5  1  0.750000  0.356829  0.434874  1
  Zn  Zn6  1  0.750000  0.853822  0.063161  1
  Zn  Zn7  1  0.250000  0.141675  0.934463  1
  Ir  Ir8  1  0.250000  0.753861  0.882491  1
  Pt  Pt9  1  0.750000  0.244675  0.117759  1
  Pt  Pt10  1  0.750000  0.741465  0.380983  1
  Pt  Pt11  1  0.250000  0.259073  0.618355  1
