# generated using pymatgen
data_NaY5ErCo6Sn23
_symmetry_space_group_name_H-M   'P 1'
_cell_length_a   9.72305452
_cell_length_b   9.76191132
_cell_length_c   9.96231782
_cell_angle_alpha   89.99999807
_cell_angle_beta   89.95965658
_cell_angle_gamma   120.13228727
_symmetry_Int_Tables_number   1
_chemical_formula_structural   NaY5ErCo6Sn23
_chemical_formula_sum   'Na1 Y5 Er1 Co6 Sn23'
_cell_volume   817.80167196
_cell_formula_units_Z   1
loop_
 _symmetry_equiv_pos_site_id
 _symmetry_equiv_pos_as_xyz
  1  'x, y, z'
loop_
 _atom_site_type_symbol
 _atom_site_label
 _atom_site_symmetry_multiplicity
 _atom_site_fract_x
 _atom_site_fract_y
 _atom_site_fract_z
 _atom_site_occupancy
  Na  Na0  1  0.000074  0.000037  0.000081  1
  Y  Y1  1  0.479386  0.958558  0.305208  1
  Y  Y2  1  0.479386  0.520829  0.305208  1
  Y  Y3  1  0.958319  0.479159  0.694688  1
  Y  Y4  1  0.520819  0.041557  0.694622  1
  Y  Y5  1  0.520819  0.479263  0.694622  1
  Er  Er6  1  0.039985  0.519992  0.304694  1
  Co  Co7  1  0.170348  0.829565  0.799005  1
  Co  Co8  1  0.659364  0.829682  0.799209  1
  Co  Co9  1  0.170348  0.340783  0.799005  1
  Co  Co10  1  0.830303  0.171397  0.201126  1
  Co  Co11  1  0.340524  0.170262  0.200965  1
  Co  Co12  1  0.830303  0.658906  0.201126  1
  Sn  Sn13  1  0.000115  0.000058  0.499843  1
  Sn  Sn14  1  0.115924  0.883741  0.272020  1
  Sn  Sn15  1  0.768739  0.884370  0.271826  1
  Sn  Sn16  1  0.115924  0.232184  0.272020  1
  Sn  Sn17  1  0.884249  0.115719  0.728189  1
  Sn  Sn18  1  0.231249  0.115624  0.728151  1
  Sn  Sn19  1  0.884249  0.768528  0.728189  1
  Sn  Sn20  1  0.343926  0.999926  0.000027  1
  Sn  Sn21  1  0.656121  0.656056  0.000238  1
  Sn  Sn22  1  0.000314  0.344306  0.000148  1
  Sn  Sn23  1  0.343926  0.344001  0.000027  1
  Sn  Sn24  1  0.000314  0.656008  0.000148  1
  Sn  Sn25  1  0.656121  0.000066  0.000238  1
  Sn  Sn26  1  0.782228  0.563101  0.453476  1
  Sn  Sn27  1  0.782228  0.219126  0.453476  1
  Sn  Sn28  1  0.436838  0.218419  0.453609  1
  Sn  Sn29  1  0.218038  0.437096  0.545827  1
  Sn  Sn30  1  0.218038  0.780941  0.545827  1
  Sn  Sn31  1  0.562967  0.781483  0.546332  1
  Sn  Sn32  1  0.666928  0.333464  0.185847  1
  Sn  Sn33  1  0.333371  0.666686  0.814129  1
  Sn  Sn34  1  0.666662  0.333330  0.885331  1
  Sn  Sn35  1  0.331554  0.665778  0.115526  1
