# generated using pymatgen
data_Y5Lu5AlSb5
_symmetry_space_group_name_H-M   'P 1'
_cell_length_a   6.25861900
_cell_length_b   8.89982050
_cell_length_c   8.85487169
_cell_angle_alpha   120.16805824
_cell_angle_beta   89.99970943
_cell_angle_gamma   90.00059112
_symmetry_Int_Tables_number   1
_chemical_formula_structural   Y5Lu5AlSb5
_chemical_formula_sum   'Y5 Lu5 Al1 Sb5'
_cell_volume   426.41719472
_cell_formula_units_Z   1
loop_
 _symmetry_equiv_pos_site_id
 _symmetry_equiv_pos_as_xyz
  1  'x, y, z'
loop_
 _atom_site_type_symbol
 _atom_site_label
 _atom_site_symmetry_multiplicity
 _atom_site_fract_x
 _atom_site_fract_y
 _atom_site_fract_z
 _atom_site_occupancy
  Y  Y0  1  0.749996  0.248249  0.000000  1
  Y  Y1  1  0.750004  0.753090  0.763238  1
  Y  Y2  1  0.750004  0.989852  0.236762  1
  Y  Y3  1  0.250003  0.245656  0.244314  1
  Y  Y4  1  0.250003  0.001342  0.755686  1
  Lu  Lu5  1  0.502224  0.338126  0.672761  1
  Lu  Lu6  1  0.502224  0.665365  0.327239  1
  Lu  Lu7  1  0.997762  0.665362  0.327241  1
  Lu  Lu8  1  0.997762  0.338122  0.672759  1
  Lu  Lu9  1  0.250008  0.757653  0.000000  1
  Al  Al10  1  0.750001  0.600826  0.000000  1
  Sb  Sb11  1  0.750005  0.390331  0.392786  1
  Sb  Sb12  1  0.750005  0.997543  0.607214  1
  Sb  Sb13  1  0.249994  0.397829  0.000000  1
  Sb  Sb14  1  0.250004  0.609102  0.607549  1
  Sb  Sb15  1  0.250004  0.001554  0.392451  1
