# generated using pymatgen
data_Y9Er11(Bi2Ir)4
_symmetry_space_group_name_H-M   'P 1'
_cell_length_a   7.97313203
_cell_length_b   8.97135000
_cell_length_c   12.57973005
_cell_angle_alpha   90.00000000
_cell_angle_beta   89.98948112
_cell_angle_gamma   90.00000000
_symmetry_Int_Tables_number   1
_chemical_formula_structural   Y9Er11(Bi2Ir)4
_chemical_formula_sum   'Y9 Er11 Bi8 Ir4'
_cell_volume   899.82503211
_cell_formula_units_Z   1
loop_
 _symmetry_equiv_pos_site_id
 _symmetry_equiv_pos_as_xyz
  1  'x, y, z'
loop_
 _atom_site_type_symbol
 _atom_site_label
 _atom_site_symmetry_multiplicity
 _atom_site_fract_x
 _atom_site_fract_y
 _atom_site_fract_z
 _atom_site_occupancy
  Y  Y0  1  0.661498  0.750000  0.706972  1
  Y  Y1  1  0.338425  0.250000  0.292832  1
  Y  Y2  1  0.161511  0.250000  0.792684  1
  Y  Y3  1  0.838826  0.750000  0.207423  1
  Y  Y4  1  0.129005  0.750000  0.809989  1
  Y  Y5  1  0.870992  0.250000  0.189868  1
  Y  Y6  1  0.629003  0.250000  0.689801  1
  Y  Y7  1  0.371110  0.750000  0.310131  1
  Y  Y8  1  0.553890  0.750000  0.998005  1
  Er  Er9  1  0.444606  0.250000  0.001925  1
  Er  Er10  1  0.055515  0.250000  0.501950  1
  Er  Er11  1  0.944492  0.750000  0.498050  1
  Er  Er12  1  0.826877  0.458576  0.932395  1
  Er  Er13  1  0.173260  0.540705  0.067688  1
  Er  Er14  1  0.326571  0.541093  0.567507  1
  Er  Er15  1  0.173260  0.959295  0.067688  1
  Er  Er16  1  0.673446  0.458875  0.432494  1
  Er  Er17  1  0.826877  0.041424  0.932395  1
  Er  Er18  1  0.673446  0.041125  0.432494  1
  Er  Er19  1  0.326571  0.958907  0.567507  1
  Bi  Bi20  1  0.936950  0.007192  0.671984  1
  Bi  Bi21  1  0.063062  0.992892  0.328021  1
  Bi  Bi22  1  0.436687  0.993237  0.827488  1
  Bi  Bi23  1  0.063062  0.507108  0.328021  1
  Bi  Bi24  1  0.563131  0.007513  0.172515  1
  Bi  Bi25  1  0.936950  0.492808  0.671984  1
  Bi  Bi26  1  0.563131  0.492487  0.172515  1
  Bi  Bi27  1  0.436687  0.506763  0.827488  1
  Ir  Ir28  1  0.930928  0.750000  0.992560  1
  Ir  Ir29  1  0.070235  0.250000  0.007678  1
  Ir  Ir30  1  0.429615  0.250000  0.507736  1
  Ir  Ir31  1  0.570380  0.750000  0.492212  1
