# generated using pymatgen
data_La2B2Pd7Pt
_symmetry_space_group_name_H-M   'P 1'
_cell_length_a   5.51715104
_cell_length_b   5.51825747
_cell_length_c   7.72050600
_cell_angle_alpha   90.00000000
_cell_angle_beta   90.00000000
_cell_angle_gamma   120.00663921
_symmetry_Int_Tables_number   1
_chemical_formula_structural   La2B2Pd7Pt
_chemical_formula_sum   'La2 B2 Pd7 Pt1'
_cell_volume   203.54674931
_cell_formula_units_Z   1
loop_
 _symmetry_equiv_pos_site_id
 _symmetry_equiv_pos_as_xyz
  1  'x, y, z'
loop_
 _atom_site_type_symbol
 _atom_site_label
 _atom_site_symmetry_multiplicity
 _atom_site_fract_x
 _atom_site_fract_y
 _atom_site_fract_z
 _atom_site_occupancy
  La  La0  1  0.000000  0.000000  0.501667  1
  La  La1  1  0.000000  0.000000  0.001198  1
  B  B2  1  0.328577  0.664289  0.998753  1
  B  B3  1  0.671423  0.335711  0.998753  1
  Pd  Pd4  1  0.332682  0.666342  0.499512  1
  Pd  Pd5  1  0.667318  0.333658  0.499512  1
  Pd  Pd6  1  0.500000  0.000000  0.195837  1
  Pd  Pd7  1  0.500000  0.000000  0.802508  1
  Pd  Pd8  1  0.000000  0.500000  0.199186  1
  Pd  Pd9  1  0.500000  0.500000  0.195837  1
  Pd  Pd10  1  0.500000  0.500000  0.802508  1
  Pt  Pt11  1  0.000000  0.500000  0.804728  1
