# generated using pymatgen
data_Zr3ScMn8
_symmetry_space_group_name_H-M   'P 1'
_cell_length_a   8.39371227
_cell_length_b   8.39371155
_cell_length_c   8.39371182
_cell_angle_alpha   35.18607524
_cell_angle_beta   35.18608502
_cell_angle_gamma   35.18607659
_symmetry_Int_Tables_number   1
_chemical_formula_structural   Zr3ScMn8
_chemical_formula_sum   'Zr3 Sc1 Mn8'
_cell_volume   175.38457861
_cell_formula_units_Z   1
loop_
 _symmetry_equiv_pos_site_id
 _symmetry_equiv_pos_as_xyz
  1  'x, y, z'
loop_
 _atom_site_type_symbol
 _atom_site_label
 _atom_site_symmetry_multiplicity
 _atom_site_fract_x
 _atom_site_fract_y
 _atom_site_fract_z
 _atom_site_occupancy
  Zr  Zr0  1  0.625377  0.625377  0.625377  1
  Zr  Zr1  1  0.000128  0.000128  0.000128  1
  Zr  Zr2  1  0.498803  0.498803  0.498803  1
  Sc  Sc3  1  0.125573  0.125573  0.125573  1
  Mn  Mn4  1  0.562314  0.062706  0.562314  1
  Mn  Mn5  1  0.062714  0.562201  0.062714  1
  Mn  Mn6  1  0.062706  0.562314  0.562314  1
  Mn  Mn7  1  0.562201  0.062714  0.062714  1
  Mn  Mn8  1  0.812567  0.812567  0.812567  1
  Mn  Mn9  1  0.312589  0.312589  0.312589  1
  Mn  Mn10  1  0.562314  0.562314  0.062706  1
  Mn  Mn11  1  0.062714  0.062714  0.562201  1
