# generated using pymatgen
data_Tb5Lu7Os4
_symmetry_space_group_name_H-M   'P 1'
_cell_length_a   6.24847969
_cell_length_b   7.40209488
_cell_length_c   8.87755211
_cell_angle_alpha   89.95780130
_cell_angle_beta   89.70548294
_cell_angle_gamma   89.90602425
_symmetry_Int_Tables_number   1
_chemical_formula_structural   Tb5Lu7Os4
_chemical_formula_sum   'Tb5 Lu7 Os4'
_cell_volume   410.59702972
_cell_formula_units_Z   1
loop_
 _symmetry_equiv_pos_site_id
 _symmetry_equiv_pos_as_xyz
  1  'x, y, z'
loop_
 _atom_site_type_symbol
 _atom_site_label
 _atom_site_symmetry_multiplicity
 _atom_site_fract_x
 _atom_site_fract_y
 _atom_site_fract_z
 _atom_site_occupancy
  Tb  Tb0  1  0.164345  0.174871  0.062694  1
  Tb  Tb1  1  0.871327  0.539909  0.250761  1
  Tb  Tb2  1  0.629429  0.038820  0.251437  1
  Tb  Tb3  1  0.126996  0.461568  0.748397  1
  Tb  Tb4  1  0.372415  0.960339  0.748615  1
  Lu  Lu5  1  0.337466  0.673428  0.063051  1
  Lu  Lu6  1  0.162978  0.172942  0.438719  1
  Lu  Lu7  1  0.662297  0.326440  0.563085  1
  Lu  Lu8  1  0.835260  0.825121  0.935715  1
  Lu  Lu9  1  0.663450  0.326880  0.936097  1
  Lu  Lu10  1  0.836503  0.825829  0.562768  1
  Lu  Lu11  1  0.337037  0.674571  0.436757  1
  Os  Os12  1  0.044739  0.880562  0.251730  1
  Os  Os13  1  0.457535  0.382644  0.252067  1
  Os  Os14  1  0.953539  0.117814  0.747210  1
  Os  Os15  1  0.544684  0.618263  0.750899  1
