# generated using pymatgen
data_LiTm(Ta2B5)4
_symmetry_space_group_name_H-M   'P 1'
_cell_length_a   6.20069203
_cell_length_b   7.05237635
_cell_length_c   7.39398362
_cell_angle_alpha   93.80294249
_cell_angle_beta   102.14298726
_cell_angle_gamma   116.12596433
_symmetry_Int_Tables_number   1
_chemical_formula_structural   LiTm(Ta2B5)4
_chemical_formula_sum   'Li1 Tm1 Ta8 B20'
_cell_volume   279.11247270
_cell_formula_units_Z   1
loop_
 _symmetry_equiv_pos_site_id
 _symmetry_equiv_pos_as_xyz
  1  'x, y, z'
loop_
 _atom_site_type_symbol
 _atom_site_label
 _atom_site_symmetry_multiplicity
 _atom_site_fract_x
 _atom_site_fract_y
 _atom_site_fract_z
 _atom_site_occupancy
  Li  Li0  1  0.999762  0.999757  0.000059  1
  Tm  Tm1  1  0.500732  0.800497  0.399556  1
  Ta  Ta2  1  0.501746  0.003986  0.999789  1
  Ta  Ta3  1  0.000680  0.397598  0.198666  1
  Ta  Ta4  1  0.500351  0.198577  0.602367  1
  Ta  Ta5  1  0.997980  0.795797  0.400108  1
  Ta  Ta6  1  0.501898  0.598721  0.799397  1
  Ta  Ta7  1  0.496636  0.398993  0.197705  1
  Ta  Ta8  1  0.001863  0.203925  0.602599  1
  Ta  Ta9  1  0.998696  0.602500  0.800509  1
  B  B10  1  0.329402  0.229477  0.869796  1
  B  B11  1  0.331925  0.632322  0.062666  1
  B  B12  1  0.164872  0.361943  0.935891  1
  B  B13  1  0.329277  0.035595  0.262312  1
  B  B14  1  0.162897  0.769711  0.125998  1
  B  B15  1  0.835464  0.230675  0.870353  1
  B  B16  1  0.165221  0.165570  0.327025  1
  B  B17  1  0.834947  0.638580  0.062243  1
  B  B18  1  0.331942  0.429297  0.466592  1
  B  B19  1  0.667043  0.367876  0.932689  1
  B  B20  1  0.836923  0.035241  0.261092  1
  B  B21  1  0.670223  0.769448  0.126585  1
  B  B22  1  0.333018  0.834380  0.670495  1
  B  B23  1  0.165533  0.565856  0.535669  1
  B  B24  1  0.667020  0.168544  0.332044  1
  B  B25  1  0.832564  0.431702  0.467571  1
  B  B26  1  0.165469  0.966897  0.739000  1
  B  B27  1  0.837025  0.833523  0.674974  1
  B  B28  1  0.667943  0.565294  0.535273  1
  B  B29  1  0.670947  0.967719  0.740977  1
