# generated using pymatgen
data_CaEr(Al5Ru)4
_symmetry_space_group_name_H-M   'P 1'
_cell_length_a   6.87169353
_cell_length_b   6.87169346
_cell_length_c   9.14233800
_cell_angle_alpha   90.00000000
_cell_angle_beta   90.00000000
_cell_angle_gamma   96.76702978
_symmetry_Int_Tables_number   1
_chemical_formula_structural   CaEr(Al5Ru)4
_chemical_formula_sum   'Ca1 Er1 Al20 Ru4'
_cell_volume   428.69530122
_cell_formula_units_Z   1
loop_
 _symmetry_equiv_pos_site_id
 _symmetry_equiv_pos_as_xyz
  1  'x, y, z'
loop_
 _atom_site_type_symbol
 _atom_site_label
 _atom_site_symmetry_multiplicity
 _atom_site_fract_x
 _atom_site_fract_y
 _atom_site_fract_z
 _atom_site_occupancy
  Ca  Ca0  1  0.874945  0.125055  0.750000  1
  Er  Er1  1  0.126125  0.873875  0.250000  1
  Al  Al2  1  0.623417  0.376583  0.541738  1
  Al  Al3  1  0.376518  0.623482  0.447892  1
  Al  Al4  1  0.376518  0.623482  0.052108  1
  Al  Al5  1  0.623417  0.376583  0.958262  1
  Al  Al6  1  0.224869  0.226281  0.498761  1
  Al  Al7  1  0.773719  0.775131  0.498761  1
  Al  Al8  1  0.773719  0.775131  0.001239  1
  Al  Al9  1  0.224869  0.226281  0.001239  1
  Al  Al10  1  0.846388  0.153612  0.099360  1
  Al  Al11  1  0.158949  0.841051  0.900883  1
  Al  Al12  1  0.158949  0.841051  0.599117  1
  Al  Al13  1  0.846388  0.153612  0.400640  1
  Al  Al14  1  0.859278  0.589188  0.750000  1
  Al  Al15  1  0.140536  0.415535  0.250000  1
  Al  Al16  1  0.410812  0.140722  0.750000  1
  Al  Al17  1  0.584465  0.859464  0.250000  1
  Al  Al18  1  0.219575  0.476780  0.750000  1
  Al  Al19  1  0.779958  0.521155  0.250000  1
  Al  Al20  1  0.523220  0.780425  0.750000  1
  Al  Al21  1  0.478845  0.220042  0.250000  1
  Ru  Ru22  1  0.999577  0.502316  0.498857  1
  Ru  Ru23  1  0.999577  0.502316  0.001143  1
  Ru  Ru24  1  0.497684  0.000423  0.001143  1
  Ru  Ru25  1  0.497684  0.000423  0.498857  1
