# generated using pymatgen
data_K2CeTm5F20
_symmetry_space_group_name_H-M   'P 1'
_cell_length_a   8.15854315
_cell_length_b   8.24852401
_cell_length_c   8.24579799
_cell_angle_alpha   59.29037075
_cell_angle_beta   60.37145909
_cell_angle_gamma   60.33793152
_symmetry_Int_Tables_number   1
_chemical_formula_structural   K2CeTm5F20
_chemical_formula_sum   'K2 Ce1 Tm5 F20'
_cell_volume   392.28931581
_cell_formula_units_Z   1
loop_
 _symmetry_equiv_pos_site_id
 _symmetry_equiv_pos_as_xyz
  1  'x, y, z'
loop_
 _atom_site_type_symbol
 _atom_site_label
 _atom_site_symmetry_multiplicity
 _atom_site_fract_x
 _atom_site_fract_y
 _atom_site_fract_z
 _atom_site_occupancy
  K  K0  1  0.248347  0.251652  0.251657  1
  K  K1  1  0.748348  0.751653  0.751656  1
  Ce  Ce2  1  0.756974  0.243026  0.243025  1
  Tm  Tm3  1  0.240774  0.759226  0.759226  1
  Tm  Tm4  1  0.238827  0.761173  0.241227  1
  Tm  Tm5  1  0.758773  0.241227  0.761172  1
  Tm  Tm6  1  0.238886  0.241065  0.761114  1
  Tm  Tm7  1  0.758935  0.761114  0.241065  1
  F  F8  1  0.825027  0.499535  0.499489  1
  F  F9  1  0.175949  0.499490  0.499535  1
  F  F10  1  0.500510  0.824051  0.174973  1
  F  F11  1  0.500465  0.174973  0.824051  1
  F  F12  1  0.500391  0.828517  0.499608  1
  F  F13  1  0.171483  0.499609  0.828517  1
  F  F14  1  0.487083  0.162798  0.512916  1
  F  F15  1  0.837202  0.512917  0.162797  1
  F  F16  1  0.500382  0.499618  0.828703  1
  F  F17  1  0.487582  0.512418  0.164399  1
  F  F18  1  0.171296  0.828704  0.499619  1
  F  F19  1  0.835604  0.164396  0.512417  1
  F  F20  1  0.125167  0.106182  0.106629  1
  F  F21  1  0.888802  0.889431  0.889176  1
  F  F22  1  0.110569  0.111198  0.667410  1
  F  F23  1  0.110823  0.667409  0.111199  1
  F  F24  1  0.893818  0.874833  0.337978  1
  F  F25  1  0.893371  0.337979  0.874830  1
  F  F26  1  0.662021  0.106629  0.106180  1
  F  F27  1  0.332591  0.889177  0.889431  1
