# generated using pymatgen
data_LaDy5(CuRh5)3
_symmetry_space_group_name_H-M   'P 1'
_cell_length_a   5.32802300
_cell_length_b   5.32802202
_cell_length_c   17.09840400
_cell_angle_alpha   90.00000000
_cell_angle_beta   90.00000000
_cell_angle_gamma   119.99998748
_symmetry_Int_Tables_number   1
_chemical_formula_structural   LaDy5(CuRh5)3
_chemical_formula_sum   'La1 Dy5 Cu3 Rh15'
_cell_volume   420.35707606
_cell_formula_units_Z   1
loop_
 _symmetry_equiv_pos_site_id
 _symmetry_equiv_pos_as_xyz
  1  'x, y, z'
loop_
 _atom_site_type_symbol
 _atom_site_label
 _atom_site_symmetry_multiplicity
 _atom_site_fract_x
 _atom_site_fract_y
 _atom_site_fract_z
 _atom_site_occupancy
  La  La0  1  0.666667  0.333333  0.250000  1
  Dy  Dy1  1  0.333333  0.666667  0.540960  1
  Dy  Dy2  1  0.666667  0.333333  0.038981  1
  Dy  Dy3  1  0.666667  0.333333  0.461019  1
  Dy  Dy4  1  0.333333  0.666667  0.959040  1
  Dy  Dy5  1  0.333333  0.666667  0.750000  1
  Cu  Cu6  1  0.000000  0.000000  0.250000  1
  Cu  Cu7  1  0.000000  0.000000  0.750000  1
  Cu  Cu8  1  0.333333  0.666667  0.250000  1
  Rh  Rh9  1  0.168855  0.337709  0.125670  1
  Rh  Rh10  1  0.832565  0.665131  0.625131  1
  Rh  Rh11  1  0.662291  0.831145  0.125670  1
  Rh  Rh12  1  0.168855  0.831145  0.125670  1
  Rh  Rh13  1  0.832565  0.167435  0.625131  1
  Rh  Rh14  1  0.334869  0.167435  0.625131  1
  Rh  Rh15  1  0.832565  0.665131  0.874869  1
  Rh  Rh16  1  0.832565  0.167435  0.874869  1
  Rh  Rh17  1  0.334869  0.167435  0.874869  1
  Rh  Rh18  1  0.662291  0.831145  0.374330  1
  Rh  Rh19  1  0.168855  0.831145  0.374330  1
  Rh  Rh20  1  0.168855  0.337709  0.374330  1
  Rh  Rh21  1  0.666667  0.333333  0.750000  1
  Rh  Rh22  1  0.000000  0.000000  0.001892  1
  Rh  Rh23  1  0.000000  0.000000  0.498108  1
