# generated using pymatgen
data_KNd2PuB24
_symmetry_space_group_name_H-M   'P 1'
_cell_length_a   7.16079240
_cell_length_b   7.16079224
_cell_length_c   5.88048700
_cell_angle_alpha   90.00000000
_cell_angle_beta   90.00000000
_cell_angle_gamma   109.24562359
_symmetry_Int_Tables_number   1
_chemical_formula_structural   KNd2PuB24
_chemical_formula_sum   'K1 Nd2 Pu1 B24'
_cell_volume   284.68198208
_cell_formula_units_Z   1
loop_
 _symmetry_equiv_pos_site_id
 _symmetry_equiv_pos_as_xyz
  1  'x, y, z'
loop_
 _atom_site_type_symbol
 _atom_site_label
 _atom_site_symmetry_multiplicity
 _atom_site_fract_x
 _atom_site_fract_y
 _atom_site_fract_z
 _atom_site_occupancy
  K  K0  1  0.000000  0.000000  0.000000  1
  Nd  Nd1  1  0.751411  0.248589  0.500000  1
  Nd  Nd2  1  0.248589  0.751411  0.500000  1
  Pu  Pu3  1  0.500000  0.500000  0.000000  1
  B  B4  1  0.176431  0.325964  0.650104  1
  B  B5  1  0.923759  0.574616  0.148551  1
  B  B6  1  0.674036  0.823569  0.650104  1
  B  B7  1  0.425384  0.076241  0.148551  1
  B  B8  1  0.176431  0.325964  0.349896  1
  B  B9  1  0.923759  0.574616  0.851449  1
  B  B10  1  0.674036  0.823569  0.349896  1
  B  B11  1  0.425384  0.076241  0.851449  1
  B  B12  1  0.400549  0.400549  0.500000  1
  B  B13  1  0.148905  0.650660  0.000000  1
  B  B14  1  0.898838  0.898838  0.500000  1
  B  B15  1  0.650660  0.148905  0.000000  1
  B  B16  1  0.325964  0.176431  0.650104  1
  B  B17  1  0.076241  0.425384  0.148551  1
  B  B18  1  0.823569  0.674036  0.650104  1
  B  B19  1  0.574616  0.923759  0.148551  1
  B  B20  1  0.101162  0.101162  0.500000  1
  B  B21  1  0.851095  0.349340  0.000000  1
  B  B22  1  0.599451  0.599451  0.500000  1
  B  B23  1  0.349340  0.851095  0.000000  1
  B  B24  1  0.325964  0.176431  0.349896  1
  B  B25  1  0.076241  0.425384  0.851449  1
  B  B26  1  0.823569  0.674036  0.349896  1
  B  B27  1  0.574616  0.923759  0.851449  1
