# generated using pymatgen
data_Pr7Nd10Sm3Sn16
_symmetry_space_group_name_H-M   'P 1'
_cell_length_a   8.31707606
_cell_length_b   8.47035238
_cell_length_c   16.02361407
_cell_angle_alpha   90.00503862
_cell_angle_beta   90.00970916
_cell_angle_gamma   89.97801860
_symmetry_Int_Tables_number   1
_chemical_formula_structural   Pr7Nd10Sm3Sn16
_chemical_formula_sum   'Pr7 Nd10 Sm3 Sn16'
_cell_volume   1128.84051380
_cell_formula_units_Z   1
loop_
 _symmetry_equiv_pos_site_id
 _symmetry_equiv_pos_as_xyz
  1  'x, y, z'
loop_
 _atom_site_type_symbol
 _atom_site_label
 _atom_site_symmetry_multiplicity
 _atom_site_fract_x
 _atom_site_fract_y
 _atom_site_fract_z
 _atom_site_occupancy
  Pr  Pr0  1  0.018306  0.180459  0.599163  1
  Pr  Pr1  1  0.481432  0.680650  0.400543  1
  Pr  Pr2  1  0.981546  0.819277  0.099294  1
  Pr  Pr3  1  0.481434  0.680616  0.099430  1
  Pr  Pr4  1  0.981552  0.819259  0.400700  1
  Pr  Pr5  1  0.518697  0.319076  0.599108  1
  Pr  Pr6  1  0.018286  0.180491  0.900851  1
  Nd  Nd7  1  0.367740  0.835438  0.879476  1
  Nd  Nd8  1  0.867326  0.664736  0.620579  1
  Nd  Nd9  1  0.632512  0.164477  0.379273  1
  Nd  Nd10  1  0.132576  0.335431  0.121075  1
  Nd  Nd11  1  0.632496  0.164495  0.120688  1
  Nd  Nd12  1  0.132574  0.335449  0.378908  1
  Nd  Nd13  1  0.367691  0.835429  0.620534  1
  Nd  Nd14  1  0.867278  0.664691  0.879434  1
  Nd  Nd15  1  0.518737  0.319098  0.900756  1
  Nd  Nd16  1  0.197457  0.501638  0.750048  1
  Sm  Sm17  1  0.697893  0.998223  0.750046  1
  Sm  Sm18  1  0.801933  0.498402  0.250011  1
  Sm  Sm19  1  0.301783  0.001529  0.249994  1
  Sn  Sn20  1  0.293067  0.034827  0.043016  1
  Sn  Sn21  1  0.793040  0.465300  0.457018  1
  Sn  Sn22  1  0.706913  0.965347  0.542913  1
  Sn  Sn23  1  0.207327  0.535257  0.958118  1
  Sn  Sn24  1  0.706805  0.965562  0.957062  1
  Sn  Sn25  1  0.207036  0.535484  0.541814  1
  Sn  Sn26  1  0.293011  0.034770  0.456975  1
  Sn  Sn27  1  0.792811  0.465185  0.042889  1
  Sn  Sn28  1  0.568139  0.617088  0.750055  1
  Sn  Sn29  1  0.065653  0.884650  0.750005  1
  Sn  Sn30  1  0.433955  0.383333  0.249998  1
  Sn  Sn31  1  0.933727  0.116621  0.249998  1
  Sn  Sn32  1  0.324548  0.141870  0.750148  1
  Sn  Sn33  1  0.821942  0.355488  0.750083  1
  Sn  Sn34  1  0.676474  0.856528  0.250001  1
  Sn  Sn35  1  0.176306  0.643824  0.249998  1
