# generated using pymatgen
data_Tm13Th3Mg2(CdIr2)2
_symmetry_space_group_name_H-M   'P 1'
_cell_length_a   9.64568920
_cell_length_b   9.64237841
_cell_length_c   9.66840000
_cell_angle_alpha   59.91068851
_cell_angle_beta   59.92208308
_cell_angle_gamma   59.83859035
_symmetry_Int_Tables_number   1
_chemical_formula_structural   Tm13Th3Mg2(CdIr2)2
_chemical_formula_sum   'Tm13 Th3 Mg2 Cd2 Ir4'
_cell_volume   634.27233506
_cell_formula_units_Z   1
loop_
 _symmetry_equiv_pos_site_id
 _symmetry_equiv_pos_as_xyz
  1  'x, y, z'
loop_
 _atom_site_type_symbol
 _atom_site_label
 _atom_site_symmetry_multiplicity
 _atom_site_fract_x
 _atom_site_fract_y
 _atom_site_fract_z
 _atom_site_occupancy
  Tm  Tm0  1  0.202060  0.599817  0.599062  1
  Tm  Tm1  1  0.061955  0.437861  0.438775  1
  Tm  Tm2  1  0.435841  0.063722  0.064116  1
  Tm  Tm3  1  0.435841  0.063722  0.436320  1
  Tm  Tm4  1  0.061955  0.437861  0.061409  1
  Tm  Tm5  1  0.437189  0.437553  0.062629  1
  Tm  Tm6  1  0.063916  0.062440  0.436822  1
  Tm  Tm7  1  0.187803  0.814875  0.814354  1
  Tm  Tm8  1  0.817131  0.185607  0.181376  1
  Tm  Tm9  1  0.817131  0.185607  0.815886  1
  Tm  Tm10  1  0.187803  0.814875  0.182967  1
  Tm  Tm11  1  0.817941  0.817635  0.182212  1
  Tm  Tm12  1  0.185807  0.187603  0.813294  1
  Th  Th13  1  0.597803  0.600169  0.599666  1
  Th  Th14  1  0.597803  0.600169  0.202362  1
  Th  Th15  1  0.597673  0.202030  0.600148  1
  Mg  Mg16  1  0.830391  0.826343  0.830365  1
  Mg  Mg17  1  0.830391  0.826343  0.512901  1
  Cd  Cd18  1  0.835589  0.501035  0.831688  1
  Cd  Cd19  1  0.499708  0.833146  0.833573  1
  Ir  Ir20  1  0.391683  0.392726  0.392158  1
  Ir  Ir21  1  0.391683  0.392726  0.823433  1
  Ir  Ir22  1  0.391472  0.824206  0.392161  1
  Ir  Ir23  1  0.823428  0.391925  0.392323  1
