# generated using pymatgen
data_CsCu2AuS2
_symmetry_space_group_name_H-M   'P 1'
_cell_length_a   5.68853393
_cell_length_b   5.47013140
_cell_length_c   6.50118139
_cell_angle_alpha   90.00000009
_cell_angle_beta   88.69478876
_cell_angle_gamma   118.73789991
_symmetry_Int_Tables_number   1
_chemical_formula_structural   CsCu2AuS2
_chemical_formula_sum   'Cs1 Cu2 Au1 S2'
_cell_volume   177.32026333
_cell_formula_units_Z   1
loop_
 _symmetry_equiv_pos_site_id
 _symmetry_equiv_pos_as_xyz
  1  'x, y, z'
loop_
 _atom_site_type_symbol
 _atom_site_label
 _atom_site_symmetry_multiplicity
 _atom_site_fract_x
 _atom_site_fract_y
 _atom_site_fract_z
 _atom_site_occupancy
  Cs  Cs0  1  0.000000  0.000000  0.500000  1
  Cu  Cu1  1  0.500000  0.000000  0.000000  1
  Cu  Cu2  1  0.500000  0.500000  0.000000  1
  Au  Au3  1  0.000000  0.500000  0.000000  1
  S  S4  1  0.646763  0.323381  0.762645  1
  S  S5  1  0.353237  0.676619  0.237355  1
