# generated using pymatgen
data_Yb2Lu2(Al8Pt3)3
_symmetry_space_group_name_H-M   'P 1'
_cell_length_a   7.52052438
_cell_length_b   7.53658052
_cell_length_c   13.22658764
_cell_angle_alpha   84.70356432
_cell_angle_beta   79.07161529
_cell_angle_gamma   59.86904002
_symmetry_Int_Tables_number   1
_chemical_formula_structural   Yb2Lu2(Al8Pt3)3
_chemical_formula_sum   'Yb2 Lu2 Al24 Pt9'
_cell_volume   636.61309642
_cell_formula_units_Z   1
loop_
 _symmetry_equiv_pos_site_id
 _symmetry_equiv_pos_as_xyz
  1  'x, y, z'
loop_
 _atom_site_type_symbol
 _atom_site_label
 _atom_site_symmetry_multiplicity
 _atom_site_fract_x
 _atom_site_fract_y
 _atom_site_fract_z
 _atom_site_occupancy
  Yb  Yb0  1  0.394815  0.168144  0.807721  1
  Yb  Yb1  1  0.605185  0.831856  0.192279  1
  Lu  Lu2  1  0.733535  0.499916  0.806903  1
  Lu  Lu3  1  0.266465  0.500084  0.193097  1
  Al  Al4  1  0.684201  0.833043  0.945143  1
  Al  Al5  1  0.315799  0.166957  0.054857  1
  Al  Al6  1  0.147520  0.831182  0.561222  1
  Al  Al7  1  0.852480  0.168818  0.438778  1
  Al  Al8  1  0.480194  0.165763  0.559126  1
  Al  Al9  1  0.519806  0.834237  0.440874  1
  Al  Al10  1  0.218314  0.164828  0.328160  1
  Al  Al11  1  0.781686  0.835172  0.671840  1
  Al  Al12  1  0.436447  0.506773  0.671170  1
  Al  Al13  1  0.563553  0.493227  0.328830  1
  Al  Al14  1  0.109833  0.160217  0.669482  1
  Al  Al15  1  0.890167  0.839783  0.330518  1
  Al  Al16  1  0.353383  0.499436  0.944777  1
  Al  Al17  1  0.646617  0.500564  0.055223  1
  Al  Al18  1  0.015126  0.168301  0.953841  1
  Al  Al19  1  0.984874  0.831699  0.046159  1
  Al  Al20  1  0.186015  0.500218  0.441328  1
  Al  Al21  1  0.813985  0.499782  0.558672  1
  Al  Al22  1  0.731268  0.168663  0.182987  1
  Al  Al23  1  0.268732  0.831337  0.817013  1
  Al  Al24  1  0.058093  0.632198  0.815804  1
  Al  Al25  1  0.941907  0.367802  0.184196  1
  Al  Al26  1  0.856490  0.043980  0.816278  1
  Al  Al27  1  0.143510  0.956020  0.183722  1
  Pt  Pt28  1  0.119447  0.492003  0.638520  1
  Pt  Pt29  1  0.880553  0.507997  0.361480  1
  Pt  Pt30  1  0.657471  0.171556  0.999505  1
  Pt  Pt31  1  0.342529  0.828444  0.000495  1
  Pt  Pt32  1  0.537475  0.167606  0.361622  1
  Pt  Pt33  1  0.462525  0.832394  0.638378  1
  Pt  Pt34  1  0.779650  0.175084  0.637173  1
  Pt  Pt35  1  0.220350  0.824916  0.362827  1
  Pt  Pt36  1  0.000000  0.500000  0.000000  1
