# generated using pymatgen
data_HfSc5Al7Cu16
_symmetry_space_group_name_H-M   'P 1'
_cell_length_a   8.45219066
_cell_length_b   8.44887539
_cell_length_c   8.44912221
_cell_angle_alpha   60.02385966
_cell_angle_beta   59.98590595
_cell_angle_gamma   59.98879803
_symmetry_Int_Tables_number   1
_chemical_formula_structural   HfSc5Al7Cu16
_chemical_formula_sum   'Hf1 Sc5 Al7 Cu16'
_cell_volume   426.63840978
_cell_formula_units_Z   1
loop_
 _symmetry_equiv_pos_site_id
 _symmetry_equiv_pos_as_xyz
  1  'x, y, z'
loop_
 _atom_site_type_symbol
 _atom_site_label
 _atom_site_symmetry_multiplicity
 _atom_site_fract_x
 _atom_site_fract_y
 _atom_site_fract_z
 _atom_site_occupancy
  Hf  Hf0  1  0.293426  0.706575  0.706575  1
  Sc  Sc1  1  0.703437  0.705510  0.296561  1
  Sc  Sc2  1  0.294455  0.705546  0.296525  1
  Sc  Sc3  1  0.706412  0.293591  0.293593  1
  Sc  Sc4  1  0.294495  0.296565  0.705508  1
  Sc  Sc5  1  0.703484  0.296516  0.705541  1
  Al  Al6  1  0.000081  0.999917  0.999918  1
  Al  Al7  1  0.000917  0.999083  0.500394  1
  Al  Al8  1  0.499605  0.999096  0.500394  1
  Al  Al9  1  0.000384  0.499614  0.499614  1
  Al  Al10  1  0.499605  0.500395  0.999084  1
  Al  Al11  1  0.000902  0.500395  0.999096  1
  Al  Al12  1  0.500385  0.999615  0.999615  1
  Cu  Cu13  1  0.880297  0.880321  0.359137  1
  Cu  Cu14  1  0.880237  0.359137  0.880316  1
  Cu  Cu15  1  0.359475  0.880146  0.880191  1
  Cu  Cu16  1  0.880181  0.880193  0.880157  1
  Cu  Cu17  1  0.119810  0.119819  0.640526  1
  Cu  Cu18  1  0.119848  0.640523  0.119826  1
  Cu  Cu19  1  0.640862  0.119761  0.119699  1
  Cu  Cu20  1  0.119677  0.119701  0.119754  1
  Cu  Cu21  1  0.671404  0.670512  0.986699  1
  Cu  Cu22  1  0.671383  0.986694  0.670513  1
  Cu  Cu23  1  0.986671  0.670871  0.670907  1
  Cu  Cu24  1  0.671542  0.670911  0.670872  1
  Cu  Cu25  1  0.329092  0.328452  0.013329  1
  Cu  Cu26  1  0.329127  0.013332  0.328448  1
  Cu  Cu27  1  0.013314  0.328611  0.328590  1
  Cu  Cu28  1  0.329491  0.328599  0.328618  1
