# generated using pymatgen
data_Cs2Rb2HfPaTe6
_symmetry_space_group_name_H-M   'P 1'
_cell_length_a   15.11634100
_cell_length_b   7.18971794
_cell_length_c   10.01914342
_cell_angle_alpha   71.08941589
_cell_angle_beta   90.00000000
_cell_angle_gamma   90.00000000
_symmetry_Int_Tables_number   1
_chemical_formula_structural   Cs2Rb2HfPaTe6
_chemical_formula_sum   'Cs4 Rb4 Hf2 Pa2 Te12'
_cell_volume   1030.12985079
_cell_formula_units_Z   2
loop_
 _symmetry_equiv_pos_site_id
 _symmetry_equiv_pos_as_xyz
  1  'x, y, z'
loop_
 _atom_site_type_symbol
 _atom_site_label
 _atom_site_symmetry_multiplicity
 _atom_site_fract_x
 _atom_site_fract_y
 _atom_site_fract_z
 _atom_site_occupancy
  Cs  Cs0  1  0.952752  0.669781  0.663257  1
  Cs  Cs1  1  0.452752  0.830219  0.336743  1
  Cs  Cs2  1  0.047403  0.331559  0.337094  1
  Cs  Cs3  1  0.547403  0.168441  0.662906  1
  Rb  Rb4  1  0.867682  0.083333  0.901881  1
  Rb  Rb5  1  0.367682  0.416667  0.098119  1
  Rb  Rb6  1  0.132277  0.926164  0.099205  1
  Rb  Rb7  1  0.632277  0.573836  0.900795  1
  Hf  Hf8  1  0.250178  0.346394  0.707874  1
  Hf  Hf9  1  0.750178  0.153606  0.292126  1
  Pa  Pa10  1  0.749529  0.652375  0.292487  1
  Pa  Pa11  1  0.249529  0.847625  0.707513  1
  Te  Te12  1  0.908671  0.920391  0.275050  1
  Te  Te13  1  0.408671  0.579609  0.724950  1
  Te  Te14  1  0.091226  0.102687  0.725503  1
  Te  Te15  1  0.591226  0.397313  0.274497  1
  Te  Te16  1  0.816229  0.288852  0.519748  1
  Te  Te17  1  0.316229  0.211148  0.480252  1
  Te  Te18  1  0.184151  0.688781  0.480166  1
  Te  Te19  1  0.684151  0.811219  0.519834  1
  Te  Te20  1  0.840939  0.488306  0.081061  1
  Te  Te21  1  0.340939  0.011694  0.918939  1
  Te  Te22  1  0.158964  0.490509  0.918508  1
  Te  Te23  1  0.658964  0.009491  0.081492  1
