# generated using pymatgen
data_Sm4Th(B3Ru)2
_symmetry_space_group_name_H-M   'P 1'
_cell_length_a   5.56239148
_cell_length_b   5.56239321
_cell_length_c   8.54451594
_cell_angle_alpha   71.00444286
_cell_angle_beta   71.00443712
_cell_angle_gamma   60.00000851
_symmetry_Int_Tables_number   1
_chemical_formula_structural   Sm4Th(B3Ru)2
_chemical_formula_sum   'Sm4 Th1 B6 Ru2'
_cell_volume   212.16393752
_cell_formula_units_Z   1
loop_
 _symmetry_equiv_pos_site_id
 _symmetry_equiv_pos_as_xyz
  1  'x, y, z'
loop_
 _atom_site_type_symbol
 _atom_site_label
 _atom_site_symmetry_multiplicity
 _atom_site_fract_x
 _atom_site_fract_y
 _atom_site_fract_z
 _atom_site_occupancy
  Sm  Sm0  1  0.749542  0.749542  0.751375  1
  Sm  Sm1  1  0.250458  0.250458  0.248625  1
  Sm  Sm2  1  0.584262  0.584262  0.247213  1
  Sm  Sm3  1  0.415738  0.415738  0.752787  1
  Th  Th4  1  0.000000  0.000000  0.000000  1
  B  B5  1  0.500000  0.171458  0.500000  1
  B  B6  1  0.828542  0.500000  0.500000  1
  B  B7  1  0.171458  0.828543  0.500000  1
  B  B8  1  0.171458  0.500000  0.500000  1
  B  B9  1  0.828542  0.171458  0.500000  1
  B  B10  1  0.500000  0.828542  0.500000  1
  Ru  Ru11  1  0.889280  0.889280  0.332160  1
  Ru  Ru12  1  0.110720  0.110720  0.667840  1
