# generated using pymatgen
data_Gd2ErMg3AgSn2
_symmetry_space_group_name_H-M   'P 1'
_cell_length_a   7.51486205
_cell_length_b   7.55668257
_cell_length_c   4.53246600
_cell_angle_alpha   90.00000000
_cell_angle_beta   90.00000000
_cell_angle_gamma   120.18425165
_symmetry_Int_Tables_number   1
_chemical_formula_structural   Gd2ErMg3AgSn2
_chemical_formula_sum   'Gd2 Er1 Mg3 Ag1 Sn2'
_cell_volume   222.48874795
_cell_formula_units_Z   1
loop_
 _symmetry_equiv_pos_site_id
 _symmetry_equiv_pos_as_xyz
  1  'x, y, z'
loop_
 _atom_site_type_symbol
 _atom_site_label
 _atom_site_symmetry_multiplicity
 _atom_site_fract_x
 _atom_site_fract_y
 _atom_site_fract_z
 _atom_site_occupancy
  Gd  Gd0  1  0.416851  0.417973  0.500000  1
  Gd  Gd1  1  0.583149  0.001122  0.500000  1
  Er  Er2  1  0.000000  0.584769  0.500000  1
  Mg  Mg3  1  0.763717  0.763495  0.000000  1
  Mg  Mg4  1  0.236283  0.999779  0.000000  1
  Mg  Mg5  1  0.000000  0.235993  0.000000  1
  Ag  Ag6  1  0.000000  0.995344  0.500000  1
  Sn  Sn7  1  0.670508  0.336017  0.000000  1
  Sn  Sn8  1  0.329492  0.665509  0.000000  1
