# generated using pymatgen
data_HoEr2Si2(PPd5)4
_symmetry_space_group_name_H-M   'P 1'
_cell_length_a   8.68959365
_cell_length_b   8.67417289
_cell_length_c   8.67417227
_cell_angle_alpha   60.11764772
_cell_angle_beta   59.94117231
_cell_angle_gamma   59.94117049
_symmetry_Int_Tables_number   1
_chemical_formula_structural   HoEr2Si2(PPd5)4
_chemical_formula_sum   'Ho1 Er2 Si2 P4 Pd20'
_cell_volume   462.31481011
_cell_formula_units_Z   1
loop_
 _symmetry_equiv_pos_site_id
 _symmetry_equiv_pos_as_xyz
  1  'x, y, z'
loop_
 _atom_site_type_symbol
 _atom_site_label
 _atom_site_symmetry_multiplicity
 _atom_site_fract_x
 _atom_site_fract_y
 _atom_site_fract_z
 _atom_site_occupancy
  Ho  Ho0  1  0.750000  0.750000  0.750000  1
  Er  Er1  1  0.250000  0.250000  0.250000  1
  Er  Er2  1  0.000000  0.000000  0.000000  1
  Si  Si3  1  0.734254  0.265746  0.265746  1
  Si  Si4  1  0.265746  0.734254  0.734254  1
  P  P5  1  0.264864  0.735136  0.264864  1
  P  P6  1  0.735136  0.264864  0.735136  1
  P  P7  1  0.264864  0.264864  0.735136  1
  P  P8  1  0.735136  0.735136  0.264864  1
  Pd  Pd9  1  0.382695  0.384495  0.384495  1
  Pd  Pd10  1  0.617216  0.615405  0.615405  1
  Pd  Pd11  1  0.384495  0.382695  0.848317  1
  Pd  Pd12  1  0.384495  0.848317  0.382695  1
  Pd  Pd13  1  0.615405  0.617216  0.151971  1
  Pd  Pd14  1  0.615405  0.151971  0.617216  1
  Pd  Pd15  1  0.848317  0.384495  0.384495  1
  Pd  Pd16  1  0.151971  0.615405  0.615405  1
  Pd  Pd17  1  0.343527  0.000036  0.000036  1
  Pd  Pd18  1  0.656402  0.000036  0.000036  1
  Pd  Pd19  1  0.000036  0.343527  0.656402  1
  Pd  Pd20  1  0.000036  0.656402  0.343527  1
  Pd  Pd21  1  0.000860  0.345608  0.999210  1
  Pd  Pd22  1  0.654322  0.999210  0.345608  1
  Pd  Pd23  1  0.999210  0.654322  0.000860  1
  Pd  Pd24  1  0.345608  0.000860  0.654322  1
  Pd  Pd25  1  0.000860  0.999210  0.345608  1
  Pd  Pd26  1  0.999210  0.000860  0.654322  1
  Pd  Pd27  1  0.654322  0.345608  0.999210  1
  Pd  Pd28  1  0.345608  0.654322  0.000860  1
