# generated using pymatgen
data_Na2Er3P12Ir16Ru3
_symmetry_space_group_name_H-M   'P 1'
_cell_length_a   12.61860544
_cell_length_b   12.59163791
_cell_length_c   3.99180900
_cell_angle_alpha   90.00000000
_cell_angle_beta   90.00000000
_cell_angle_gamma   119.92933244
_symmetry_Int_Tables_number   1
_chemical_formula_structural   Na2Er3P12Ir16Ru3
_chemical_formula_sum   'Na2 Er3 P12 Ir16 Ru3'
_cell_volume   549.67095586
_cell_formula_units_Z   1
loop_
 _symmetry_equiv_pos_site_id
 _symmetry_equiv_pos_as_xyz
  1  'x, y, z'
loop_
 _atom_site_type_symbol
 _atom_site_label
 _atom_site_symmetry_multiplicity
 _atom_site_fract_x
 _atom_site_fract_y
 _atom_site_fract_z
 _atom_site_occupancy
  Na  Na0  1  0.819196  0.818651  0.500000  1
  Na  Na1  1  0.180804  0.999455  0.500000  1
  Er  Er2  1  0.667133  0.333169  0.000000  1
  Er  Er3  1  0.332867  0.666036  0.000000  1
  Er  Er4  1  0.000000  0.177383  0.500000  1
  P  P5  1  0.689526  0.169477  0.500000  1
  P  P6  1  0.829816  0.521218  0.500000  1
  P  P7  1  0.479415  0.309493  0.500000  1
  P  P8  1  0.170184  0.691402  0.500000  1
  P  P9  1  0.520585  0.830078  0.500000  1
  P  P10  1  0.310474  0.479951  0.500000  1
  P  P11  1  0.642648  0.642667  0.000000  1
  P  P12  1  0.357352  0.000018  0.000000  1
  P  P13  1  0.000000  0.357194  0.000000  1
  P  P14  1  0.182291  0.179644  0.000000  1
  P  P15  1  0.817709  0.997353  0.000000  1
  P  P16  1  0.000000  0.820050  0.000000  1
  Ir  Ir17  1  0.805328  0.182058  0.000000  1
  Ir  Ir18  1  0.817063  0.620095  0.000000  1
  Ir  Ir19  1  0.380847  0.197927  0.000000  1
  Ir  Ir20  1  0.182937  0.803032  0.000000  1
  Ir  Ir21  1  0.619153  0.817080  0.000000  1
  Ir  Ir22  1  0.194672  0.376730  0.000000  1
  Ir  Ir23  1  0.458774  0.461202  0.000000  1
  Ir  Ir24  1  0.541226  0.002429  0.000000  1
  Ir  Ir25  1  0.000000  0.539934  0.000000  1
  Ir  Ir26  1  0.867874  0.362393  0.500000  1
  Ir  Ir27  1  0.636386  0.505720  0.500000  1
  Ir  Ir28  1  0.494274  0.131716  0.500000  1
  Ir  Ir29  1  0.363614  0.869333  0.500000  1
  Ir  Ir30  1  0.505726  0.637441  0.500000  1
  Ir  Ir31  1  0.132126  0.494518  0.500000  1
  Ir  Ir32  1  0.000000  0.003837  0.000000  1
  Ru  Ru33  1  0.285907  0.287197  0.500000  1
  Ru  Ru34  1  0.714093  0.001290  0.500000  1
  Ru  Ru35  1  0.000000  0.712827  0.500000  1
