# generated using pymatgen
data_Ho16Hf3ScIr12
_symmetry_space_group_name_H-M   'P 1'
_cell_length_a   10.78656400
_cell_length_b   10.78656400
_cell_length_c   6.23744800
_cell_angle_alpha   90.00000000
_cell_angle_beta   90.00000000
_cell_angle_gamma   90.00000000
_symmetry_Int_Tables_number   1
_chemical_formula_structural   Ho16Hf3ScIr12
_chemical_formula_sum   'Ho16 Hf3 Sc1 Ir12'
_cell_volume   725.72684355
_cell_formula_units_Z   1
loop_
 _symmetry_equiv_pos_site_id
 _symmetry_equiv_pos_as_xyz
  1  'x, y, z'
loop_
 _atom_site_type_symbol
 _atom_site_label
 _atom_site_symmetry_multiplicity
 _atom_site_fract_x
 _atom_site_fract_y
 _atom_site_fract_z
 _atom_site_occupancy
  Ho  Ho0  1  0.287600  0.085267  0.375032  1
  Ho  Ho1  1  0.289535  0.913885  0.875729  1
  Ho  Ho2  1  0.710465  0.086115  0.875729  1
  Ho  Ho3  1  0.712400  0.914733  0.375032  1
  Ho  Ho4  1  0.586428  0.789135  0.875007  1
  Ho  Ho5  1  0.585513  0.210528  0.374247  1
  Ho  Ho6  1  0.414487  0.789472  0.374247  1
  Ho  Ho7  1  0.413572  0.210865  0.875007  1
  Ho  Ho8  1  0.210528  0.414487  0.625753  1
  Ho  Ho9  1  0.210865  0.586428  0.124993  1
  Ho  Ho10  1  0.789135  0.413572  0.124993  1
  Ho  Ho11  1  0.789472  0.585513  0.625753  1
  Ho  Ho12  1  0.913885  0.710465  0.124271  1
  Ho  Ho13  1  0.914733  0.287600  0.624968  1
  Ho  Ho14  1  0.085267  0.712400  0.624968  1
  Ho  Ho15  1  0.086115  0.289535  0.124271  1
  Hf  Hf16  1  0.000000  0.000000  0.000000  1
  Hf  Hf17  1  0.500000  0.500000  0.000000  1
  Hf  Hf18  1  0.500000  0.500000  0.500000  1
  Sc  Sc19  1  0.000000  0.000000  0.500000  1
  Ir  Ir20  1  0.854644  0.147052  0.243750  1
  Ir  Ir21  1  0.852948  0.854644  0.756250  1
  Ir  Ir22  1  0.147052  0.145356  0.756250  1
  Ir  Ir23  1  0.145356  0.852948  0.243750  1
  Ir  Ir24  1  0.643698  0.356685  0.749065  1
  Ir  Ir25  1  0.643315  0.643698  0.250935  1
  Ir  Ir26  1  0.356685  0.356302  0.250935  1
  Ir  Ir27  1  0.356302  0.643315  0.749065  1
  Ir  Ir28  1  0.500000  0.000000  0.123709  1
  Ir  Ir29  1  0.500000  0.000000  0.622569  1
  Ir  Ir30  1  0.000000  0.500000  0.876291  1
  Ir  Ir31  1  0.000000  0.500000  0.377431  1
