# generated using pymatgen
data_CaDyEr2(B6Os)2
_symmetry_space_group_name_H-M   'P 1'
_cell_length_a   3.63875400
_cell_length_b   9.14354863
_cell_length_c   11.54714587
_cell_angle_alpha   89.80977742
_cell_angle_beta   90.00000000
_cell_angle_gamma   90.00000000
_symmetry_Int_Tables_number   1
_chemical_formula_structural   CaDyEr2(B6Os)2
_chemical_formula_sum   'Ca2 Dy2 Er4 B24 Os4'
_cell_volume   384.18440648
_cell_formula_units_Z   2
loop_
 _symmetry_equiv_pos_site_id
 _symmetry_equiv_pos_as_xyz
  1  'x, y, z'
loop_
 _atom_site_type_symbol
 _atom_site_label
 _atom_site_symmetry_multiplicity
 _atom_site_fract_x
 _atom_site_fract_y
 _atom_site_fract_z
 _atom_site_occupancy
  Ca  Ca0  1  0.000000  0.323588  0.414632  1
  Ca  Ca1  1  0.000000  0.676412  0.585368  1
  Dy  Dy2  1  0.000000  0.822191  0.086535  1
  Dy  Dy3  1  0.000000  0.177809  0.913465  1
  Er  Er4  1  0.000000  0.942344  0.370406  1
  Er  Er5  1  0.000000  0.057656  0.629594  1
  Er  Er6  1  0.000000  0.443069  0.130048  1
  Er  Er7  1  0.000000  0.556931  0.869952  1
  B  B8  1  0.500000  0.554043  0.432186  1
  B  B9  1  0.500000  0.445957  0.567814  1
  B  B10  1  0.500000  0.053755  0.066872  1
  B  B11  1  0.500000  0.946245  0.933128  1
  B  B12  1  0.500000  0.748520  0.417573  1
  B  B13  1  0.500000  0.251480  0.582427  1
  B  B14  1  0.500000  0.248675  0.081158  1
  B  B15  1  0.500000  0.751325  0.918842  1
  B  B16  1  0.500000  0.791555  0.264896  1
  B  B17  1  0.500000  0.208445  0.735104  1
  B  B18  1  0.500000  0.290328  0.233628  1
  B  B19  1  0.500000  0.709672  0.766372  1
  B  B20  1  0.500000  0.631407  0.185150  1
  B  B21  1  0.500000  0.368593  0.814850  1
  B  B22  1  0.500000  0.130389  0.313591  1
  B  B23  1  0.500000  0.869611  0.686409  1
  B  B24  1  0.500000  0.983042  0.211945  1
  B  B25  1  0.500000  0.016958  0.788055  1
  B  B26  1  0.500000  0.483902  0.287489  1
  B  B27  1  0.500000  0.516098  0.712511  1
  B  B28  1  0.500000  0.602852  0.028341  1
  B  B29  1  0.500000  0.397148  0.971659  1
  B  B30  1  0.500000  0.099012  0.472597  1
  B  B31  1  0.500000  0.900988  0.527403  1
  Os  Os32  1  0.000000  0.640407  0.318189  1
  Os  Os33  1  0.000000  0.359593  0.681811  1
  Os  Os34  1  0.000000  0.136763  0.177712  1
  Os  Os35  1  0.000000  0.863237  0.822288  1
