# generated using pymatgen
data_V2FeTe5
_symmetry_space_group_name_H-M   'P 1'
_cell_length_a   7.86136100
_cell_length_b   7.86136090
_cell_length_c   16.55914300
_cell_angle_alpha   90.00000000
_cell_angle_beta   90.00000000
_cell_angle_gamma   155.60937135
_symmetry_Int_Tables_number   1
_chemical_formula_structural   V2FeTe5
_chemical_formula_sum   'V4 Fe2 Te10'
_cell_volume   422.60687310
_cell_formula_units_Z   2
loop_
 _symmetry_equiv_pos_site_id
 _symmetry_equiv_pos_as_xyz
  1  'x, y, z'
loop_
 _atom_site_type_symbol
 _atom_site_label
 _atom_site_symmetry_multiplicity
 _atom_site_fract_x
 _atom_site_fract_y
 _atom_site_fract_z
 _atom_site_occupancy
  V  V0  1  0.220915  0.779085  0.117032  1
  V  V1  1  0.220915  0.779085  0.382968  1
  V  V2  1  0.779085  0.220915  0.882968  1
  V  V3  1  0.779085  0.220915  0.617032  1
  Fe  Fe4  1  0.702337  0.297663  0.250000  1
  Fe  Fe5  1  0.297663  0.702337  0.750000  1
  Te  Te6  1  0.587389  0.412611  0.139643  1
  Te  Te7  1  0.587389  0.412611  0.360357  1
  Te  Te8  1  0.412611  0.587389  0.860357  1
  Te  Te9  1  0.412611  0.587389  0.639643  1
  Te  Te10  1  0.158481  0.841519  0.953348  1
  Te  Te11  1  0.158481  0.841519  0.546652  1
  Te  Te12  1  0.841519  0.158481  0.046652  1
  Te  Te13  1  0.841519  0.158481  0.453348  1
  Te  Te14  1  0.329873  0.670127  0.250000  1
  Te  Te15  1  0.670127  0.329873  0.750000  1
