# generated using pymatgen
data_BaNdAlZn3O7
_symmetry_space_group_name_H-M   'P 1'
_cell_length_a   6.47243000
_cell_length_b   6.47239866
_cell_length_c   10.45702900
_cell_angle_alpha   90.00003541
_cell_angle_beta   89.99994689
_cell_angle_gamma   120.00023308
_symmetry_Int_Tables_number   1
_chemical_formula_structural   BaNdAlZn3O7
_chemical_formula_sum   'Ba2 Nd2 Al2 Zn6 O14'
_cell_volume   379.37660499
_cell_formula_units_Z   2
loop_
 _symmetry_equiv_pos_site_id
 _symmetry_equiv_pos_as_xyz
  1  'x, y, z'
loop_
 _atom_site_type_symbol
 _atom_site_label
 _atom_site_symmetry_multiplicity
 _atom_site_fract_x
 _atom_site_fract_y
 _atom_site_fract_z
 _atom_site_occupancy
  Ba  Ba0  1  0.666681  0.333362  0.480688  1
  Ba  Ba1  1  0.333321  0.666639  0.980690  1
  Nd  Nd2  1  0.333334  0.666667  0.331168  1
  Nd  Nd3  1  0.666666  0.333334  0.831171  1
  Al  Al4  1  0.999999  0.999998  0.392993  1
  Al  Al5  1  0.000001  0.000002  0.892994  1
  Zn  Zn6  1  0.831671  0.168010  0.141262  1
  Zn  Zn7  1  0.336339  0.168320  0.141262  1
  Zn  Zn8  1  0.831986  0.663659  0.141263  1
  Zn  Zn9  1  0.168331  0.831991  0.641262  1
  Zn  Zn10  1  0.663662  0.831681  0.641263  1
  Zn  Zn11  1  0.168013  0.336338  0.641264  1
  O  O12  1  0.493439  0.987222  0.185311  1
  O  O13  1  0.493788  0.506551  0.185317  1
  O  O14  1  0.012765  0.506207  0.185317  1
  O  O15  1  0.999999  0.000000  0.219914  1
  O  O16  1  0.700213  0.849317  0.448833  1
  O  O17  1  0.150663  0.850875  0.448832  1
  O  O18  1  0.149113  0.299784  0.448835  1
  O  O19  1  0.506563  0.012778  0.685310  1
  O  O20  1  0.987234  0.493792  0.685316  1
  O  O21  1  0.506213  0.493448  0.685317  1
  O  O22  1  0.000001  0.000000  0.719914  1
  O  O23  1  0.849338  0.149124  0.948833  1
  O  O24  1  0.299787  0.150684  0.948834  1
  O  O25  1  0.850888  0.700215  0.948835  1
