# generated using pymatgen
data_Y6HoEr3(In2Pd)4
_symmetry_space_group_name_H-M   'P 1'
_cell_length_a   3.62987300
_cell_length_b   8.16123368
_cell_length_c   18.22946725
_cell_angle_alpha   89.99496405
_cell_angle_beta   90.00000000
_cell_angle_gamma   90.00000000
_symmetry_Int_Tables_number   1
_chemical_formula_structural   Y6HoEr3(In2Pd)4
_chemical_formula_sum   'Y6 Ho1 Er3 In8 Pd4'
_cell_volume   540.03414341
_cell_formula_units_Z   1
loop_
 _symmetry_equiv_pos_site_id
 _symmetry_equiv_pos_as_xyz
  1  'x, y, z'
loop_
 _atom_site_type_symbol
 _atom_site_label
 _atom_site_symmetry_multiplicity
 _atom_site_fract_x
 _atom_site_fract_y
 _atom_site_fract_z
 _atom_site_occupancy
  Y  Y0  1  0.000000  0.500001  0.500100  1
  Y  Y1  1  0.000000  0.999774  0.999851  1
  Y  Y2  1  0.000000  0.738874  0.281360  1
  Y  Y3  1  0.000000  0.261227  0.718590  1
  Y  Y4  1  0.000000  0.761248  0.781212  1
  Y  Y5  1  0.000000  0.239095  0.218967  1
  Ho  Ho6  1  0.000000  0.617051  0.083561  1
  Er  Er7  1  0.000000  0.382864  0.916195  1
  Er  Er8  1  0.000000  0.883043  0.583718  1
  Er  Er9  1  0.000000  0.116818  0.416277  1
  In  In10  1  0.500000  0.707143  0.932802  1
  In  In11  1  0.500000  0.292081  0.066986  1
  In  In12  1  0.500000  0.792914  0.433110  1
  In  In13  1  0.500000  0.206915  0.566768  1
  In  In14  1  0.500000  0.581935  0.650242  1
  In  In15  1  0.500000  0.418125  0.350020  1
  In  In16  1  0.500000  0.919277  0.150357  1
  In  In17  1  0.500000  0.081888  0.849633  1
  Pd  Pd18  1  0.500000  0.523345  0.195301  1
  Pd  Pd19  1  0.500000  0.476127  0.805011  1
  Pd  Pd20  1  0.500000  0.976325  0.694771  1
  Pd  Pd21  1  0.500000  0.023930  0.305170  1
