# generated using pymatgen
data_Sc4UMn5Tc2
_symmetry_space_group_name_H-M   'P 1'
_cell_length_a   4.97692522
_cell_length_b   5.28444662
_cell_length_c   8.57554000
_cell_angle_alpha   90.00000000
_cell_angle_beta   90.00000000
_cell_angle_gamma   122.06592615
_symmetry_Int_Tables_number   1
_chemical_formula_structural   Sc4UMn5Tc2
_chemical_formula_sum   'Sc4 U1 Mn5 Tc2'
_cell_volume   191.13047419
_cell_formula_units_Z   1
loop_
 _symmetry_equiv_pos_site_id
 _symmetry_equiv_pos_as_xyz
  1  'x, y, z'
loop_
 _atom_site_type_symbol
 _atom_site_label
 _atom_site_symmetry_multiplicity
 _atom_site_fract_x
 _atom_site_fract_y
 _atom_site_fract_z
 _atom_site_occupancy
  Sc  Sc0  1  0.324739  0.662370  0.427798  1
  Sc  Sc1  1  0.666483  0.333242  0.558090  1
  Sc  Sc2  1  0.666483  0.333242  0.941910  1
  Sc  Sc3  1  0.324739  0.662370  0.072202  1
  U  U4  1  0.648684  0.824341  0.750000  1
  Mn  Mn5  1  0.807637  0.159691  0.250000  1
  Mn  Mn6  1  0.807637  0.647945  0.250000  1
  Mn  Mn7  1  0.339794  0.169897  0.250000  1
  Mn  Mn8  1  0.206156  0.839775  0.750000  1
  Mn  Mn9  1  0.206156  0.366381  0.750000  1
  Tc  Tc10  1  0.000746  0.000373  0.493573  1
  Tc  Tc11  1  0.000746  0.000373  0.006427  1
