# generated using pymatgen
data_TbTm4In2(NiHg)2
_symmetry_space_group_name_H-M   'P 1'
_cell_length_a   3.58024600
_cell_length_b   7.73019300
_cell_length_c   17.88781700
_cell_angle_alpha   90.00000000
_cell_angle_beta   90.00000000
_cell_angle_gamma   90.00000000
_symmetry_Int_Tables_number   1
_chemical_formula_structural   TbTm4In2(NiHg)2
_chemical_formula_sum   'Tb2 Tm8 In4 Ni4 Hg4'
_cell_volume   495.06309034
_cell_formula_units_Z   2
loop_
 _symmetry_equiv_pos_site_id
 _symmetry_equiv_pos_as_xyz
  1  'x, y, z'
loop_
 _atom_site_type_symbol
 _atom_site_label
 _atom_site_symmetry_multiplicity
 _atom_site_fract_x
 _atom_site_fract_y
 _atom_site_fract_z
 _atom_site_occupancy
  Tb  Tb0  1  0.000000  0.500000  0.500000  1
  Tb  Tb1  1  0.000000  0.000000  0.000000  1
  Tm  Tm2  1  0.000000  0.748532  0.281409  1
  Tm  Tm3  1  0.000000  0.251468  0.718591  1
  Tm  Tm4  1  0.000000  0.751468  0.781409  1
  Tm  Tm5  1  0.000000  0.248532  0.218591  1
  Tm  Tm6  1  0.000000  0.610340  0.089196  1
  Tm  Tm7  1  0.000000  0.389660  0.910804  1
  Tm  Tm8  1  0.000000  0.889660  0.589196  1
  Tm  Tm9  1  0.000000  0.110340  0.410804  1
  In  In10  1  0.500000  0.576588  0.653162  1
  In  In11  1  0.500000  0.423412  0.346838  1
  In  In12  1  0.500000  0.923412  0.153162  1
  In  In13  1  0.500000  0.076588  0.846838  1
  Ni  Ni14  1  0.500000  0.533646  0.197549  1
  Ni  Ni15  1  0.500000  0.466354  0.802451  1
  Ni  Ni16  1  0.500000  0.966354  0.697549  1
  Ni  Ni17  1  0.500000  0.033646  0.302451  1
  Hg  Hg18  1  0.500000  0.707847  0.930530  1
  Hg  Hg19  1  0.500000  0.292153  0.069470  1
  Hg  Hg20  1  0.500000  0.792153  0.430530  1
  Hg  Hg21  1  0.500000  0.207847  0.569470  1
