# generated using pymatgen
data_Ho2ThBC3
_symmetry_space_group_name_H-M   'P 1'
_cell_length_a   3.70974928
_cell_length_b   3.70974871
_cell_length_c   16.13797500
_cell_angle_alpha   90.00000000
_cell_angle_beta   90.00000000
_cell_angle_gamma   90.41469393
_symmetry_Int_Tables_number   1
_chemical_formula_structural   Ho2ThBC3
_chemical_formula_sum   'Ho4 Th2 B2 C6'
_cell_volume   222.08882922
_cell_formula_units_Z   2
loop_
 _symmetry_equiv_pos_site_id
 _symmetry_equiv_pos_as_xyz
  1  'x, y, z'
loop_
 _atom_site_type_symbol
 _atom_site_label
 _atom_site_symmetry_multiplicity
 _atom_site_fract_x
 _atom_site_fract_y
 _atom_site_fract_z
 _atom_site_occupancy
  Ho  Ho0  1  0.588144  0.411855  0.099919  1
  Ho  Ho1  1  0.588144  0.411855  0.400081  1
  Ho  Ho2  1  0.411855  0.588144  0.599919  1
  Ho  Ho3  1  0.411855  0.588144  0.900081  1
  Th  Th4  1  0.093440  0.906559  0.250000  1
  Th  Th5  1  0.906559  0.093440  0.750000  1
  B  B6  1  0.000000  0.000000  0.000000  1
  B  B7  1  0.000000  0.000000  0.500000  1
  C  C8  1  0.082074  0.917924  0.087396  1
  C  C9  1  0.598115  0.401883  0.250000  1
  C  C10  1  0.082074  0.917924  0.412604  1
  C  C11  1  0.917924  0.082074  0.587395  1
  C  C12  1  0.401883  0.598115  0.750000  1
  C  C13  1  0.917924  0.082074  0.912604  1
