# generated using pymatgen
data_Ca2AlGa3(SiO4)4
_symmetry_space_group_name_H-M   'P 1'
_cell_length_a   8.38020267
_cell_length_b   8.77815905
_cell_length_c   4.94627716
_cell_angle_alpha   89.96517885
_cell_angle_beta   90.00412969
_cell_angle_gamma   90.04397004
_symmetry_Int_Tables_number   1
_chemical_formula_structural   Ca2AlGa3(SiO4)4
_chemical_formula_sum   'Ca2 Al1 Ga3 Si4 O16'
_cell_volume   363.86158392
_cell_formula_units_Z   1
loop_
 _symmetry_equiv_pos_site_id
 _symmetry_equiv_pos_as_xyz
  1  'x, y, z'
loop_
 _atom_site_type_symbol
 _atom_site_label
 _atom_site_symmetry_multiplicity
 _atom_site_fract_x
 _atom_site_fract_y
 _atom_site_fract_z
 _atom_site_occupancy
  Ca  Ca0  1  0.249774  0.013572  0.362377  1
  Ca  Ca1  1  0.748291  0.509064  0.638804  1
  Al  Al2  1  0.572894  0.139947  0.896869  1
  Ga  Ga3  1  0.426607  0.640343  0.106981  1
  Ga  Ga4  1  0.066741  0.346163  0.396043  1
  Ga  Ga5  1  0.932781  0.845321  0.601636  1
  Si  Si6  1  0.047611  0.654085  0.111400  1
  Si  Si7  1  0.455649  0.325620  0.402809  1
  Si  Si8  1  0.547690  0.830636  0.599178  1
  Si  Si9  1  0.949238  0.154317  0.887620  1
  O  O10  1  0.222068  0.594728  0.017521  1
  O  O11  1  0.062104  0.183182  0.155227  1
  O  O12  1  0.460112  0.180892  0.190941  1
  O  O13  1  0.536313  0.480735  0.272318  1
  O  O14  1  0.955580  0.518336  0.287177  1
  O  O15  1  0.063299  0.808160  0.300957  1
  O  O16  1  0.425397  0.805852  0.341184  1
  O  O17  1  0.728140  0.840507  0.480584  1
  O  O18  1  0.272782  0.336135  0.509783  1
  O  O19  1  0.570692  0.296194  0.667582  1
  O  O20  1  0.938628  0.309188  0.698804  1
  O  O21  1  0.042100  0.017952  0.714740  1
  O  O22  1  0.473120  0.984601  0.739490  1
  O  O23  1  0.547429  0.681472  0.802450  1
  O  O24  1  0.933449  0.684019  0.845981  1
  O  O25  1  0.771515  0.101384  0.971546  1
