# generated using pymatgen
data_TbTa3(NiH6)2
_symmetry_space_group_name_H-M   'P 1'
_cell_length_a   5.96769300
_cell_length_b   5.96750678
_cell_length_c   4.63272300
_cell_angle_alpha   90.00000000
_cell_angle_beta   90.00000000
_cell_angle_gamma   119.99808877
_symmetry_Int_Tables_number   1
_chemical_formula_structural   TbTa3(NiH6)2
_chemical_formula_sum   'Tb1 Ta3 Ni2 H12'
_cell_volume   142.88107984
_cell_formula_units_Z   1
loop_
 _symmetry_equiv_pos_site_id
 _symmetry_equiv_pos_as_xyz
  1  'x, y, z'
loop_
 _atom_site_type_symbol
 _atom_site_label
 _atom_site_symmetry_multiplicity
 _atom_site_fract_x
 _atom_site_fract_y
 _atom_site_fract_z
 _atom_site_occupancy
  Tb  Tb0  1  0.000000  0.000000  0.000000  1
  Ta  Ta1  1  0.500000  0.000000  0.500000  1
  Ta  Ta2  1  0.000000  0.500000  0.500000  1
  Ta  Ta3  1  0.500000  0.500000  0.500000  1
  Ni  Ni4  1  0.666781  0.333445  0.000000  1
  Ni  Ni5  1  0.333219  0.666555  0.000000  1
  H  H6  1  0.797451  0.594952  0.758491  1
  H  H7  1  0.202549  0.405048  0.241509  1
  H  H8  1  0.202484  0.797487  0.241535  1
  H  H9  1  0.797516  0.202513  0.241535  1
  H  H10  1  0.594926  0.797425  0.241499  1
  H  H11  1  0.405074  0.202575  0.241499  1
  H  H12  1  0.405074  0.202575  0.758501  1
  H  H13  1  0.202549  0.405048  0.758491  1
  H  H14  1  0.797516  0.202513  0.758465  1
  H  H15  1  0.594926  0.797425  0.758501  1
  H  H16  1  0.797451  0.594952  0.241509  1
  H  H17  1  0.202484  0.797487  0.758465  1
