# generated using pymatgen
data_YHo2Er(WO6)2
_symmetry_space_group_name_H-M   'P 1'
_cell_length_a   5.38636100
_cell_length_b   7.69415910
_cell_length_c   11.44757667
_cell_angle_alpha   75.38535525
_cell_angle_beta   90.00000000
_cell_angle_gamma   90.00000000
_symmetry_Int_Tables_number   1
_chemical_formula_structural   YHo2Er(WO6)2
_chemical_formula_sum   'Y2 Ho4 Er2 W4 O24'
_cell_volume   459.07760461
_cell_formula_units_Z   2
loop_
 _symmetry_equiv_pos_site_id
 _symmetry_equiv_pos_as_xyz
  1  'x, y, z'
loop_
 _atom_site_type_symbol
 _atom_site_label
 _atom_site_symmetry_multiplicity
 _atom_site_fract_x
 _atom_site_fract_y
 _atom_site_fract_z
 _atom_site_occupancy
  Y  Y0  1  0.684333  0.500000  0.250000  1
  Y  Y1  1  0.315718  0.500000  0.750000  1
  Ho  Ho2  1  0.183763  0.205186  0.422124  1
  Ho  Ho3  1  0.183763  0.794814  0.077876  1
  Ho  Ho4  1  0.740798  0.000000  0.250000  1
  Ho  Ho5  1  0.259167  0.000000  0.750000  1
  Er  Er6  1  0.816166  0.794477  0.578081  1
  Er  Er7  1  0.816166  0.205523  0.921919  1
  W  W8  1  0.255914  0.275582  0.114763  1
  W  W9  1  0.255914  0.724418  0.385237  1
  W  W10  1  0.744306  0.724144  0.884931  1
  W  W11  1  0.744306  0.275856  0.615069  1
  O  O12  1  0.458038  0.207542  0.273400  1
  O  O13  1  0.458038  0.792458  0.226600  1
  O  O14  1  0.542508  0.792458  0.726192  1
  O  O15  1  0.542508  0.207542  0.773808  1
  O  O16  1  0.043756  0.059989  0.104262  1
  O  O17  1  0.043756  0.940011  0.395738  1
  O  O18  1  0.955561  0.940743  0.895595  1
  O  O19  1  0.955561  0.059257  0.604405  1
  O  O20  1  0.981037  0.287896  0.229074  1
  O  O21  1  0.981037  0.712104  0.270926  1
  O  O22  1  0.018798  0.712297  0.770678  1
  O  O23  1  0.018798  0.287703  0.729322  1
  O  O24  1  0.849490  0.364756  0.451840  1
  O  O25  1  0.849490  0.635244  0.048160  1
  O  O26  1  0.149715  0.635540  0.548277  1
  O  O27  1  0.149715  0.364460  0.951723  1
  O  O28  1  0.641257  0.510367  0.614251  1
  O  O29  1  0.641257  0.489633  0.885749  1
  O  O30  1  0.359103  0.490050  0.385736  1
  O  O31  1  0.359103  0.509950  0.114264  1
  O  O32  1  0.464488  0.153503  0.569627  1
  O  O33  1  0.464488  0.846497  0.930373  1
  O  O34  1  0.536092  0.846389  0.430863  1
  O  O35  1  0.536092  0.153611  0.069137  1
