# generated using pymatgen
data_Ac2SiSe5
_symmetry_space_group_name_H-M   'P 1'
_cell_length_a   13.63806600
_cell_length_b   8.21206523
_cell_length_c   8.51694333
_cell_angle_alpha   78.61738479
_cell_angle_beta   90.00000000
_cell_angle_gamma   90.00000000
_symmetry_Int_Tables_number   1
_chemical_formula_structural   Ac2SiSe5
_chemical_formula_sum   'Ac8 Si4 Se20'
_cell_volume   935.10788178
_cell_formula_units_Z   4
loop_
 _symmetry_equiv_pos_site_id
 _symmetry_equiv_pos_as_xyz
  1  'x, y, z'
loop_
 _atom_site_type_symbol
 _atom_site_label
 _atom_site_symmetry_multiplicity
 _atom_site_fract_x
 _atom_site_fract_y
 _atom_site_fract_z
 _atom_site_occupancy
  Ac  Ac0  1  0.837735  0.838310  0.628990  1
  Ac  Ac1  1  0.162265  0.161690  0.371010  1
  Ac  Ac2  1  0.337735  0.161690  0.871010  1
  Ac  Ac3  1  0.662265  0.838310  0.128990  1
  Ac  Ac4  1  0.402741  0.758358  0.543817  1
  Ac  Ac5  1  0.597259  0.241642  0.456183  1
  Ac  Ac6  1  0.902741  0.241642  0.956183  1
  Ac  Ac7  1  0.097259  0.758358  0.043817  1
  Si  Si8  1  0.116662  0.667133  0.593994  1
  Si  Si9  1  0.883338  0.332867  0.406006  1
  Si  Si10  1  0.616662  0.332867  0.906006  1
  Si  Si11  1  0.383338  0.667133  0.093994  1
  Se  Se12  1  0.471104  0.822952  0.886414  1
  Se  Se13  1  0.528896  0.177048  0.113586  1
  Se  Se14  1  0.971104  0.177048  0.613586  1
  Se  Se15  1  0.028896  0.822952  0.386414  1
  Se  Se16  1  0.201821  0.870817  0.692128  1
  Se  Se17  1  0.798179  0.129183  0.307872  1
  Se  Se18  1  0.701821  0.129183  0.807872  1
  Se  Se19  1  0.298179  0.870817  0.192128  1
  Se  Se20  1  0.227946  0.473013  0.549571  1
  Se  Se21  1  0.772054  0.526987  0.450429  1
  Se  Se22  1  0.727946  0.526987  0.950429  1
  Se  Se23  1  0.272054  0.473013  0.049571  1
  Se  Se24  1  0.878071  0.859089  0.996934  1
  Se  Se25  1  0.121929  0.140911  0.003066  1
  Se  Se26  1  0.378071  0.140911  0.503066  1
  Se  Se27  1  0.621929  0.859089  0.496934  1
  Se  Se28  1  0.499086  0.420960  0.718452  1
  Se  Se29  1  0.500914  0.579040  0.281548  1
  Se  Se30  1  0.999086  0.579040  0.781548  1
  Se  Se31  1  0.000914  0.420960  0.218452  1
