# generated using pymatgen
data_Dy2Ho2BOs2C3
_symmetry_space_group_name_H-M   'P 1'
_cell_length_a   5.13342400
_cell_length_b   6.55239672
_cell_length_c   9.80849737
_cell_angle_alpha   90.29390711
_cell_angle_beta   90.00000000
_cell_angle_gamma   90.00000000
_symmetry_Int_Tables_number   1
_chemical_formula_structural   Dy2Ho2BOs2C3
_chemical_formula_sum   'Dy4 Ho4 B2 Os4 C6'
_cell_volume   329.91653855
_cell_formula_units_Z   2
loop_
 _symmetry_equiv_pos_site_id
 _symmetry_equiv_pos_as_xyz
  1  'x, y, z'
loop_
 _atom_site_type_symbol
 _atom_site_label
 _atom_site_symmetry_multiplicity
 _atom_site_fract_x
 _atom_site_fract_y
 _atom_site_fract_z
 _atom_site_occupancy
  Dy  Dy0  1  0.250000  0.522937  0.211523  1
  Dy  Dy1  1  0.750000  0.477063  0.788477  1
  Dy  Dy2  1  0.750000  0.974079  0.715634  1
  Dy  Dy3  1  0.250000  0.025921  0.284366  1
  Ho  Ho4  1  0.250000  0.679613  0.550122  1
  Ho  Ho5  1  0.750000  0.320387  0.449878  1
  Ho  Ho6  1  0.750000  0.825940  0.052972  1
  Ho  Ho7  1  0.250000  0.174060  0.947028  1
  B  B8  1  0.250000  0.453095  0.757410  1
  B  B9  1  0.750000  0.546905  0.242590  1
  Os  Os10  1  0.250000  0.727795  0.863282  1
  Os  Os11  1  0.750000  0.272205  0.136718  1
  Os  Os12  1  0.750000  0.786383  0.370530  1
  Os  Os13  1  0.250000  0.213617  0.629470  1
  C  C14  1  0.750000  0.043211  0.260390  1
  C  C15  1  0.250000  0.956789  0.739610  1
  C  C16  1  0.250000  0.823273  0.050874  1
  C  C17  1  0.750000  0.176727  0.949126  1
  C  C18  1  0.750000  0.674784  0.552756  1
  C  C19  1  0.250000  0.325216  0.447244  1
