# generated using pymatgen
data_Tb8GaPt23Au
_symmetry_space_group_name_H-M   'P 1'
_cell_length_a   8.38681200
_cell_length_b   8.39220100
_cell_length_c   8.38431000
_cell_angle_alpha   90.00000000
_cell_angle_beta   90.00000000
_cell_angle_gamma   90.00000000
_symmetry_Int_Tables_number   1
_chemical_formula_structural   Tb8GaPt23Au
_chemical_formula_sum   'Tb8 Ga1 Pt23 Au1'
_cell_volume   590.11969924
_cell_formula_units_Z   1
loop_
 _symmetry_equiv_pos_site_id
 _symmetry_equiv_pos_as_xyz
  1  'x, y, z'
loop_
 _atom_site_type_symbol
 _atom_site_label
 _atom_site_symmetry_multiplicity
 _atom_site_fract_x
 _atom_site_fract_y
 _atom_site_fract_z
 _atom_site_occupancy
  Tb  Tb0  1  0.255200  0.247761  0.749013  1
  Tb  Tb1  1  0.250862  0.748418  0.251264  1
  Tb  Tb2  1  0.749138  0.251582  0.251264  1
  Tb  Tb3  1  0.744800  0.752239  0.749013  1
  Tb  Tb4  1  0.749138  0.748418  0.251264  1
  Tb  Tb5  1  0.744800  0.247761  0.749013  1
  Tb  Tb6  1  0.255200  0.752239  0.749013  1
  Tb  Tb7  1  0.250862  0.251582  0.251264  1
  Ga  Ga8  1  0.000000  0.000000  0.000463  1
  Pt  Pt9  1  0.500000  0.500000  0.747506  1
  Pt  Pt10  1  0.500000  0.253398  0.499210  1
  Pt  Pt11  1  0.255404  0.500000  0.500079  1
  Pt  Pt12  1  0.500000  0.500000  0.252378  1
  Pt  Pt13  1  0.500000  0.746602  0.499210  1
  Pt  Pt14  1  0.744596  0.500000  0.500079  1
  Pt  Pt15  1  0.000000  0.000000  0.707018  1
  Pt  Pt16  1  0.000000  0.292500  0.999292  1
  Pt  Pt17  1  0.293446  0.000000  0.001072  1
  Pt  Pt18  1  0.000000  0.000000  0.294067  1
  Pt  Pt19  1  0.000000  0.707500  0.999292  1
  Pt  Pt20  1  0.706554  0.000000  0.001072  1
  Pt  Pt21  1  0.500000  0.261048  0.000976  1
  Pt  Pt22  1  0.260852  0.000000  0.499429  1
  Pt  Pt23  1  0.000000  0.259948  0.500000  1
  Pt  Pt24  1  0.500000  0.000000  0.739249  1
  Pt  Pt25  1  0.261127  0.500000  0.999742  1
  Pt  Pt26  1  0.000000  0.500000  0.260825  1
  Pt  Pt27  1  0.500000  0.738952  0.000976  1
  Pt  Pt28  1  0.000000  0.740052  0.500000  1
  Pt  Pt29  1  0.500000  0.000000  0.261254  1
  Pt  Pt30  1  0.739148  0.000000  0.499429  1
  Pt  Pt31  1  0.738873  0.500000  0.999742  1
  Au  Au32  1  0.000000  0.500000  0.736527  1
