# generated using pymatgen
data_Lu12TcIrOs2
_symmetry_space_group_name_H-M   'P 1'
_cell_length_a   6.16161359
_cell_length_b   7.30828862
_cell_length_c   8.85428500
_cell_angle_alpha   90.00000000
_cell_angle_beta   90.00000000
_cell_angle_gamma   89.85073523
_symmetry_Int_Tables_number   1
_chemical_formula_structural   Lu12TcIrOs2
_chemical_formula_sum   'Lu12 Tc1 Ir1 Os2'
_cell_volume   398.71463095
_cell_formula_units_Z   1
loop_
 _symmetry_equiv_pos_site_id
 _symmetry_equiv_pos_as_xyz
  1  'x, y, z'
loop_
 _atom_site_type_symbol
 _atom_site_label
 _atom_site_symmetry_multiplicity
 _atom_site_fract_x
 _atom_site_fract_y
 _atom_site_fract_z
 _atom_site_occupancy
  Lu  Lu0  1  0.332519  0.675646  0.063592  1
  Lu  Lu1  1  0.164226  0.175123  0.438007  1
  Lu  Lu2  1  0.665181  0.323338  0.560943  1
  Lu  Lu3  1  0.835132  0.825609  0.939359  1
  Lu  Lu4  1  0.665181  0.323338  0.939057  1
  Lu  Lu5  1  0.835132  0.825609  0.560641  1
  Lu  Lu6  1  0.332519  0.675646  0.436408  1
  Lu  Lu7  1  0.164226  0.175123  0.061993  1
  Lu  Lu8  1  0.874785  0.539461  0.250000  1
  Lu  Lu9  1  0.625808  0.038252  0.250000  1
  Lu  Lu10  1  0.129736  0.459672  0.750000  1
  Lu  Lu11  1  0.372266  0.961802  0.750000  1
  Tc  Tc12  1  0.461862  0.384474  0.250000  1
  Ir  Ir13  1  0.542136  0.617583  0.750000  1
  Os  Os14  1  0.039298  0.882770  0.250000  1
  Os  Os15  1  0.959994  0.116553  0.750000  1
