# generated using pymatgen
data_HoTm(Sc4Bi3)2
_symmetry_space_group_name_H-M   'P 1'
_cell_length_a   7.87538100
_cell_length_b   9.06387200
_cell_length_c   11.54435300
_cell_angle_alpha   90.00000000
_cell_angle_beta   90.00000000
_cell_angle_gamma   90.00000000
_symmetry_Int_Tables_number   1
_chemical_formula_structural   HoTm(Sc4Bi3)2
_chemical_formula_sum   'Ho2 Tm2 Sc16 Bi12'
_cell_volume   824.05260260
_cell_formula_units_Z   2
loop_
 _symmetry_equiv_pos_site_id
 _symmetry_equiv_pos_as_xyz
  1  'x, y, z'
loop_
 _atom_site_type_symbol
 _atom_site_label
 _atom_site_symmetry_multiplicity
 _atom_site_fract_x
 _atom_site_fract_y
 _atom_site_fract_z
 _atom_site_occupancy
  Ho  Ho0  1  0.684252  0.750000  0.781233  1
  Ho  Ho1  1  0.184252  0.750000  0.718767  1
  Tm  Tm2  1  0.315593  0.250000  0.218586  1
  Tm  Tm3  1  0.815593  0.250000  0.281414  1
  Sc  Sc4  1  0.350082  0.750000  0.220161  1
  Sc  Sc5  1  0.850082  0.750000  0.279839  1
  Sc  Sc6  1  0.649930  0.250000  0.779810  1
  Sc  Sc7  1  0.149930  0.250000  0.720190  1
  Sc  Sc8  1  0.693282  0.567250  0.061639  1
  Sc  Sc9  1  0.193282  0.932750  0.438361  1
  Sc  Sc10  1  0.306752  0.067251  0.938461  1
  Sc  Sc11  1  0.806752  0.432749  0.561539  1
  Sc  Sc12  1  0.306752  0.432749  0.938461  1
  Sc  Sc13  1  0.806752  0.067251  0.561539  1
  Sc  Sc14  1  0.693282  0.932750  0.061639  1
  Sc  Sc15  1  0.193282  0.567250  0.438361  1
  Sc  Sc16  1  0.481628  0.250000  0.488928  1
  Sc  Sc17  1  0.981628  0.250000  0.011072  1
  Sc  Sc18  1  0.518403  0.750000  0.510871  1
  Sc  Sc19  1  0.018403  0.750000  0.989129  1
  Bi  Bi20  1  0.402113  0.750000  0.966099  1
  Bi  Bi21  1  0.902113  0.750000  0.533901  1
  Bi  Bi22  1  0.597690  0.250000  0.034372  1
  Bi  Bi23  1  0.097690  0.250000  0.465628  1
  Bi  Bi24  1  0.564646  0.991086  0.328043  1
  Bi  Bi25  1  0.064646  0.508914  0.171957  1
  Bi  Bi26  1  0.435474  0.490527  0.671796  1
  Bi  Bi27  1  0.935474  0.009473  0.828204  1
  Bi  Bi28  1  0.435474  0.009473  0.671796  1
  Bi  Bi29  1  0.935474  0.490527  0.828204  1
  Bi  Bi30  1  0.564646  0.508914  0.328043  1
  Bi  Bi31  1  0.064646  0.991086  0.171957  1
