# generated using pymatgen
data_Na3Si4NiPt3
_symmetry_space_group_name_H-M   'P 1'
_cell_length_a   6.22041525
_cell_length_b   6.47448919
_cell_length_c   6.47449015
_cell_angle_alpha   110.25246278
_cell_angle_beta   108.67818737
_cell_angle_gamma   108.67820869
_symmetry_Int_Tables_number   1
_chemical_formula_structural   Na3Si4NiPt3
_chemical_formula_sum   'Na3 Si4 Ni1 Pt3'
_cell_volume   202.65892097
_cell_formula_units_Z   1
loop_
 _symmetry_equiv_pos_site_id
 _symmetry_equiv_pos_as_xyz
  1  'x, y, z'
loop_
 _atom_site_type_symbol
 _atom_site_label
 _atom_site_symmetry_multiplicity
 _atom_site_fract_x
 _atom_site_fract_y
 _atom_site_fract_z
 _atom_site_occupancy
  Na  Na0  1  0.492309  0.509338  0.000000  1
  Na  Na1  1  0.492309  0.000000  0.509338  1
  Na  Na2  1  0.982971  0.490662  0.490662  1
  Si  Si3  1  0.384190  0.000000  0.000000  1
  Si  Si4  1  0.989304  0.357201  0.000000  1
  Si  Si5  1  0.989304  0.000000  0.357201  1
  Si  Si6  1  0.632102  0.642799  0.642799  1
  Ni  Ni7  1  0.741903  0.000000  0.000000  1
  Pt  Pt8  1  0.004192  0.716967  0.000000  1
  Pt  Pt9  1  0.287226  0.283034  0.283034  1
  Pt  Pt10  1  0.004192  0.000000  0.716967  1
