# generated using pymatgen
data_Dy19YZn3Cd3Ru2
_symmetry_space_group_name_H-M   'P 1'
_cell_length_a   9.54223900
_cell_length_b   9.54275007
_cell_length_c   9.71504400
_cell_angle_alpha   90.00000000
_cell_angle_beta   90.00000000
_cell_angle_gamma   120.00177107
_symmetry_Int_Tables_number   1
_chemical_formula_structural   Dy19YZn3Cd3Ru2
_chemical_formula_sum   'Dy19 Y1 Zn3 Cd3 Ru2'
_cell_volume   766.11063689
_cell_formula_units_Z   1
loop_
 _symmetry_equiv_pos_site_id
 _symmetry_equiv_pos_as_xyz
  1  'x, y, z'
loop_
 _atom_site_type_symbol
 _atom_site_label
 _atom_site_symmetry_multiplicity
 _atom_site_fract_x
 _atom_site_fract_y
 _atom_site_fract_z
 _atom_site_occupancy
  Dy  Dy0  1  0.999989  0.999995  0.474616  1
  Dy  Dy1  1  0.999989  0.999995  0.025384  1
  Dy  Dy2  1  0.208326  0.791749  0.438350  1
  Dy  Dy3  1  0.208326  0.416577  0.438350  1
  Dy  Dy4  1  0.583392  0.791696  0.438397  1
  Dy  Dy5  1  0.790702  0.209192  0.557436  1
  Dy  Dy6  1  0.790702  0.581511  0.557436  1
  Dy  Dy7  1  0.418482  0.209241  0.557462  1
  Dy  Dy8  1  0.790702  0.209192  0.942564  1
  Dy  Dy9  1  0.790702  0.581511  0.942564  1
  Dy  Dy10  1  0.418482  0.209241  0.942538  1
  Dy  Dy11  1  0.208326  0.791749  0.061650  1
  Dy  Dy12  1  0.208326  0.416577  0.061650  1
  Dy  Dy13  1  0.583392  0.791696  0.061603  1
  Dy  Dy14  1  0.541572  0.458437  0.250000  1
  Dy  Dy15  1  0.541572  0.083135  0.250000  1
  Dy  Dy16  1  0.916864  0.458432  0.250000  1
  Dy  Dy17  1  0.458908  0.541125  0.750000  1
  Dy  Dy18  1  0.458908  0.917782  0.750000  1
  Y  Y19  1  0.082343  0.541171  0.750000  1
  Zn  Zn20  1  0.878348  0.121650  0.250000  1
  Zn  Zn21  1  0.878348  0.756700  0.250000  1
  Zn  Zn22  1  0.243305  0.121654  0.250000  1
  Cd  Cd23  1  0.110519  0.889539  0.750000  1
  Cd  Cd24  1  0.110519  0.220980  0.750000  1
  Cd  Cd25  1  0.778992  0.889496  0.750000  1
  Ru  Ru26  1  0.333345  0.666673  0.250000  1
  Ru  Ru27  1  0.666617  0.333308  0.750000  1
