# generated using pymatgen
data_Er8Sc2Pt5Rh
_symmetry_space_group_name_H-M   'P 1'
_cell_length_a   10.86700400
_cell_length_b   10.86700400
_cell_length_c   6.24426300
_cell_angle_alpha   90.00000000
_cell_angle_beta   90.00000000
_cell_angle_gamma   90.00000000
_symmetry_Int_Tables_number   1
_chemical_formula_structural   Er8Sc2Pt5Rh
_chemical_formula_sum   'Er16 Sc4 Pt10 Rh2'
_cell_volume   737.39610708
_cell_formula_units_Z   2
loop_
 _symmetry_equiv_pos_site_id
 _symmetry_equiv_pos_as_xyz
  1  'x, y, z'
loop_
 _atom_site_type_symbol
 _atom_site_label
 _atom_site_symmetry_multiplicity
 _atom_site_fract_x
 _atom_site_fract_y
 _atom_site_fract_z
 _atom_site_occupancy
  Er  Er0  1  0.287877  0.087788  0.376667  1
  Er  Er1  1  0.287877  0.912212  0.876667  1
  Er  Er2  1  0.712123  0.087788  0.876667  1
  Er  Er3  1  0.712123  0.912212  0.376667  1
  Er  Er4  1  0.587788  0.787877  0.876667  1
  Er  Er5  1  0.587788  0.212123  0.376667  1
  Er  Er6  1  0.412212  0.787877  0.376667  1
  Er  Er7  1  0.412212  0.212123  0.876667  1
  Er  Er8  1  0.208782  0.413800  0.623135  1
  Er  Er9  1  0.208782  0.586200  0.123135  1
  Er  Er10  1  0.791218  0.413800  0.123135  1
  Er  Er11  1  0.791218  0.586200  0.623135  1
  Er  Er12  1  0.913800  0.708782  0.123135  1
  Er  Er13  1  0.913800  0.291218  0.623135  1
  Er  Er14  1  0.086200  0.708782  0.623135  1
  Er  Er15  1  0.086200  0.291218  0.123135  1
  Sc  Sc16  1  0.000000  0.000000  0.501269  1
  Sc  Sc17  1  0.000000  0.000000  0.001269  1
  Sc  Sc18  1  0.500000  0.500000  0.001269  1
  Sc  Sc19  1  0.500000  0.500000  0.501269  1
  Pt  Pt20  1  0.851113  0.149196  0.250873  1
  Pt  Pt21  1  0.851113  0.850804  0.750873  1
  Pt  Pt22  1  0.148887  0.149196  0.750873  1
  Pt  Pt23  1  0.148887  0.850804  0.250873  1
  Pt  Pt24  1  0.649196  0.351113  0.750873  1
  Pt  Pt25  1  0.649196  0.648887  0.250873  1
  Pt  Pt26  1  0.350804  0.351113  0.250873  1
  Pt  Pt27  1  0.350804  0.648887  0.750873  1
  Pt  Pt28  1  0.500000  0.000000  0.116070  1
  Pt  Pt29  1  0.500000  0.000000  0.616070  1
  Rh  Rh30  1  0.000000  0.500000  0.878689  1
  Rh  Rh31  1  0.000000  0.500000  0.378689  1
