# generated using pymatgen
data_HfZr5(GaRu)6
_symmetry_space_group_name_H-M   'P 1'
_cell_length_a   7.90788656
_cell_length_b   7.90799422
_cell_length_c   7.90788646
_cell_angle_alpha   126.50024317
_cell_angle_beta   128.53327287
_cell_angle_gamma   77.42013286
_symmetry_Int_Tables_number   1
_chemical_formula_structural   HfZr5(GaRu)6
_chemical_formula_sum   'Hf1 Zr5 Ga6 Ru6'
_cell_volume   301.64729784
_cell_formula_units_Z   1
loop_
 _symmetry_equiv_pos_site_id
 _symmetry_equiv_pos_as_xyz
  1  'x, y, z'
loop_
 _atom_site_type_symbol
 _atom_site_label
 _atom_site_symmetry_multiplicity
 _atom_site_fract_x
 _atom_site_fract_y
 _atom_site_fract_z
 _atom_site_occupancy
  Hf  Hf0  1  0.948389  0.652209  0.203820  1
  Zr  Zr1  1  0.453929  0.659192  0.705263  1
  Zr  Zr2  1  0.547595  0.256284  0.208688  1
  Zr  Zr3  1  0.749212  0.845768  0.596556  1
  Zr  Zr4  1  0.251187  0.853325  0.102139  1
  Zr  Zr5  1  0.048735  0.250887  0.702151  1
  Ga  Ga6  1  0.251505  0.257209  0.505704  1
  Ga  Ga7  1  0.747495  0.248336  0.000841  1
  Ga  Ga8  1  0.327737  0.587091  0.248304  1
  Ga  Ga9  1  0.667545  0.919746  0.253155  1
  Ga  Ga10  1  0.166591  0.919746  0.752201  1
  Ga  Ga11  1  0.838787  0.587091  0.759354  1
  Ru  Ru12  1  0.503082  0.512643  0.014087  1
  Ru  Ru13  1  0.998556  0.512643  0.509561  1
  Ru  Ru14  1  0.127763  0.254953  0.123428  1
  Ru  Ru15  1  0.873675  0.993763  0.127071  1
  Ru  Ru16  1  0.366692  0.993763  0.620088  1
  Ru  Ru17  1  0.631527  0.254953  0.627192  1
