# generated using pymatgen
data_Nd4NpNbO12
_symmetry_space_group_name_H-M   'P 1'
_cell_length_a   5.52626700
_cell_length_b   9.49522368
_cell_length_c   10.48396100
_cell_angle_alpha   89.27284507
_cell_angle_beta   90.00000000
_cell_angle_gamma   90.00000000
_symmetry_Int_Tables_number   1
_chemical_formula_structural   Nd4NpNbO12
_chemical_formula_sum   'Nd8 Np2 Nb2 O24'
_cell_volume   550.08206334
_cell_formula_units_Z   2
loop_
 _symmetry_equiv_pos_site_id
 _symmetry_equiv_pos_as_xyz
  1  'x, y, z'
loop_
 _atom_site_type_symbol
 _atom_site_label
 _atom_site_symmetry_multiplicity
 _atom_site_fract_x
 _atom_site_fract_y
 _atom_site_fract_z
 _atom_site_occupancy
  Nd  Nd0  1  0.477964  0.603719  0.526107  1
  Nd  Nd1  1  0.977964  0.896281  0.473893  1
  Nd  Nd2  1  0.519365  0.100507  0.950075  1
  Nd  Nd3  1  0.019365  0.399493  0.049925  1
  Nd  Nd4  1  0.966877  0.791280  0.856206  1
  Nd  Nd5  1  0.466877  0.708720  0.143794  1
  Nd  Nd6  1  0.044697  0.273632  0.622563  1
  Nd  Nd7  1  0.544697  0.226368  0.377437  1
  Np  Np8  1  0.536212  0.495282  0.851774  1
  Np  Np9  1  0.036212  0.004718  0.148226  1
  Nb  Nb10  1  0.464371  0.996741  0.646277  1
  Nb  Nb11  1  0.964371  0.503259  0.353723  1
  O  O12  1  0.254366  0.090504  0.506510  1
  O  O13  1  0.754366  0.409496  0.493490  1
  O  O14  1  0.745102  0.587510  0.993861  1
  O  O15  1  0.245102  0.912490  0.006139  1
  O  O16  1  0.733366  0.113467  0.562742  1
  O  O17  1  0.233366  0.386533  0.437258  1
  O  O18  1  0.265921  0.612475  0.932538  1
  O  O19  1  0.765921  0.887525  0.067462  1
  O  O20  1  0.585677  0.842370  0.534282  1
  O  O21  1  0.085677  0.657630  0.465718  1
  O  O22  1  0.411359  0.344077  0.972491  1
  O  O23  1  0.911359  0.155923  0.027509  1
  O  O24  1  0.184656  0.860904  0.263023  1
  O  O25  1  0.684656  0.639096  0.736977  1
  O  O26  1  0.816180  0.357922  0.239542  1
  O  O27  1  0.316180  0.142078  0.760458  1
  O  O28  1  0.824736  0.043865  0.297765  1
  O  O29  1  0.324736  0.456135  0.702235  1
  O  O30  1  0.174771  0.546995  0.204080  1
  O  O31  1  0.674771  0.953005  0.795920  1
  O  O32  1  0.315425  0.136863  0.176741  1
  O  O33  1  0.815425  0.363137  0.823259  1
  O  O34  1  0.678956  0.634870  0.320268  1
  O  O35  1  0.178956  0.865130  0.679732  1
