# generated using pymatgen
data_Na44In7
_symmetry_space_group_name_H-M   'P 1'
_cell_length_a   16.72433149
_cell_length_b   16.72433157
_cell_length_c   16.72433200
_cell_angle_alpha   60.00177533
_cell_angle_beta   60.00177516
_cell_angle_gamma   60.00177626
_symmetry_Int_Tables_number   1
_chemical_formula_structural   Na44In7
_chemical_formula_sum   'Na88 In14'
_cell_volume   3307.87280235
_cell_formula_units_Z   2
loop_
 _symmetry_equiv_pos_site_id
 _symmetry_equiv_pos_as_xyz
  1  'x, y, z'
loop_
 _atom_site_type_symbol
 _atom_site_label
 _atom_site_symmetry_multiplicity
 _atom_site_fract_x
 _atom_site_fract_y
 _atom_site_fract_z
 _atom_site_occupancy
  Na  Na0  1  0.715815  0.715815  0.096159  1
  Na  Na1  1  0.715817  0.472228  0.096181  1
  Na  Na2  1  0.472228  0.715817  0.096181  1
  Na  Na3  1  0.479443  0.479442  0.135560  1
  Na  Na4  1  0.905571  0.479443  0.135571  1
  Na  Na5  1  0.479443  0.905571  0.135571  1
  Na  Na6  1  0.356274  0.143723  0.143723  1
  Na  Na7  1  0.143722  0.356275  0.143723  1
  Na  Na8  1  0.356285  0.356286  0.143728  1
  Na  Na9  1  0.945615  0.945615  0.163153  1
  Na  Na10  1  0.813123  0.186877  0.186876  1
  Na  Na11  1  0.186876  0.813123  0.186877  1
  Na  Na12  1  0.813121  0.813121  0.186890  1
  Na  Na13  1  0.567631  0.216691  0.216691  1
  Na  Na14  1  0.216691  0.567631  0.216691  1
  Na  Na15  1  0.999019  0.567593  0.216704  1
  Na  Na16  1  0.567593  0.999019  0.216704  1
  Na  Na17  1  0.998967  0.216710  0.216710  1
  Na  Na18  1  0.216710  0.998968  0.216710  1
  Na  Na19  1  0.559704  0.559705  0.320905  1
  Na  Na20  1  0.980391  0.980391  0.336248  1
  Na  Na21  1  0.980395  0.702970  0.336257  1
  Na  Na22  1  0.702970  0.980395  0.336257  1
  Na  Na23  1  0.558964  0.338471  0.338471  1
  Na  Na24  1  0.338471  0.558964  0.338471  1
  Na  Na25  1  0.764099  0.558951  0.338481  1
  Na  Na26  1  0.558951  0.764100  0.338481  1
  Na  Na27  1  0.764093  0.338495  0.338495  1
  Na  Na28  1  0.338496  0.764093  0.338495  1
  Na  Na29  1  0.143723  0.143723  0.356274  1
  Na  Na30  1  0.356286  0.143728  0.356286  1
  Na  Na31  1  0.143728  0.356286  0.356286  1
  Na  Na32  1  0.715801  0.715802  0.472205  1
  Na  Na33  1  0.715817  0.096181  0.472227  1
  Na  Na34  1  0.096181  0.715817  0.472227  1
  Na  Na35  1  0.905562  0.479435  0.479434  1
  Na  Na36  1  0.479434  0.905562  0.479435  1
  Na  Na37  1  0.479443  0.135561  0.479442  1
  Na  Na38  1  0.135560  0.479443  0.479443  1
  Na  Na39  1  0.905571  0.135571  0.479443  1
  Na  Na40  1  0.135571  0.905571  0.479443  1
  Na  Na41  1  0.835528  0.835528  0.493425  1
  Na  Na42  1  0.764099  0.338481  0.558950  1
  Na  Na43  1  0.338481  0.764099  0.558950  1
  Na  Na44  1  0.338471  0.338471  0.558964  1
  Na  Na45  1  0.559704  0.559704  0.559704  1
  Na  Na46  1  0.559704  0.320905  0.559705  1
  Na  Na47  1  0.320905  0.559705  0.559705  1
  Na  Na48  1  0.999018  0.216704  0.567593  1
  Na  Na49  1  0.216704  0.999019  0.567593  1
  Na  Na50  1  0.216691  0.216691  0.567631  1
  Na  Na51  1  0.695646  0.695646  0.695646  1
  Na  Na52  1  0.913036  0.695659  0.695659  1
  Na  Na53  1  0.695659  0.913036  0.695659  1
  Na  Na54  1  0.980403  0.980404  0.702965  1
  Na  Na55  1  0.980395  0.336257  0.702970  1
  Na  Na56  1  0.336256  0.980395  0.702971  1
  Na  Na57  1  0.715802  0.472204  0.715803  1
  Na  Na58  1  0.472204  0.715802  0.715803  1
  Na  Na59  1  0.715814  0.096159  0.715816  1
  Na  Na60  1  0.096159  0.715814  0.715815  1
  Na  Na61  1  0.472227  0.096180  0.715817  1
  Na  Na62  1  0.096181  0.472227  0.715817  1
  Na  Na63  1  0.338495  0.338495  0.764093  1
  Na  Na64  1  0.558950  0.338480  0.764100  1
  Na  Na65  1  0.338480  0.558950  0.764100  1
  Na  Na66  1  0.813122  0.186889  0.813122  1
  Na  Na67  1  0.186889  0.813122  0.813122  1
  Na  Na68  1  0.186876  0.186876  0.813124  1
  Na  Na69  1  0.835527  0.835527  0.835528  1
  Na  Na70  1  0.835529  0.493424  0.835529  1
  Na  Na71  1  0.493424  0.835529  0.835529  1
  Na  Na72  1  0.479434  0.479435  0.905562  1
  Na  Na73  1  0.479443  0.135571  0.905571  1
  Na  Na74  1  0.135571  0.479443  0.905571  1
  Na  Na75  1  0.695659  0.695659  0.913036  1
  Na  Na76  1  0.945615  0.163153  0.945615  1
  Na  Na77  1  0.163153  0.945615  0.945615  1
  Na  Na78  1  0.945621  0.945621  0.945622  1
  Na  Na79  1  0.980391  0.336248  0.980391  1
  Na  Na80  1  0.336248  0.980391  0.980391  1
  Na  Na81  1  0.702970  0.336257  0.980395  1
  Na  Na82  1  0.336257  0.702970  0.980395  1
  Na  Na83  1  0.980404  0.702965  0.980405  1
  Na  Na84  1  0.702965  0.980403  0.980405  1
  Na  Na85  1  0.216710  0.216710  0.998968  1
  Na  Na86  1  0.567593  0.216703  0.999019  1
  Na  Na87  1  0.216703  0.567593  0.999019  1
  In  In88  1  0.755233  0.081593  0.081593  1
  In  In89  1  0.081594  0.755235  0.081593  1
  In  In90  1  0.081601  0.081598  0.081599  1
  In  In91  1  0.953807  0.348737  0.348738  1
  In  In92  1  0.348738  0.953806  0.348737  1
  In  In93  1  0.348738  0.348740  0.348740  1
  In  In94  1  0.914351  0.585642  0.585643  1
  In  In95  1  0.585646  0.914348  0.585645  1
  In  In96  1  0.914358  0.914358  0.585650  1
  In  In97  1  0.081593  0.081593  0.755236  1
  In  In98  1  0.585644  0.585644  0.914350  1
  In  In99  1  0.914357  0.585650  0.914358  1
  In  In100  1  0.585650  0.914359  0.914357  1
  In  In101  1  0.348746  0.348744  0.953800  1
