# generated using pymatgen
data_La2CuGePd13
_symmetry_space_group_name_H-M   'P 1'
_cell_length_a   9.00839916
_cell_length_b   9.01255700
_cell_length_c   7.17288666
_cell_angle_alpha   90.00000000
_cell_angle_beta   90.07860977
_cell_angle_gamma   90.00000000
_symmetry_Int_Tables_number   1
_chemical_formula_structural   La2CuGePd13
_chemical_formula_sum   'La4 Cu2 Ge2 Pd26'
_cell_volume   582.35687297
_cell_formula_units_Z   2
loop_
 _symmetry_equiv_pos_site_id
 _symmetry_equiv_pos_as_xyz
  1  'x, y, z'
loop_
 _atom_site_type_symbol
 _atom_site_label
 _atom_site_symmetry_multiplicity
 _atom_site_fract_x
 _atom_site_fract_y
 _atom_site_fract_z
 _atom_site_occupancy
  La  La0  1  0.507171  0.000000  0.936527  1
  La  La1  1  0.992829  0.500000  0.063473  1
  La  La2  1  0.002534  0.000000  0.499661  1
  La  La3  1  0.497466  0.500000  0.500339  1
  Cu  Cu4  1  0.250000  0.750000  0.000000  1
  Cu  Cu5  1  0.250000  0.250000  0.000000  1
  Ge  Ge6  1  0.499910  0.000000  0.448678  1
  Ge  Ge7  1  0.000090  0.500000  0.551322  1
  Pd  Pd8  1  0.329599  0.830508  0.623005  1
  Pd  Pd9  1  0.329599  0.169492  0.623005  1
  Pd  Pd10  1  0.669199  0.829816  0.622217  1
  Pd  Pd11  1  0.669199  0.170184  0.622217  1
  Pd  Pd12  1  0.170401  0.669492  0.376995  1
  Pd  Pd13  1  0.170401  0.330508  0.376995  1
  Pd  Pd14  1  0.830801  0.670184  0.377783  1
  Pd  Pd15  1  0.830801  0.329816  0.377783  1
  Pd  Pd16  1  0.495725  0.765598  0.251656  1
  Pd  Pd17  1  0.495725  0.234402  0.251656  1
  Pd  Pd18  1  0.267350  0.000000  0.250324  1
  Pd  Pd19  1  0.735983  0.000000  0.253903  1
  Pd  Pd20  1  0.004275  0.734402  0.748344  1
  Pd  Pd21  1  0.004275  0.265598  0.748344  1
  Pd  Pd22  1  0.232650  0.500000  0.749676  1
  Pd  Pd23  1  0.764017  0.500000  0.746097  1
  Pd  Pd24  1  0.493122  0.346028  0.862121  1
  Pd  Pd25  1  0.493122  0.653972  0.862121  1
  Pd  Pd26  1  0.854481  0.000000  0.854773  1
  Pd  Pd27  1  0.162036  0.000000  0.866911  1
  Pd  Pd28  1  0.006878  0.153972  0.137879  1
  Pd  Pd29  1  0.006878  0.846028  0.137879  1
  Pd  Pd30  1  0.645519  0.500000  0.145227  1
  Pd  Pd31  1  0.337964  0.500000  0.133089  1
  Pd  Pd32  1  0.750000  0.750000  0.000000  1
  Pd  Pd33  1  0.750000  0.250000  0.000000  1
