# generated using pymatgen
data_HoLu4Mn2O12
_symmetry_space_group_name_H-M   'P 1'
_cell_length_a   6.69875602
_cell_length_b   6.69875524
_cell_length_c   7.08997603
_cell_angle_alpha   74.60259957
_cell_angle_beta   74.60260073
_cell_angle_gamma   50.07363137
_symmetry_Int_Tables_number   1
_chemical_formula_structural   HoLu4Mn2O12
_chemical_formula_sum   'Ho1 Lu4 Mn2 O12'
_cell_volume   233.26895672
_cell_formula_units_Z   1
loop_
 _symmetry_equiv_pos_site_id
 _symmetry_equiv_pos_as_xyz
  1  'x, y, z'
loop_
 _atom_site_type_symbol
 _atom_site_label
 _atom_site_symmetry_multiplicity
 _atom_site_fract_x
 _atom_site_fract_y
 _atom_site_fract_z
 _atom_site_occupancy
  Ho  Ho0  1  0.000000  0.000000  0.500000  1
  Lu  Lu1  1  0.304428  0.304428  0.357127  1
  Lu  Lu2  1  0.695572  0.695572  0.642873  1
  Lu  Lu3  1  0.307500  0.307500  0.835151  1
  Lu  Lu4  1  0.692500  0.692500  0.164849  1
  Mn  Mn5  1  0.753734  0.246266  0.000000  1
  Mn  Mn6  1  0.246266  0.753734  0.000000  1
  O  O7  1  0.902849  0.424999  0.916876  1
  O  O8  1  0.424999  0.902849  0.916876  1
  O  O9  1  0.097151  0.575001  0.083124  1
  O  O10  1  0.575001  0.097151  0.083124  1
  O  O11  1  0.097580  0.594027  0.575143  1
  O  O12  1  0.594027  0.097580  0.575143  1
  O  O13  1  0.902420  0.405973  0.424857  1
  O  O14  1  0.405973  0.902420  0.424857  1
  O  O15  1  0.999414  0.999414  0.819518  1
  O  O16  1  0.000586  0.000586  0.180482  1
  O  O17  1  0.499905  0.499905  0.814088  1
  O  O18  1  0.500095  0.500095  0.185912  1
