# generated using pymatgen
data_Yb3DyNi13Pt
_symmetry_space_group_name_H-M   'P 1'
_cell_length_a   4.90019990
_cell_length_b   4.90019941
_cell_length_c   12.45557712
_cell_angle_alpha   78.65553058
_cell_angle_beta   78.65553155
_cell_angle_gamma   59.99999650
_symmetry_Int_Tables_number   1
_chemical_formula_structural   Yb3DyNi13Pt
_chemical_formula_sum   'Yb3 Dy1 Ni13 Pt1'
_cell_volume   252.24334415
_cell_formula_units_Z   1
loop_
 _symmetry_equiv_pos_site_id
 _symmetry_equiv_pos_as_xyz
  1  'x, y, z'
loop_
 _atom_site_type_symbol
 _atom_site_label
 _atom_site_symmetry_multiplicity
 _atom_site_fract_x
 _atom_site_fract_y
 _atom_site_fract_z
 _atom_site_occupancy
  Yb  Yb0  1  0.051572  0.051572  0.845284  1
  Yb  Yb1  1  0.852445  0.852445  0.442662  1
  Yb  Yb2  1  0.146516  0.146516  0.560455  1
  Dy  Dy3  1  0.949299  0.949299  0.152102  1
  Ni  Ni4  1  0.720863  0.720863  0.837410  1
  Ni  Ni5  1  0.279336  0.279336  0.161993  1
  Ni  Ni6  1  0.612875  0.612875  0.161375  1
  Ni  Ni7  1  0.387092  0.387092  0.838724  1
  Ni  Ni8  1  0.000401  0.500296  0.999007  1
  Ni  Ni9  1  0.500296  0.000401  0.999007  1
  Ni  Ni10  1  0.500296  0.500296  0.999007  1
  Ni  Ni11  1  0.390782  0.390782  0.323085  1
  Ni  Ni12  1  0.895350  0.390782  0.323085  1
  Ni  Ni13  1  0.390782  0.895350  0.323085  1
  Ni  Ni14  1  0.608901  0.608901  0.677757  1
  Ni  Ni15  1  0.104443  0.608901  0.677757  1
  Ni  Ni16  1  0.608901  0.104443  0.677757  1
  Pt  Pt17  1  0.499851  0.499851  0.500447  1
