# generated using pymatgen
data_Li4CaLu(ThSi3)2
_symmetry_space_group_name_H-M   'P 1'
_cell_length_a   9.32172980
_cell_length_b   9.32172927
_cell_length_c   6.81177600
_cell_angle_alpha   90.00000000
_cell_angle_beta   90.00000000
_cell_angle_gamma   153.03985518
_symmetry_Int_Tables_number   1
_chemical_formula_structural   Li4CaLu(ThSi3)2
_chemical_formula_sum   'Li4 Ca1 Lu1 Th2 Si6'
_cell_volume   268.35315773
_cell_formula_units_Z   1
loop_
 _symmetry_equiv_pos_site_id
 _symmetry_equiv_pos_as_xyz
  1  'x, y, z'
loop_
 _atom_site_type_symbol
 _atom_site_label
 _atom_site_symmetry_multiplicity
 _atom_site_fract_x
 _atom_site_fract_y
 _atom_site_fract_z
 _atom_site_occupancy
  Li  Li0  1  0.808158  0.191842  0.558108  1
  Li  Li1  1  0.190791  0.809209  0.441100  1
  Li  Li2  1  0.190791  0.809209  0.058900  1
  Li  Li3  1  0.808158  0.191842  0.941892  1
  Ca  Ca4  1  0.343272  0.656728  0.250000  1
  Lu  Lu5  1  0.655571  0.344429  0.750000  1
  Th  Th6  1  0.553190  0.446810  0.250000  1
  Th  Th7  1  0.447465  0.552535  0.750000  1
  Si  Si8  1  0.943061  0.056939  0.070874  1
  Si  Si9  1  0.061888  0.938112  0.926012  1
  Si  Si10  1  0.061888  0.938112  0.573988  1
  Si  Si11  1  0.943061  0.056939  0.429126  1
  Si  Si12  1  0.717084  0.282916  0.250000  1
  Si  Si13  1  0.275623  0.724377  0.750000  1
