# generated using pymatgen
data_Dy2Ho3Er(SbO7)2
_symmetry_space_group_name_H-M   'P 1'
_cell_length_a   6.45467309
_cell_length_b   6.45699186
_cell_length_c   7.49949905
_cell_angle_alpha   89.99719722
_cell_angle_beta   89.99505484
_cell_angle_gamma   109.27607412
_symmetry_Int_Tables_number   1
_chemical_formula_structural   Dy2Ho3Er(SbO7)2
_chemical_formula_sum   'Dy2 Ho3 Er1 Sb2 O14'
_cell_volume   295.03980992
_cell_formula_units_Z   1
loop_
 _symmetry_equiv_pos_site_id
 _symmetry_equiv_pos_as_xyz
  1  'x, y, z'
loop_
 _atom_site_type_symbol
 _atom_site_label
 _atom_site_symmetry_multiplicity
 _atom_site_fract_x
 _atom_site_fract_y
 _atom_site_fract_z
 _atom_site_occupancy
  Dy  Dy0  1  0.511112  0.510899  0.499907  1
  Dy  Dy1  1  0.489285  0.489276  0.000183  1
  Ho  Ho2  1  0.999481  0.468175  0.747451  1
  Ho  Ho3  1  0.000761  0.531806  0.247453  1
  Ho  Ho4  1  0.531509  0.000793  0.752542  1
  Er  Er5  1  0.468490  0.999150  0.252516  1
  Sb  Sb6  1  0.999593  0.999703  0.499745  1
  Sb  Sb7  1  0.000193  0.000287  0.000273  1
  O  O8  1  0.638256  0.361995  0.750023  1
  O  O9  1  0.361979  0.639731  0.250037  1
  O  O10  1  0.928639  0.071146  0.750026  1
  O  O11  1  0.071914  0.928862  0.250003  1
  O  O12  1  0.922975  0.675207  0.528199  1
  O  O13  1  0.076861  0.324865  0.028268  1
  O  O14  1  0.325070  0.077025  0.972550  1
  O  O15  1  0.674847  0.922964  0.471201  1
  O  O16  1  0.369163  0.630752  0.749958  1
  O  O17  1  0.630208  0.367577  0.249994  1
  O  O18  1  0.933750  0.680282  0.967230  1
  O  O19  1  0.066053  0.319767  0.467171  1
  O  O20  1  0.320057  0.066512  0.531955  1
  O  O21  1  0.679804  0.933224  0.033315  1
