# generated using pymatgen
data_Ca2In4PdAu
_symmetry_space_group_name_H-M   'P 1'
_cell_length_a   5.82549500
_cell_length_b   5.82549479
_cell_length_c   7.87630200
_cell_angle_alpha   90.00000000
_cell_angle_beta   90.00000000
_cell_angle_gamma   134.12844370
_symmetry_Int_Tables_number   1
_chemical_formula_structural   Ca2In4PdAu
_chemical_formula_sum   'Ca2 In4 Pd1 Au1'
_cell_volume   191.85795393
_cell_formula_units_Z   1
loop_
 _symmetry_equiv_pos_site_id
 _symmetry_equiv_pos_as_xyz
  1  'x, y, z'
loop_
 _atom_site_type_symbol
 _atom_site_label
 _atom_site_symmetry_multiplicity
 _atom_site_fract_x
 _atom_site_fract_y
 _atom_site_fract_z
 _atom_site_occupancy
  Ca  Ca0  1  0.929930  0.070070  0.750000  1
  Ca  Ca1  1  0.072783  0.927217  0.250000  1
  In  In2  1  0.639261  0.360739  0.943170  1
  In  In3  1  0.639261  0.360739  0.556830  1
  In  In4  1  0.360040  0.639960  0.046842  1
  In  In5  1  0.360040  0.639960  0.453158  1
  Pd  Pd6  1  0.213471  0.786529  0.750000  1
  Au  Au7  1  0.785214  0.214786  0.250000  1
