# generated using pymatgen
data_Sr2Cd21Ag
_symmetry_space_group_name_H-M   'P 1'
_cell_length_a   9.43743972
_cell_length_b   9.42572614
_cell_length_c   9.42572334
_cell_angle_alpha   99.69455446
_cell_angle_beta   100.26884915
_cell_angle_gamma   130.71575446
_symmetry_Int_Tables_number   1
_chemical_formula_structural   Sr2Cd21Ag
_chemical_formula_sum   'Sr2 Cd21 Ag1'
_cell_volume   577.98948876
_cell_formula_units_Z   1
loop_
 _symmetry_equiv_pos_site_id
 _symmetry_equiv_pos_as_xyz
  1  'x, y, z'
loop_
 _atom_site_type_symbol
 _atom_site_label
 _atom_site_symmetry_multiplicity
 _atom_site_fract_x
 _atom_site_fract_y
 _atom_site_fract_z
 _atom_site_occupancy
  Sr  Sr0  1  0.749964  0.249787  0.500177  1
  Sr  Sr1  1  0.500036  0.500213  0.999823  1
  Cd  Cd2  1  0.990662  0.316420  0.913000  1
  Cd  Cd3  1  0.125000  0.875000  0.750000  1
  Cd  Cd4  1  0.678162  0.599494  0.676652  1
  Cd  Cd5  1  0.406030  0.321428  0.324674  1
  Cd  Cd6  1  0.678162  0.001510  0.078667  1
  Cd  Cd7  1  0.843970  0.428572  0.175326  1
  Cd  Cd8  1  0.406030  0.081356  0.084602  1
  Cd  Cd9  1  0.994749  0.998436  0.996314  1
  Cd  Cd10  1  0.843970  0.668644  0.415398  1
  Cd  Cd11  1  0.255251  0.751564  0.503686  1
  Cd  Cd12  1  0.331713  0.745740  0.174113  1
  Cd  Cd13  1  0.125000  0.875000  0.250000  1
  Cd  Cd14  1  0.259338  0.433580  0.587000  1
  Cd  Cd15  1  0.571838  0.748490  0.421333  1
  Cd  Cd16  1  0.990662  0.077662  0.674242  1
  Cd  Cd17  1  0.918287  0.004260  0.325887  1
  Cd  Cd18  1  0.331713  0.157599  0.585973  1
  Cd  Cd19  1  0.259338  0.672338  0.825758  1
  Cd  Cd20  1  0.571838  0.150506  0.823348  1
  Cd  Cd21  1  0.918287  0.592401  0.914027  1
  Cd  Cd22  1  0.125000  0.375000  0.250000  1
  Ag  Ag23  1  0.625000  0.875000  0.750000  1
