# generated using pymatgen
data_Y4Zr3PtF28
_symmetry_space_group_name_H-M   'P 1'
_cell_length_a   5.71626164
_cell_length_b   9.07976506
_cell_length_c   12.21554568
_cell_angle_alpha   62.44363805
_cell_angle_beta   90.08538183
_cell_angle_gamma   90.04071636
_symmetry_Int_Tables_number   1
_chemical_formula_structural   Y4Zr3PtF28
_chemical_formula_sum   'Y4 Zr3 Pt1 F28'
_cell_volume   562.08935622
_cell_formula_units_Z   1
loop_
 _symmetry_equiv_pos_site_id
 _symmetry_equiv_pos_as_xyz
  1  'x, y, z'
loop_
 _atom_site_type_symbol
 _atom_site_label
 _atom_site_symmetry_multiplicity
 _atom_site_fract_x
 _atom_site_fract_y
 _atom_site_fract_z
 _atom_site_occupancy
  Y  Y0  1  0.258068  0.815577  0.268427  1
  Y  Y1  1  0.743439  0.185810  0.732983  1
  Y  Y2  1  0.757884  0.182542  0.235238  1
  Y  Y3  1  0.240996  0.816511  0.760375  1
  Zr  Zr4  1  0.756240  0.726263  0.043515  1
  Zr  Zr5  1  0.244706  0.275425  0.954654  1
  Zr  Zr6  1  0.256214  0.275127  0.455821  1
  Pt  Pt7  1  0.739794  0.727354  0.544451  1
  F  F8  1  0.934480  0.705106  0.419732  1
  F  F9  1  0.039052  0.288963  0.581851  1
  F  F10  1  0.462595  0.290367  0.081027  1
  F  F11  1  0.535822  0.711033  0.918224  1
  F  F12  1  0.483210  0.733103  0.148806  1
  F  F13  1  0.520167  0.268036  0.851743  1
  F  F14  1  0.979692  0.266669  0.353225  1
  F  F15  1  0.023449  0.727660  0.636416  1
  F  F16  1  0.967686  0.747402  0.172471  1
  F  F17  1  0.037525  0.252292  0.826288  1
  F  F18  1  0.465979  0.254070  0.327057  1
  F  F19  1  0.549901  0.742638  0.674431  1
  F  F20  1  0.774563  0.474225  0.140843  1
  F  F21  1  0.223975  0.527522  0.856240  1
  F  F22  1  0.268704  0.527875  0.360719  1
  F  F23  1  0.729065  0.482916  0.641717  1
  F  F24  1  0.948773  0.276297  0.049890  1
  F  F25  1  0.050587  0.724589  0.947729  1
  F  F26  1  0.448943  0.720048  0.458595  1
  F  F27  1  0.553163  0.280650  0.548074  1
  F  F28  1  0.742597  0.971911  0.451105  1
  F  F29  1  0.261729  0.023306  0.556257  1
  F  F30  1  0.241823  0.024094  0.059817  1
  F  F31  1  0.759551  0.978010  0.940855  1
  F  F32  1  0.575810  0.970181  0.236211  1
  F  F33  1  0.423583  0.027722  0.764192  1
  F  F34  1  0.077062  0.026873  0.269601  1
  F  F35  1  0.923175  0.971833  0.731423  1
