# generated using pymatgen
data_Sm5DySi10
_symmetry_space_group_name_H-M   'P 1'
_cell_length_a   6.76866200
_cell_length_b   6.78361323
_cell_length_c   8.42705732
_cell_angle_alpha   90.02280515
_cell_angle_beta   90.00000000
_cell_angle_gamma   119.92711829
_symmetry_Int_Tables_number   1
_chemical_formula_structural   Sm5DySi10
_chemical_formula_sum   'Sm5 Dy1 Si10'
_cell_volume   335.34274860
_cell_formula_units_Z   1
loop_
 _symmetry_equiv_pos_site_id
 _symmetry_equiv_pos_as_xyz
  1  'x, y, z'
loop_
 _atom_site_type_symbol
 _atom_site_label
 _atom_site_symmetry_multiplicity
 _atom_site_fract_x
 _atom_site_fract_y
 _atom_site_fract_z
 _atom_site_occupancy
  Sm  Sm0  1  0.331104  0.000000  0.500000  1
  Sm  Sm1  1  0.999755  0.331244  0.499743  1
  Sm  Sm2  1  0.000232  0.331872  0.000333  1
  Sm  Sm3  1  0.668360  0.668128  0.999667  1
  Sm  Sm4  1  0.668511  0.668756  0.500257  1
  Dy  Dy5  1  0.330717  0.000000  0.000000  1
  Si  Si6  1  0.371010  0.328970  0.247153  1
  Si  Si7  1  0.667329  0.039798  0.247689  1
  Si  Si8  1  0.961481  0.631578  0.249083  1
  Si  Si9  1  0.627530  0.960202  0.752311  1
  Si  Si10  1  0.000582  0.000322  0.247784  1
  Si  Si11  1  0.667172  0.333157  0.751872  1
  Si  Si12  1  0.042040  0.671030  0.752847  1
  Si  Si13  1  0.329902  0.368422  0.750917  1
  Si  Si14  1  0.334014  0.666843  0.248128  1
  Si  Si15  1  0.000259  0.999678  0.752216  1
