# generated using pymatgen
data_Hf7Pt9Au
_symmetry_space_group_name_H-M   'P 1'
_cell_length_a   8.18812766
_cell_length_b   8.18812770
_cell_length_c   9.67418899
_cell_angle_alpha   90.03089977
_cell_angle_beta   90.03089783
_cell_angle_gamma   107.40869330
_symmetry_Int_Tables_number   1
_chemical_formula_structural   Hf7Pt9Au
_chemical_formula_sum   'Hf14 Pt18 Au2'
_cell_volume   618.90032516
_cell_formula_units_Z   2
loop_
 _symmetry_equiv_pos_site_id
 _symmetry_equiv_pos_as_xyz
  1  'x, y, z'
loop_
 _atom_site_type_symbol
 _atom_site_label
 _atom_site_symmetry_multiplicity
 _atom_site_fract_x
 _atom_site_fract_y
 _atom_site_fract_z
 _atom_site_occupancy
  Hf  Hf0  1  0.698817  0.301183  0.000000  1
  Hf  Hf1  1  0.301183  0.698817  0.000000  1
  Hf  Hf2  1  0.809115  0.190885  0.500000  1
  Hf  Hf3  1  0.190885  0.809115  0.500000  1
  Hf  Hf4  1  0.000000  0.000000  0.000000  1
  Hf  Hf5  1  0.500000  0.500000  0.500000  1
  Hf  Hf6  1  0.002025  0.502745  0.251056  1
  Hf  Hf7  1  0.997975  0.497255  0.748944  1
  Hf  Hf8  1  0.497255  0.997975  0.748944  1
  Hf  Hf9  1  0.502745  0.002025  0.251056  1
  Hf  Hf10  1  0.310844  0.310844  0.191504  1
  Hf  Hf11  1  0.689156  0.689156  0.808496  1
  Hf  Hf12  1  0.175159  0.175159  0.675932  1
  Hf  Hf13  1  0.824841  0.824841  0.324068  1
  Pt  Pt14  1  0.853237  0.144306  0.209147  1
  Pt  Pt15  1  0.146763  0.855694  0.790853  1
  Pt  Pt16  1  0.648419  0.356523  0.708807  1
  Pt  Pt17  1  0.643477  0.351581  0.291193  1
  Pt  Pt18  1  0.351581  0.643477  0.291193  1
  Pt  Pt19  1  0.356523  0.648419  0.708807  1
  Pt  Pt20  1  0.855694  0.146763  0.790853  1
  Pt  Pt21  1  0.144306  0.853237  0.209147  1
  Pt  Pt22  1  0.935490  0.643784  0.997535  1
  Pt  Pt23  1  0.064510  0.356216  0.002465  1
  Pt  Pt24  1  0.562940  0.855043  0.498532  1
  Pt  Pt25  1  0.144957  0.437060  0.501468  1
  Pt  Pt26  1  0.437060  0.144957  0.501468  1
  Pt  Pt27  1  0.855043  0.562940  0.498532  1
  Pt  Pt28  1  0.356216  0.064510  0.002465  1
  Pt  Pt29  1  0.643784  0.935490  0.997535  1
  Pt  Pt30  1  0.107175  0.107175  0.394156  1
  Pt  Pt31  1  0.892825  0.892825  0.605844  1
  Au  Au32  1  0.390919  0.390919  0.891862  1
  Au  Au33  1  0.609081  0.609081  0.108138  1
