# generated using pymatgen
data_SmErRh2O7
_symmetry_space_group_name_H-M   'P 1'
_cell_length_a   7.25434423
_cell_length_b   7.27171138
_cell_length_c   7.25434429
_cell_angle_alpha   59.92077689
_cell_angle_beta   59.81598223
_cell_angle_gamma   59.92077713
_symmetry_Int_Tables_number   1
_chemical_formula_structural   SmErRh2O7
_chemical_formula_sum   'Sm2 Er2 Rh4 O14'
_cell_volume   269.89242479
_cell_formula_units_Z   2
loop_
 _symmetry_equiv_pos_site_id
 _symmetry_equiv_pos_as_xyz
  1  'x, y, z'
loop_
 _atom_site_type_symbol
 _atom_site_label
 _atom_site_symmetry_multiplicity
 _atom_site_fract_x
 _atom_site_fract_y
 _atom_site_fract_z
 _atom_site_occupancy
  Sm  Sm0  1  0.125000  0.625000  0.125000  1
  Sm  Sm1  1  0.125000  0.125000  0.125000  1
  Er  Er2  1  0.625000  0.125000  0.125000  1
  Er  Er3  1  0.125000  0.125000  0.625000  1
  Rh  Rh4  1  0.625000  0.125000  0.625000  1
  Rh  Rh5  1  0.125000  0.625000  0.625000  1
  Rh  Rh6  1  0.625000  0.625000  0.125000  1
  Rh  Rh7  1  0.625000  0.625000  0.625000  1
  O  O8  1  0.993437  0.006563  0.993437  1
  O  O9  1  0.543061  0.961458  0.961137  1
  O  O10  1  0.706939  0.715655  0.288863  1
  O  O11  1  0.711164  0.288836  0.711164  1
  O  O12  1  0.543061  0.534345  0.961137  1
  O  O13  1  0.289523  0.710477  0.289523  1
  O  O14  1  0.288863  0.715655  0.706939  1
  O  O15  1  0.960477  0.539523  0.960477  1
  O  O16  1  0.256563  0.243437  0.256563  1
  O  O17  1  0.288863  0.288542  0.706939  1
  O  O18  1  0.538836  0.961164  0.538836  1
  O  O19  1  0.961137  0.961458  0.543061  1
  O  O20  1  0.961137  0.534345  0.543061  1
  O  O21  1  0.706939  0.288542  0.288863  1
