# generated using pymatgen
data_Nd4ErPb3
_symmetry_space_group_name_H-M   'P 1'
_cell_length_a   9.32603400
_cell_length_b   9.32603455
_cell_length_c   6.83962100
_cell_angle_alpha   90.00000000
_cell_angle_beta   90.00000000
_cell_angle_gamma   119.99999804
_symmetry_Int_Tables_number   1
_chemical_formula_structural   Nd4ErPb3
_chemical_formula_sum   'Nd8 Er2 Pb6'
_cell_volume   515.17726838
_cell_formula_units_Z   2
loop_
 _symmetry_equiv_pos_site_id
 _symmetry_equiv_pos_as_xyz
  1  'x, y, z'
loop_
 _atom_site_type_symbol
 _atom_site_label
 _atom_site_symmetry_multiplicity
 _atom_site_fract_x
 _atom_site_fract_y
 _atom_site_fract_z
 _atom_site_occupancy
  Nd  Nd0  1  0.666667  0.333333  0.000000  1
  Nd  Nd1  1  0.333333  0.666667  0.000000  1
  Nd  Nd2  1  0.759400  0.759400  0.748628  1
  Nd  Nd3  1  0.240600  0.000000  0.748628  1
  Nd  Nd4  1  0.000000  0.240600  0.748628  1
  Nd  Nd5  1  0.240600  0.240600  0.251372  1
  Nd  Nd6  1  0.759400  0.000000  0.251372  1
  Nd  Nd7  1  0.000000  0.759400  0.251372  1
  Er  Er8  1  0.333333  0.666667  0.500000  1
  Er  Er9  1  0.666667  0.333333  0.500000  1
  Pb  Pb10  1  0.395425  0.395425  0.745035  1
  Pb  Pb11  1  0.604575  0.000000  0.745035  1
  Pb  Pb12  1  0.000000  0.604575  0.745035  1
  Pb  Pb13  1  0.604575  0.604575  0.254965  1
  Pb  Pb14  1  0.395425  0.000000  0.254965  1
  Pb  Pb15  1  0.000000  0.395425  0.254965  1
