# generated using pymatgen
data_CeTc10(MoP3)3
_symmetry_space_group_name_H-M   'P 1'
_cell_length_a   10.13415673
_cell_length_b   10.14081440
_cell_length_c   3.71710200
_cell_angle_alpha   90.00000000
_cell_angle_beta   90.00000000
_cell_angle_gamma   120.02173729
_symmetry_Int_Tables_number   1
_chemical_formula_structural   CeTc10(MoP3)3
_chemical_formula_sum   'Ce1 Tc10 Mo3 P9'
_cell_volume   330.75041045
_cell_formula_units_Z   1
loop_
 _symmetry_equiv_pos_site_id
 _symmetry_equiv_pos_as_xyz
  1  'x, y, z'
loop_
 _atom_site_type_symbol
 _atom_site_label
 _atom_site_symmetry_multiplicity
 _atom_site_fract_x
 _atom_site_fract_y
 _atom_site_fract_z
 _atom_site_occupancy
  Ce  Ce0  1  0.671409  0.335704  0.000000  1
  Tc  Tc1  1  0.241783  0.483870  0.500000  1
  Tc  Tc2  1  0.241783  0.757912  0.500000  1
  Tc  Tc3  1  0.524029  0.046380  0.500000  1
  Tc  Tc4  1  0.524029  0.477651  0.500000  1
  Tc  Tc5  1  0.952362  0.476182  0.500000  1
  Tc  Tc6  1  0.997760  0.278789  0.000000  1
  Tc  Tc7  1  0.721948  0.719904  0.000000  1
  Tc  Tc8  1  0.721948  0.002044  0.000000  1
  Tc  Tc9  1  0.997760  0.718971  0.000000  1
  Tc  Tc10  1  0.512150  0.756074  0.500000  1
  Mo  Mo11  1  0.284107  0.277210  0.000000  1
  Mo  Mo12  1  0.995632  0.997816  0.000000  1
  Mo  Mo13  1  0.284107  0.006897  0.000000  1
  P  P14  1  0.410036  0.205017  0.500000  1
  P  P15  1  0.124203  0.562102  0.000000  1
  P  P16  1  0.439911  0.568844  0.000000  1
  P  P17  1  0.439911  0.871069  0.000000  1
  P  P18  1  0.788275  0.894138  0.500000  1
  P  P19  1  0.096956  0.892291  0.500000  1
  P  P20  1  0.096956  0.204665  0.500000  1
  P  P21  1  0.799806  0.200359  0.500000  1
  P  P22  1  0.799806  0.599446  0.500000  1
