# generated using pymatgen
data_Tm20Ir6Ru5Rh
_symmetry_space_group_name_H-M   'P 1'
_cell_length_a   10.68403640
_cell_length_b   10.68386528
_cell_length_c   6.34068100
_cell_angle_alpha   89.98256295
_cell_angle_beta   89.98664573
_cell_angle_gamma   90.09860679
_symmetry_Int_Tables_number   1
_chemical_formula_structural   Tm20Ir6Ru5Rh
_chemical_formula_sum   'Tm20 Ir6 Ru5 Rh1'
_cell_volume   723.76735653
_cell_formula_units_Z   1
loop_
 _symmetry_equiv_pos_site_id
 _symmetry_equiv_pos_as_xyz
  1  'x, y, z'
loop_
 _atom_site_type_symbol
 _atom_site_label
 _atom_site_symmetry_multiplicity
 _atom_site_fract_x
 _atom_site_fract_y
 _atom_site_fract_z
 _atom_site_occupancy
  Tm  Tm0  1  0.293542  0.085921  0.376313  1
  Tm  Tm1  1  0.292875  0.913969  0.876837  1
  Tm  Tm2  1  0.706697  0.087458  0.876956  1
  Tm  Tm3  1  0.706429  0.914632  0.374611  1
  Tm  Tm4  1  0.585250  0.793643  0.876963  1
  Tm  Tm5  1  0.587113  0.206639  0.376709  1
  Tm  Tm6  1  0.413758  0.793570  0.376328  1
  Tm  Tm7  1  0.413748  0.206321  0.875998  1
  Tm  Tm8  1  0.206299  0.413904  0.623166  1
  Tm  Tm9  1  0.206445  0.586177  0.123367  1
  Tm  Tm10  1  0.793379  0.412909  0.123554  1
  Tm  Tm11  1  0.793597  0.585396  0.623822  1
  Tm  Tm12  1  0.914513  0.705769  0.124280  1
  Tm  Tm13  1  0.913687  0.292702  0.623147  1
  Tm  Tm14  1  0.087173  0.706544  0.623113  1
  Tm  Tm15  1  0.085823  0.292868  0.124797  1
  Tm  Tm16  1  0.999679  0.001238  0.499069  1
  Tm  Tm17  1  0.999283  0.000589  0.000834  1
  Tm  Tm18  1  0.500139  0.500233  0.000137  1
  Tm  Tm19  1  0.499923  0.499892  0.499940  1
  Ir  Ir20  1  0.153501  0.153175  0.750250  1
  Ir  Ir21  1  0.152693  0.846882  0.250102  1
  Ir  Ir22  1  0.652221  0.347784  0.750124  1
  Ir  Ir23  1  0.653369  0.652968  0.249713  1
  Ir  Ir24  1  0.347259  0.346922  0.250269  1
  Ir  Ir25  1  0.347224  0.652785  0.749917  1
  Ru  Ru26  1  0.847446  0.152159  0.249886  1
  Ru  Ru27  1  0.500551  0.000117  0.122737  1
  Ru  Ru28  1  0.500247  0.999795  0.623055  1
  Ru  Ru29  1  0.999786  0.500392  0.876876  1
  Ru  Ru30  1  0.999524  0.500132  0.377252  1
  Rh  Rh31  1  0.846830  0.846516  0.749878  1
