# generated using pymatgen
data_Cs3NaMgCoH9
_symmetry_space_group_name_H-M   'P 1'
_cell_length_a   8.35401310
_cell_length_b   8.35401168
_cell_length_c   8.35401171
_cell_angle_alpha   44.76421741
_cell_angle_beta   44.76421566
_cell_angle_gamma   44.76423513
_symmetry_Int_Tables_number   1
_chemical_formula_structural   Cs3NaMgCoH9
_chemical_formula_sum   'Cs3 Na1 Mg1 Co1 H9'
_cell_volume   263.01288624
_cell_formula_units_Z   1
loop_
 _symmetry_equiv_pos_site_id
 _symmetry_equiv_pos_as_xyz
  1  'x, y, z'
loop_
 _atom_site_type_symbol
 _atom_site_label
 _atom_site_symmetry_multiplicity
 _atom_site_fract_x
 _atom_site_fract_y
 _atom_site_fract_z
 _atom_site_occupancy
  Cs  Cs0  1  0.000465  0.000465  0.000465  1
  Cs  Cs1  1  0.785554  0.785554  0.785554  1
  Cs  Cs2  1  0.215871  0.215871  0.215871  1
  Na  Na3  1  0.621097  0.621097  0.621097  1
  Mg  Mg4  1  0.383344  0.383344  0.383344  1
  Co  Co5  1  0.495663  0.495663  0.495663  1
  H  H6  1  0.035141  0.492848  0.492848  1
  H  H7  1  0.492848  0.035141  0.492848  1
  H  H8  1  0.492848  0.492848  0.035141  1
  H  H9  1  0.694887  0.337929  0.337929  1
  H  H10  1  0.337929  0.694887  0.337929  1
  H  H11  1  0.337929  0.337929  0.694887  1
  H  H12  1  0.651317  0.651317  0.303792  1
  H  H13  1  0.651317  0.303792  0.651317  1
  H  H14  1  0.303792  0.651317  0.651317  1
