# generated using pymatgen
data_Er6Sc4Si5Ge
_symmetry_space_group_name_H-M   'P 1'
_cell_length_a   8.22963600
_cell_length_b   8.23050688
_cell_length_c   6.01264800
_cell_angle_alpha   90.00000000
_cell_angle_beta   90.00000000
_cell_angle_gamma   119.99649183
_symmetry_Int_Tables_number   1
_chemical_formula_structural   Er6Sc4Si5Ge
_chemical_formula_sum   'Er6 Sc4 Si5 Ge1'
_cell_volume   352.71097337
_cell_formula_units_Z   1
loop_
 _symmetry_equiv_pos_site_id
 _symmetry_equiv_pos_as_xyz
  1  'x, y, z'
loop_
 _atom_site_type_symbol
 _atom_site_label
 _atom_site_symmetry_multiplicity
 _atom_site_fract_x
 _atom_site_fract_y
 _atom_site_fract_z
 _atom_site_occupancy
  Er  Er0  1  0.998830  0.754185  0.750000  1
  Er  Er1  1  0.999920  0.244940  0.250000  1
  Er  Er2  1  0.754979  0.755060  0.250000  1
  Er  Er3  1  0.755937  0.000000  0.750000  1
  Er  Er4  1  0.244644  0.245815  0.750000  1
  Er  Er5  1  0.244524  0.000000  0.250000  1
  Sc  Sc6  1  0.333210  0.665816  0.499224  1
  Sc  Sc7  1  0.667395  0.334184  0.000776  1
  Sc  Sc8  1  0.667395  0.334184  0.499224  1
  Sc  Sc9  1  0.333210  0.665816  0.000776  1
  Si  Si10  1  0.398315  0.398253  0.250000  1
  Si  Si11  1  0.000062  0.601747  0.250000  1
  Si  Si12  1  0.999978  0.398303  0.750000  1
  Si  Si13  1  0.601675  0.601697  0.750000  1
  Si  Si14  1  0.601969  0.000000  0.250000  1
  Ge  Ge15  1  0.397957  0.000000  0.750000  1
