# generated using pymatgen
data_CeEr3In2(RhAu)2
_symmetry_space_group_name_H-M   'P 1'
_cell_length_a   7.80765368
_cell_length_b   7.80765346
_cell_length_c   3.69065000
_cell_angle_alpha   90.00000000
_cell_angle_beta   90.00000000
_cell_angle_gamma   88.26746756
_symmetry_Int_Tables_number   1
_chemical_formula_structural   CeEr3In2(RhAu)2
_chemical_formula_sum   'Ce1 Er3 In2 Rh2 Au2'
_cell_volume   224.87716127
_cell_formula_units_Z   1
loop_
 _symmetry_equiv_pos_site_id
 _symmetry_equiv_pos_as_xyz
  1  'x, y, z'
loop_
 _atom_site_type_symbol
 _atom_site_label
 _atom_site_symmetry_multiplicity
 _atom_site_fract_x
 _atom_site_fract_y
 _atom_site_fract_z
 _atom_site_occupancy
  Ce  Ce0  1  0.811691  0.688309  0.500000  1
  Er  Er1  1  0.654022  0.166333  0.500000  1
  Er  Er2  1  0.333667  0.845978  0.500000  1
  Er  Er3  1  0.184626  0.315374  0.500000  1
  In  In4  1  0.001577  0.005221  0.000000  1
  In  In5  1  0.494779  0.498423  0.000000  1
  Rh  Rh6  1  0.639963  0.860037  0.000000  1
  Rh  Rh7  1  0.376450  0.123550  0.000000  1
  Au  Au8  1  0.130855  0.627630  0.000000  1
  Au  Au9  1  0.872370  0.369145  0.000000  1
