# generated using pymatgen
data_SrB2As2O7
_symmetry_space_group_name_H-M   'P 1'
_cell_length_a   7.79216763
_cell_length_b   7.79216781
_cell_length_c   7.79216752
_cell_angle_alpha   36.53472130
_cell_angle_beta   36.53472272
_cell_angle_gamma   36.53471958
_symmetry_Int_Tables_number   1
_chemical_formula_structural   SrB2As2O7
_chemical_formula_sum   'Sr1 B2 As2 O7'
_cell_volume   150.11206398
_cell_formula_units_Z   1
loop_
 _symmetry_equiv_pos_site_id
 _symmetry_equiv_pos_as_xyz
  1  'x, y, z'
loop_
 _atom_site_type_symbol
 _atom_site_label
 _atom_site_symmetry_multiplicity
 _atom_site_fract_x
 _atom_site_fract_y
 _atom_site_fract_z
 _atom_site_occupancy
  Sr  Sr0  1  0.500000  0.500000  0.500000  1
  B  B1  1  0.065819  0.065819  0.065819  1
  B  B2  1  0.934181  0.934181  0.934181  1
  As  As3  1  0.284652  0.284652  0.284652  1
  As  As4  1  0.715348  0.715348  0.715348  1
  O  O5  1  0.000000  0.000000  0.000000  1
  O  O6  1  0.406951  0.856071  0.015586  1
  O  O7  1  0.593049  0.984413  0.143930  1
  O  O8  1  0.856070  0.015586  0.406952  1
  O  O9  1  0.984414  0.143930  0.593048  1
  O  O10  1  0.015587  0.406951  0.856070  1
  O  O11  1  0.143929  0.593049  0.984414  1
