# generated using pymatgen
data_Lu8Nb12Si15Sn
_symmetry_space_group_name_H-M   'P 1'
_cell_length_a   6.84879794
_cell_length_b   7.03957580
_cell_length_c   13.42812005
_cell_angle_alpha   89.85065191
_cell_angle_beta   90.25658968
_cell_angle_gamma   89.98472612
_symmetry_Int_Tables_number   1
_chemical_formula_structural   Lu8Nb12Si15Sn
_chemical_formula_sum   'Lu8 Nb12 Si15 Sn1'
_cell_volume   647.39629767
_cell_formula_units_Z   1
loop_
 _symmetry_equiv_pos_site_id
 _symmetry_equiv_pos_as_xyz
  1  'x, y, z'
loop_
 _atom_site_type_symbol
 _atom_site_label
 _atom_site_symmetry_multiplicity
 _atom_site_fract_x
 _atom_site_fract_y
 _atom_site_fract_z
 _atom_site_occupancy
  Lu  Lu0  1  0.496720  0.667924  0.599398  1
  Lu  Lu1  1  0.001461  0.827879  0.904750  1
  Lu  Lu2  1  0.497496  0.326745  0.093691  1
  Lu  Lu3  1  0.012158  0.181693  0.400521  1
  Lu  Lu4  1  0.496821  0.334694  0.402770  1
  Lu  Lu5  1  0.997324  0.172070  0.094280  1
  Lu  Lu6  1  0.502039  0.674064  0.905314  1
  Lu  Lu7  1  0.006867  0.822579  0.600453  1
  Nb  Nb8  1  0.656443  0.185434  0.631257  1
  Nb  Nb9  1  0.159688  0.323788  0.876127  1
  Nb  Nb10  1  0.336774  0.824151  0.123726  1
  Nb  Nb11  1  0.847728  0.659504  0.369425  1
  Nb  Nb12  1  0.330734  0.822281  0.372461  1
  Nb  Nb13  1  0.837180  0.673879  0.123735  1
  Nb  Nb14  1  0.662952  0.175534  0.875891  1
  Nb  Nb15  1  0.161761  0.327586  0.627517  1
  Nb  Nb16  1  0.834948  0.494074  0.751341  1
  Nb  Nb17  1  0.335186  0.007597  0.751347  1
  Nb  Nb18  1  0.164220  0.505963  0.248411  1
  Nb  Nb19  1  0.663793  0.991107  0.243669  1
  Si  Si20  1  0.164220  0.534489  0.039886  1
  Si  Si21  1  0.335124  0.034415  0.959300  1
  Si  Si22  1  0.833822  0.463461  0.539438  1
  Si  Si23  1  0.325584  0.037955  0.541710  1
  Si  Si24  1  0.833748  0.465279  0.959926  1
  Si  Si25  1  0.664547  0.964332  0.039091  1
  Si  Si26  1  0.167974  0.537818  0.462509  1
  Si  Si27  1  0.454557  0.380783  0.754392  1
  Si  Si28  1  0.957334  0.121380  0.750813  1
  Si  Si29  1  0.542435  0.622002  0.248649  1
  Si  Si30  1  0.040632  0.880217  0.247822  1
  Si  Si31  1  0.703503  0.871072  0.751207  1
  Si  Si32  1  0.203235  0.629867  0.753011  1
  Si  Si33  1  0.298404  0.129622  0.248120  1
  Si  Si34  1  0.794070  0.364987  0.246994  1
  Sn  Sn35  1  0.678515  0.963773  0.461048  1
