# generated using pymatgen
data_La2Sm3GdNb2O14
_symmetry_space_group_name_H-M   'P 1'
_cell_length_a   6.62305587
_cell_length_b   6.63373283
_cell_length_c   7.74900500
_cell_angle_alpha   90.00000000
_cell_angle_beta   90.00000000
_cell_angle_gamma   109.21961095
_symmetry_Int_Tables_number   1
_chemical_formula_structural   La2Sm3GdNb2O14
_chemical_formula_sum   'La2 Sm3 Gd1 Nb2 O14'
_cell_volume   321.48125498
_cell_formula_units_Z   1
loop_
 _symmetry_equiv_pos_site_id
 _symmetry_equiv_pos_as_xyz
  1  'x, y, z'
loop_
 _atom_site_type_symbol
 _atom_site_label
 _atom_site_symmetry_multiplicity
 _atom_site_fract_x
 _atom_site_fract_y
 _atom_site_fract_z
 _atom_site_occupancy
  La  La0  1  0.499685  0.499913  0.500005  1
  La  La1  1  0.499685  0.499913  0.999995  1
  Sm  Sm2  1  0.535544  0.000015  0.750000  1
  Sm  Sm3  1  0.999989  0.535204  0.250000  1
  Sm  Sm4  1  0.464673  0.000037  0.250000  1
  Gd  Gd5  1  0.999175  0.466491  0.750000  1
  Nb  Nb6  1  0.000019  0.000229  0.500393  1
  Nb  Nb7  1  0.000019  0.000229  0.999607  1
  O  O8  1  0.683406  0.931654  0.468344  1
  O  O9  1  0.932289  0.682982  0.532639  1
  O  O10  1  0.683406  0.931654  0.031656  1
  O  O11  1  0.932289  0.682982  0.967361  1
  O  O12  1  0.316774  0.068289  0.531726  1
  O  O13  1  0.067943  0.316471  0.468906  1
  O  O14  1  0.316774  0.068289  0.968274  1
  O  O15  1  0.067943  0.316471  0.031094  1
  O  O16  1  0.363578  0.632184  0.750000  1
  O  O17  1  0.633314  0.366403  0.250000  1
  O  O18  1  0.642227  0.361769  0.750000  1
  O  O19  1  0.361360  0.638882  0.250000  1
  O  O20  1  0.936621  0.063393  0.750000  1
  O  O21  1  0.063288  0.936548  0.250000  1
