# generated using pymatgen
data_Er8Si12Ir3Pd
_symmetry_space_group_name_H-M   'P 1'
_cell_length_a   8.15164100
_cell_length_b   8.15164145
_cell_length_c   7.81830200
_cell_angle_alpha   90.00000000
_cell_angle_beta   90.00000000
_cell_angle_gamma   119.99999410
_symmetry_Int_Tables_number   1
_chemical_formula_structural   Er8Si12Ir3Pd
_chemical_formula_sum   'Er8 Si12 Ir3 Pd1'
_cell_volume   449.91783964
_cell_formula_units_Z   1
loop_
 _symmetry_equiv_pos_site_id
 _symmetry_equiv_pos_as_xyz
  1  'x, y, z'
loop_
 _atom_site_type_symbol
 _atom_site_label
 _atom_site_symmetry_multiplicity
 _atom_site_fract_x
 _atom_site_fract_y
 _atom_site_fract_z
 _atom_site_occupancy
  Er  Er0  1  0.512920  0.025841  0.247181  1
  Er  Er1  1  0.490094  0.980188  0.752225  1
  Er  Er2  1  0.974159  0.487080  0.247181  1
  Er  Er3  1  0.019812  0.509906  0.752225  1
  Er  Er4  1  0.512920  0.487080  0.247181  1
  Er  Er5  1  0.490094  0.509906  0.752225  1
  Er  Er6  1  0.000000  0.000000  0.251377  1
  Er  Er7  1  0.000000  0.000000  0.750814  1
  Si  Si8  1  0.166650  0.333300  0.003526  1
  Si  Si9  1  0.833684  0.667368  0.997365  1
  Si  Si10  1  0.666700  0.833350  0.003526  1
  Si  Si11  1  0.832704  0.665407  0.501668  1
  Si  Si12  1  0.332632  0.166316  0.997365  1
  Si  Si13  1  0.164662  0.329324  0.500015  1
  Si  Si14  1  0.166650  0.833350  0.003526  1
  Si  Si15  1  0.334593  0.167296  0.501668  1
  Si  Si16  1  0.833684  0.166316  0.997365  1
  Si  Si17  1  0.670676  0.835338  0.500015  1
  Si  Si18  1  0.832704  0.167296  0.501668  1
  Si  Si19  1  0.164662  0.835338  0.500015  1
  Ir  Ir20  1  0.333333  0.666667  0.033621  1
  Ir  Ir21  1  0.666667  0.333333  0.961330  1
  Ir  Ir22  1  0.666667  0.333333  0.540653  1
  Pd  Pd23  1  0.333333  0.666667  0.456267  1
