# generated using pymatgen
data_La3Tb5Np4O24
_symmetry_space_group_name_H-M   'P 1'
_cell_length_a   5.68499100
_cell_length_b   7.99922480
_cell_length_c   11.97658545
_cell_angle_alpha   74.48511739
_cell_angle_beta   90.00000000
_cell_angle_gamma   90.00000000
_symmetry_Int_Tables_number   1
_chemical_formula_structural   La3Tb5Np4O24
_chemical_formula_sum   'La3 Tb5 Np4 O24'
_cell_volume   524.79527606
_cell_formula_units_Z   1
loop_
 _symmetry_equiv_pos_site_id
 _symmetry_equiv_pos_as_xyz
  1  'x, y, z'
loop_
 _atom_site_type_symbol
 _atom_site_label
 _atom_site_symmetry_multiplicity
 _atom_site_fract_x
 _atom_site_fract_y
 _atom_site_fract_z
 _atom_site_occupancy
  La  La0  1  0.746365  0.000000  0.750000  1
  La  La1  1  0.693221  0.500000  0.750000  1
  La  La2  1  0.305043  0.500000  0.250000  1
  Tb  Tb3  1  0.253878  0.000000  0.250000  1
  Tb  Tb4  1  0.187403  0.795166  0.577275  1
  Tb  Tb5  1  0.816044  0.792052  0.080450  1
  Tb  Tb6  1  0.187403  0.204834  0.922725  1
  Tb  Tb7  1  0.816044  0.207948  0.419550  1
  Np  Np8  1  0.253642  0.720918  0.887987  1
  Np  Np9  1  0.745096  0.730660  0.383956  1
  Np  Np10  1  0.253642  0.279082  0.612013  1
  Np  Np11  1  0.745096  0.269340  0.116044  1
  O  O12  1  0.054526  0.940965  0.901715  1
  O  O13  1  0.549690  0.836053  0.937216  1
  O  O14  1  0.953343  0.947789  0.395469  1
  O  O15  1  0.439389  0.795897  0.728898  1
  O  O16  1  0.444810  0.847484  0.430718  1
  O  O17  1  0.973884  0.716124  0.768293  1
  O  O18  1  0.554296  0.804816  0.226166  1
  O  O19  1  0.873745  0.639752  0.548579  1
  O  O20  1  0.372496  0.482575  0.887191  1
  O  O21  1  0.030176  0.723755  0.265931  1
  O  O22  1  0.372496  0.517425  0.612809  1
  O  O23  1  0.873745  0.360248  0.951421  1
  O  O24  1  0.121298  0.628330  0.051356  1
  O  O25  1  0.630909  0.491288  0.382832  1
  O  O26  1  0.973884  0.283876  0.731707  1
  O  O27  1  0.630909  0.508712  0.117168  1
  O  O28  1  0.121298  0.371670  0.448644  1
  O  O29  1  0.439389  0.204103  0.771102  1
  O  O30  1  0.030176  0.276245  0.234069  1
  O  O31  1  0.549690  0.163947  0.562784  1
  O  O32  1  0.554296  0.195184  0.273834  1
  O  O33  1  0.054526  0.059035  0.598285  1
  O  O34  1  0.444810  0.152516  0.069282  1
  O  O35  1  0.953343  0.052211  0.104531  1
