# generated using pymatgen
data_LaPr(Al3Rh)3
_symmetry_space_group_name_H-M   'P 1'
_cell_length_a   7.65091366
_cell_length_b   7.65744228
_cell_length_c   9.66293800
_cell_angle_alpha   90.00000000
_cell_angle_beta   90.00000000
_cell_angle_gamma   119.16886329
_symmetry_Int_Tables_number   1
_chemical_formula_structural   LaPr(Al3Rh)3
_chemical_formula_sum   'La2 Pr2 Al18 Rh6'
_cell_volume   494.32607767
_cell_formula_units_Z   2
loop_
 _symmetry_equiv_pos_site_id
 _symmetry_equiv_pos_as_xyz
  1  'x, y, z'
loop_
 _atom_site_type_symbol
 _atom_site_label
 _atom_site_symmetry_multiplicity
 _atom_site_fract_x
 _atom_site_fract_y
 _atom_site_fract_z
 _atom_site_occupancy
  La  La0  1  0.995023  0.671620  0.250000  1
  La  La1  1  0.004977  0.328380  0.750000  1
  Pr  Pr2  1  0.672357  0.995327  0.250000  1
  Pr  Pr3  1  0.327643  0.004673  0.750000  1
  Al  Al4  1  0.003608  0.335112  0.073383  1
  Al  Al5  1  0.996392  0.664888  0.926617  1
  Al  Al6  1  0.996392  0.664888  0.573383  1
  Al  Al7  1  0.336806  0.004072  0.427681  1
  Al  Al8  1  0.003608  0.335112  0.426617  1
  Al  Al9  1  0.663194  0.995928  0.572319  1
  Al  Al10  1  0.663194  0.995928  0.927681  1
  Al  Al11  1  0.336806  0.004072  0.072319  1
  Al  Al12  1  0.334919  0.334282  0.543005  1
  Al  Al13  1  0.665081  0.665718  0.456995  1
  Al  Al14  1  0.665081  0.665718  0.043005  1
  Al  Al15  1  0.334919  0.334282  0.956995  1
  Al  Al16  1  0.132841  0.133414  0.250000  1
  Al  Al17  1  0.867159  0.866586  0.750000  1
  Al  Al18  1  0.342011  0.547610  0.250000  1
  Al  Al19  1  0.657989  0.452390  0.750000  1
  Al  Al20  1  0.545741  0.338660  0.250000  1
  Al  Al21  1  0.454259  0.661340  0.750000  1
  Rh  Rh22  1  0.670695  0.328735  0.000070  1
  Rh  Rh23  1  0.329305  0.671265  0.999930  1
  Rh  Rh24  1  0.329305  0.671265  0.500070  1
  Rh  Rh25  1  0.670695  0.328735  0.499930  1
  Rh  Rh26  1  0.000000  0.000000  0.000000  1
  Rh  Rh27  1  0.000000  0.000000  0.500000  1
