# generated using pymatgen
data_LuSi(AsRh2)3
_symmetry_space_group_name_H-M   'P 1'
_cell_length_a   7.22984700
_cell_length_b   7.22984747
_cell_length_c   3.77806400
_cell_angle_alpha   90.00000000
_cell_angle_beta   90.00000000
_cell_angle_gamma   119.99999327
_symmetry_Int_Tables_number   1
_chemical_formula_structural   LuSi(AsRh2)3
_chemical_formula_sum   'Lu1 Si1 As3 Rh6'
_cell_volume   171.02445434
_cell_formula_units_Z   1
loop_
 _symmetry_equiv_pos_site_id
 _symmetry_equiv_pos_as_xyz
  1  'x, y, z'
loop_
 _atom_site_type_symbol
 _atom_site_label
 _atom_site_symmetry_multiplicity
 _atom_site_fract_x
 _atom_site_fract_y
 _atom_site_fract_z
 _atom_site_occupancy
  Lu  Lu0  1  0.000000  0.000000  0.000000  1
  Si  Si1  1  0.333333  0.666667  0.000000  1
  As  As2  1  0.810277  0.620553  0.500000  1
  As  As3  1  0.379447  0.189723  0.500000  1
  As  As4  1  0.810277  0.189723  0.500000  1
  Rh  Rh5  1  0.531337  0.062675  0.000000  1
  Rh  Rh6  1  0.600895  0.800447  0.500000  1
  Rh  Rh7  1  0.199553  0.399105  0.500000  1
  Rh  Rh8  1  0.531337  0.468663  0.000000  1
  Rh  Rh9  1  0.199553  0.800447  0.500000  1
  Rh  Rh10  1  0.937325  0.468663  0.000000  1
