# generated using pymatgen
data_Er4Ga4Ir2PtRh
_symmetry_space_group_name_H-M   'P 1'
_cell_length_a   4.34334900
_cell_length_b   6.76480950
_cell_length_c   7.77672596
_cell_angle_alpha   90.09923082
_cell_angle_beta   89.99660826
_cell_angle_gamma   90.00301665
_symmetry_Int_Tables_number   1
_chemical_formula_structural   Er4Ga4Ir2PtRh
_chemical_formula_sum   'Er4 Ga4 Ir2 Pt1 Rh1'
_cell_volume   228.49486362
_cell_formula_units_Z   1
loop_
 _symmetry_equiv_pos_site_id
 _symmetry_equiv_pos_as_xyz
  1  'x, y, z'
loop_
 _atom_site_type_symbol
 _atom_site_label
 _atom_site_symmetry_multiplicity
 _atom_site_fract_x
 _atom_site_fract_y
 _atom_site_fract_z
 _atom_site_occupancy
  Er  Er0  1  0.249982  0.974284  0.313532  1
  Er  Er1  1  0.250028  0.475276  0.189971  1
  Er  Er2  1  0.749963  0.027124  0.684476  1
  Er  Er3  1  0.749982  0.529651  0.813415  1
  Ga  Ga4  1  0.250051  0.350347  0.564796  1
  Ga  Ga5  1  0.249982  0.844134  0.932959  1
  Ga  Ga6  1  0.749968  0.652419  0.433415  1
  Ga  Ga7  1  0.750120  0.149281  0.069029  1
  Ir  Ir8  1  0.749947  0.763091  0.112895  1
  Ir  Ir9  1  0.749969  0.264286  0.386733  1
  Pt  Pt10  1  0.249982  0.233984  0.886111  1
  Rh  Rh11  1  0.250025  0.736123  0.612668  1
