# generated using pymatgen
data_NaY(Si7Rh3)2
_symmetry_space_group_name_H-M   'P 1'
_cell_length_a   7.98412379
_cell_length_b   7.98412293
_cell_length_c   7.98412512
_cell_angle_alpha   57.10813550
_cell_angle_beta   57.10813851
_cell_angle_gamma   57.10813397
_symmetry_Int_Tables_number   1
_chemical_formula_structural   NaY(Si7Rh3)2
_chemical_formula_sum   'Na1 Y1 Si14 Rh6'
_cell_volume   335.90323087
_cell_formula_units_Z   1
loop_
 _symmetry_equiv_pos_site_id
 _symmetry_equiv_pos_as_xyz
  1  'x, y, z'
loop_
 _atom_site_type_symbol
 _atom_site_label
 _atom_site_symmetry_multiplicity
 _atom_site_fract_x
 _atom_site_fract_y
 _atom_site_fract_z
 _atom_site_occupancy
  Na  Na0  1  0.500000  0.500000  0.500000  1
  Y  Y1  1  0.000000  0.000000  0.000000  1
  Si  Si2  1  0.750402  0.750402  0.750402  1
  Si  Si3  1  0.249598  0.249598  0.249598  1
  Si  Si4  1  0.849341  0.068041  0.670768  1
  Si  Si5  1  0.670768  0.849341  0.068041  1
  Si  Si6  1  0.068041  0.670768  0.849341  1
  Si  Si7  1  0.647960  0.825416  0.434659  1
  Si  Si8  1  0.434659  0.647960  0.825416  1
  Si  Si9  1  0.825416  0.434659  0.647960  1
  Si  Si10  1  0.174584  0.565341  0.352040  1
  Si  Si11  1  0.565341  0.352040  0.174584  1
  Si  Si12  1  0.352040  0.174584  0.565341  1
  Si  Si13  1  0.931959  0.329232  0.150659  1
  Si  Si14  1  0.329232  0.150659  0.931959  1
  Si  Si15  1  0.150659  0.931959  0.329232  1
  Rh  Rh16  1  0.067973  0.427359  0.752329  1
  Rh  Rh17  1  0.247671  0.932027  0.572641  1
  Rh  Rh18  1  0.572641  0.247671  0.932027  1
  Rh  Rh19  1  0.932027  0.572641  0.247671  1
  Rh  Rh20  1  0.427359  0.752329  0.067973  1
  Rh  Rh21  1  0.752329  0.067973  0.427359  1
