# generated using pymatgen
data_Dy3PaCd2Rh3
_symmetry_space_group_name_H-M   'P 1'
_cell_length_a   7.77235400
_cell_length_b   7.77235351
_cell_length_c   3.82665200
_cell_angle_alpha   90.00000000
_cell_angle_beta   90.00000000
_cell_angle_gamma   121.75123417
_symmetry_Int_Tables_number   1
_chemical_formula_structural   Dy3PaCd2Rh3
_chemical_formula_sum   'Dy3 Pa1 Cd2 Rh3'
_cell_volume   196.56996042
_cell_formula_units_Z   1
loop_
 _symmetry_equiv_pos_site_id
 _symmetry_equiv_pos_as_xyz
  1  'x, y, z'
loop_
 _atom_site_type_symbol
 _atom_site_label
 _atom_site_symmetry_multiplicity
 _atom_site_fract_x
 _atom_site_fract_y
 _atom_site_fract_z
 _atom_site_occupancy
  Dy  Dy0  1  0.962585  0.403718  0.500000  1
  Dy  Dy1  1  0.637526  0.637526  0.500000  1
  Dy  Dy2  1  0.403718  0.962585  0.500000  1
  Pa  Pa3  1  0.269167  0.269167  0.000000  1
  Cd  Cd4  1  0.011069  0.742309  0.000000  1
  Cd  Cd5  1  0.742309  0.011069  0.000000  1
  Rh  Rh6  1  0.324058  0.623285  0.000000  1
  Rh  Rh7  1  0.026287  0.026287  0.500000  1
  Rh  Rh8  1  0.623285  0.324058  0.000000  1
