# generated using pymatgen
data_Rb3(CoO2)2
_symmetry_space_group_name_H-M   'P 1'
_cell_length_a   6.41001300
_cell_length_b   10.51028400
_cell_length_c   10.36208000
_cell_angle_alpha   90.00000000
_cell_angle_beta   90.00000000
_cell_angle_gamma   90.00000000
_symmetry_Int_Tables_number   1
_chemical_formula_structural   Rb3(CoO2)2
_chemical_formula_sum   'Rb12 Co8 O16'
_cell_volume   698.10428308
_cell_formula_units_Z   4
loop_
 _symmetry_equiv_pos_site_id
 _symmetry_equiv_pos_as_xyz
  1  'x, y, z'
loop_
 _atom_site_type_symbol
 _atom_site_label
 _atom_site_symmetry_multiplicity
 _atom_site_fract_x
 _atom_site_fract_y
 _atom_site_fract_z
 _atom_site_occupancy
  Rb  Rb0  1  0.628295  0.156765  0.416372  1
  Rb  Rb1  1  0.871705  0.843235  0.416372  1
  Rb  Rb2  1  0.628295  0.343235  0.083628  1
  Rb  Rb3  1  0.871705  0.656765  0.083628  1
  Rb  Rb4  1  0.371705  0.843235  0.583628  1
  Rb  Rb5  1  0.128295  0.156765  0.583628  1
  Rb  Rb6  1  0.371705  0.656765  0.916372  1
  Rb  Rb7  1  0.128295  0.343235  0.916372  1
  Rb  Rb8  1  0.750000  0.500000  0.403333  1
  Rb  Rb9  1  0.750000  0.000000  0.096667  1
  Rb  Rb10  1  0.250000  0.500000  0.596667  1
  Rb  Rb11  1  0.250000  0.000000  0.903333  1
  Co  Co12  1  0.750000  0.500000  0.729651  1
  Co  Co13  1  0.750000  0.000000  0.770349  1
  Co  Co14  1  0.250000  0.500000  0.270349  1
  Co  Co15  1  0.250000  0.000000  0.229651  1
  Co  Co16  1  0.677600  0.250000  0.750000  1
  Co  Co17  1  0.822400  0.750000  0.750000  1
  Co  Co18  1  0.322400  0.750000  0.250000  1
  Co  Co19  1  0.177600  0.250000  0.250000  1
  O  O20  1  0.858142  0.358862  0.638017  1
  O  O21  1  0.641858  0.641138  0.638017  1
  O  O22  1  0.858142  0.141138  0.861983  1
  O  O23  1  0.641858  0.858862  0.861983  1
  O  O24  1  0.141858  0.641138  0.361983  1
  O  O25  1  0.358142  0.358862  0.361983  1
  O  O26  1  0.141858  0.858862  0.138017  1
  O  O27  1  0.358142  0.141138  0.138017  1
  O  O28  1  0.540755  0.405648  0.820931  1
  O  O29  1  0.959245  0.594352  0.820931  1
  O  O30  1  0.540755  0.094352  0.679069  1
  O  O31  1  0.959245  0.905648  0.679069  1
  O  O32  1  0.459245  0.594352  0.179069  1
  O  O33  1  0.040755  0.405648  0.179069  1
  O  O34  1  0.459245  0.905648  0.320931  1
  O  O35  1  0.040755  0.094352  0.320931  1
