# generated using pymatgen
data_Nb6Co5SiNi
_symmetry_space_group_name_H-M   'P 1'
_cell_length_a   9.10189927
_cell_length_b   9.10398687
_cell_length_c   9.10189867
_cell_angle_alpha   31.27230940
_cell_angle_beta   31.36233090
_cell_angle_gamma   31.27230923
_symmetry_Int_Tables_number   1
_chemical_formula_structural   Nb6Co5SiNi
_chemical_formula_sum   'Nb6 Co5 Si1 Ni1'
_cell_volume   180.69088998
_cell_formula_units_Z   1
loop_
 _symmetry_equiv_pos_site_id
 _symmetry_equiv_pos_as_xyz
  1  'x, y, z'
loop_
 _atom_site_type_symbol
 _atom_site_label
 _atom_site_symmetry_multiplicity
 _atom_site_fract_x
 _atom_site_fract_y
 _atom_site_fract_z
 _atom_site_occupancy
  Nb  Nb0  1  0.829816  0.832400  0.829816  1
  Nb  Nb1  1  0.169836  0.170499  0.169836  1
  Nb  Nb2  1  0.648989  0.657770  0.648989  1
  Nb  Nb3  1  0.345109  0.348980  0.345109  1
  Nb  Nb4  1  0.550993  0.548746  0.550993  1
  Nb  Nb5  1  0.450495  0.449368  0.450495  1
  Co  Co6  1  0.909556  0.907279  0.409811  1
  Co  Co7  1  0.409811  0.907279  0.909556  1
  Co  Co8  1  0.091155  0.591757  0.091155  1
  Co  Co9  1  0.091776  0.090510  0.592461  1
  Co  Co10  1  0.592461  0.090510  0.091776  1
  Si  Si11  1  0.001207  0.997282  0.001207  1
  Ni  Ni12  1  0.908794  0.407617  0.908794  1
