# generated using pymatgen
data_Na4Fe5(P4Ir5)3
_symmetry_space_group_name_H-M   'P 1'
_cell_length_a   3.87175500
_cell_length_b   10.41490907
_cell_length_c   12.56367291
_cell_angle_alpha   90.13352034
_cell_angle_beta   90.00000000
_cell_angle_gamma   90.00000000
_symmetry_Int_Tables_number   1
_chemical_formula_structural   Na4Fe5(P4Ir5)3
_chemical_formula_sum   'Na4 Fe5 P12 Ir15'
_cell_volume   506.61587239
_cell_formula_units_Z   1
loop_
 _symmetry_equiv_pos_site_id
 _symmetry_equiv_pos_as_xyz
  1  'x, y, z'
loop_
 _atom_site_type_symbol
 _atom_site_label
 _atom_site_symmetry_multiplicity
 _atom_site_fract_x
 _atom_site_fract_y
 _atom_site_fract_z
 _atom_site_occupancy
  Na  Na0  1  0.250000  0.577588  0.714445  1
  Na  Na1  1  0.250000  0.920599  0.212300  1
  Na  Na2  1  0.750000  0.420856  0.286617  1
  Na  Na3  1  0.750000  0.082282  0.788120  1
  Fe  Fe4  1  0.750000  0.372031  0.805888  1
  Fe  Fe5  1  0.250000  0.457379  0.937117  1
  Fe  Fe6  1  0.250000  0.044760  0.439309  1
  Fe  Fe7  1  0.750000  0.544924  0.057959  1
  Fe  Fe8  1  0.750000  0.955782  0.561792  1
  P  P9  1  0.250000  0.431886  0.105666  1
  P  P10  1  0.250000  0.072558  0.608424  1
  P  P11  1  0.750000  0.558578  0.885131  1
  P  P12  1  0.750000  0.930674  0.392676  1
  P  P13  1  0.250000  0.268799  0.862325  1
  P  P14  1  0.250000  0.236828  0.363523  1
  P  P15  1  0.750000  0.735628  0.134806  1
  P  P16  1  0.750000  0.763202  0.636629  1
  P  P17  1  0.250000  0.596809  0.385128  1
  P  P18  1  0.250000  0.902481  0.884429  1
  P  P19  1  0.750000  0.401691  0.626268  1
  P  P20  1  0.750000  0.099060  0.113799  1
  Ir  Ir21  1  0.250000  0.710812  0.979618  1
  Ir  Ir22  1  0.250000  0.788283  0.482062  1
  Ir  Ir23  1  0.750000  0.290220  0.015298  1
  Ir  Ir24  1  0.750000  0.211985  0.521788  1
  Ir  Ir25  1  0.250000  0.407092  0.479054  1
  Ir  Ir26  1  0.250000  0.093764  0.978023  1
  Ir  Ir27  1  0.750000  0.589111  0.523181  1
  Ir  Ir28  1  0.750000  0.907767  0.019364  1
  Ir  Ir29  1  0.250000  0.229524  0.173990  1
  Ir  Ir30  1  0.250000  0.276955  0.678169  1
  Ir  Ir31  1  0.750000  0.766809  0.824078  1
  Ir  Ir32  1  0.750000  0.727181  0.325543  1
  Ir  Ir33  1  0.250000  0.879507  0.698343  1
  Ir  Ir34  1  0.250000  0.623245  0.196443  1
  Ir  Ir35  1  0.750000  0.123346  0.302693  1
