# generated using pymatgen
data_Yb(AlI4)2
_symmetry_space_group_name_H-M   'P 1'
_cell_length_a   8.19351100
_cell_length_b   8.39623317
_cell_length_c   15.41447790
_cell_angle_alpha   87.43518308
_cell_angle_beta   90.00000000
_cell_angle_gamma   90.00000000
_symmetry_Int_Tables_number   1
_chemical_formula_structural   Yb(AlI4)2
_chemical_formula_sum   'Yb2 Al4 I16'
_cell_volume   1059.37098290
_cell_formula_units_Z   2
loop_
 _symmetry_equiv_pos_site_id
 _symmetry_equiv_pos_as_xyz
  1  'x, y, z'
loop_
 _atom_site_type_symbol
 _atom_site_label
 _atom_site_symmetry_multiplicity
 _atom_site_fract_x
 _atom_site_fract_y
 _atom_site_fract_z
 _atom_site_occupancy
  Yb  Yb0  1  0.753896  0.074526  0.811538  1
  Yb  Yb1  1  0.246104  0.074526  0.311538  1
  Al  Al2  1  0.932894  0.220995  0.579961  1
  Al  Al3  1  0.067106  0.220995  0.079961  1
  Al  Al4  1  0.572166  0.641878  0.777359  1
  Al  Al5  1  0.427834  0.641878  0.277359  1
  I  I6  1  0.420575  0.615377  0.638166  1
  I  I7  1  0.579425  0.615377  0.138166  1
  I  I8  1  0.873533  0.732226  0.760148  1
  I  I9  1  0.126467  0.732226  0.260148  1
  I  I10  1  0.938412  0.481331  0.495237  1
  I  I11  1  0.061588  0.481331  0.995237  1
  I  I12  1  0.918118  0.997113  0.999183  1
  I  I13  1  0.081882  0.997113  0.499183  1
  I  I14  1  0.637816  0.126660  0.616787  1
  I  I15  1  0.362184  0.126660  0.116787  1
  I  I16  1  0.562533  0.380146  0.874780  1
  I  I17  1  0.437467  0.380146  0.374780  1
  I  I18  1  0.443990  0.865497  0.867318  1
  I  I19  1  0.556010  0.865497  0.367318  1
  I  I20  1  0.929424  0.231653  0.231724  1
  I  I21  1  0.070576  0.231653  0.731724  1
