# generated using pymatgen
data_Sm5GdWO12
_symmetry_space_group_name_H-M   'P 1'
_cell_length_a   6.62380859
_cell_length_b   6.63794438
_cell_length_c   6.63523517
_cell_angle_alpha   98.64246785
_cell_angle_beta   98.54099256
_cell_angle_gamma   98.68966378
_symmetry_Int_Tables_number   1
_chemical_formula_structural   Sm5GdWO12
_chemical_formula_sum   'Sm5 Gd1 W1 O12'
_cell_volume   280.70786969
_cell_formula_units_Z   1
loop_
 _symmetry_equiv_pos_site_id
 _symmetry_equiv_pos_as_xyz
  1  'x, y, z'
loop_
 _atom_site_type_symbol
 _atom_site_label
 _atom_site_symmetry_multiplicity
 _atom_site_fract_x
 _atom_site_fract_y
 _atom_site_fract_z
 _atom_site_occupancy
  Sm  Sm0  1  0.856516  0.388951  0.687501  1
  Sm  Sm1  1  0.611424  0.312833  0.143908  1
  Sm  Sm2  1  0.311933  0.143445  0.610637  1
  Sm  Sm3  1  0.687714  0.856078  0.388756  1
  Sm  Sm4  1  0.388331  0.687496  0.856243  1
  Gd  Gd5  1  0.144710  0.609959  0.314274  1
  W  W6  1  0.000345  0.000075  0.000598  1
  O  O7  1  0.927183  0.032678  0.708171  1
  O  O8  1  0.968058  0.292340  0.073351  1
  O  O9  1  0.591536  0.177559  0.435641  1
  O  O10  1  0.825091  0.565076  0.407743  1
  O  O11  1  0.292449  0.072904  0.967317  1
  O  O12  1  0.564032  0.408970  0.822854  1
  O  O13  1  0.433112  0.591181  0.178697  1
  O  O14  1  0.707397  0.927184  0.032531  1
  O  O15  1  0.177732  0.436052  0.589716  1
  O  O16  1  0.407402  0.821839  0.563437  1
  O  O17  1  0.032277  0.708246  0.926899  1
  O  O18  1  0.072755  0.967134  0.291726  1
