# generated using pymatgen
data_Mn2Be8AlTc
_symmetry_space_group_name_H-M   'P 1'
_cell_length_a   4.26620200
_cell_length_b   4.26620087
_cell_length_c   6.95087000
_cell_angle_alpha   90.00000000
_cell_angle_beta   90.00000000
_cell_angle_gamma   120.00000879
_symmetry_Int_Tables_number   1
_chemical_formula_structural   Mn2Be8AlTc
_chemical_formula_sum   'Mn2 Be8 Al1 Tc1'
_cell_volume   109.56011358
_cell_formula_units_Z   1
loop_
 _symmetry_equiv_pos_site_id
 _symmetry_equiv_pos_as_xyz
  1  'x, y, z'
loop_
 _atom_site_type_symbol
 _atom_site_label
 _atom_site_symmetry_multiplicity
 _atom_site_fract_x
 _atom_site_fract_y
 _atom_site_fract_z
 _atom_site_occupancy
  Mn  Mn0  1  0.666667  0.333333  0.928157  1
  Mn  Mn1  1  0.333333  0.666667  0.448540  1
  Be  Be2  1  0.000000  0.000000  0.999361  1
  Be  Be3  1  0.000000  0.000000  0.494658  1
  Be  Be4  1  0.829244  0.658486  0.248625  1
  Be  Be5  1  0.168454  0.831546  0.751570  1
  Be  Be6  1  0.663092  0.831546  0.751570  1
  Be  Be7  1  0.341514  0.170756  0.248625  1
  Be  Be8  1  0.829244  0.170756  0.248625  1
  Be  Be9  1  0.168454  0.336908  0.751570  1
  Al  Al10  1  0.333333  0.666667  0.063366  1
  Tc  Tc11  1  0.666667  0.333333  0.565333  1
