# generated using pymatgen
data_Rb4Zr6BI18
_symmetry_space_group_name_H-M   'P 1'
_cell_length_a   11.66328318
_cell_length_b   11.66328340
_cell_length_c   11.30602555
_cell_angle_alpha   77.45358334
_cell_angle_beta   77.45358468
_cell_angle_gamma   117.79052818
_symmetry_Int_Tables_number   1
_chemical_formula_structural   Rb4Zr6BI18
_chemical_formula_sum   'Rb4 Zr6 B1 I18'
_cell_volume   1234.45444096
_cell_formula_units_Z   1
loop_
 _symmetry_equiv_pos_site_id
 _symmetry_equiv_pos_as_xyz
  1  'x, y, z'
loop_
 _atom_site_type_symbol
 _atom_site_label
 _atom_site_symmetry_multiplicity
 _atom_site_fract_x
 _atom_site_fract_y
 _atom_site_fract_z
 _atom_site_occupancy
  Rb  Rb0  1  0.771058  0.445680  0.678322  1
  Rb  Rb1  1  0.554320  0.228942  0.321678  1
  Rb  Rb2  1  0.228942  0.554320  0.321678  1
  Rb  Rb3  1  0.445680  0.771058  0.678322  1
  Zr  Zr4  1  0.116477  0.116477  0.132308  1
  Zr  Zr5  1  0.883523  0.883523  0.867692  1
  Zr  Zr6  1  0.953983  0.779921  0.137667  1
  Zr  Zr7  1  0.220079  0.046017  0.862333  1
  Zr  Zr8  1  0.046017  0.220079  0.862333  1
  Zr  Zr9  1  0.779921  0.953983  0.137667  1
  B  B10  1  0.000000  0.000000  0.000000  1
  I  I11  1  0.807630  0.601207  0.008227  1
  I  I12  1  0.398794  0.192370  0.991773  1
  I  I13  1  0.192370  0.398794  0.991773  1
  I  I14  1  0.601206  0.807630  0.008227  1
  I  I15  1  0.205677  0.794323  0.000000  1
  I  I16  1  0.794323  0.205677  0.000000  1
  I  I17  1  0.316586  0.316586  0.674807  1
  I  I18  1  0.683414  0.683414  0.325193  1
  I  I19  1  0.888836  0.492021  0.324644  1
  I  I20  1  0.507979  0.111164  0.675356  1
  I  I21  1  0.111164  0.507979  0.675356  1
  I  I22  1  0.492021  0.888836  0.324644  1
  I  I23  1  0.263370  0.263370  0.301189  1
  I  I24  1  0.736630  0.736630  0.698811  1
  I  I25  1  0.078611  0.875502  0.319416  1
  I  I26  1  0.124498  0.921389  0.680584  1
  I  I27  1  0.921389  0.124498  0.680584  1
  I  I28  1  0.875502  0.078611  0.319416  1
