# generated using pymatgen
data_Tb3Y(CoOs)4
_symmetry_space_group_name_H-M   'P 1'
_cell_length_a   5.26508300
_cell_length_b   5.24180760
_cell_length_c   9.05073900
_cell_angle_alpha   71.66262594
_cell_angle_beta   90.00000000
_cell_angle_gamma   120.14700054
_symmetry_Int_Tables_number   1
_chemical_formula_structural   Tb3Y(CoOs)4
_chemical_formula_sum   'Tb3 Y1 Co4 Os4'
_cell_volume   201.19808703
_cell_formula_units_Z   1
loop_
 _symmetry_equiv_pos_site_id
 _symmetry_equiv_pos_as_xyz
  1  'x, y, z'
loop_
 _atom_site_type_symbol
 _atom_site_label
 _atom_site_symmetry_multiplicity
 _atom_site_fract_x
 _atom_site_fract_y
 _atom_site_fract_z
 _atom_site_occupancy
  Tb  Tb0  1  0.811330  0.122659  0.561149  1
  Tb  Tb1  1  0.188979  0.877957  0.438619  1
  Tb  Tb2  1  0.688697  0.877396  0.938650  1
  Y  Y3  1  0.310944  0.121889  0.061465  1
  Co  Co4  1  0.750123  0.500493  0.249253  1
  Co  Co5  1  0.250233  0.499658  0.750838  1
  Co  Co6  1  0.250371  0.500493  0.249253  1
  Co  Co7  1  0.749425  0.499658  0.750838  1
  Os  Os8  1  0.000022  0.500045  0.999895  1
  Os  Os9  1  0.500106  0.500214  0.499946  1
  Os  Os10  1  0.749454  0.998909  0.249766  1
  Os  Os11  1  0.250314  0.000630  0.750333  1
