# generated using pymatgen
data_Tb2Sc3Ga3Si
_symmetry_space_group_name_H-M   'P 1'
_cell_length_a   7.26414600
_cell_length_b   7.50019800
_cell_length_c   14.47697200
_cell_angle_alpha   90.00000000
_cell_angle_beta   90.00000000
_cell_angle_gamma   90.00000000
_symmetry_Int_Tables_number   1
_chemical_formula_structural   Tb2Sc3Ga3Si
_chemical_formula_sum   'Tb8 Sc12 Ga12 Si4'
_cell_volume   788.74210909
_cell_formula_units_Z   4
loop_
 _symmetry_equiv_pos_site_id
 _symmetry_equiv_pos_as_xyz
  1  'x, y, z'
loop_
 _atom_site_type_symbol
 _atom_site_label
 _atom_site_symmetry_multiplicity
 _atom_site_fract_x
 _atom_site_fract_y
 _atom_site_fract_z
 _atom_site_occupancy
  Tb  Tb0  1  0.011509  0.177439  0.097085  1
  Tb  Tb1  1  0.988491  0.822561  0.902915  1
  Tb  Tb2  1  0.488491  0.677439  0.902915  1
  Tb  Tb3  1  0.988491  0.822561  0.597085  1
  Tb  Tb4  1  0.511509  0.322561  0.097085  1
  Tb  Tb5  1  0.011509  0.177439  0.402915  1
  Tb  Tb6  1  0.511509  0.322561  0.402915  1
  Tb  Tb7  1  0.488491  0.677439  0.597085  1
  Sc  Sc8  1  0.161700  0.506353  0.750000  1
  Sc  Sc9  1  0.838300  0.493647  0.250000  1
  Sc  Sc10  1  0.338300  0.006353  0.250000  1
  Sc  Sc11  1  0.661700  0.993647  0.750000  1
  Sc  Sc12  1  0.329541  0.173102  0.622939  1
  Sc  Sc13  1  0.670459  0.826898  0.377061  1
  Sc  Sc14  1  0.170459  0.673102  0.377061  1
  Sc  Sc15  1  0.670459  0.826898  0.122939  1
  Sc  Sc16  1  0.829541  0.326898  0.622939  1
  Sc  Sc17  1  0.329541  0.173102  0.877061  1
  Sc  Sc18  1  0.829541  0.326898  0.877061  1
  Sc  Sc19  1  0.170459  0.673102  0.122939  1
  Ga  Ga20  1  0.033281  0.115677  0.750000  1
  Ga  Ga21  1  0.966719  0.884323  0.250000  1
  Ga  Ga22  1  0.466719  0.615677  0.250000  1
  Ga  Ga23  1  0.533281  0.384323  0.750000  1
  Ga  Ga24  1  0.159430  0.464495  0.540790  1
  Ga  Ga25  1  0.840570  0.535505  0.459210  1
  Ga  Ga26  1  0.340570  0.964495  0.459210  1
  Ga  Ga27  1  0.840570  0.535505  0.040790  1
  Ga  Ga28  1  0.659430  0.035505  0.540790  1
  Ga  Ga29  1  0.159430  0.464495  0.959210  1
  Ga  Ga30  1  0.659430  0.035505  0.959210  1
  Ga  Ga31  1  0.340570  0.964495  0.040790  1
  Si  Si32  1  0.285176  0.875954  0.750000  1
  Si  Si33  1  0.714824  0.124046  0.250000  1
  Si  Si34  1  0.214824  0.375954  0.250000  1
  Si  Si35  1  0.785176  0.624046  0.750000  1
