# generated using pymatgen
data_Ho3Pa(MnC4)2
_symmetry_space_group_name_H-M   'P 1'
_cell_length_a   6.54869207
_cell_length_b   6.59767449
_cell_length_c   6.59767371
_cell_angle_alpha   135.22678061
_cell_angle_beta   110.32789789
_cell_angle_gamma   86.84011666
_symmetry_Int_Tables_number   1
_chemical_formula_structural   Ho3Pa(MnC4)2
_chemical_formula_sum   'Ho3 Pa1 Mn2 C8'
_cell_volume   180.17731529
_cell_formula_units_Z   1
loop_
 _symmetry_equiv_pos_site_id
 _symmetry_equiv_pos_as_xyz
  1  'x, y, z'
loop_
 _atom_site_type_symbol
 _atom_site_label
 _atom_site_symmetry_multiplicity
 _atom_site_fract_x
 _atom_site_fract_y
 _atom_site_fract_z
 _atom_site_occupancy
  Ho  Ho0  1  0.493309  0.643835  0.849474  1
  Ho  Ho1  1  0.193133  0.857264  0.335869  1
  Ho  Ho2  1  0.804481  0.148357  0.656124  1
  Pa  Pa3  1  0.514782  0.355647  0.159135  1
  Mn  Mn4  1  0.997609  0.248505  0.251191  1
  Mn  Mn5  1  0.997609  0.746418  0.749104  1
  C  C6  1  0.241820  0.076532  0.165289  1
  C  C7  1  0.749565  0.920339  0.829225  1
  C  C8  1  0.919508  0.580722  0.338786  1
  C  C9  1  0.089844  0.420483  0.669361  1
  C  C10  1  0.472237  0.136349  0.335888  1
  C  C11  1  0.522151  0.869569  0.652584  1
  C  C12  1  0.783058  0.622517  0.160542  1
  C  C13  1  0.220893  0.373463  0.847430  1
