# generated using pymatgen
data_Mg2Sb2PtAu
_symmetry_space_group_name_H-M   'P 1'
_cell_length_a   7.96770229
_cell_length_b   7.96770243
_cell_length_c   7.96770201
_cell_angle_alpha   33.01099772
_cell_angle_beta   33.01099864
_cell_angle_gamma   33.01098611
_symmetry_Int_Tables_number   1
_chemical_formula_structural   Mg2Sb2PtAu
_chemical_formula_sum   'Mg2 Sb2 Pt1 Au1'
_cell_volume   133.60695755
_cell_formula_units_Z   1
loop_
 _symmetry_equiv_pos_site_id
 _symmetry_equiv_pos_as_xyz
  1  'x, y, z'
loop_
 _atom_site_type_symbol
 _atom_site_label
 _atom_site_symmetry_multiplicity
 _atom_site_fract_x
 _atom_site_fract_y
 _atom_site_fract_z
 _atom_site_occupancy
  Mg  Mg0  1  0.746431  0.746431  0.746431  1
  Mg  Mg1  1  0.252024  0.252024  0.252024  1
  Sb  Sb2  1  0.997976  0.997976  0.997976  1
  Sb  Sb3  1  0.504864  0.504864  0.504864  1
  Pt  Pt4  1  0.625264  0.625264  0.625264  1
  Au  Au5  1  0.123439  0.123439  0.123439  1
