# generated using pymatgen
data_Ho2Th2Mg3ZnRh4
_symmetry_space_group_name_H-M   'P 1'
_cell_length_a   3.98552500
_cell_length_b   7.22366944
_cell_length_c   8.76724388
_cell_angle_alpha   92.55026903
_cell_angle_beta   90.00000000
_cell_angle_gamma   90.00000000
_symmetry_Int_Tables_number   1
_chemical_formula_structural   Ho2Th2Mg3ZnRh4
_chemical_formula_sum   'Ho2 Th2 Mg3 Zn1 Rh4'
_cell_volume   252.15996562
_cell_formula_units_Z   1
loop_
 _symmetry_equiv_pos_site_id
 _symmetry_equiv_pos_as_xyz
  1  'x, y, z'
loop_
 _atom_site_type_symbol
 _atom_site_label
 _atom_site_symmetry_multiplicity
 _atom_site_fract_x
 _atom_site_fract_y
 _atom_site_fract_z
 _atom_site_occupancy
  Ho  Ho0  1  0.250000  0.051606  0.332827  1
  Ho  Ho1  1  0.750000  0.961119  0.672211  1
  Th  Th2  1  0.250000  0.532955  0.191470  1
  Th  Th3  1  0.750000  0.460852  0.809539  1
  Mg  Mg4  1  0.250000  0.125077  0.937655  1
  Mg  Mg5  1  0.750000  0.872856  0.063494  1
  Mg  Mg6  1  0.250000  0.634692  0.553209  1
  Zn  Zn7  1  0.750000  0.359736  0.442630  1
  Rh  Rh8  1  0.750000  0.750991  0.362707  1
  Rh  Rh9  1  0.250000  0.253698  0.634251  1
  Rh  Rh10  1  0.750000  0.265101  0.127750  1
  Rh  Rh11  1  0.250000  0.731319  0.872256  1
