# generated using pymatgen
data_Tm3CoNi5B2Ir
_symmetry_space_group_name_H-M   'P 1'
_cell_length_a   5.02749500
_cell_length_b   5.04868750
_cell_length_c   14.48498600
_cell_angle_alpha   90.00000000
_cell_angle_beta   90.00000000
_cell_angle_gamma   119.86124705
_symmetry_Int_Tables_number   1
_chemical_formula_structural   Tm3CoNi5B2Ir
_chemical_formula_sum   'Tm6 Co2 Ni10 B4 Ir2'
_cell_volume   318.84849305
_cell_formula_units_Z   2
loop_
 _symmetry_equiv_pos_site_id
 _symmetry_equiv_pos_as_xyz
  1  'x, y, z'
loop_
 _atom_site_type_symbol
 _atom_site_label
 _atom_site_symmetry_multiplicity
 _atom_site_fract_x
 _atom_site_fract_y
 _atom_site_fract_z
 _atom_site_occupancy
  Tm  Tm0  1  0.332290  0.664580  0.532907  1
  Tm  Tm1  1  0.667710  0.335420  0.032907  1
  Tm  Tm2  1  0.665944  0.331886  0.469675  1
  Tm  Tm3  1  0.334056  0.668114  0.969675  1
  Tm  Tm4  1  0.334415  0.668831  0.749975  1
  Tm  Tm5  1  0.665585  0.331169  0.249975  1
  Co  Co6  1  0.162186  0.324372  0.153411  1
  Co  Co7  1  0.837814  0.675628  0.653411  1
  Ni  Ni8  1  0.667428  0.831678  0.150908  1
  Ni  Ni9  1  0.164249  0.831678  0.150908  1
  Ni  Ni10  1  0.835751  0.168322  0.650908  1
  Ni  Ni11  1  0.332572  0.168322  0.650908  1
  Ni  Ni12  1  0.835386  0.670772  0.847905  1
  Ni  Ni13  1  0.834834  0.166923  0.848300  1
  Ni  Ni14  1  0.332089  0.166923  0.848300  1
  Ni  Ni15  1  0.667911  0.833077  0.348300  1
  Ni  Ni16  1  0.165166  0.833077  0.348300  1
  Ni  Ni17  1  0.164614  0.329228  0.347905  1
  B  B18  1  0.330501  0.661003  0.248739  1
  B  B19  1  0.669499  0.338997  0.748739  1
  B  B20  1  0.000864  0.001727  0.249143  1
  B  B21  1  0.999136  0.998273  0.749143  1
  Ir  Ir22  1  0.002555  0.005111  0.999831  1
  Ir  Ir23  1  0.997445  0.994889  0.499831  1
