# generated using pymatgen
data_Hf18Re8OsSe
_symmetry_space_group_name_H-M   'P 1'
_cell_length_a   8.62986900
_cell_length_b   8.62999419
_cell_length_c   8.61584700
_cell_angle_alpha   90.00000000
_cell_angle_beta   90.00000000
_cell_angle_gamma   120.00189480
_symmetry_Int_Tables_number   1
_chemical_formula_structural   Hf18Re8OsSe
_chemical_formula_sum   'Hf18 Re8 Os1 Se1'
_cell_volume   555.69312514
_cell_formula_units_Z   1
loop_
 _symmetry_equiv_pos_site_id
 _symmetry_equiv_pos_as_xyz
  1  'x, y, z'
loop_
 _atom_site_type_symbol
 _atom_site_label
 _atom_site_symmetry_multiplicity
 _atom_site_fract_x
 _atom_site_fract_y
 _atom_site_fract_z
 _atom_site_occupancy
  Hf  Hf0  1  0.195976  0.804021  0.445435  1
  Hf  Hf1  1  0.195979  0.391958  0.445439  1
  Hf  Hf2  1  0.608042  0.804017  0.445444  1
  Hf  Hf3  1  0.808395  0.191610  0.547991  1
  Hf  Hf4  1  0.808391  0.616784  0.547990  1
  Hf  Hf5  1  0.383215  0.191611  0.547990  1
  Hf  Hf6  1  0.808395  0.191610  0.952009  1
  Hf  Hf7  1  0.808391  0.616784  0.952010  1
  Hf  Hf8  1  0.383215  0.191611  0.952010  1
  Hf  Hf9  1  0.195976  0.804021  0.054565  1
  Hf  Hf10  1  0.195979  0.391958  0.054561  1
  Hf  Hf11  1  0.608042  0.804017  0.054556  1
  Hf  Hf12  1  0.541330  0.458674  0.250000  1
  Hf  Hf13  1  0.541333  0.082659  0.250000  1
  Hf  Hf14  1  0.917342  0.458668  0.250000  1
  Hf  Hf15  1  0.455666  0.544341  0.750000  1
  Hf  Hf16  1  0.455665  0.911322  0.750000  1
  Hf  Hf17  1  0.088682  0.544340  0.750000  1
  Re  Re18  1  0.889499  0.110497  0.250000  1
  Re  Re19  1  0.889497  0.778994  0.250000  1
  Re  Re20  1  0.221000  0.110495  0.250000  1
  Re  Re21  1  0.110324  0.889676  0.750000  1
  Re  Re22  1  0.110329  0.220664  0.750000  1
  Re  Re23  1  0.779339  0.889670  0.750000  1
  Re  Re24  1  0.000000  0.000001  0.498910  1
  Re  Re25  1  0.000000  0.000001  0.001090  1
  Os  Os26  1  0.333333  0.666663  0.250000  1
  Se  Se27  1  0.666663  0.333331  0.750000  1
