# generated using pymatgen
data_Ta3Tc2B3Ru
_symmetry_space_group_name_H-M   'P 1'
_cell_length_a   3.15550100
_cell_length_b   9.06401200
_cell_length_c   15.68851800
_cell_angle_alpha   90.00000000
_cell_angle_beta   90.00000000
_cell_angle_gamma   90.00000000
_symmetry_Int_Tables_number   1
_chemical_formula_structural   Ta3Tc2B3Ru
_chemical_formula_sum   'Ta12 Tc8 B12 Ru4'
_cell_volume   448.71513079
_cell_formula_units_Z   4
loop_
 _symmetry_equiv_pos_site_id
 _symmetry_equiv_pos_as_xyz
  1  'x, y, z'
loop_
 _atom_site_type_symbol
 _atom_site_label
 _atom_site_symmetry_multiplicity
 _atom_site_fract_x
 _atom_site_fract_y
 _atom_site_fract_z
 _atom_site_occupancy
  Ta  Ta0  1  0.000000  0.804440  0.493309  1
  Ta  Ta1  1  0.000000  0.195560  0.506691  1
  Ta  Ta2  1  0.000000  0.304440  0.006691  1
  Ta  Ta3  1  0.000000  0.695560  0.993309  1
  Ta  Ta4  1  0.000000  0.515385  0.595295  1
  Ta  Ta5  1  0.000000  0.484615  0.404705  1
  Ta  Ta6  1  0.000000  0.015385  0.904705  1
  Ta  Ta7  1  0.000000  0.984615  0.095295  1
  Ta  Ta8  1  0.000000  0.681968  0.205331  1
  Ta  Ta9  1  0.000000  0.318032  0.794669  1
  Ta  Ta10  1  0.000000  0.181968  0.294669  1
  Ta  Ta11  1  0.000000  0.818032  0.705331  1
  Tc  Tc12  1  0.500000  0.717489  0.356820  1
  Tc  Tc13  1  0.500000  0.282511  0.643180  1
  Tc  Tc14  1  0.500000  0.217489  0.143180  1
  Tc  Tc15  1  0.500000  0.782511  0.856820  1
  Tc  Tc16  1  0.500000  0.518755  0.096073  1
  Tc  Tc17  1  0.500000  0.481245  0.903927  1
  Tc  Tc18  1  0.500000  0.018755  0.403927  1
  Tc  Tc19  1  0.500000  0.981245  0.596073  1
  B  B20  1  0.500000  0.605001  0.495059  1
  B  B21  1  0.500000  0.394999  0.504941  1
  B  B22  1  0.500000  0.105001  0.004941  1
  B  B23  1  0.500000  0.894999  0.995059  1
  B  B24  1  0.000000  0.610358  0.833821  1
  B  B25  1  0.000000  0.389642  0.166179  1
  B  B26  1  0.000000  0.110358  0.666179  1
  B  B27  1  0.000000  0.889642  0.333821  1
  B  B28  1  0.500000  0.716475  0.600824  1
  B  B29  1  0.500000  0.283525  0.399176  1
  B  B30  1  0.500000  0.216475  0.899176  1
  B  B31  1  0.500000  0.783525  0.100824  1
  Ru  Ru32  1  0.500000  0.568182  0.732454  1
  Ru  Ru33  1  0.500000  0.431818  0.267546  1
  Ru  Ru34  1  0.500000  0.068182  0.767546  1
  Ru  Ru35  1  0.500000  0.931818  0.232454  1
