# generated using pymatgen
data_La3Nd5CdHgIr2
_symmetry_space_group_name_H-M   'P 1'
_cell_length_a   9.98506359
_cell_length_b   10.03097446
_cell_length_c   10.04107187
_cell_angle_alpha   59.66432338
_cell_angle_beta   60.11757554
_cell_angle_gamma   60.19359069
_symmetry_Int_Tables_number   1
_chemical_formula_structural   La3Nd5CdHgIr2
_chemical_formula_sum   'La6 Nd10 Cd2 Hg2 Ir4'
_cell_volume   710.97932481
_cell_formula_units_Z   2
loop_
 _symmetry_equiv_pos_site_id
 _symmetry_equiv_pos_as_xyz
  1  'x, y, z'
loop_
 _atom_site_type_symbol
 _atom_site_label
 _atom_site_symmetry_multiplicity
 _atom_site_fract_x
 _atom_site_fract_y
 _atom_site_fract_z
 _atom_site_occupancy
  La  La0  1  0.346216  0.349721  0.348797  1
  La  La1  1  0.349721  0.346216  0.955266  1
  La  La2  1  0.351205  0.951464  0.346944  1
  La  La3  1  0.951464  0.351205  0.350386  1
  La  La4  1  0.812001  0.186730  0.189225  1
  La  La5  1  0.186730  0.812001  0.812044  1
  Nd  Nd6  1  0.190690  0.807668  0.193005  1
  Nd  Nd7  1  0.807668  0.190690  0.808636  1
  Nd  Nd8  1  0.190380  0.190380  0.809620  1
  Nd  Nd9  1  0.806453  0.806453  0.193547  1
  Nd  Nd10  1  0.937368  0.561954  0.564466  1
  Nd  Nd11  1  0.561954  0.937368  0.936213  1
  Nd  Nd12  1  0.561285  0.938188  0.562714  1
  Nd  Nd13  1  0.938188  0.561285  0.937813  1
  Nd  Nd14  1  0.561911  0.561911  0.938089  1
  Nd  Nd15  1  0.937643  0.937643  0.562357  1
  Cd  Cd16  1  0.578980  0.258881  0.582226  1
  Cd  Cd17  1  0.258881  0.578980  0.579910  1
  Hg  Hg18  1  0.585265  0.583381  0.585544  1
  Hg  Hg19  1  0.583381  0.585265  0.245809  1
  Ir  Ir20  1  0.137768  0.144113  0.141904  1
  Ir  Ir21  1  0.144113  0.137768  0.576213  1
  Ir  Ir22  1  0.144361  0.576370  0.136714  1
  Ir  Ir23  1  0.576370  0.144361  0.142553  1
