# generated using pymatgen
data_Dy10ZnBi5S2
_symmetry_space_group_name_H-M   'P 1'
_cell_length_a   9.15071100
_cell_length_b   9.17198646
_cell_length_c   6.60663800
_cell_angle_alpha   90.00000000
_cell_angle_beta   90.00000000
_cell_angle_gamma   120.07694986
_symmetry_Int_Tables_number   1
_chemical_formula_structural   Dy10ZnBi5S2
_chemical_formula_sum   'Dy10 Zn1 Bi5 S2'
_cell_volume   479.83521094
_cell_formula_units_Z   1
loop_
 _symmetry_equiv_pos_site_id
 _symmetry_equiv_pos_as_xyz
  1  'x, y, z'
loop_
 _atom_site_type_symbol
 _atom_site_label
 _atom_site_symmetry_multiplicity
 _atom_site_fract_x
 _atom_site_fract_y
 _atom_site_fract_z
 _atom_site_occupancy
  Dy  Dy0  1  0.755613  0.756352  0.750000  1
  Dy  Dy1  1  0.244387  0.000739  0.750000  1
  Dy  Dy2  1  0.000000  0.243860  0.750000  1
  Dy  Dy3  1  0.235077  0.249420  0.250000  1
  Dy  Dy4  1  0.764923  0.014343  0.250000  1
  Dy  Dy5  1  0.000000  0.749141  0.250000  1
  Dy  Dy6  1  0.677787  0.336339  0.002945  1
  Dy  Dy7  1  0.322213  0.658553  0.002945  1
  Dy  Dy8  1  0.322213  0.658553  0.497055  1
  Dy  Dy9  1  0.677787  0.336339  0.497055  1
  Zn  Zn10  1  0.000000  0.398805  0.250000  1
  Bi  Bi11  1  0.396559  0.394537  0.750000  1
  Bi  Bi12  1  0.603441  0.997978  0.750000  1
  Bi  Bi13  1  0.000000  0.601301  0.750000  1
  Bi  Bi14  1  0.605398  0.607040  0.250000  1
  Bi  Bi15  1  0.394602  0.001642  0.250000  1
  S  S16  1  0.000000  0.997529  0.999647  1
  S  S17  1  0.000000  0.997529  0.500353  1
