# generated using pymatgen
data_Dy3Ho2Er3(P3Ir4)4
_symmetry_space_group_name_H-M   'P 1'
_cell_length_a   12.96266300
_cell_length_b   12.96350724
_cell_length_c   4.00000400
_cell_angle_alpha   90.00000000
_cell_angle_beta   90.00000000
_cell_angle_gamma   119.99784829
_symmetry_Int_Tables_number   1
_chemical_formula_structural   Dy3Ho2Er3(P3Ir4)4
_chemical_formula_sum   'Dy3 Ho2 Er3 P12 Ir16'
_cell_volume   582.12629661
_cell_formula_units_Z   1
loop_
 _symmetry_equiv_pos_site_id
 _symmetry_equiv_pos_as_xyz
  1  'x, y, z'
loop_
 _atom_site_type_symbol
 _atom_site_label
 _atom_site_symmetry_multiplicity
 _atom_site_fract_x
 _atom_site_fract_y
 _atom_site_fract_z
 _atom_site_occupancy
  Dy  Dy0  1  0.333333  0.666669  0.500000  1
  Dy  Dy1  1  0.666666  0.333331  0.500000  1
  Dy  Dy2  1  0.814815  0.000000  0.000000  1
  Ho  Ho3  1  0.000004  0.814776  0.000000  1
  Ho  Ho4  1  0.185229  0.185224  0.000000  1
  Er  Er5  1  0.000003  0.446581  0.500000  1
  Er  Er6  1  0.553423  0.553419  0.500000  1
  Er  Er7  1  0.446483  0.000000  0.500000  1
  P  P8  1  0.000010  0.652957  0.500000  1
  P  P9  1  0.347052  0.347043  0.500000  1
  P  P10  1  0.652802  0.000000  0.500000  1
  P  P11  1  0.516702  0.688292  0.000000  1
  P  P12  1  0.311706  0.828380  0.000000  1
  P  P13  1  0.171604  0.483333  0.000000  1
  P  P14  1  0.483326  0.171620  0.000000  1
  P  P15  1  0.688271  0.516667  0.000000  1
  P  P16  1  0.828410  0.311708  0.000000  1
  P  P17  1  0.000062  0.176573  0.500000  1
  P  P18  1  0.823488  0.823427  0.500000  1
  P  P19  1  0.176510  0.000000  0.500000  1
  Ir  Ir20  1  0.509490  0.865756  0.000000  1
  Ir  Ir21  1  0.134284  0.643759  0.000000  1
  Ir  Ir22  1  0.356258  0.490539  0.000000  1
  Ir  Ir23  1  0.490525  0.356241  0.000000  1
  Ir  Ir24  1  0.865720  0.509461  0.000000  1
  Ir  Ir25  1  0.643735  0.134244  0.000000  1
  Ir  Ir26  1  0.000098  0.274898  0.000000  1
  Ir  Ir27  1  0.725200  0.725102  0.000000  1
  Ir  Ir28  1  0.274757  0.000000  0.000000  1
  Ir  Ir29  1  0.630303  0.809061  0.500000  1
  Ir  Ir30  1  0.190746  0.821251  0.500000  1
  Ir  Ir31  1  0.178769  0.369491  0.500000  1
  Ir  Ir32  1  0.369495  0.178749  0.500000  1
  Ir  Ir33  1  0.809279  0.630509  0.500000  1
  Ir  Ir34  1  0.821243  0.190939  0.500000  1
  Ir  Ir35  1  0.000197  0.000000  0.500000  1
