# generated using pymatgen
data_SmY3Mn2(Co2B)6
_symmetry_space_group_name_H-M   'P 1'
_cell_length_a   5.09621808
_cell_length_b   5.09489008
_cell_length_c   12.67055600
_cell_angle_alpha   89.99989017
_cell_angle_beta   90.00004691
_cell_angle_gamma   119.98878476
_symmetry_Int_Tables_number   1
_chemical_formula_structural   SmY3Mn2(Co2B)6
_chemical_formula_sum   'Sm1 Y3 Mn2 Co12 B6'
_cell_volume   284.94313415
_cell_formula_units_Z   1
loop_
 _symmetry_equiv_pos_site_id
 _symmetry_equiv_pos_as_xyz
  1  'x, y, z'
loop_
 _atom_site_type_symbol
 _atom_site_label
 _atom_site_symmetry_multiplicity
 _atom_site_fract_x
 _atom_site_fract_y
 _atom_site_fract_z
 _atom_site_occupancy
  Sm  Sm0  1  0.999991  0.000000  0.999985  1
  Y  Y1  1  0.999993  0.000001  0.499967  1
  Y  Y2  1  0.999988  0.000001  0.260954  1
  Y  Y3  1  0.999998  0.000001  0.739083  1
  Mn  Mn4  1  0.333321  0.666639  0.999994  1
  Mn  Mn5  1  0.666652  0.333346  0.999982  1
  Co  Co6  1  0.499987  0.000002  0.159012  1
  Co  Co7  1  0.499988  0.500001  0.159020  1
  Co  Co8  1  0.999987  0.500001  0.159045  1
  Co  Co9  1  0.499997  0.999999  0.841005  1
  Co  Co10  1  0.499997  0.500000  0.840981  1
  Co  Co11  1  0.999993  0.499997  0.840985  1
  Co  Co12  1  0.499991  0.000002  0.385640  1
  Co  Co13  1  0.499990  0.500001  0.385671  1
  Co  Co14  1  0.999989  0.500000  0.385681  1
  Co  Co15  1  0.499997  0.000002  0.614340  1
  Co  Co16  1  0.499996  0.500001  0.614318  1
  Co  Co17  1  0.999995  0.500001  0.614309  1
  B  B18  1  0.333416  0.666764  0.499981  1
  B  B19  1  0.666569  0.333238  0.499980  1
  B  B20  1  0.333336  0.666651  0.269610  1
  B  B21  1  0.666639  0.333350  0.269605  1
  B  B22  1  0.666620  0.333309  0.730428  1
  B  B23  1  0.333370  0.666692  0.730423  1
