# generated using pymatgen
data_YLu2MgCo8
_symmetry_space_group_name_H-M   'P 1'
_cell_length_a   4.98179900
_cell_length_b   4.98179909
_cell_length_c   8.66246832
_cell_angle_alpha   73.28862366
_cell_angle_beta   90.00000000
_cell_angle_gamma   120.00000607
_symmetry_Int_Tables_number   1
_chemical_formula_structural   YLu2MgCo8
_chemical_formula_sum   'Y1 Lu2 Mg1 Co8'
_cell_volume   175.62217528
_cell_formula_units_Z   1
loop_
 _symmetry_equiv_pos_site_id
 _symmetry_equiv_pos_as_xyz
  1  'x, y, z'
loop_
 _atom_site_type_symbol
 _atom_site_label
 _atom_site_symmetry_multiplicity
 _atom_site_fract_x
 _atom_site_fract_y
 _atom_site_fract_z
 _atom_site_occupancy
  Y  Y0  1  0.002964  0.005927  0.991109  1
  Lu  Lu1  1  0.496721  0.993440  0.509840  1
  Lu  Lu2  1  0.875301  0.750604  0.374095  1
  Mg  Mg3  1  0.375298  0.750597  0.874105  1
  Co  Co4  1  0.437165  0.374122  0.188713  1
  Co  Co5  1  0.936696  0.376846  0.686459  1
  Co  Co6  1  0.437165  0.874331  0.188713  1
  Co  Co7  1  0.936696  0.873392  0.686459  1
  Co  Co8  1  0.187328  0.374658  0.438014  1
  Co  Co9  1  0.687560  0.375120  0.937320  1
  Co  Co10  1  0.936955  0.374122  0.188713  1
  Co  Co11  1  0.440150  0.376846  0.686459  1
