# generated using pymatgen
data_Sm4Tm4Sc12Si15Sb
_symmetry_space_group_name_H-M   'P 1'
_cell_length_a   7.17494959
_cell_length_b   7.41231135
_cell_length_c   14.06750822
_cell_angle_alpha   90.16971389
_cell_angle_beta   88.84210614
_cell_angle_gamma   90.34044455
_symmetry_Int_Tables_number   1
_chemical_formula_structural   Sm4Tm4Sc12Si15Sb
_chemical_formula_sum   'Sm4 Tm4 Sc12 Si15 Sb1'
_cell_volume   747.98273423
_cell_formula_units_Z   1
loop_
 _symmetry_equiv_pos_site_id
 _symmetry_equiv_pos_as_xyz
  1  'x, y, z'
loop_
 _atom_site_type_symbol
 _atom_site_label
 _atom_site_symmetry_multiplicity
 _atom_site_fract_x
 _atom_site_fract_y
 _atom_site_fract_z
 _atom_site_occupancy
  Sm  Sm0  1  0.010131  0.175046  0.097844  1
  Sm  Sm1  1  0.989013  0.827021  0.903674  1
  Sm  Sm2  1  0.490330  0.672854  0.906054  1
  Sm  Sm3  1  0.993439  0.828275  0.595576  1
  Tm  Tm4  1  0.511304  0.324267  0.100128  1
  Tm  Tm5  1  0.000737  0.173564  0.398317  1
  Tm  Tm6  1  0.507831  0.318533  0.399283  1
  Tm  Tm7  1  0.509859  0.683177  0.599095  1
  Sc  Sc8  1  0.166259  0.500211  0.752487  1
  Sc  Sc9  1  0.833081  0.497685  0.252998  1
  Sc  Sc10  1  0.333989  0.001737  0.251805  1
  Sc  Sc11  1  0.667886  0.999697  0.749818  1
  Sc  Sc12  1  0.348606  0.160855  0.629339  1
  Sc  Sc13  1  0.658057  0.826287  0.372751  1
  Sc  Sc14  1  0.155076  0.679578  0.371112  1
  Sc  Sc15  1  0.666118  0.823565  0.126516  1
  Sc  Sc16  1  0.831816  0.326829  0.623118  1
  Sc  Sc17  1  0.333358  0.176607  0.874703  1
  Sc  Sc18  1  0.831168  0.324770  0.875383  1
  Sc  Sc19  1  0.168518  0.674557  0.126161  1
  Si  Si20  1  0.038308  0.123791  0.749811  1
  Si  Si21  1  0.960825  0.882404  0.248591  1
  Si  Si22  1  0.460322  0.614980  0.248766  1
  Si  Si23  1  0.539043  0.382239  0.750738  1
  Si  Si24  1  0.293885  0.870527  0.750397  1
  Si  Si25  1  0.707347  0.127618  0.249635  1
  Si  Si26  1  0.210554  0.373514  0.250868  1
  Si  Si27  1  0.791534  0.624068  0.749328  1
  Si  Si28  1  0.811052  0.537493  0.455488  1
  Si  Si29  1  0.332556  0.965818  0.458693  1
  Si  Si30  1  0.840660  0.534482  0.040956  1
  Si  Si31  1  0.666809  0.039226  0.537098  1
  Si  Si32  1  0.152624  0.464217  0.961333  1
  Si  Si33  1  0.653004  0.039786  0.962282  1
  Si  Si34  1  0.346904  0.968646  0.041855  1
  Sb  Sb35  1  0.187993  0.456072  0.538002  1
