# generated using pymatgen
data_Y6Ga2CO
_symmetry_space_group_name_H-M   'P 1'
_cell_length_a   6.74966667
_cell_length_b   6.74966561
_cell_length_c   6.74966500
_cell_angle_alpha   59.99999811
_cell_angle_beta   60.00000330
_cell_angle_gamma   60.00000550
_symmetry_Int_Tables_number   1
_chemical_formula_structural   Y6Ga2CO
_chemical_formula_sum   'Y6 Ga2 C1 O1'
_cell_volume   217.43618880
_cell_formula_units_Z   1
loop_
 _symmetry_equiv_pos_site_id
 _symmetry_equiv_pos_as_xyz
  1  'x, y, z'
loop_
 _atom_site_type_symbol
 _atom_site_label
 _atom_site_symmetry_multiplicity
 _atom_site_fract_x
 _atom_site_fract_y
 _atom_site_fract_z
 _atom_site_occupancy
  Y  Y0  1  0.748826  0.251174  0.251174  1
  Y  Y1  1  0.748826  0.251174  0.748826  1
  Y  Y2  1  0.251174  0.748826  0.251174  1
  Y  Y3  1  0.251174  0.251174  0.748826  1
  Y  Y4  1  0.748826  0.748826  0.251174  1
  Y  Y5  1  0.251174  0.748826  0.748826  1
  Ga  Ga6  1  0.750000  0.750000  0.750000  1
  Ga  Ga7  1  0.250000  0.250000  0.250000  1
  C  C8  1  0.500000  0.500000  0.500000  1
  O  O9  1  0.000000  0.000000  0.000000  1
