# generated using pymatgen
data_Tb4GaBi3Sb2Rh7
_symmetry_space_group_name_H-M   'P 1'
_cell_length_a   7.65398728
_cell_length_b   7.67197803
_cell_length_c   7.67197787
_cell_angle_alpha   108.57325735
_cell_angle_beta   109.76914743
_cell_angle_gamma   109.76915312
_symmetry_Int_Tables_number   1
_chemical_formula_structural   Tb4GaBi3Sb2Rh7
_chemical_formula_sum   'Tb4 Ga1 Bi3 Sb2 Rh7'
_cell_volume   348.05032121
_cell_formula_units_Z   1
loop_
 _symmetry_equiv_pos_site_id
 _symmetry_equiv_pos_as_xyz
  1  'x, y, z'
loop_
 _atom_site_type_symbol
 _atom_site_label
 _atom_site_symmetry_multiplicity
 _atom_site_fract_x
 _atom_site_fract_y
 _atom_site_fract_z
 _atom_site_occupancy
  Tb  Tb0  1  0.511901  0.013321  0.013321  1
  Tb  Tb1  1  0.002809  0.481976  0.014287  1
  Tb  Tb2  1  0.002809  0.014287  0.481976  1
  Tb  Tb3  1  0.451108  0.462857  0.462857  1
  Ga  Ga4  1  0.992859  0.334410  0.334410  1
  Bi  Bi5  1  0.692255  0.988154  0.688871  1
  Bi  Bi6  1  0.692255  0.688871  0.988154  1
  Bi  Bi7  1  0.991187  0.685898  0.685898  1
  Sb  Sb8  1  0.322210  0.990274  0.319711  1
  Sb  Sb9  1  0.322210  0.319711  0.990274  1
  Rh  Rh10  1  0.045123  0.067143  0.067143  1
  Rh  Rh11  1  0.496721  0.743247  0.242633  1
  Rh  Rh12  1  0.747453  0.492817  0.242888  1
  Rh  Rh13  1  0.242462  0.739204  0.492310  1
  Rh  Rh14  1  0.242462  0.492310  0.739204  1
  Rh  Rh15  1  0.496721  0.242633  0.743247  1
  Rh  Rh16  1  0.747453  0.242888  0.492817  1
