# generated using pymatgen
data_Gd2Dy3Rh2
_symmetry_space_group_name_H-M   'P 1'
_cell_length_a   6.45776557
_cell_length_b   7.18238274
_cell_length_c   8.66337700
_cell_angle_alpha   96.89256920
_cell_angle_beta   111.88253374
_cell_angle_gamma   89.99999938
_symmetry_Int_Tables_number   1
_chemical_formula_structural   Gd2Dy3Rh2
_chemical_formula_sum   'Gd4 Dy6 Rh4'
_cell_volume   369.74304917
_cell_formula_units_Z   2
loop_
 _symmetry_equiv_pos_site_id
 _symmetry_equiv_pos_as_xyz
  1  'x, y, z'
loop_
 _atom_site_type_symbol
 _atom_site_label
 _atom_site_symmetry_multiplicity
 _atom_site_fract_x
 _atom_site_fract_y
 _atom_site_fract_z
 _atom_site_occupancy
  Gd  Gd0  1  0.791260  0.082035  0.811058  1
  Gd  Gd1  1  0.980202  0.417965  0.188942  1
  Gd  Gd2  1  0.208740  0.917965  0.188942  1
  Gd  Gd3  1  0.019798  0.582035  0.811058  1
  Dy  Dy4  1  0.210896  0.186111  0.562433  1
  Dy  Dy5  1  0.648463  0.313889  0.437567  1
  Dy  Dy6  1  0.789104  0.813889  0.437567  1
  Dy  Dy7  1  0.351537  0.686111  0.562433  1
  Dy  Dy8  1  0.425263  0.250000  0.000000  1
  Dy  Dy9  1  0.574737  0.750000  0.000000  1
  Rh  Rh10  1  0.594183  0.426623  0.776997  1
  Rh  Rh11  1  0.817186  0.073377  0.223003  1
  Rh  Rh12  1  0.405817  0.573377  0.223003  1
  Rh  Rh13  1  0.182814  0.926623  0.776997  1
