# generated using pymatgen
data_Li17(YbSi)6
_symmetry_space_group_name_H-M   'P 1'
_cell_length_a   9.23733000
_cell_length_b   9.23732952
_cell_length_c   9.23733000
_cell_angle_alpha   120.00000173
_cell_angle_beta   90.00000000
_cell_angle_gamma   120.00000173
_symmetry_Int_Tables_number   1
_chemical_formula_structural   Li17(YbSi)6
_chemical_formula_sum   'Li17 Yb6 Si6'
_cell_volume   557.34528756
_cell_formula_units_Z   1
loop_
 _symmetry_equiv_pos_site_id
 _symmetry_equiv_pos_as_xyz
  1  'x, y, z'
loop_
 _atom_site_type_symbol
 _atom_site_label
 _atom_site_symmetry_multiplicity
 _atom_site_fract_x
 _atom_site_fract_y
 _atom_site_fract_z
 _atom_site_occupancy
  Li  Li0  1  0.368506  0.737011  0.105518  1
  Li  Li1  1  0.831107  0.662214  0.168894  1
  Li  Li2  1  0.506680  0.337787  0.168894  1
  Li  Li3  1  0.831107  0.337787  0.168894  1
  Li  Li4  1  0.105518  0.737011  0.368506  1
  Li  Li5  1  0.631494  0.737011  0.368506  1
  Li  Li6  1  0.631494  0.262988  0.368506  1
  Li  Li7  1  0.831107  0.662214  0.493320  1
  Li  Li8  1  0.500000  0.000000  0.500000  1
  Li  Li9  1  0.168894  0.337787  0.506680  1
  Li  Li10  1  0.368506  0.737011  0.631494  1
  Li  Li11  1  0.368506  0.262988  0.631494  1
  Li  Li12  1  0.894482  0.262988  0.631494  1
  Li  Li13  1  0.168894  0.662214  0.831107  1
  Li  Li14  1  0.493320  0.662214  0.831107  1
  Li  Li15  1  0.168894  0.337787  0.831107  1
  Li  Li16  1  0.631494  0.262988  0.894482  1
  Yb  Yb17  1  0.782924  0.000000  0.217075  1
  Yb  Yb18  1  0.217076  0.434152  0.217076  1
  Yb  Yb19  1  0.217076  0.000000  0.217076  1
  Yb  Yb20  1  0.782924  0.000000  0.782924  1
  Yb  Yb21  1  0.217075  0.000000  0.782924  1
  Yb  Yb22  1  0.782924  0.565849  0.782924  1
  Si  Si23  1  0.500000  0.000000  0.000000  1
  Si  Si24  1  0.000000  0.500000  0.000000  1
  Si  Si25  1  0.500000  0.500000  0.000000  1
  Si  Si26  1  0.000000  0.000000  0.500000  1
  Si  Si27  1  0.000000  0.500000  0.500000  1
  Si  Si28  1  0.500000  0.500000  0.500000  1
