# generated using pymatgen
data_K2Ba(FeP)6
_symmetry_space_group_name_H-M   'P 1'
_cell_length_a   8.49146930
_cell_length_b   8.49146890
_cell_length_c   6.87367182
_cell_angle_alpha   68.22673954
_cell_angle_beta   68.22674233
_cell_angle_gamma   36.77052153
_symmetry_Int_Tables_number   1
_chemical_formula_structural   K2Ba(FeP)6
_chemical_formula_sum   'K2 Ba1 Fe6 P6'
_cell_volume   273.08291382
_cell_formula_units_Z   1
loop_
 _symmetry_equiv_pos_site_id
 _symmetry_equiv_pos_as_xyz
  1  'x, y, z'
loop_
 _atom_site_type_symbol
 _atom_site_label
 _atom_site_symmetry_multiplicity
 _atom_site_fract_x
 _atom_site_fract_y
 _atom_site_fract_z
 _atom_site_occupancy
  K  K0  1  0.670915  0.670915  0.000491  1
  K  K1  1  0.329085  0.329085  0.999509  1
  Ba  Ba2  1  0.000000  0.000000  0.000000  1
  Fe  Fe3  1  0.749976  0.250024  0.500000  1
  Fe  Fe4  1  0.083214  0.583368  0.499682  1
  Fe  Fe5  1  0.416632  0.916786  0.500318  1
  Fe  Fe6  1  0.583368  0.083214  0.499682  1
  Fe  Fe7  1  0.916786  0.416632  0.500318  1
  Fe  Fe8  1  0.250024  0.749976  0.500000  1
  P  P9  1  0.887589  0.887589  0.675001  1
  P  P10  1  0.220784  0.220784  0.674592  1
  P  P11  1  0.554212  0.554212  0.674806  1
  P  P12  1  0.445788  0.445788  0.325194  1
  P  P13  1  0.779216  0.779216  0.325408  1
  P  P14  1  0.112411  0.112411  0.324999  1
