# generated using pymatgen
data_Ac2Dy(SnIr)3
_symmetry_space_group_name_H-M   'P 1'
_cell_length_a   7.71103700
_cell_length_b   7.59151583
_cell_length_c   4.28341000
_cell_angle_alpha   90.00000000
_cell_angle_beta   90.00000000
_cell_angle_gamma   120.52218555
_symmetry_Int_Tables_number   1
_chemical_formula_structural   Ac2Dy(SnIr)3
_chemical_formula_sum   'Ac2 Dy1 Sn3 Ir3'
_cell_volume   215.99924036
_cell_formula_units_Z   1
loop_
 _symmetry_equiv_pos_site_id
 _symmetry_equiv_pos_as_xyz
  1  'x, y, z'
loop_
 _atom_site_type_symbol
 _atom_site_label
 _atom_site_symmetry_multiplicity
 _atom_site_fract_x
 _atom_site_fract_y
 _atom_site_fract_z
 _atom_site_occupancy
  Ac  Ac0  1  0.997422  0.414553  0.500000  1
  Ac  Ac1  1  0.582868  0.585447  0.500000  1
  Dy  Dy2  1  0.402464  0.000000  0.500000  1
  Sn  Sn3  1  0.005806  0.757368  0.000000  1
  Sn  Sn4  1  0.248438  0.242632  0.000000  1
  Sn  Sn5  1  0.755491  0.000000  0.000000  1
  Ir  Ir6  1  0.348058  0.702968  0.000000  1
  Ir  Ir7  1  0.645091  0.297032  0.000000  1
  Ir  Ir8  1  0.014362  0.000000  0.500000  1
