# generated using pymatgen
data_Pr2InSnIrRh
_symmetry_space_group_name_H-M   'P 1'
_cell_length_a   7.64847644
_cell_length_b   7.65192286
_cell_length_c   8.17598405
_cell_angle_alpha   90.00168684
_cell_angle_beta   90.00198348
_cell_angle_gamma   119.93182377
_symmetry_Int_Tables_number   1
_chemical_formula_structural   Pr2InSnIrRh
_chemical_formula_sum   'Pr6 In3 Sn3 Ir3 Rh3'
_cell_volume   414.68099206
_cell_formula_units_Z   3
loop_
 _symmetry_equiv_pos_site_id
 _symmetry_equiv_pos_as_xyz
  1  'x, y, z'
loop_
 _atom_site_type_symbol
 _atom_site_label
 _atom_site_symmetry_multiplicity
 _atom_site_fract_x
 _atom_site_fract_y
 _atom_site_fract_z
 _atom_site_occupancy
  Pr  Pr0  1  0.588568  0.001036  0.750042  1
  Pr  Pr1  1  0.413458  0.413218  0.748863  1
  Pr  Pr2  1  0.999581  0.586403  0.748547  1
  Pr  Pr3  1  0.588930  0.001694  0.249962  1
  Pr  Pr4  1  0.413529  0.412885  0.251110  1
  Pr  Pr5  1  0.999178  0.586263  0.251414  1
  In  In6  1  0.253227  0.999981  0.999996  1
  In  In7  1  0.751691  0.751238  0.499928  1
  In  In8  1  0.001503  0.249322  0.500009  1
  Sn  Sn9  1  0.000596  0.252599  0.999894  1
  Sn  Sn10  1  0.747032  0.747330  0.000020  1
  Sn  Sn11  1  0.246418  0.999958  0.499949  1
  Ir  Ir12  1  0.669573  0.334240  0.999721  1
  Ir  Ir13  1  0.662585  0.330684  0.500231  1
  Ir  Ir14  1  0.331607  0.669142  0.499716  1
  Rh  Rh15  1  0.335215  0.665497  0.000686  1
  Rh  Rh16  1  0.998660  0.999259  0.754175  1
  Rh  Rh17  1  0.998647  0.999252  0.245736  1
