# generated using pymatgen
data_Sr4Si8Os7Ru
_symmetry_space_group_name_H-M   'P 1'
_cell_length_a   6.19969905
_cell_length_b   8.07569314
_cell_length_c   8.07487827
_cell_angle_alpha   78.57172749
_cell_angle_beta   89.79841396
_cell_angle_gamma   90.19927474
_symmetry_Int_Tables_number   1
_chemical_formula_structural   Sr4Si8Os7Ru
_chemical_formula_sum   'Sr4 Si8 Os7 Ru1'
_cell_volume   396.26228463
_cell_formula_units_Z   1
loop_
 _symmetry_equiv_pos_site_id
 _symmetry_equiv_pos_as_xyz
  1  'x, y, z'
loop_
 _atom_site_type_symbol
 _atom_site_label
 _atom_site_symmetry_multiplicity
 _atom_site_fract_x
 _atom_site_fract_y
 _atom_site_fract_z
 _atom_site_occupancy
  Sr  Sr0  1  0.374982  0.002155  0.251648  1
  Sr  Sr1  1  0.874853  0.500265  0.750803  1
  Sr  Sr2  1  0.124752  0.499055  0.248639  1
  Sr  Sr3  1  0.625427  0.998114  0.748536  1
  Si  Si4  1  0.376846  0.319368  0.929788  1
  Si  Si5  1  0.122730  0.179294  0.570093  1
  Si  Si6  1  0.628205  0.320250  0.429468  1
  Si  Si7  1  0.878138  0.820021  0.429640  1
  Si  Si8  1  0.871796  0.179684  0.069939  1
  Si  Si9  1  0.622686  0.681257  0.070061  1
  Si  Si10  1  0.126446  0.819950  0.931134  1
  Si  Si11  1  0.373143  0.679717  0.569427  1
  Os  Os12  1  0.375240  0.377056  0.627141  1
  Os  Os13  1  0.625424  0.622975  0.372536  1
  Os  Os14  1  0.125015  0.877452  0.628611  1
  Os  Os15  1  0.124619  0.122439  0.872890  1
  Os  Os16  1  0.625018  0.378703  0.127536  1
  Os  Os17  1  0.874705  0.877792  0.127690  1
  Os  Os18  1  0.374719  0.622082  0.872190  1
  Ru  Ru19  1  0.875257  0.122370  0.372230  1
