# generated using pymatgen
data_Tb8Ti5Si16Mo5W2
_symmetry_space_group_name_H-M   'P 1'
_cell_length_a   6.95052215
_cell_length_b   6.94390693
_cell_length_c   12.86527118
_cell_angle_alpha   89.86762847
_cell_angle_beta   90.00868768
_cell_angle_gamma   90.03464838
_symmetry_Int_Tables_number   1
_chemical_formula_structural   Tb8Ti5Si16Mo5W2
_chemical_formula_sum   'Tb8 Ti5 Si16 Mo5 W2'
_cell_volume   620.92482722
_cell_formula_units_Z   1
loop_
 _symmetry_equiv_pos_site_id
 _symmetry_equiv_pos_as_xyz
  1  'x, y, z'
loop_
 _atom_site_type_symbol
 _atom_site_label
 _atom_site_symmetry_multiplicity
 _atom_site_fract_x
 _atom_site_fract_y
 _atom_site_fract_z
 _atom_site_occupancy
  Tb  Tb0  1  0.340246  0.003371  0.467358  1
  Tb  Tb1  1  0.497234  0.839993  0.718880  1
  Tb  Tb2  1  0.502415  0.160453  0.218536  1
  Tb  Tb3  1  0.839521  0.496337  0.280848  1
  Tb  Tb4  1  0.160357  0.502253  0.782682  1
  Tb  Tb5  1  0.660040  0.997394  0.968488  1
  Tb  Tb6  1  0.003037  0.339553  0.531777  1
  Tb  Tb7  1  0.996332  0.661449  0.031130  1
  Ti  Ti8  1  0.329433  0.329937  0.999571  1
  Ti  Ti9  1  0.169202  0.829543  0.249966  1
  Ti  Ti10  1  0.828085  0.171895  0.750469  1
  Ti  Ti11  1  0.669728  0.667917  0.498999  1
  Ti  Ti12  1  0.993818  0.840722  0.625714  1
  Si  Si13  1  0.202417  0.128605  0.684407  1
  Si  Si14  1  0.372005  0.701436  0.934372  1
  Si  Si15  1  0.629423  0.299102  0.434183  1
  Si  Si16  1  0.699759  0.371528  0.066017  1
  Si  Si17  1  0.301009  0.628315  0.564902  1
  Si  Si18  1  0.799176  0.871960  0.184010  1
  Si  Si19  1  0.126964  0.200617  0.316122  1
  Si  Si20  1  0.872902  0.799792  0.815638  1
  Si  Si21  1  0.288831  0.959302  0.062879  1
  Si  Si22  1  0.540686  0.788488  0.312790  1
  Si  Si23  1  0.458366  0.211286  0.812770  1
  Si  Si24  1  0.789047  0.542182  0.687447  1
  Si  Si25  1  0.211203  0.458714  0.186716  1
  Si  Si26  1  0.711155  0.042436  0.563438  1
  Si  Si27  1  0.958806  0.288948  0.937358  1
  Si  Si28  1  0.042902  0.710570  0.436962  1
  Mo  Mo29  1  0.160103  0.008909  0.875345  1
  Mo  Mo30  1  0.492167  0.659636  0.124492  1
  Mo  Mo31  1  0.507713  0.340571  0.623535  1
  Mo  Mo32  1  0.658107  0.491194  0.877621  1
  Mo  Mo33  1  0.341730  0.504831  0.374499  1
  W  W34  1  0.839329  0.991071  0.373796  1
  W  W35  1  0.006751  0.159692  0.126280  1
