# generated using pymatgen
data_EuZnCdAg3
_symmetry_space_group_name_H-M   'P 1'
_cell_length_a   5.72335490
_cell_length_b   5.56240789
_cell_length_c   5.72335500
_cell_angle_alpha   59.03814442
_cell_angle_beta   60.00000521
_cell_angle_gamma   59.03814608
_symmetry_Int_Tables_number   1
_chemical_formula_structural   EuZnCdAg3
_chemical_formula_sum   'Eu1 Zn1 Cd1 Ag3'
_cell_volume   126.93454440
_cell_formula_units_Z   1
loop_
 _symmetry_equiv_pos_site_id
 _symmetry_equiv_pos_as_xyz
  1  'x, y, z'
loop_
 _atom_site_type_symbol
 _atom_site_label
 _atom_site_symmetry_multiplicity
 _atom_site_fract_x
 _atom_site_fract_y
 _atom_site_fract_z
 _atom_site_occupancy
  Eu  Eu0  1  0.750760  0.747722  0.750760  1
  Zn  Zn1  1  0.373399  0.879803  0.373399  1
  Cd  Cd2  1  0.001996  0.994011  0.001996  1
  Ag  Ag3  1  0.373498  0.376155  0.373498  1
  Ag  Ag4  1  0.876850  0.376155  0.373498  1
  Ag  Ag5  1  0.373498  0.376155  0.876850  1
