# generated using pymatgen
data_Dy4B16Os3Ru
_symmetry_space_group_name_H-M   'P 1'
_cell_length_a   3.56879900
_cell_length_b   5.96876503
_cell_length_c   11.54947706
_cell_angle_alpha   90.01147516
_cell_angle_beta   90.00000000
_cell_angle_gamma   90.00000000
_symmetry_Int_Tables_number   1
_chemical_formula_structural   Dy4B16Os3Ru
_chemical_formula_sum   'Dy4 B16 Os3 Ru1'
_cell_volume   246.01913255
_cell_formula_units_Z   1
loop_
 _symmetry_equiv_pos_site_id
 _symmetry_equiv_pos_as_xyz
  1  'x, y, z'
loop_
 _atom_site_type_symbol
 _atom_site_label
 _atom_site_symmetry_multiplicity
 _atom_site_fract_x
 _atom_site_fract_y
 _atom_site_fract_z
 _atom_site_occupancy
  Dy  Dy0  1  0.000000  0.128610  0.649916  1
  Dy  Dy1  1  0.000000  0.871432  0.350154  1
  Dy  Dy2  1  0.000000  0.628607  0.849786  1
  Dy  Dy3  1  0.000000  0.371338  0.150197  1
  B  B4  1  0.500000  0.476057  0.691755  1
  B  B5  1  0.500000  0.523695  0.308205  1
  B  B6  1  0.500000  0.975906  0.808308  1
  B  B7  1  0.500000  0.024327  0.191753  1
  B  B8  1  0.500000  0.289325  0.814119  1
  B  B9  1  0.500000  0.710663  0.185831  1
  B  B10  1  0.500000  0.789245  0.685693  1
  B  B11  1  0.500000  0.210827  0.314413  1
  B  B12  1  0.500000  0.363665  0.969932  1
  B  B13  1  0.500000  0.636324  0.030136  1
  B  B14  1  0.500000  0.863913  0.530187  1
  B  B15  1  0.500000  0.136052  0.469632  1
  B  B16  1  0.500000  0.387890  0.546713  1
  B  B17  1  0.500000  0.612211  0.453328  1
  B  B18  1  0.500000  0.887552  0.953182  1
  B  B19  1  0.500000  0.112481  0.046867  1
  Os  Os20  1  0.000000  0.141600  0.906816  1
  Os  Os21  1  0.000000  0.858385  0.093112  1
  Os  Os22  1  0.000000  0.640736  0.593034  1
  Ru  Ru23  1  0.000000  0.359160  0.406930  1
