# generated using pymatgen
data_Tb12Co3NiSnRh
_symmetry_space_group_name_H-M   'P 1'
_cell_length_a   8.34065046
_cell_length_b   8.34064943
_cell_length_c   8.34065004
_cell_angle_alpha   111.08249128
_cell_angle_beta   109.67961589
_cell_angle_gamma   107.66962306
_symmetry_Int_Tables_number   1
_chemical_formula_structural   Tb12Co3NiSnRh
_chemical_formula_sum   'Tb12 Co3 Ni1 Sn1 Rh1'
_cell_volume   446.26166437
_cell_formula_units_Z   1
loop_
 _symmetry_equiv_pos_site_id
 _symmetry_equiv_pos_as_xyz
  1  'x, y, z'
loop_
 _atom_site_type_symbol
 _atom_site_label
 _atom_site_symmetry_multiplicity
 _atom_site_fract_x
 _atom_site_fract_y
 _atom_site_fract_z
 _atom_site_occupancy
  Tb  Tb0  1  0.407990  0.216547  0.191444  1
  Tb  Tb1  1  0.592401  0.784481  0.807919  1
  Tb  Tb2  1  0.023437  0.215519  0.807919  1
  Tb  Tb3  1  0.974897  0.783453  0.191444  1
  Tb  Tb4  1  0.181242  0.291420  0.472663  1
  Tb  Tb5  1  0.816593  0.710737  0.527330  1
  Tb  Tb6  1  0.181242  0.708580  0.889821  1
  Tb  Tb7  1  0.816593  0.289263  0.105857  1
  Tb  Tb8  1  0.321343  0.629399  0.311698  1
  Tb  Tb9  1  0.682298  0.370601  0.691943  1
  Tb  Tb10  1  0.321343  0.009644  0.691943  1
  Tb  Tb11  1  0.682298  0.990356  0.311698  1
  Co  Co12  1  0.640177  0.000000  0.640177  1
  Co  Co13  1  0.112320  0.613631  0.498689  1
  Co  Co14  1  0.885059  0.386369  0.498689  1
  Ni  Ni15  1  0.362109  0.000000  0.362109  1
  Sn  Sn16  1  0.499109  0.500000  0.999109  1
  Rh  Rh17  1  0.999549  0.000000  0.999549  1
