# generated using pymatgen
data_NdNp(Si7Ir3)2
_symmetry_space_group_name_H-M   'P 1'
_cell_length_a   8.08022742
_cell_length_b   8.08022784
_cell_length_c   8.08022713
_cell_angle_alpha   56.78065367
_cell_angle_beta   56.78065619
_cell_angle_gamma   56.78066203
_symmetry_Int_Tables_number   1
_chemical_formula_structural   NdNp(Si7Ir3)2
_chemical_formula_sum   'Nd1 Np1 Si14 Ir6'
_cell_volume   345.31950288
_cell_formula_units_Z   1
loop_
 _symmetry_equiv_pos_site_id
 _symmetry_equiv_pos_as_xyz
  1  'x, y, z'
loop_
 _atom_site_type_symbol
 _atom_site_label
 _atom_site_symmetry_multiplicity
 _atom_site_fract_x
 _atom_site_fract_y
 _atom_site_fract_z
 _atom_site_occupancy
  Nd  Nd0  1  0.500000  0.500000  0.500000  1
  Np  Np1  1  0.000000  0.000000  0.000000  1
  Si  Si2  1  0.851685  0.062705  0.673977  1
  Si  Si3  1  0.673977  0.851685  0.062705  1
  Si  Si4  1  0.062705  0.673977  0.851685  1
  Si  Si5  1  0.650142  0.827683  0.434703  1
  Si  Si6  1  0.249982  0.249982  0.249982  1
  Si  Si7  1  0.750018  0.750018  0.750018  1
  Si  Si8  1  0.172317  0.565297  0.349858  1
  Si  Si9  1  0.565297  0.349858  0.172317  1
  Si  Si10  1  0.349858  0.172317  0.565297  1
  Si  Si11  1  0.937295  0.326023  0.148315  1
  Si  Si12  1  0.326023  0.148315  0.937295  1
  Si  Si13  1  0.148315  0.937295  0.326023  1
  Si  Si14  1  0.827683  0.434703  0.650142  1
  Si  Si15  1  0.434703  0.650142  0.827683  1
  Ir  Ir16  1  0.750838  0.067325  0.431101  1
  Ir  Ir17  1  0.431101  0.750838  0.067325  1
  Ir  Ir18  1  0.067325  0.431101  0.750838  1
  Ir  Ir19  1  0.249162  0.932675  0.568899  1
  Ir  Ir20  1  0.568899  0.249162  0.932675  1
  Ir  Ir21  1  0.932675  0.568899  0.249162  1
