# generated using pymatgen
data_HoEr5B14OsW
_symmetry_space_group_name_H-M   'P 1'
_cell_length_a   8.05504202
_cell_length_b   8.05504252
_cell_length_c   9.35522700
_cell_angle_alpha   90.00000000
_cell_angle_beta   90.00000000
_cell_angle_gamma   155.04741401
_symmetry_Int_Tables_number   1
_chemical_formula_structural   HoEr5B14OsW
_chemical_formula_sum   'Ho1 Er5 B14 Os1 W1'
_cell_volume   256.07470722
_cell_formula_units_Z   1
loop_
 _symmetry_equiv_pos_site_id
 _symmetry_equiv_pos_as_xyz
  1  'x, y, z'
loop_
 _atom_site_type_symbol
 _atom_site_label
 _atom_site_symmetry_multiplicity
 _atom_site_fract_x
 _atom_site_fract_y
 _atom_site_fract_z
 _atom_site_occupancy
  Ho  Ho0  1  0.754567  0.245433  0.750000  1
  Er  Er1  1  0.893783  0.106217  0.437884  1
  Er  Er2  1  0.107285  0.892715  0.558257  1
  Er  Er3  1  0.893783  0.106217  0.062116  1
  Er  Er4  1  0.107285  0.892715  0.941743  1
  Er  Er5  1  0.243723  0.756277  0.250000  1
  B  B6  1  0.726746  0.273254  0.464672  1
  B  B7  1  0.271616  0.728384  0.531875  1
  B  B8  1  0.726746  0.273254  0.035328  1
  B  B9  1  0.271616  0.728384  0.968125  1
  B  B10  1  0.632036  0.367964  0.150811  1
  B  B11  1  0.365132  0.634868  0.853056  1
  B  B12  1  0.632036  0.367964  0.349189  1
  B  B13  1  0.365132  0.634868  0.646944  1
  B  B14  1  0.520679  0.479321  0.096107  1
  B  B15  1  0.480896  0.519104  0.909573  1
  B  B16  1  0.520679  0.479321  0.403893  1
  B  B17  1  0.480896  0.519104  0.590427  1
  B  B18  1  0.456413  0.543587  0.250000  1
  B  B19  1  0.547231  0.452769  0.750000  1
  Os  Os20  1  0.053873  0.946127  0.250000  1
  W  W21  1  0.947851  0.052149  0.750000  1
