# generated using pymatgen
data_CeTm2Pa(Ni2Sn)2
_symmetry_space_group_name_H-M   'P 1'
_cell_length_a   7.46748150
_cell_length_b   7.36146873
_cell_length_c   3.58505300
_cell_angle_alpha   90.00000000
_cell_angle_beta   90.00000000
_cell_angle_gamma   90.92110388
_symmetry_Int_Tables_number   1
_chemical_formula_structural   CeTm2Pa(Ni2Sn)2
_chemical_formula_sum   'Ce1 Tm2 Pa1 Ni4 Sn2'
_cell_volume   197.05074646
_cell_formula_units_Z   1
loop_
 _symmetry_equiv_pos_site_id
 _symmetry_equiv_pos_as_xyz
  1  'x, y, z'
loop_
 _atom_site_type_symbol
 _atom_site_label
 _atom_site_symmetry_multiplicity
 _atom_site_fract_x
 _atom_site_fract_y
 _atom_site_fract_z
 _atom_site_occupancy
  Ce  Ce0  1  0.171914  0.327872  0.500000  1
  Tm  Tm1  1  0.325647  0.825793  0.500000  1
  Tm  Tm2  1  0.823788  0.672385  0.500000  1
  Pa  Pa3  1  0.674281  0.171537  0.500000  1
  Ni  Ni4  1  0.865160  0.362922  0.000000  1
  Ni  Ni5  1  0.118896  0.610271  0.000000  1
  Ni  Ni6  1  0.389355  0.135291  0.000000  1
  Ni  Ni7  1  0.630430  0.895842  0.000000  1
  Sn  Sn8  1  0.497593  0.511064  0.000000  1
  Sn  Sn9  1  0.002934  0.987023  0.000000  1
