# generated using pymatgen
data_CsS27
_symmetry_space_group_name_H-M   'P 1'
_cell_length_a   14.17593600
_cell_length_b   14.17593595
_cell_length_c   14.17593647
_cell_angle_alpha   117.63233184
_cell_angle_beta   117.63233070
_cell_angle_gamma   117.63232830
_symmetry_Int_Tables_number   1
_chemical_formula_structural   CsS27
_chemical_formula_sum   'Cs1 S27'
_cell_volume   1122.09329273
_cell_formula_units_Z   1
loop_
 _symmetry_equiv_pos_site_id
 _symmetry_equiv_pos_as_xyz
  1  'x, y, z'
loop_
 _atom_site_type_symbol
 _atom_site_label
 _atom_site_symmetry_multiplicity
 _atom_site_fract_x
 _atom_site_fract_y
 _atom_site_fract_z
 _atom_site_occupancy
  Cs  Cs0  1  0.433436  0.433436  0.433436  1
  S  S1  1  0.056892  0.668205  0.668205  1
  S  S2  1  0.668205  0.668205  0.056892  1
  S  S3  1  0.668205  0.056892  0.668205  1
  S  S4  1  0.226748  0.848703  0.709992  1
  S  S5  1  0.848703  0.709992  0.226748  1
  S  S6  1  0.709992  0.226748  0.848703  1
  S  S7  1  0.848703  0.226748  0.709992  1
  S  S8  1  0.226748  0.709992  0.848703  1
  S  S9  1  0.709992  0.848703  0.226748  1
  S  S10  1  0.124498  0.662952  0.467986  1
  S  S11  1  0.662952  0.467986  0.124498  1
  S  S12  1  0.467986  0.124498  0.662952  1
  S  S13  1  0.662952  0.124498  0.467986  1
  S  S14  1  0.124498  0.467986  0.662952  1
  S  S15  1  0.467986  0.662952  0.124498  1
  S  S16  1  0.326527  0.709164  0.570647  1
  S  S17  1  0.709164  0.570647  0.326527  1
  S  S18  1  0.570647  0.326527  0.709164  1
  S  S19  1  0.709164  0.326527  0.570647  1
  S  S20  1  0.326527  0.570647  0.709164  1
  S  S21  1  0.570647  0.709164  0.326527  1
  S  S22  1  0.194476  0.466605  0.466605  1
  S  S23  1  0.466605  0.466605  0.194476  1
  S  S24  1  0.466605  0.194476  0.466605  1
  S  S25  1  0.993053  0.902594  0.902594  1
  S  S26  1  0.902594  0.902594  0.993053  1
  S  S27  1  0.902594  0.993053  0.902594  1
