# generated using pymatgen
data_NdUPa(Co3P2)3
_symmetry_space_group_name_H-M   'P 1'
_cell_length_a   3.73103700
_cell_length_b   10.51294900
_cell_length_c   12.29378300
_cell_angle_alpha   90.00000000
_cell_angle_beta   90.00000000
_cell_angle_gamma   90.00000000
_symmetry_Int_Tables_number   1
_chemical_formula_structural   NdUPa(Co3P2)3
_chemical_formula_sum   'Nd2 U2 Pa2 Co18 P12'
_cell_volume   482.21382402
_cell_formula_units_Z   2
loop_
 _symmetry_equiv_pos_site_id
 _symmetry_equiv_pos_as_xyz
  1  'x, y, z'
loop_
 _atom_site_type_symbol
 _atom_site_label
 _atom_site_symmetry_multiplicity
 _atom_site_fract_x
 _atom_site_fract_y
 _atom_site_fract_z
 _atom_site_occupancy
  Nd  Nd0  1  0.500000  0.813700  0.205761  1
  Nd  Nd1  1  0.500000  0.186300  0.205761  1
  U  U2  1  0.000000  0.681844  0.792740  1
  U  U3  1  0.000000  0.318156  0.792740  1
  Pa  Pa4  1  0.000000  0.500000  0.525556  1
  Pa  Pa5  1  0.500000  0.000000  0.473516  1
  Co  Co6  1  0.000000  0.500000  0.980464  1
  Co  Co7  1  0.500000  0.000000  0.011667  1
  Co  Co8  1  0.500000  0.305509  0.433945  1
  Co  Co9  1  0.500000  0.694491  0.433945  1
  Co  Co10  1  0.000000  0.199218  0.570716  1
  Co  Co11  1  0.000000  0.800782  0.570716  1
  Co  Co12  1  0.500000  0.879349  0.712410  1
  Co  Co13  1  0.500000  0.120651  0.712410  1
  Co  Co14  1  0.000000  0.617694  0.290604  1
  Co  Co15  1  0.000000  0.382306  0.290604  1
  Co  Co16  1  0.500000  0.334936  0.992086  1
  Co  Co17  1  0.500000  0.665064  0.992086  1
  Co  Co18  1  0.000000  0.167701  0.002186  1
  Co  Co19  1  0.000000  0.832299  0.002186  1
  Co  Co20  1  0.500000  0.500000  0.158208  1
  Co  Co21  1  0.000000  0.000000  0.840477  1
  Co  Co22  1  0.500000  0.500000  0.701109  1
  Co  Co23  1  0.000000  0.000000  0.308341  1
  P  P24  1  0.500000  0.307428  0.615944  1
  P  P25  1  0.500000  0.692572  0.615944  1
  P  P26  1  0.000000  0.195208  0.387562  1
  P  P27  1  0.000000  0.804792  0.387562  1
  P  P28  1  0.500000  0.500000  0.881253  1
  P  P29  1  0.000000  0.000000  0.116666  1
  P  P30  1  0.500000  0.845570  0.894067  1
  P  P31  1  0.500000  0.154430  0.894067  1
  P  P32  1  0.000000  0.648261  0.103844  1
  P  P33  1  0.000000  0.351739  0.103844  1
  P  P34  1  0.500000  0.500000  0.341574  1
  P  P35  1  0.000000  0.000000  0.657437  1
