# generated using pymatgen
data_HoEr6Sn23Os6
_symmetry_space_group_name_H-M   'P 1'
_cell_length_a   9.84304900
_cell_length_b   9.84304883
_cell_length_c   10.11890200
_cell_angle_alpha   90.00000000
_cell_angle_beta   90.00000000
_cell_angle_gamma   120.00000393
_symmetry_Int_Tables_number   1
_chemical_formula_structural   HoEr6Sn23Os6
_chemical_formula_sum   'Ho1 Er6 Sn23 Os6'
_cell_volume   849.03049844
_cell_formula_units_Z   1
loop_
 _symmetry_equiv_pos_site_id
 _symmetry_equiv_pos_as_xyz
  1  'x, y, z'
loop_
 _atom_site_type_symbol
 _atom_site_label
 _atom_site_symmetry_multiplicity
 _atom_site_fract_x
 _atom_site_fract_y
 _atom_site_fract_z
 _atom_site_occupancy
  Ho  Ho0  1  0.000000  0.000000  0.000000  1
  Er  Er1  1  0.485481  0.514519  0.301813  1
  Er  Er2  1  0.514519  0.485481  0.698187  1
  Er  Er3  1  0.485481  0.970963  0.301813  1
  Er  Er4  1  0.514519  0.029037  0.698187  1
  Er  Er5  1  0.029037  0.514519  0.301813  1
  Er  Er6  1  0.970963  0.485481  0.698187  1
  Sn  Sn7  1  0.118007  0.881993  0.276253  1
  Sn  Sn8  1  0.881993  0.118007  0.723747  1
  Sn  Sn9  1  0.118007  0.236014  0.276253  1
  Sn  Sn10  1  0.881993  0.763986  0.723747  1
  Sn  Sn11  1  0.763986  0.881993  0.276253  1
  Sn  Sn12  1  0.236014  0.118007  0.723747  1
  Sn  Sn13  1  0.779861  0.220139  0.462720  1
  Sn  Sn14  1  0.220139  0.779861  0.537280  1
  Sn  Sn15  1  0.779861  0.559723  0.462720  1
  Sn  Sn16  1  0.220139  0.440277  0.537280  1
  Sn  Sn17  1  0.440277  0.220139  0.462720  1
  Sn  Sn18  1  0.559723  0.779861  0.537280  1
  Sn  Sn19  1  0.349969  0.000000  0.000000  1
  Sn  Sn20  1  0.650031  0.000000  0.000000  1
  Sn  Sn21  1  0.000000  0.349969  0.000000  1
  Sn  Sn22  1  0.000000  0.650031  0.000000  1
  Sn  Sn23  1  0.650031  0.650031  0.000000  1
  Sn  Sn24  1  0.349969  0.349969  0.000000  1
  Sn  Sn25  1  0.333333  0.666667  0.130659  1
  Sn  Sn26  1  0.666667  0.333333  0.869341  1
  Sn  Sn27  1  0.333333  0.666667  0.824316  1
  Sn  Sn28  1  0.666667  0.333333  0.175684  1
  Sn  Sn29  1  0.000000  0.000000  0.500000  1
  Os  Os30  1  0.829514  0.170486  0.202403  1
  Os  Os31  1  0.170486  0.829514  0.797597  1
  Os  Os32  1  0.829514  0.659027  0.202403  1
  Os  Os33  1  0.170486  0.340973  0.797597  1
  Os  Os34  1  0.340973  0.170486  0.202403  1
  Os  Os35  1  0.659027  0.829514  0.797597  1
