# generated using pymatgen
data_Pr12Co(RuCl4)3
_symmetry_space_group_name_H-M   'P 1'
_cell_length_a   10.24446069
_cell_length_b   10.24446169
_cell_length_c   10.24446154
_cell_angle_alpha   109.34996642
_cell_angle_beta   109.34996964
_cell_angle_gamma   109.34997362
_symmetry_Int_Tables_number   1
_chemical_formula_structural   Pr12Co(RuCl4)3
_chemical_formula_sum   'Pr12 Co1 Ru3 Cl12'
_cell_volume   831.34236444
_cell_formula_units_Z   1
loop_
 _symmetry_equiv_pos_site_id
 _symmetry_equiv_pos_as_xyz
  1  'x, y, z'
loop_
 _atom_site_type_symbol
 _atom_site_label
 _atom_site_symmetry_multiplicity
 _atom_site_fract_x
 _atom_site_fract_y
 _atom_site_fract_z
 _atom_site_occupancy
  Pr  Pr0  1  0.471672  0.484678  0.238344  1
  Pr  Pr1  1  0.750000  0.239539  0.260461  1
  Pr  Pr2  1  0.750000  0.012942  0.487058  1
  Pr  Pr3  1  0.238344  0.471672  0.484678  1
  Pr  Pr4  1  0.260461  0.750000  0.239539  1
  Pr  Pr5  1  0.028328  0.261656  0.015322  1
  Pr  Pr6  1  0.015322  0.028328  0.261656  1
  Pr  Pr7  1  0.487058  0.750000  0.012942  1
  Pr  Pr8  1  0.484678  0.238344  0.471672  1
  Pr  Pr9  1  0.012942  0.487058  0.750000  1
  Pr  Pr10  1  0.261656  0.015322  0.028328  1
  Pr  Pr11  1  0.239539  0.260461  0.750000  1
  Co  Co12  1  0.250000  0.250000  0.250000  1
  Ru  Ru13  1  0.498395  0.001605  0.250000  1
  Ru  Ru14  1  0.001605  0.250000  0.498395  1
  Ru  Ru15  1  0.250000  0.498395  0.001605  1
  Cl  Cl16  1  0.250000  0.751081  0.748919  1
  Cl  Cl17  1  0.503307  0.501134  0.751584  1
  Cl  Cl18  1  0.996693  0.748416  0.998866  1
  Cl  Cl19  1  0.748919  0.250000  0.751081  1
  Cl  Cl20  1  0.998866  0.996693  0.748416  1
  Cl  Cl21  1  0.250000  0.997834  0.502166  1
  Cl  Cl22  1  0.751584  0.503307  0.501134  1
  Cl  Cl23  1  0.502166  0.250000  0.997834  1
  Cl  Cl24  1  0.751081  0.748919  0.250000  1
  Cl  Cl25  1  0.748416  0.998866  0.996693  1
  Cl  Cl26  1  0.997834  0.502166  0.250000  1
  Cl  Cl27  1  0.501134  0.751584  0.503307  1
