# generated using pymatgen
data_Sr3NdScMnO8
_symmetry_space_group_name_H-M   'P 1'
_cell_length_a   5.54048000
_cell_length_b   12.59661800
_cell_length_c   5.58323000
_cell_angle_alpha   89.99975394
_cell_angle_beta   90.00119627
_cell_angle_gamma   90.00027728
_symmetry_Int_Tables_number   1
_chemical_formula_structural   Sr3NdScMnO8
_chemical_formula_sum   'Sr6 Nd2 Sc2 Mn2 O16'
_cell_volume   389.66093626
_cell_formula_units_Z   2
loop_
 _symmetry_equiv_pos_site_id
 _symmetry_equiv_pos_as_xyz
  1  'x, y, z'
loop_
 _atom_site_type_symbol
 _atom_site_label
 _atom_site_symmetry_multiplicity
 _atom_site_fract_x
 _atom_site_fract_y
 _atom_site_fract_z
 _atom_site_occupancy
  Sr  Sr0  1  0.500001  0.145343  0.000003  1
  Sr  Sr1  1  0.500004  0.645344  0.499993  1
  Sr  Sr2  1  0.000001  0.145088  0.500001  1
  Sr  Sr3  1  0.999999  0.645087  0.999992  1
  Sr  Sr4  1  0.000006  0.353183  0.000003  1
  Sr  Sr5  1  0.999999  0.853182  0.500003  1
  Nd  Nd6  1  0.500006  0.361884  0.500006  1
  Nd  Nd7  1  0.500052  0.861878  0.000008  1
  Sc  Sc8  1  0.500049  0.001944  0.500022  1
  Sc  Sc9  1  0.499965  0.501935  0.999976  1
  Mn  Mn10  1  0.000004  0.500271  0.499994  1
  Mn  Mn11  1  0.999998  0.000271  0.000009  1
  O  O12  1  0.999995  0.339880  0.499997  1
  O  O13  1  0.999894  0.839879  0.000004  1
  O  O14  1  0.500005  0.334890  0.999985  1
  O  O15  1  0.500009  0.834893  0.500002  1
  O  O16  1  0.499996  0.177707  0.500001  1
  O  O17  1  0.499988  0.677706  0.000002  1
  O  O18  1  0.000014  0.155465  0.000002  1
  O  O19  1  0.000005  0.655462  0.499994  1
  O  O20  1  0.245035  0.496090  0.736487  1
  O  O21  1  0.245036  0.996080  0.236500  1
  O  O22  1  0.754975  0.496088  0.263509  1
  O  O23  1  0.754961  0.996101  0.763499  1
  O  O24  1  0.754983  0.496089  0.736490  1
  O  O25  1  0.754962  0.996099  0.236506  1
  O  O26  1  0.245026  0.496087  0.263505  1
  O  O27  1  0.245035  0.996080  0.763506  1
