# generated using pymatgen
data_Th8CoTe17
_symmetry_space_group_name_H-M   'P 1'
_cell_length_a   9.06166451
_cell_length_b   9.06166442
_cell_length_c   11.91849069
_cell_angle_alpha   79.83337705
_cell_angle_beta   79.83337833
_cell_angle_gamma   64.57777642
_symmetry_Int_Tables_number   1
_chemical_formula_structural   Th8CoTe17
_chemical_formula_sum   'Th8 Co1 Te17'
_cell_volume   864.42364416
_cell_formula_units_Z   1
loop_
 _symmetry_equiv_pos_site_id
 _symmetry_equiv_pos_as_xyz
  1  'x, y, z'
loop_
 _atom_site_type_symbol
 _atom_site_label
 _atom_site_symmetry_multiplicity
 _atom_site_fract_x
 _atom_site_fract_y
 _atom_site_fract_z
 _atom_site_occupancy
  Th  Th0  1  0.181949  0.695116  0.705418  1
  Th  Th1  1  0.695116  0.181949  0.705418  1
  Th  Th2  1  0.818051  0.304884  0.294582  1
  Th  Th3  1  0.304884  0.818051  0.294582  1
  Th  Th4  1  0.199272  0.199272  0.548441  1
  Th  Th5  1  0.800728  0.800728  0.451559  1
  Th  Th6  1  0.682169  0.682169  0.982913  1
  Th  Th7  1  0.317831  0.317831  0.017087  1
  Co  Co8  1  0.000000  0.000000  0.000000  1
  Te  Te9  1  0.820311  0.435142  0.533452  1
  Te  Te10  1  0.435142  0.820311  0.533452  1
  Te  Te11  1  0.179689  0.564858  0.466548  1
  Te  Te12  1  0.564858  0.179689  0.466548  1
  Te  Te13  1  0.050916  0.682941  0.975802  1
  Te  Te14  1  0.682941  0.050916  0.975802  1
  Te  Te15  1  0.949084  0.317059  0.024198  1
  Te  Te16  1  0.317059  0.949084  0.024198  1
  Te  Te17  1  0.050664  0.050664  0.783312  1
  Te  Te18  1  0.949336  0.949336  0.216688  1
  Te  Te19  1  0.213720  0.213720  0.278807  1
  Te  Te20  1  0.786280  0.786280  0.721193  1
  Te  Te21  1  0.299919  0.299919  0.754914  1
  Te  Te22  1  0.700081  0.700081  0.245086  1
  Te  Te23  1  0.520175  0.520175  0.831859  1
  Te  Te24  1  0.479825  0.479825  0.168141  1
  Te  Te25  1  0.000000  0.000000  0.500000  1
