# generated using pymatgen
data_K8Tb3HoF20
_symmetry_space_group_name_H-M   'P 1'
_cell_length_a   6.71790586
_cell_length_b   7.32631200
_cell_length_c   11.04079342
_cell_angle_alpha   90.00000000
_cell_angle_beta   90.05807638
_cell_angle_gamma   90.00000000
_symmetry_Int_Tables_number   1
_chemical_formula_structural   K8Tb3HoF20
_chemical_formula_sum   'K8 Tb3 Ho1 F20'
_cell_volume   543.39968756
_cell_formula_units_Z   1
loop_
 _symmetry_equiv_pos_site_id
 _symmetry_equiv_pos_as_xyz
  1  'x, y, z'
loop_
 _atom_site_type_symbol
 _atom_site_label
 _atom_site_symmetry_multiplicity
 _atom_site_fract_x
 _atom_site_fract_y
 _atom_site_fract_z
 _atom_site_occupancy
  K  K0  1  0.528516  0.498299  0.828114  1
  K  K1  1  0.471890  0.502268  0.171873  1
  K  K2  1  0.028266  0.502146  0.672358  1
  K  K3  1  0.471890  0.997732  0.171873  1
  K  K4  1  0.971605  0.498212  0.327654  1
  K  K5  1  0.528516  0.001701  0.828114  1
  K  K6  1  0.971605  0.001788  0.327654  1
  K  K7  1  0.028266  0.997854  0.672358  1
  Tb  Tb8  1  0.564349  0.750000  0.501923  1
  Tb  Tb9  1  0.435567  0.250000  0.498113  1
  Tb  Tb10  1  0.063776  0.250000  0.998167  1
  Ho  Ho11  1  0.935973  0.750000  0.001583  1
  F  F12  1  0.837184  0.750000  0.810421  1
  F  F13  1  0.163717  0.250000  0.191445  1
  F  F14  1  0.336134  0.250000  0.691399  1
  F  F15  1  0.663605  0.750000  0.308764  1
  F  F16  1  0.367272  0.750000  0.663309  1
  F  F17  1  0.632848  0.250000  0.336617  1
  F  F18  1  0.867158  0.250000  0.836498  1
  F  F19  1  0.130545  0.750000  0.161520  1
  F  F20  1  0.894019  0.750000  0.513573  1
  F  F21  1  0.106002  0.250000  0.486529  1
  F  F22  1  0.393274  0.250000  0.986362  1
  F  F23  1  0.609705  0.750000  0.013619  1
  F  F24  1  0.644030  0.033843  0.578077  1
  F  F25  1  0.355917  0.966110  0.421881  1
  F  F26  1  0.142485  0.964312  0.922777  1
  F  F27  1  0.355917  0.533890  0.421881  1
  F  F28  1  0.856726  0.031953  0.077345  1
  F  F29  1  0.644030  0.466157  0.578077  1
  F  F30  1  0.856726  0.468047  0.077345  1
  F  F31  1  0.142485  0.535688  0.922777  1
