# generated using pymatgen
data_Tm4Th(TcB3)2
_symmetry_space_group_name_H-M   'P 1'
_cell_length_a   8.48533207
_cell_length_b   8.48533126
_cell_length_c   8.48533100
_cell_angle_alpha   37.66608633
_cell_angle_beta   37.66609344
_cell_angle_gamma   37.66608606
_symmetry_Int_Tables_number   1
_chemical_formula_structural   Tm4Th(TcB3)2
_chemical_formula_sum   'Tm4 Th1 Tc2 B6'
_cell_volume   204.64976739
_cell_formula_units_Z   1
loop_
 _symmetry_equiv_pos_site_id
 _symmetry_equiv_pos_as_xyz
  1  'x, y, z'
loop_
 _atom_site_type_symbol
 _atom_site_label
 _atom_site_symmetry_multiplicity
 _atom_site_fract_x
 _atom_site_fract_y
 _atom_site_fract_z
 _atom_site_occupancy
  Tm  Tm0  1  0.580227  0.580227  0.580227  1
  Tm  Tm1  1  0.419773  0.419773  0.419773  1
  Tm  Tm2  1  0.753258  0.753258  0.753258  1
  Tm  Tm3  1  0.246742  0.246742  0.246742  1
  Th  Th4  1  0.000000  0.000000  0.000000  1
  Tc  Tc5  1  0.889779  0.889779  0.889779  1
  Tc  Tc6  1  0.110221  0.110221  0.110221  1
  B  B7  1  0.500000  0.828292  0.171708  1
  B  B8  1  0.171708  0.500000  0.828292  1
  B  B9  1  0.828292  0.171708  0.500000  1
  B  B10  1  0.500000  0.171708  0.828292  1
  B  B11  1  0.828292  0.500000  0.171708  1
  B  B12  1  0.171708  0.828292  0.500000  1
