# generated using pymatgen
data_Tb4Lu6Ga7Ge
_symmetry_space_group_name_H-M   'P 1'
_cell_length_a   7.44100766
_cell_length_b   7.71216986
_cell_length_c   14.95809200
_cell_angle_alpha   90.00000000
_cell_angle_beta   90.00000000
_cell_angle_gamma   90.19394746
_symmetry_Int_Tables_number   1
_chemical_formula_structural   Tb4Lu6Ga7Ge
_chemical_formula_sum   'Tb8 Lu12 Ga14 Ge2'
_cell_volume   858.38486190
_cell_formula_units_Z   2
loop_
 _symmetry_equiv_pos_site_id
 _symmetry_equiv_pos_as_xyz
  1  'x, y, z'
loop_
 _atom_site_type_symbol
 _atom_site_label
 _atom_site_symmetry_multiplicity
 _atom_site_fract_x
 _atom_site_fract_y
 _atom_site_fract_z
 _atom_site_occupancy
  Tb  Tb0  1  0.015667  0.180106  0.095803  1
  Tb  Tb1  1  0.984333  0.819894  0.904197  1
  Tb  Tb2  1  0.483251  0.681101  0.904308  1
  Tb  Tb3  1  0.984333  0.819894  0.595803  1
  Tb  Tb4  1  0.516749  0.318899  0.095692  1
  Tb  Tb5  1  0.015667  0.180106  0.404197  1
  Tb  Tb6  1  0.516749  0.318899  0.404308  1
  Tb  Tb7  1  0.483251  0.681101  0.595692  1
  Lu  Lu8  1  0.161519  0.507682  0.750000  1
  Lu  Lu9  1  0.838481  0.492318  0.250000  1
  Lu  Lu10  1  0.338843  0.007892  0.250000  1
  Lu  Lu11  1  0.661157  0.992108  0.750000  1
  Lu  Lu12  1  0.327553  0.174891  0.621057  1
  Lu  Lu13  1  0.672447  0.825109  0.378943  1
  Lu  Lu14  1  0.174333  0.672502  0.377954  1
  Lu  Lu15  1  0.672447  0.825109  0.121057  1
  Lu  Lu16  1  0.825667  0.327498  0.622046  1
  Lu  Lu17  1  0.327553  0.174891  0.878943  1
  Lu  Lu18  1  0.825667  0.327498  0.877954  1
  Lu  Lu19  1  0.174333  0.672502  0.122046  1
  Ga  Ga20  1  0.032518  0.114128  0.750000  1
  Ga  Ga21  1  0.967482  0.885872  0.250000  1
  Ga  Ga22  1  0.468623  0.610387  0.250000  1
  Ga  Ga23  1  0.531377  0.389613  0.750000  1
  Ga  Ga24  1  0.278675  0.873294  0.750000  1
  Ga  Ga25  1  0.721325  0.126706  0.250000  1
  Ga  Ga26  1  0.156239  0.469628  0.540287  1
  Ga  Ga27  1  0.843761  0.530372  0.459713  1
  Ga  Ga28  1  0.341213  0.969723  0.459225  1
  Ga  Ga29  1  0.843761  0.530372  0.040287  1
  Ga  Ga30  1  0.658787  0.030277  0.540775  1
  Ga  Ga31  1  0.156239  0.469628  0.959713  1
  Ga  Ga32  1  0.658787  0.030277  0.959225  1
  Ga  Ga33  1  0.341213  0.969723  0.040775  1
  Ge  Ge34  1  0.218617  0.371647  0.250000  1
  Ge  Ge35  1  0.781383  0.628353  0.750000  1
