# generated using pymatgen
data_Nd10InTe5
_symmetry_space_group_name_H-M   'P 1'
_cell_length_a   9.36524587
_cell_length_b   9.44361872
_cell_length_c   6.41298800
_cell_angle_alpha   90.00000000
_cell_angle_beta   90.00000000
_cell_angle_gamma   120.27721958
_symmetry_Int_Tables_number   1
_chemical_formula_structural   Nd10InTe5
_chemical_formula_sum   'Nd10 In1 Te5'
_cell_volume   489.81120614
_cell_formula_units_Z   1
loop_
 _symmetry_equiv_pos_site_id
 _symmetry_equiv_pos_as_xyz
  1  'x, y, z'
loop_
 _atom_site_type_symbol
 _atom_site_label
 _atom_site_symmetry_multiplicity
 _atom_site_fract_x
 _atom_site_fract_y
 _atom_site_fract_z
 _atom_site_occupancy
  Nd  Nd0  1  0.665576  0.333182  0.001415  1
  Nd  Nd1  1  0.334424  0.667606  0.001415  1
  Nd  Nd2  1  0.334424  0.667606  0.498585  1
  Nd  Nd3  1  0.665576  0.333182  0.498585  1
  Nd  Nd4  1  0.747289  0.745663  0.750000  1
  Nd  Nd5  1  0.252711  0.998374  0.750000  1
  Nd  Nd6  1  0.000000  0.254851  0.750000  1
  Nd  Nd7  1  0.252041  0.253915  0.250000  1
  Nd  Nd8  1  0.747959  0.001874  0.250000  1
  Nd  Nd9  1  0.000000  0.743172  0.250000  1
  In  In10  1  0.000000  0.385367  0.250000  1
  Te  Te11  1  0.383906  0.385741  0.750000  1
  Te  Te12  1  0.616094  0.001836  0.750000  1
  Te  Te13  1  0.000000  0.613089  0.750000  1
  Te  Te14  1  0.614466  0.614504  0.250000  1
  Te  Te15  1  0.385534  0.000038  0.250000  1
