# generated using pymatgen
data_La3PrAl18(OsPt2)2
_symmetry_space_group_name_H-M   'P 1'
_cell_length_a   7.70232015
_cell_length_b   7.70250221
_cell_length_c   9.65874000
_cell_angle_alpha   89.99991400
_cell_angle_beta   89.99964331
_cell_angle_gamma   119.43984391
_symmetry_Int_Tables_number   1
_chemical_formula_structural   La3PrAl18(OsPt2)2
_chemical_formula_sum   'La3 Pr1 Al18 Os2 Pt4'
_cell_volume   499.03190454
_cell_formula_units_Z   1
loop_
 _symmetry_equiv_pos_site_id
 _symmetry_equiv_pos_as_xyz
  1  'x, y, z'
loop_
 _atom_site_type_symbol
 _atom_site_label
 _atom_site_symmetry_multiplicity
 _atom_site_fract_x
 _atom_site_fract_y
 _atom_site_fract_z
 _atom_site_occupancy
  La  La0  1  0.994398  0.669880  0.749990  1
  La  La1  1  0.005225  0.330351  0.250003  1
  La  La2  1  0.670456  0.994741  0.749992  1
  Pr  Pr3  1  0.330901  0.005456  0.250004  1
  Al  Al4  1  0.129350  0.128992  0.750000  1
  Al  Al5  1  0.873155  0.872239  0.250000  1
  Al  Al6  1  0.003312  0.330034  0.573677  1
  Al  Al7  1  0.998008  0.671327  0.424930  1
  Al  Al8  1  0.998003  0.671324  0.075071  1
  Al  Al9  1  0.329743  0.002868  0.927241  1
  Al  Al10  1  0.003313  0.330036  0.926321  1
  Al  Al11  1  0.669528  0.996998  0.074827  1
  Al  Al12  1  0.669527  0.996996  0.425176  1
  Al  Al13  1  0.329740  0.002863  0.572764  1
  Al  Al14  1  0.330039  0.329160  0.049551  1
  Al  Al15  1  0.669395  0.669444  0.953030  1
  Al  Al16  1  0.669394  0.669451  0.546972  1
  Al  Al17  1  0.330033  0.329167  0.450447  1
  Al  Al18  1  0.342475  0.543063  0.749997  1
  Al  Al19  1  0.656198  0.455448  0.249997  1
  Al  Al20  1  0.542310  0.342019  0.750006  1
  Al  Al21  1  0.456701  0.658823  0.250005  1
  Os  Os22  1  0.999703  0.999842  0.500146  1
  Os  Os23  1  0.999697  0.999840  0.999849  1
  Pt  Pt24  1  0.670632  0.329067  0.500064  1
  Pt  Pt25  1  0.329075  0.670748  0.500029  1
  Pt  Pt26  1  0.329067  0.670755  0.999973  1
  Pt  Pt27  1  0.670623  0.329073  0.999937  1
