# generated using pymatgen
data_Sr3P6(IrRh2)2
_symmetry_space_group_name_H-M   'P 1'
_cell_length_a   6.77691128
_cell_length_b   6.79066548
_cell_length_c   7.11695664
_cell_angle_alpha   89.95169431
_cell_angle_beta   90.02654838
_cell_angle_gamma   119.91307666
_symmetry_Int_Tables_number   1
_chemical_formula_structural   Sr3P6(IrRh2)2
_chemical_formula_sum   'Sr3 P6 Ir2 Rh4'
_cell_volume   283.88906539
_cell_formula_units_Z   1
loop_
 _symmetry_equiv_pos_site_id
 _symmetry_equiv_pos_as_xyz
  1  'x, y, z'
loop_
 _atom_site_type_symbol
 _atom_site_label
 _atom_site_symmetry_multiplicity
 _atom_site_fract_x
 _atom_site_fract_y
 _atom_site_fract_z
 _atom_site_occupancy
  Sr  Sr0  1  0.999093  0.601163  0.833591  1
  Sr  Sr1  1  0.398203  0.399611  0.499689  1
  Sr  Sr2  1  0.602042  0.000406  0.166729  1
  P  P3  1  0.880813  0.218355  0.542798  1
  P  P4  1  0.217988  0.877947  0.458344  1
  P  P5  1  0.118670  0.336659  0.123824  1
  P  P6  1  0.781628  0.661887  0.208549  1
  P  P7  1  0.339062  0.121834  0.874748  1
  P  P8  1  0.662358  0.782526  0.791903  1
  Ir  Ir9  1  0.513777  0.000538  0.666325  1
  Ir  Ir10  1  0.000559  0.128037  0.833196  1
  Rh  Rh11  1  0.871061  0.870296  0.499171  1
  Rh  Rh12  1  0.130189  0.999457  0.167645  1
  Rh  Rh13  1  0.485403  0.486649  0.000743  1
  Rh  Rh14  1  0.999155  0.514632  0.332745  1
