# generated using pymatgen
data_Y19Er5Ru14
_symmetry_space_group_name_H-M   'P 1'
_cell_length_a   11.35472200
_cell_length_b   8.41296123
_cell_length_c   11.28387200
_cell_angle_alpha   56.39461678
_cell_angle_beta   89.99865777
_cell_angle_gamma   90.01983139
_symmetry_Int_Tables_number   1
_chemical_formula_structural   Y19Er5Ru14
_chemical_formula_sum   'Y19 Er5 Ru14'
_cell_volume   897.76015909
_cell_formula_units_Z   1
loop_
 _symmetry_equiv_pos_site_id
 _symmetry_equiv_pos_as_xyz
  1  'x, y, z'
loop_
 _atom_site_type_symbol
 _atom_site_label
 _atom_site_symmetry_multiplicity
 _atom_site_fract_x
 _atom_site_fract_y
 _atom_site_fract_z
 _atom_site_occupancy
  Y  Y0  1  0.705419  0.242397  0.531912  1
  Y  Y1  1  0.205428  0.757314  0.968190  1
  Y  Y2  1  0.844663  0.507650  0.655666  1
  Y  Y3  1  0.343944  0.492036  0.844840  1
  Y  Y4  1  0.155719  0.492568  0.343646  1
  Y  Y5  1  0.655393  0.507415  0.155741  1
  Y  Y6  1  0.006742  0.853970  0.360332  1
  Y  Y7  1  0.505632  0.146594  0.139481  1
  Y  Y8  1  0.993811  0.146941  0.638829  1
  Y  Y9  1  0.493448  0.852951  0.860989  1
  Y  Y10  1  0.794408  0.242213  0.032217  1
  Y  Y11  1  0.294449  0.758459  0.467290  1
  Y  Y12  1  0.931371  0.776640  0.090187  1
  Y  Y13  1  0.430868  0.223085  0.409839  1
  Y  Y14  1  0.069110  0.223514  0.910495  1
  Y  Y15  1  0.568651  0.776486  0.590239  1
  Y  Y16  1  0.301694  0.241790  0.675387  1
  Y  Y17  1  0.801946  0.758244  0.824618  1
  Y  Y18  1  0.698365  0.758547  0.324570  1
  Er  Er19  1  0.197985  0.242149  0.176053  1
  Er  Er20  1  0.925946  0.279971  0.294255  1
  Er  Er21  1  0.425715  0.719603  0.205565  1
  Er  Er22  1  0.074498  0.720289  0.705287  1
  Er  Er23  1  0.574311  0.280245  0.794389  1
  Ru  Ru24  1  0.499959  0.500080  0.499902  1
  Ru  Ru25  1  0.001393  0.498544  0.000882  1
  Ru  Ru26  1  0.647287  0.926406  0.031686  1
  Ru  Ru27  1  0.147680  0.074741  0.466199  1
  Ru  Ru28  1  0.352846  0.073666  0.968241  1
  Ru  Ru29  1  0.852798  0.926189  0.531588  1
  Ru  Ru30  1  0.396727  0.484360  0.104451  1
  Ru  Ru31  1  0.898686  0.513677  0.396442  1
  Ru  Ru32  1  0.601439  0.513396  0.896834  1
  Ru  Ru33  1  0.101570  0.486606  0.603268  1
  Ru  Ru34  1  0.816742  0.096989  0.850425  1
  Ru  Ru35  1  0.316355  0.902821  0.649648  1
  Ru  Ru36  1  0.183710  0.904364  0.150127  1
  Ru  Ru37  1  0.683291  0.097088  0.350289  1
