# generated using pymatgen
data_Tb3In3HgIrRh
_symmetry_space_group_name_H-M   'P 1'
_cell_length_a   7.87129600
_cell_length_b   7.87129538
_cell_length_c   3.81747700
_cell_angle_alpha   90.00000000
_cell_angle_beta   90.00000000
_cell_angle_gamma   120.00001102
_symmetry_Int_Tables_number   1
_chemical_formula_structural   Tb3In3HgIrRh
_chemical_formula_sum   'Tb3 In3 Hg1 Ir1 Rh1'
_cell_volume   204.83278359
_cell_formula_units_Z   1
loop_
 _symmetry_equiv_pos_site_id
 _symmetry_equiv_pos_as_xyz
  1  'x, y, z'
loop_
 _atom_site_type_symbol
 _atom_site_label
 _atom_site_symmetry_multiplicity
 _atom_site_fract_x
 _atom_site_fract_y
 _atom_site_fract_z
 _atom_site_occupancy
  Tb  Tb0  1  0.969103  0.582233  0.500000  1
  Tb  Tb1  1  0.417767  0.386870  0.500000  1
  Tb  Tb2  1  0.613130  0.030897  0.500000  1
  In  In3  1  0.744800  0.744619  0.000000  1
  In  In4  1  0.999821  0.255200  0.000000  1
  In  In5  1  0.255381  0.000179  0.000000  1
  Hg  Hg6  1  0.333333  0.666667  0.000000  1
  Ir  Ir7  1  0.666667  0.333333  0.000000  1
  Rh  Rh8  1  0.000000  0.000000  0.500000  1
