# generated using pymatgen
data_Nd4Ho2Al24Ru7Au
_symmetry_space_group_name_H-M   'P 1'
_cell_length_a   8.91897623
_cell_length_b   8.91897705
_cell_length_c   9.62504896
_cell_angle_alpha   89.96300873
_cell_angle_beta   90.03698462
_cell_angle_gamma   120.13169237
_symmetry_Int_Tables_number   1
_chemical_formula_structural   Nd4Ho2Al24Ru7Au
_chemical_formula_sum   'Nd4 Ho2 Al24 Ru7 Au1'
_cell_volume   662.19464271
_cell_formula_units_Z   1
loop_
 _symmetry_equiv_pos_site_id
 _symmetry_equiv_pos_as_xyz
  1  'x, y, z'
loop_
 _atom_site_type_symbol
 _atom_site_label
 _atom_site_symmetry_multiplicity
 _atom_site_fract_x
 _atom_site_fract_y
 _atom_site_fract_z
 _atom_site_occupancy
  Nd  Nd0  1  0.191828  0.383386  0.249453  1
  Nd  Nd1  1  0.808172  0.616614  0.750547  1
  Nd  Nd2  1  0.616614  0.808172  0.249453  1
  Nd  Nd3  1  0.383386  0.191828  0.750547  1
  Ho  Ho4  1  0.194179  0.805821  0.253236  1
  Ho  Ho5  1  0.805821  0.194179  0.746764  1
  Al  Al6  1  0.327318  0.672682  0.019252  1
  Al  Al7  1  0.672682  0.327318  0.980748  1
  Al  Al8  1  0.667242  0.332758  0.513381  1
  Al  Al9  1  0.332758  0.667242  0.486619  1
  Al  Al10  1  0.160458  0.324536  0.577649  1
  Al  Al11  1  0.839542  0.675464  0.422351  1
  Al  Al12  1  0.675464  0.839542  0.577649  1
  Al  Al13  1  0.850843  0.678261  0.080137  1
  Al  Al14  1  0.324536  0.160458  0.422351  1
  Al  Al15  1  0.149157  0.321739  0.919863  1
  Al  Al16  1  0.162809  0.837191  0.576470  1
  Al  Al17  1  0.321739  0.149157  0.080137  1
  Al  Al18  1  0.837191  0.162809  0.423530  1
  Al  Al19  1  0.678261  0.850843  0.919863  1
  Al  Al20  1  0.836987  0.163013  0.075386  1
  Al  Al21  1  0.163013  0.836987  0.924614  1
  Al  Al22  1  0.560062  0.122043  0.248301  1
  Al  Al23  1  0.439938  0.877957  0.751699  1
  Al  Al24  1  0.877957  0.439938  0.248301  1
  Al  Al25  1  0.122043  0.560062  0.751699  1
  Al  Al26  1  0.565453  0.434547  0.255893  1
  Al  Al27  1  0.434547  0.565453  0.744107  1
  Al  Al28  1  0.001486  0.998514  0.250278  1
  Al  Al29  1  0.998514  0.001486  0.749722  1
  Ru  Ru30  1  0.500000  0.000000  0.000000  1
  Ru  Ru31  1  0.000000  0.500000  0.000000  1
  Ru  Ru32  1  0.500000  0.000000  0.500000  1
  Ru  Ru33  1  0.000000  0.500000  0.500000  1
  Ru  Ru34  1  0.500000  0.500000  0.500000  1
  Ru  Ru35  1  0.000000  0.000000  0.000000  1
  Ru  Ru36  1  0.000000  0.000000  0.500000  1
  Au  Au37  1  0.500000  0.500000  0.000000  1
