# generated using pymatgen
data_CeDy6Y(Si3Rh)4
_symmetry_space_group_name_H-M   'P 1'
_cell_length_a   8.17946000
_cell_length_b   8.17956200
_cell_length_c   7.95252600
_cell_angle_alpha   90.00000000
_cell_angle_beta   90.00000000
_cell_angle_gamma   119.99917318
_symmetry_Int_Tables_number   1
_chemical_formula_structural   CeDy6Y(Si3Rh)4
_chemical_formula_sum   'Ce1 Dy6 Y1 Si12 Rh4'
_cell_volume   460.78043366
_cell_formula_units_Z   1
loop_
 _symmetry_equiv_pos_site_id
 _symmetry_equiv_pos_as_xyz
  1  'x, y, z'
loop_
 _atom_site_type_symbol
 _atom_site_label
 _atom_site_symmetry_multiplicity
 _atom_site_fract_x
 _atom_site_fract_y
 _atom_site_fract_z
 _atom_site_occupancy
  Ce  Ce0  1  0.000007  0.000005  0.250000  1
  Dy  Dy1  1  0.508392  0.491609  0.250000  1
  Dy  Dy2  1  0.508392  0.016783  0.250000  1
  Dy  Dy3  1  0.983217  0.491609  0.250000  1
  Dy  Dy4  1  0.491231  0.508768  0.750000  1
  Dy  Dy5  1  0.491231  0.982463  0.750000  1
  Dy  Dy6  1  0.017538  0.508768  0.750000  1
  Y  Y7  1  0.000001  0.000001  0.750000  1
  Si  Si8  1  0.166848  0.833155  0.500484  1
  Si  Si9  1  0.166846  0.333695  0.500488  1
  Si  Si10  1  0.666307  0.833156  0.500485  1
  Si  Si11  1  0.832748  0.167249  0.500187  1
  Si  Si12  1  0.832747  0.665493  0.500191  1
  Si  Si13  1  0.334501  0.167249  0.500188  1
  Si  Si14  1  0.832748  0.167249  0.999813  1
  Si  Si15  1  0.832747  0.665493  0.999809  1
  Si  Si16  1  0.334501  0.167249  0.999812  1
  Si  Si17  1  0.166848  0.833155  0.999516  1
  Si  Si18  1  0.166846  0.333695  0.999512  1
  Si  Si19  1  0.666307  0.833156  0.999515  1
  Rh  Rh20  1  0.333333  0.666666  0.468557  1
  Rh  Rh21  1  0.666666  0.333333  0.535537  1
  Rh  Rh22  1  0.666666  0.333333  0.964463  1
  Rh  Rh23  1  0.333333  0.666666  0.031443  1
