# generated using pymatgen
data_Tb8ZnInRh2
_symmetry_space_group_name_H-M   'P 1'
_cell_length_a   9.62343534
_cell_length_b   9.62343442
_cell_length_c   9.63846100
_cell_angle_alpha   59.94833053
_cell_angle_beta   59.94833367
_cell_angle_gamma   59.87585903
_symmetry_Int_Tables_number   1
_chemical_formula_structural   Tb8ZnInRh2
_chemical_formula_sum   'Tb16 Zn2 In2 Rh4'
_cell_volume   630.09326565
_cell_formula_units_Z   2
loop_
 _symmetry_equiv_pos_site_id
 _symmetry_equiv_pos_as_xyz
  1  'x, y, z'
loop_
 _atom_site_type_symbol
 _atom_site_label
 _atom_site_symmetry_multiplicity
 _atom_site_fract_x
 _atom_site_fract_y
 _atom_site_fract_z
 _atom_site_occupancy
  Tb  Tb0  1  0.601046  0.601046  0.598879  1
  Tb  Tb1  1  0.601046  0.601046  0.199032  1
  Tb  Tb2  1  0.604238  0.194529  0.600617  1
  Tb  Tb3  1  0.194529  0.604238  0.600617  1
  Tb  Tb4  1  0.058943  0.439618  0.442254  1
  Tb  Tb5  1  0.439618  0.058943  0.059186  1
  Tb  Tb6  1  0.439618  0.058943  0.442254  1
  Tb  Tb7  1  0.058943  0.439618  0.059186  1
  Tb  Tb8  1  0.441933  0.441933  0.058067  1
  Tb  Tb9  1  0.059888  0.059888  0.440112  1
  Tb  Tb10  1  0.181862  0.812582  0.814436  1
  Tb  Tb11  1  0.812582  0.181862  0.191121  1
  Tb  Tb12  1  0.812582  0.181862  0.814436  1
  Tb  Tb13  1  0.181862  0.812582  0.191121  1
  Tb  Tb14  1  0.813517  0.813517  0.186483  1
  Tb  Tb15  1  0.187244  0.187244  0.812756  1
  Zn  Zn16  1  0.833155  0.833155  0.831402  1
  Zn  Zn17  1  0.833155  0.833155  0.502287  1
  In  In18  1  0.832044  0.510745  0.828605  1
  In  In19  1  0.510745  0.832044  0.828605  1
  Rh  Rh20  1  0.392906  0.392906  0.393218  1
  Rh  Rh21  1  0.392906  0.392906  0.820968  1
  Rh  Rh22  1  0.392588  0.823049  0.392180  1
  Rh  Rh23  1  0.823049  0.392588  0.392180  1
