# generated using pymatgen
data_TiMn2(InRh2)3
_symmetry_space_group_name_H-M   'P 1'
_cell_length_a   4.48839200
_cell_length_b   6.29100000
_cell_length_c   13.38997000
_cell_angle_alpha   89.99992934
_cell_angle_beta   89.99915940
_cell_angle_gamma   90.00000000
_symmetry_Int_Tables_number   1
_chemical_formula_structural   TiMn2(InRh2)3
_chemical_formula_sum   'Ti2 Mn4 In6 Rh12'
_cell_volume   378.08554071
_cell_formula_units_Z   2
loop_
 _symmetry_equiv_pos_site_id
 _symmetry_equiv_pos_as_xyz
  1  'x, y, z'
loop_
 _atom_site_type_symbol
 _atom_site_label
 _atom_site_symmetry_multiplicity
 _atom_site_fract_x
 _atom_site_fract_y
 _atom_site_fract_z
 _atom_site_occupancy
  Ti  Ti0  1  0.999994  0.500001  0.997325  1
  Ti  Ti1  1  0.499818  0.000000  0.169373  1
  Mn  Mn2  1  0.999809  0.500000  0.335027  1
  Mn  Mn3  1  0.499994  0.000000  0.500602  1
  Mn  Mn4  1  0.000170  0.500001  0.666085  1
  Mn  Mn5  1  0.500182  0.000000  0.831627  1
  In  In6  1  0.999980  0.000000  0.998473  1
  In  In7  1  0.499854  0.500000  0.168163  1
  In  In8  1  0.999817  0.000000  0.335688  1
  In  In9  1  0.499994  0.500000  0.500319  1
  In  In10  1  0.000272  0.000000  0.666275  1
  In  In11  1  0.500168  0.500000  0.830937  1
  Rh  Rh12  1  0.499980  0.251005  0.001908  1
  Rh  Rh13  1  0.499978  0.748995  0.001908  1
  Rh  Rh14  1  0.999790  0.248969  0.164810  1
  Rh  Rh15  1  0.999791  0.751033  0.164810  1
  Rh  Rh16  1  0.499785  0.245856  0.330622  1
  Rh  Rh17  1  0.499784  0.754145  0.330622  1
  Rh  Rh18  1  0.999996  0.252493  0.499850  1
  Rh  Rh19  1  0.999995  0.747509  0.499850  1
  Rh  Rh20  1  0.500228  0.247568  0.666812  1
  Rh  Rh21  1  0.500228  0.752433  0.666812  1
  Rh  Rh22  1  0.000200  0.254102  0.836050  1
  Rh  Rh23  1  0.000199  0.745898  0.836050  1
