# generated using pymatgen
data_Ho8B24Ir3Rh
_symmetry_space_group_name_H-M   'P 1'
_cell_length_a   3.64119600
_cell_length_b   9.17634732
_cell_length_c   11.51339740
_cell_angle_alpha   90.03008533
_cell_angle_beta   90.00000000
_cell_angle_gamma   90.00000000
_symmetry_Int_Tables_number   1
_chemical_formula_structural   Ho8B24Ir3Rh
_chemical_formula_sum   'Ho8 B24 Ir3 Rh1'
_cell_volume   384.69570271
_cell_formula_units_Z   1
loop_
 _symmetry_equiv_pos_site_id
 _symmetry_equiv_pos_as_xyz
  1  'x, y, z'
loop_
 _atom_site_type_symbol
 _atom_site_label
 _atom_site_symmetry_multiplicity
 _atom_site_fract_x
 _atom_site_fract_y
 _atom_site_fract_z
 _atom_site_occupancy
  Ho  Ho0  1  0.500000  0.323455  0.412793  1
  Ho  Ho1  1  0.500000  0.677043  0.586374  1
  Ho  Ho2  1  0.500000  0.177568  0.913192  1
  Ho  Ho3  1  0.500000  0.822422  0.087566  1
  Ho  Ho4  1  0.500000  0.445427  0.126129  1
  Ho  Ho5  1  0.500000  0.555162  0.874734  1
  Ho  Ho6  1  0.500000  0.055211  0.625235  1
  Ho  Ho7  1  0.500000  0.943741  0.374211  1
  B  B8  1  0.000000  0.111494  0.469332  1
  B  B9  1  0.000000  0.888288  0.530541  1
  B  B10  1  0.000000  0.388478  0.969545  1
  B  B11  1  0.000000  0.611742  0.030540  1
  B  B12  1  0.000000  0.133015  0.315283  1
  B  B13  1  0.000000  0.866868  0.684371  1
  B  B14  1  0.000000  0.366984  0.815642  1
  B  B15  1  0.000000  0.633539  0.184511  1
  B  B16  1  0.000000  0.053635  0.066316  1
  B  B17  1  0.000000  0.946506  0.933723  1
  B  B18  1  0.000000  0.446302  0.566142  1
  B  B19  1  0.000000  0.553435  0.433880  1
  B  B20  1  0.000000  0.482828  0.287431  1
  B  B21  1  0.000000  0.517106  0.713030  1
  B  B22  1  0.000000  0.017375  0.787162  1
  B  B23  1  0.000000  0.982607  0.212917  1
  B  B24  1  0.000000  0.249867  0.079263  1
  B  B25  1  0.000000  0.750207  0.920747  1
  B  B26  1  0.000000  0.250547  0.579083  1
  B  B27  1  0.000000  0.749184  0.420711  1
  B  B28  1  0.000000  0.294115  0.234474  1
  B  B29  1  0.000000  0.706107  0.765457  1
  B  B30  1  0.000000  0.206066  0.734362  1
  B  B31  1  0.000000  0.794045  0.265021  1
  Ir  Ir32  1  0.500000  0.138923  0.178235  1
  Ir  Ir33  1  0.500000  0.861371  0.821481  1
  Ir  Ir34  1  0.500000  0.360584  0.679377  1
  Rh  Rh35  1  0.500000  0.638754  0.321189  1
