# generated using pymatgen
data_Th2Si5Ir3
_symmetry_space_group_name_H-M   'P 1'
_cell_length_a   8.25292049
_cell_length_b   8.25291963
_cell_length_c   8.25292001
_cell_angle_alpha   137.39613361
_cell_angle_beta   104.93365267
_cell_angle_gamma   90.35800253
_symmetry_Int_Tables_number   1
_chemical_formula_structural   Th2Si5Ir3
_chemical_formula_sum   'Th4 Si10 Ir6'
_cell_volume   350.77300115
_cell_formula_units_Z   2
loop_
 _symmetry_equiv_pos_site_id
 _symmetry_equiv_pos_as_xyz
  1  'x, y, z'
loop_
 _atom_site_type_symbol
 _atom_site_label
 _atom_site_symmetry_multiplicity
 _atom_site_fract_x
 _atom_site_fract_y
 _atom_site_fract_z
 _atom_site_occupancy
  Th  Th0  1  0.861271  0.630896  0.230375  1
  Th  Th1  1  0.138730  0.369104  0.769625  1
  Th  Th2  1  0.400521  0.130896  0.269625  1
  Th  Th3  1  0.599479  0.869104  0.730375  1
  Si  Si4  1  0.500000  0.750000  0.250000  1
  Si  Si5  1  0.500000  0.250000  0.750000  1
  Si  Si6  1  0.227651  0.977651  0.750000  1
  Si  Si7  1  0.772349  0.522349  0.750000  1
  Si  Si8  1  0.772349  0.022349  0.250000  1
  Si  Si9  1  0.227651  0.477651  0.250000  1
  Si  Si10  1  0.042454  0.891530  0.150924  1
  Si  Si11  1  0.957546  0.108470  0.849076  1
  Si  Si12  1  0.740606  0.391530  0.349076  1
  Si  Si13  1  0.259394  0.608470  0.650924  1
  Ir  Ir14  1  0.000000  0.750000  0.750000  1
  Ir  Ir15  1  0.000000  0.250000  0.250000  1
  Ir  Ir16  1  0.247733  0.861429  0.386302  1
  Ir  Ir17  1  0.752267  0.138571  0.613698  1
  Ir  Ir18  1  0.475127  0.361429  0.113698  1
  Ir  Ir19  1  0.524873  0.638571  0.886302  1
