# generated using pymatgen
data_Yb2Th2Al7Re
_symmetry_space_group_name_H-M   'P 1'
_cell_length_a   5.63965600
_cell_length_b   5.63965605
_cell_length_c   9.10076600
_cell_angle_alpha   90.00000000
_cell_angle_beta   90.00000000
_cell_angle_gamma   119.99998797
_symmetry_Int_Tables_number   1
_chemical_formula_structural   Yb2Th2Al7Re
_chemical_formula_sum   'Yb2 Th2 Al7 Re1'
_cell_volume   250.67663986
_cell_formula_units_Z   1
loop_
 _symmetry_equiv_pos_site_id
 _symmetry_equiv_pos_as_xyz
  1  'x, y, z'
loop_
 _atom_site_type_symbol
 _atom_site_label
 _atom_site_symmetry_multiplicity
 _atom_site_fract_x
 _atom_site_fract_y
 _atom_site_fract_z
 _atom_site_occupancy
  Yb  Yb0  1  0.666667  0.333333  0.443976  1
  Yb  Yb1  1  0.333333  0.666667  0.556024  1
  Th  Th2  1  0.333333  0.666667  0.943698  1
  Th  Th3  1  0.666667  0.333333  0.056302  1
  Al  Al4  1  0.000000  0.000000  0.500000  1
  Al  Al5  1  0.666693  0.833347  0.245449  1
  Al  Al6  1  0.166653  0.833347  0.245449  1
  Al  Al7  1  0.166653  0.333307  0.245449  1
  Al  Al8  1  0.333307  0.166653  0.754551  1
  Al  Al9  1  0.833347  0.166653  0.754551  1
  Al  Al10  1  0.833347  0.666693  0.754551  1
  Re  Re11  1  0.000000  0.000000  0.000000  1
