# generated using pymatgen
data_Tm3U5(B6Mo)4
_symmetry_space_group_name_H-M   'P 1'
_cell_length_a   3.66479800
_cell_length_b   9.29546800
_cell_length_c   11.39707700
_cell_angle_alpha   89.99875294
_cell_angle_beta   90.00000000
_cell_angle_gamma   90.00000000
_symmetry_Int_Tables_number   1
_chemical_formula_structural   Tm3U5(B6Mo)4
_chemical_formula_sum   'Tm3 U5 B24 Mo4'
_cell_volume   388.25296790
_cell_formula_units_Z   1
loop_
 _symmetry_equiv_pos_site_id
 _symmetry_equiv_pos_as_xyz
  1  'x, y, z'
loop_
 _atom_site_type_symbol
 _atom_site_label
 _atom_site_symmetry_multiplicity
 _atom_site_fract_x
 _atom_site_fract_y
 _atom_site_fract_z
 _atom_site_occupancy
  Tm  Tm0  1  0.000000  0.337473  0.408253  1
  Tm  Tm1  1  0.000000  0.662644  0.590685  1
  Tm  Tm2  1  0.000000  0.835805  0.092630  1
  U  U3  1  0.000000  0.163327  0.908112  1
  U  U4  1  0.000000  0.956085  0.394530  1
  U  U5  1  0.000000  0.044201  0.604644  1
  U  U6  1  0.000000  0.456363  0.105082  1
  U  U7  1  0.000000  0.544769  0.894978  1
  B  B8  1  0.500000  0.550483  0.432826  1
  B  B9  1  0.500000  0.448840  0.568508  1
  B  B10  1  0.500000  0.052416  0.066711  1
  B  B11  1  0.500000  0.950734  0.931211  1
  B  B12  1  0.500000  0.743676  0.424499  1
  B  B13  1  0.500000  0.256699  0.576016  1
  B  B14  1  0.500000  0.243273  0.075168  1
  B  B15  1  0.500000  0.755839  0.923472  1
  B  B16  1  0.500000  0.803596  0.274787  1
  B  B17  1  0.500000  0.196026  0.726983  1
  B  B18  1  0.500000  0.303203  0.225250  1
  B  B19  1  0.500000  0.696994  0.774855  1
  B  B20  1  0.500000  0.643594  0.187710  1
  B  B21  1  0.500000  0.354815  0.812578  1
  B  B22  1  0.500000  0.143985  0.311673  1
  B  B23  1  0.500000  0.855751  0.687873  1
  B  B24  1  0.500000  0.988145  0.219909  1
  B  B25  1  0.500000  0.014148  0.781374  1
  B  B26  1  0.500000  0.487029  0.280522  1
  B  B27  1  0.500000  0.512473  0.719410  1
  B  B28  1  0.500000  0.639847  0.038715  1
  B  B29  1  0.500000  0.356962  0.960208  1
  B  B30  1  0.500000  0.140153  0.460712  1
  B  B31  1  0.500000  0.860334  0.539065  1
  Mo  Mo32  1  0.000000  0.646415  0.318270  1
  Mo  Mo33  1  0.000000  0.351785  0.684184  1
  Mo  Mo34  1  0.000000  0.145689  0.178562  1
  Mo  Mo35  1  0.000000  0.856429  0.820035  1
