# generated using pymatgen
data_Ta11Nb(ReTc)6
_symmetry_space_group_name_H-M   'P 1'
_cell_length_a   4.49972500
_cell_length_b   6.39007300
_cell_length_c   13.65219900
_cell_angle_alpha   90.00000000
_cell_angle_beta   90.00008031
_cell_angle_gamma   90.00000000
_symmetry_Int_Tables_number   1
_chemical_formula_structural   Ta11Nb(ReTc)6
_chemical_formula_sum   'Ta11 Nb1 Re6 Tc6'
_cell_volume   392.54947639
_cell_formula_units_Z   1
loop_
 _symmetry_equiv_pos_site_id
 _symmetry_equiv_pos_as_xyz
  1  'x, y, z'
loop_
 _atom_site_type_symbol
 _atom_site_label
 _atom_site_symmetry_multiplicity
 _atom_site_fract_x
 _atom_site_fract_y
 _atom_site_fract_z
 _atom_site_occupancy
  Ta  Ta0  1  0.500000  0.750035  0.000000  1
  Ta  Ta1  1  0.999985  0.249979  0.167074  1
  Ta  Ta2  1  0.999992  0.749988  0.166576  1
  Ta  Ta3  1  0.499994  0.250004  0.333478  1
  Ta  Ta4  1  0.500004  0.749968  0.333419  1
  Ta  Ta5  1  0.000000  0.250006  0.500000  1
  Ta  Ta6  1  0.000000  0.749995  0.500000  1
  Ta  Ta7  1  0.500007  0.250004  0.666522  1
  Ta  Ta8  1  0.499997  0.749968  0.666581  1
  Ta  Ta9  1  0.000015  0.249979  0.832926  1
  Ta  Ta10  1  0.000008  0.749988  0.833424  1
  Nb  Nb11  1  0.500000  0.249962  0.000000  1
  Re  Re12  1  0.000000  0.999460  0.000000  1
  Re  Re13  1  0.500022  0.500371  0.166954  1
  Re  Re14  1  0.999983  0.000079  0.333425  1
  Re  Re15  1  0.500001  0.499957  0.500000  1
  Re  Re16  1  0.000017  0.000079  0.666575  1
  Re  Re17  1  0.499979  0.500371  0.833046  1
  Tc  Tc18  1  0.000000  0.500606  0.000000  1
  Tc  Tc19  1  0.499959  0.999584  0.166986  1
  Tc  Tc20  1  0.000002  0.499963  0.333328  1
  Tc  Tc21  1  0.500001  0.000110  0.500000  1
  Tc  Tc22  1  0.999998  0.499963  0.666672  1
  Tc  Tc23  1  0.500043  0.999584  0.833015  1
