# generated using pymatgen
data_SrLiNd3CoO8
_symmetry_space_group_name_H-M   'P 1'
_cell_length_a   5.30719800
_cell_length_b   6.81960153
_cell_length_c   21.17843400
_cell_angle_alpha   89.99989503
_cell_angle_beta   90.00002170
_cell_angle_gamma   67.09978614
_symmetry_Int_Tables_number   1
_chemical_formula_structural   SrLiNd3CoO8
_chemical_formula_sum   'Sr4 Li4 Nd12 Co4 O32'
_cell_volume   706.09721439
_cell_formula_units_Z   4
loop_
 _symmetry_equiv_pos_site_id
 _symmetry_equiv_pos_as_xyz
  1  'x, y, z'
loop_
 _atom_site_type_symbol
 _atom_site_label
 _atom_site_symmetry_multiplicity
 _atom_site_fract_x
 _atom_site_fract_y
 _atom_site_fract_z
 _atom_site_occupancy
  Sr  Sr0  1  0.358710  0.282573  0.999995  1
  Sr  Sr1  1  0.358704  0.282582  0.500005  1
  Sr  Sr2  1  0.641302  0.717426  0.250006  1
  Sr  Sr3  1  0.641302  0.717418  0.749997  1
  Li  Li4  1  0.500001  0.999999  0.124999  1
  Li  Li5  1  0.499997  0.999997  0.624998  1
  Li  Li6  1  0.499992  0.000010  0.375004  1
  Li  Li7  1  0.500007  0.999989  0.874998  1
  Nd  Nd8  1  0.635669  0.728727  0.999994  1
  Nd  Nd9  1  0.635668  0.728726  0.499996  1
  Nd  Nd10  1  0.364335  0.271276  0.250006  1
  Nd  Nd11  1  0.364335  0.271272  0.750004  1
  Nd  Nd12  1  0.136619  0.726853  0.126298  1
  Nd  Nd13  1  0.136620  0.726847  0.626299  1
  Nd  Nd14  1  0.863401  0.273150  0.123701  1
  Nd  Nd15  1  0.863395  0.273151  0.623700  1
  Nd  Nd16  1  0.136613  0.726860  0.373703  1
  Nd  Nd17  1  0.136606  0.726872  0.873698  1
  Nd  Nd18  1  0.863408  0.273126  0.376301  1
  Nd  Nd19  1  0.863402  0.273138  0.876298  1
  Co  Co20  1  0.999664  0.000678  0.499982  1
  Co  Co21  1  0.000333  0.999324  0.750022  1
  Co  Co22  1  0.999665  0.000680  0.999977  1
  Co  Co23  1  0.000334  0.999323  0.250021  1
  O  O24  1  0.157858  0.684115  0.999999  1
  O  O25  1  0.157859  0.684105  0.500000  1
  O  O26  1  0.842134  0.315888  0.250002  1
  O  O27  1  0.842130  0.315891  0.749998  1
  O  O28  1  0.836215  0.327521  0.999997  1
  O  O29  1  0.836209  0.327532  0.500004  1
  O  O30  1  0.163791  0.672477  0.250002  1
  O  O31  1  0.163790  0.672474  0.749997  1
  O  O32  1  0.318468  0.363093  0.132975  1
  O  O33  1  0.318467  0.363092  0.632970  1
  O  O34  1  0.681507  0.636907  0.117022  1
  O  O35  1  0.681499  0.636906  0.617027  1
  O  O36  1  0.318467  0.363088  0.367028  1
  O  O37  1  0.318476  0.363092  0.867023  1
  O  O38  1  0.681499  0.636907  0.382980  1
  O  O39  1  0.681504  0.636914  0.882972  1
  O  O40  1  0.758828  0.997179  0.061498  1
  O  O41  1  0.758813  0.997166  0.561505  1
  O  O42  1  0.756009  0.002854  0.188504  1
  O  O43  1  0.755993  0.002856  0.688498  1
  O  O44  1  0.243997  0.997150  0.061495  1
  O  O45  1  0.244018  0.997138  0.561503  1
  O  O46  1  0.241178  0.002826  0.188502  1
  O  O47  1  0.241189  0.002831  0.688497  1
  O  O48  1  0.756038  0.002850  0.311491  1
  O  O49  1  0.756028  0.002853  0.811487  1
  O  O50  1  0.241150  0.002824  0.311492  1
  O  O51  1  0.241152  0.002829  0.811489  1
  O  O52  1  0.758839  0.997176  0.438509  1
  O  O53  1  0.758859  0.997175  0.938510  1
  O  O54  1  0.243986  0.997146  0.438513  1
  O  O55  1  0.243968  0.997147  0.938513  1
