# generated using pymatgen
data_Mn(WCl5)2
_symmetry_space_group_name_H-M   'P 1'
_cell_length_a   9.07259496
_cell_length_b   9.07259418
_cell_length_c   12.94037573
_cell_angle_alpha   86.91003086
_cell_angle_beta   86.91003134
_cell_angle_gamma   139.05934694
_symmetry_Int_Tables_number   1
_chemical_formula_structural   Mn(WCl5)2
_chemical_formula_sum   'Mn2 W4 Cl20'
_cell_volume   689.62612478
_cell_formula_units_Z   2
loop_
 _symmetry_equiv_pos_site_id
 _symmetry_equiv_pos_as_xyz
  1  'x, y, z'
loop_
 _atom_site_type_symbol
 _atom_site_label
 _atom_site_symmetry_multiplicity
 _atom_site_fract_x
 _atom_site_fract_y
 _atom_site_fract_z
 _atom_site_occupancy
  Mn  Mn0  1  0.055663  0.944337  0.750000  1
  Mn  Mn1  1  0.944337  0.055663  0.250000  1
  W  W2  1  0.429394  0.570606  0.750000  1
  W  W3  1  0.570606  0.429394  0.250000  1
  W  W4  1  0.271587  0.728413  0.750000  1
  W  W5  1  0.728413  0.271587  0.250000  1
  Cl  Cl6  1  0.777589  0.478608  0.379282  1
  Cl  Cl7  1  0.521392  0.222411  0.120718  1
  Cl  Cl8  1  0.222411  0.521392  0.620718  1
  Cl  Cl9  1  0.478608  0.777589  0.879282  1
  Cl  Cl10  1  0.892594  0.782605  0.144670  1
  Cl  Cl11  1  0.217395  0.107406  0.355330  1
  Cl  Cl12  1  0.107406  0.217395  0.855330  1
  Cl  Cl13  1  0.782605  0.892594  0.644670  1
  Cl  Cl14  1  0.074492  0.589092  0.150890  1
  Cl  Cl15  1  0.410908  0.925508  0.349110  1
  Cl  Cl16  1  0.925508  0.410908  0.849110  1
  Cl  Cl17  1  0.589092  0.074492  0.650890  1
  Cl  Cl18  1  0.598186  0.668370  0.353887  1
  Cl  Cl19  1  0.331630  0.401814  0.146113  1
  Cl  Cl20  1  0.401814  0.331630  0.646113  1
  Cl  Cl21  1  0.668370  0.598186  0.853888  1
  Cl  Cl22  1  0.945224  0.270657  0.359637  1
  Cl  Cl23  1  0.729343  0.054776  0.140363  1
  Cl  Cl24  1  0.054776  0.729343  0.640363  1
  Cl  Cl25  1  0.270657  0.945224  0.859637  1
