# generated using pymatgen
data_Er8Tm2BiPb5
_symmetry_space_group_name_H-M   'P 1'
_cell_length_a   6.49951500
_cell_length_b   9.00649778
_cell_length_c   9.00151303
_cell_angle_alpha   120.01832568
_cell_angle_beta   89.99911753
_cell_angle_gamma   90.00175162
_symmetry_Int_Tables_number   1
_chemical_formula_structural   Er8Tm2BiPb5
_chemical_formula_sum   'Er8 Tm2 Bi1 Pb5'
_cell_volume   456.24993460
_cell_formula_units_Z   1
loop_
 _symmetry_equiv_pos_site_id
 _symmetry_equiv_pos_as_xyz
  1  'x, y, z'
loop_
 _atom_site_type_symbol
 _atom_site_label
 _atom_site_symmetry_multiplicity
 _atom_site_fract_x
 _atom_site_fract_y
 _atom_site_fract_z
 _atom_site_occupancy
  Er  Er0  1  0.498940  0.331522  0.664463  1
  Er  Er1  1  0.498940  0.667059  0.335537  1
  Er  Er2  1  0.750027  0.235189  0.000000  1
  Er  Er3  1  0.750036  0.764411  0.760868  1
  Er  Er4  1  0.750036  0.003543  0.239132  1
  Er  Er5  1  0.249969  0.763275  0.000000  1
  Er  Er6  1  0.249977  0.236776  0.237364  1
  Er  Er7  1  0.249977  0.999412  0.762636  1
  Tm  Tm8  1  0.001069  0.667102  0.335598  1
  Tm  Tm9  1  0.001069  0.331504  0.664402  1
  Bi  Bi10  1  0.750093  0.606843  0.000000  1
  Pb  Pb11  1  0.750121  0.395035  0.394533  1
  Pb  Pb12  1  0.750121  0.000502  0.605467  1
  Pb  Pb13  1  0.249864  0.393741  0.000000  1
  Pb  Pb14  1  0.249881  0.605493  0.606901  1
  Pb  Pb15  1  0.249881  0.998592  0.393099  1
