# generated using pymatgen
data_PaBeGeH
_symmetry_space_group_name_H-M   'P 1'
_cell_length_a   3.88937521
_cell_length_b   3.88750391
_cell_length_c   8.45568740
_cell_angle_alpha   89.96525042
_cell_angle_beta   89.98572888
_cell_angle_gamma   60.01931320
_symmetry_Int_Tables_number   1
_chemical_formula_structural   PaBeGeH
_chemical_formula_sum   'Pa2 Be2 Ge2 H2'
_cell_volume   110.74258007
_cell_formula_units_Z   2
loop_
 _symmetry_equiv_pos_site_id
 _symmetry_equiv_pos_as_xyz
  1  'x, y, z'
loop_
 _atom_site_type_symbol
 _atom_site_label
 _atom_site_symmetry_multiplicity
 _atom_site_fract_x
 _atom_site_fract_y
 _atom_site_fract_z
 _atom_site_occupancy
  Pa  Pa0  1  0.000000  0.000001  0.499979  1
  Pa  Pa1  1  0.999999  0.000000  0.000012  1
  Be  Be2  1  0.333497  0.333153  0.744208  1
  Be  Be3  1  0.666504  0.666846  0.255857  1
  Ge  Ge4  1  0.333236  0.333457  0.265423  1
  Ge  Ge5  1  0.666767  0.666539  0.734531  1
  H  H6  1  0.333243  0.333370  0.935977  1
  H  H7  1  0.666754  0.666634  0.064014  1
