# generated using pymatgen
data_Ho8Tm2CoRu3
_symmetry_space_group_name_H-M   'P 1'
_cell_length_a   6.26901494
_cell_length_b   7.20968630
_cell_length_c   8.39043794
_cell_angle_alpha   96.63078666
_cell_angle_beta   111.74729233
_cell_angle_gamma   90.28326710
_symmetry_Int_Tables_number   1
_chemical_formula_structural   Ho8Tm2CoRu3
_chemical_formula_sum   'Ho8 Tm2 Co1 Ru3'
_cell_volume   349.41252624
_cell_formula_units_Z   1
loop_
 _symmetry_equiv_pos_site_id
 _symmetry_equiv_pos_as_xyz
  1  'x, y, z'
loop_
 _atom_site_type_symbol
 _atom_site_label
 _atom_site_symmetry_multiplicity
 _atom_site_fract_x
 _atom_site_fract_y
 _atom_site_fract_z
 _atom_site_occupancy
  Ho  Ho0  1  0.790103  0.088659  0.814750  1
  Ho  Ho1  1  0.978947  0.415830  0.188743  1
  Ho  Ho2  1  0.209126  0.916651  0.184770  1
  Ho  Ho3  1  0.014584  0.584201  0.814842  1
  Ho  Ho4  1  0.209625  0.187031  0.566744  1
  Ho  Ho5  1  0.644373  0.315290  0.434622  1
  Ho  Ho6  1  0.794193  0.814637  0.435392  1
  Ho  Ho7  1  0.358402  0.680907  0.567133  1
  Tm  Tm8  1  0.421440  0.253013  0.998554  1
  Tm  Tm9  1  0.579293  0.746039  0.997660  1
  Co  Co10  1  0.602645  0.422236  0.777107  1
  Ru  Ru11  1  0.821607  0.074931  0.217911  1
  Ru  Ru12  1  0.397833  0.575083  0.220605  1
  Ru  Ru13  1  0.177829  0.925491  0.781164  1
