# generated using pymatgen
data_Zr4IrRh3
_symmetry_space_group_name_H-M   'P 1'
_cell_length_a   4.50953500
_cell_length_b   5.38047803
_cell_length_c   6.13601104
_cell_angle_alpha   89.98752897
_cell_angle_beta   90.00000000
_cell_angle_gamma   90.00000000
_symmetry_Int_Tables_number   1
_chemical_formula_structural   Zr4IrRh3
_chemical_formula_sum   'Zr4 Ir1 Rh3'
_cell_volume   148.88081801
_cell_formula_units_Z   1
loop_
 _symmetry_equiv_pos_site_id
 _symmetry_equiv_pos_as_xyz
  1  'x, y, z'
loop_
 _atom_site_type_symbol
 _atom_site_label
 _atom_site_symmetry_multiplicity
 _atom_site_fract_x
 _atom_site_fract_y
 _atom_site_fract_z
 _atom_site_occupancy
  Zr  Zr0  1  0.750000  0.863031  0.826511  1
  Zr  Zr1  1  0.250000  0.361214  0.671524  1
  Zr  Zr2  1  0.750000  0.638809  0.325382  1
  Zr  Zr3  1  0.250000  0.139869  0.175551  1
  Ir  Ir4  1  0.750000  0.164973  0.453211  1
  Rh  Rh5  1  0.250000  0.831853  0.549047  1
  Rh  Rh6  1  0.250000  0.666278  0.046619  1
  Rh  Rh7  1  0.750000  0.333972  0.952155  1
