# generated using pymatgen
data_Dy3HoB16OsRu3
_symmetry_space_group_name_H-M   'P 1'
_cell_length_a   3.55962700
_cell_length_b   5.95934614
_cell_length_c   11.53051101
_cell_angle_alpha   90.01533319
_cell_angle_beta   90.00000000
_cell_angle_gamma   90.00000000
_symmetry_Int_Tables_number   1
_chemical_formula_structural   Dy3HoB16OsRu3
_chemical_formula_sum   'Dy3 Ho1 B16 Os1 Ru3'
_cell_volume   244.59729138
_cell_formula_units_Z   1
loop_
 _symmetry_equiv_pos_site_id
 _symmetry_equiv_pos_as_xyz
  1  'x, y, z'
loop_
 _atom_site_type_symbol
 _atom_site_label
 _atom_site_symmetry_multiplicity
 _atom_site_fract_x
 _atom_site_fract_y
 _atom_site_fract_z
 _atom_site_occupancy
  Dy  Dy0  1  0.000000  0.628643  0.649589  1
  Dy  Dy1  1  0.000000  0.371352  0.350369  1
  Dy  Dy2  1  0.000000  0.128785  0.849727  1
  Ho  Ho3  1  0.000000  0.871105  0.150187  1
  B  B4  1  0.500000  0.976760  0.691840  1
  B  B5  1  0.500000  0.023609  0.307986  1
  B  B6  1  0.500000  0.475749  0.808090  1
  B  B7  1  0.500000  0.524003  0.191971  1
  B  B8  1  0.500000  0.789251  0.813967  1
  B  B9  1  0.500000  0.210686  0.185945  1
  B  B10  1  0.500000  0.289082  0.685676  1
  B  B11  1  0.500000  0.710826  0.314368  1
  B  B12  1  0.500000  0.863981  0.970250  1
  B  B13  1  0.500000  0.135923  0.030096  1
  B  B14  1  0.500000  0.363994  0.530145  1
  B  B15  1  0.500000  0.635923  0.469722  1
  B  B16  1  0.500000  0.887974  0.546665  1
  B  B17  1  0.500000  0.112091  0.453206  1
  B  B18  1  0.500000  0.387793  0.953137  1
  B  B19  1  0.500000  0.612334  0.046973  1
  Os  Os20  1  0.000000  0.641212  0.907226  1
  Ru  Ru21  1  0.000000  0.358732  0.092854  1
  Ru  Ru22  1  0.000000  0.140368  0.592819  1
  Ru  Ru23  1  0.000000  0.859824  0.407192  1
