# generated using pymatgen
data_Ho12InGaTcNi3
_symmetry_space_group_name_H-M   'P 1'
_cell_length_a   8.35481708
_cell_length_b   8.34976822
_cell_length_c   8.35481726
_cell_angle_alpha   113.15226164
_cell_angle_beta   110.20099178
_cell_angle_gamma   105.18314359
_symmetry_Int_Tables_number   1
_chemical_formula_structural   Ho12InGaTcNi3
_chemical_formula_sum   'Ho12 In1 Ga1 Tc1 Ni3'
_cell_volume   446.34131224
_cell_formula_units_Z   1
loop_
 _symmetry_equiv_pos_site_id
 _symmetry_equiv_pos_as_xyz
  1  'x, y, z'
loop_
 _atom_site_type_symbol
 _atom_site_label
 _atom_site_symmetry_multiplicity
 _atom_site_fract_x
 _atom_site_fract_y
 _atom_site_fract_z
 _atom_site_occupancy
  Ho  Ho0  1  0.439909  0.243115  0.196849  1
  Ho  Ho1  1  0.577137  0.772870  0.804250  1
  Ho  Ho2  1  0.031380  0.227130  0.804267  1
  Ho  Ho3  1  0.953734  0.756885  0.196794  1
  Ho  Ho4  1  0.186258  0.281236  0.467600  1
  Ho  Ho5  1  0.823800  0.719536  0.543233  1
  Ho  Ho6  1  0.186365  0.718764  0.905024  1
  Ho  Ho7  1  0.823697  0.280464  0.104263  1
  Ho  Ho8  1  0.323969  0.637723  0.309178  1
  Ho  Ho9  1  0.671455  0.362277  0.686244  1
  Ho  Ho10  1  0.323799  0.014769  0.686363  1
  Ho  Ho11  1  0.671594  0.985231  0.309030  1
  In  In12  1  0.494189  0.500000  0.994189  1
  Ga  Ga13  1  0.017558  0.000000  0.017558  1
  Tc  Tc14  1  0.327242  0.000000  0.327242  1
  Ni  Ni15  1  0.650437  0.000000  0.650437  1
  Ni  Ni16  1  0.116376  0.617278  0.498381  1
  Ni  Ni17  1  0.881103  0.382722  0.499098  1
