# generated using pymatgen
data_Yb10CdCu3SnRu
_symmetry_space_group_name_H-M   'P 1'
_cell_length_a   8.92631405
_cell_length_b   8.94669583
_cell_length_c   8.92188308
_cell_angle_alpha   128.49807176
_cell_angle_beta   128.43472313
_cell_angle_gamma   75.99093879
_symmetry_Int_Tables_number   1
_chemical_formula_structural   Yb10CdCu3SnRu
_chemical_formula_sum   'Yb10 Cd1 Cu3 Sn1 Ru1'
_cell_volume   424.42952978
_cell_formula_units_Z   1
loop_
 _symmetry_equiv_pos_site_id
 _symmetry_equiv_pos_as_xyz
  1  'x, y, z'
loop_
 _atom_site_type_symbol
 _atom_site_label
 _atom_site_symmetry_multiplicity
 _atom_site_fract_x
 _atom_site_fract_y
 _atom_site_fract_z
 _atom_site_occupancy
  Yb  Yb0  1  0.490798  0.499434  0.994892  1
  Yb  Yb1  1  0.004093  0.995458  0.994892  1
  Yb  Yb2  1  0.530030  0.033943  0.837727  1
  Yb  Yb3  1  0.187870  0.685381  0.142555  1
  Yb  Yb4  1  0.035282  0.208117  0.514446  1
  Yb  Yb5  1  0.702240  0.532561  0.506468  1
  Yb  Yb6  1  0.454686  0.957175  0.142555  1
  Yb  Yb7  1  0.807695  0.303783  0.837727  1
  Yb  Yb8  1  0.979164  0.806329  0.514446  1
  Yb  Yb9  1  0.304228  0.473908  0.506468  1
  Cd  Cd10  1  0.752301  0.752301  0.004602  1
  Cu  Cu11  1  0.882069  0.382069  0.264138  1
  Cu  Cu12  1  0.614437  0.883410  0.497792  1
  Cu  Cu13  1  0.383355  0.114381  0.497792  1
  Sn  Sn14  1  0.252892  0.252892  0.005785  1
  Ru  Ru15  1  0.118858  0.618858  0.737716  1
