# generated using pymatgen
data_Tb4ErIrRu
_symmetry_space_group_name_H-M   'P 1'
_cell_length_a   6.41398163
_cell_length_b   7.27685769
_cell_length_c   8.55757120
_cell_angle_alpha   96.74681441
_cell_angle_beta   112.00915710
_cell_angle_gamma   89.99999797
_symmetry_Int_Tables_number   1
_chemical_formula_structural   Tb4ErIrRu
_chemical_formula_sum   'Tb8 Er2 Ir2 Ru2'
_cell_volume   367.32024349
_cell_formula_units_Z   2
loop_
 _symmetry_equiv_pos_site_id
 _symmetry_equiv_pos_as_xyz
  1  'x, y, z'
loop_
 _atom_site_type_symbol
 _atom_site_label
 _atom_site_symmetry_multiplicity
 _atom_site_fract_x
 _atom_site_fract_y
 _atom_site_fract_z
 _atom_site_occupancy
  Tb  Tb0  1  0.792780  0.582113  0.814967  1
  Tb  Tb1  1  0.977813  0.917887  0.185033  1
  Tb  Tb2  1  0.208408  0.415366  0.183867  1
  Tb  Tb3  1  0.024541  0.084634  0.816133  1
  Tb  Tb4  1  0.209237  0.684071  0.565665  1
  Tb  Tb5  1  0.643571  0.815929  0.434335  1
  Tb  Tb6  1  0.790646  0.314354  0.436450  1
  Tb  Tb7  1  0.354197  0.185646  0.563550  1
  Er  Er8  1  0.426639  0.750000  0.000000  1
  Er  Er9  1  0.573265  0.250000  0.000000  1
  Ir  Ir10  1  0.601930  0.925381  0.781277  1
  Ir  Ir11  1  0.820652  0.574619  0.218723  1
  Ru  Ru12  1  0.397733  0.073291  0.219144  1
  Ru  Ru13  1  0.178590  0.426709  0.780856  1
