# generated using pymatgen
data_Ti12FeCo5Tc6
_symmetry_space_group_name_H-M   'P 1'
_cell_length_a   4.29297900
_cell_length_b   6.07298800
_cell_length_c   12.90249500
_cell_angle_alpha   90.00000000
_cell_angle_beta   89.99925768
_cell_angle_gamma   90.00000000
_symmetry_Int_Tables_number   1
_chemical_formula_structural   Ti12FeCo5Tc6
_chemical_formula_sum   'Ti12 Fe1 Co5 Tc6'
_cell_volume   336.38365603
_cell_formula_units_Z   1
loop_
 _symmetry_equiv_pos_site_id
 _symmetry_equiv_pos_as_xyz
  1  'x, y, z'
loop_
 _atom_site_type_symbol
 _atom_site_label
 _atom_site_symmetry_multiplicity
 _atom_site_fract_x
 _atom_site_fract_y
 _atom_site_fract_z
 _atom_site_occupancy
  Ti  Ti0  1  0.500001  0.247101  0.000000  1
  Ti  Ti1  1  0.500001  0.752901  0.000000  1
  Ti  Ti2  1  0.999937  0.249323  0.165339  1
  Ti  Ti3  1  0.999937  0.750677  0.165339  1
  Ti  Ti4  1  0.499970  0.249511  0.333116  1
  Ti  Ti5  1  0.499970  0.750490  0.333116  1
  Ti  Ti6  1  0.000000  0.250498  0.500000  1
  Ti  Ti7  1  0.000000  0.749502  0.500000  1
  Ti  Ti8  1  0.500029  0.249511  0.666884  1
  Ti  Ti9  1  0.500029  0.750490  0.666884  1
  Ti  Ti10  1  0.000063  0.249323  0.834661  1
  Ti  Ti11  1  0.000063  0.750677  0.834661  1
  Fe  Fe12  1  0.000000  0.000000  0.000000  1
  Co  Co13  1  0.499676  0.500000  0.167066  1
  Co  Co14  1  0.999693  0.000000  0.333627  1
  Co  Co15  1  0.500001  0.500000  0.500000  1
  Co  Co16  1  0.000308  0.000000  0.666374  1
  Co  Co17  1  0.500321  0.500000  0.832934  1
  Tc  Tc18  1  0.000000  0.500000  0.000000  1
  Tc  Tc19  1  0.499885  0.000000  0.167766  1
  Tc  Tc20  1  0.999916  0.500000  0.333719  1
  Tc  Tc21  1  0.500001  0.000000  0.500000  1
  Tc  Tc22  1  0.000084  0.500000  0.666281  1
  Tc  Tc23  1  0.500115  0.000000  0.832234  1
