# generated using pymatgen
data_Gd2In4(TeO6)3
_symmetry_space_group_name_H-M   'P 1'
_cell_length_a   9.08703350
_cell_length_b   9.08703463
_cell_length_c   5.09309180
_cell_angle_alpha   89.80446827
_cell_angle_beta   90.19552840
_cell_angle_gamma   119.94254666
_symmetry_Int_Tables_number   1
_chemical_formula_structural   Gd2In4(TeO6)3
_chemical_formula_sum   'Gd2 In4 Te3 O18'
_cell_volume   364.42168559
_cell_formula_units_Z   1
loop_
 _symmetry_equiv_pos_site_id
 _symmetry_equiv_pos_as_xyz
  1  'x, y, z'
loop_
 _atom_site_type_symbol
 _atom_site_label
 _atom_site_symmetry_multiplicity
 _atom_site_fract_x
 _atom_site_fract_y
 _atom_site_fract_z
 _atom_site_occupancy
  Gd  Gd0  1  0.622120  0.000910  0.999993  1
  Gd  Gd1  1  0.000910  0.622120  0.000007  1
  In  In2  1  0.371225  0.371225  0.000000  1
  In  In3  1  0.289502  0.998968  0.502132  1
  In  In4  1  0.998968  0.289502  0.497868  1
  In  In5  1  0.710725  0.710725  0.500000  1
  Te  Te6  1  0.004400  0.004400  0.000000  1
  Te  Te7  1  0.334024  0.661712  0.506455  1
  Te  Te8  1  0.661712  0.334024  0.493545  1
  O  O9  1  0.090823  0.887021  0.786181  1
  O  O10  1  0.120495  0.210002  0.786289  1
  O  O11  1  0.800551  0.915701  0.783665  1
  O  O12  1  0.210002  0.120495  0.213711  1
  O  O13  1  0.915701  0.800551  0.216335  1
  O  O14  1  0.887021  0.090823  0.213819  1
  O  O15  1  0.461790  0.588624  0.732949  1
  O  O16  1  0.401016  0.860652  0.725941  1
  O  O17  1  0.129526  0.533502  0.712562  1
  O  O18  1  0.860652  0.401016  0.274059  1
  O  O19  1  0.533502  0.129526  0.287438  1
  O  O20  1  0.588624  0.461790  0.267051  1
  O  O21  1  0.228422  0.762781  0.289010  1
  O  O22  1  0.238103  0.459192  0.280112  1
  O  O23  1  0.541679  0.776534  0.300412  1
  O  O24  1  0.459192  0.238103  0.719888  1
  O  O25  1  0.776534  0.541679  0.699588  1
  O  O26  1  0.762781  0.228422  0.710990  1
