# generated using pymatgen
data_Er6Lu4InSn5
_symmetry_space_group_name_H-M   'P 1'
_cell_length_a   6.49615900
_cell_length_b   8.87266765
_cell_length_c   8.87131200
_cell_angle_alpha   120.00505697
_cell_angle_beta   90.00029106
_cell_angle_gamma   89.99941533
_symmetry_Int_Tables_number   1
_chemical_formula_structural   Er6Lu4InSn5
_chemical_formula_sum   'Er6 Lu4 In1 Sn5'
_cell_volume   442.79959264
_cell_formula_units_Z   1
loop_
 _symmetry_equiv_pos_site_id
 _symmetry_equiv_pos_as_xyz
  1  'x, y, z'
loop_
 _atom_site_type_symbol
 _atom_site_label
 _atom_site_symmetry_multiplicity
 _atom_site_fract_x
 _atom_site_fract_y
 _atom_site_fract_z
 _atom_site_occupancy
  Er  Er0  1  0.749904  0.238444  0.000000  1
  Er  Er1  1  0.749979  0.760967  0.763025  1
  Er  Er2  1  0.749979  0.997942  0.236975  1
  Er  Er3  1  0.249985  0.762150  0.000000  1
  Er  Er4  1  0.250086  0.238421  0.238265  1
  Er  Er5  1  0.250086  0.000156  0.761735  1
  Lu  Lu6  1  0.501006  0.334084  0.667376  1
  Lu  Lu7  1  0.501006  0.666707  0.332624  1
  Lu  Lu8  1  0.998993  0.666720  0.332629  1
  Lu  Lu9  1  0.998993  0.334091  0.667371  1
  In  In10  1  0.750005  0.602324  0.000000  1
  Sn  Sn11  1  0.749976  0.396047  0.396129  1
  Sn  Sn12  1  0.749976  0.999919  0.603871  1
  Sn  Sn13  1  0.249979  0.397119  0.000000  1
  Sn  Sn14  1  0.250024  0.603684  0.602463  1
  Sn  Sn15  1  0.250024  0.001221  0.397537  1
