# generated using pymatgen
data_Ti2V8Si6N
_symmetry_space_group_name_H-M   'P 1'
_cell_length_a   7.21295290
_cell_length_b   7.19502422
_cell_length_c   4.85406899
_cell_angle_alpha   89.78835275
_cell_angle_beta   90.42223721
_cell_angle_gamma   120.08247217
_symmetry_Int_Tables_number   1
_chemical_formula_structural   Ti2V8Si6N
_chemical_formula_sum   'Ti2 V8 Si6 N1'
_cell_volume   217.97597146
_cell_formula_units_Z   1
loop_
 _symmetry_equiv_pos_site_id
 _symmetry_equiv_pos_as_xyz
  1  'x, y, z'
loop_
 _atom_site_type_symbol
 _atom_site_label
 _atom_site_symmetry_multiplicity
 _atom_site_fract_x
 _atom_site_fract_y
 _atom_site_fract_z
 _atom_site_occupancy
  Ti  Ti0  1  0.000288  0.765574  0.254434  1
  Ti  Ti1  1  0.234714  0.234426  0.254434  1
  V  V2  1  0.762273  0.000000  0.263461  1
  V  V3  1  0.999315  0.234033  0.742673  1
  V  V4  1  0.765282  0.765967  0.742673  1
  V  V5  1  0.236886  0.000000  0.741264  1
  V  V6  1  0.332616  0.665498  0.498773  1
  V  V7  1  0.667118  0.334502  0.498773  1
  V  V8  1  0.666887  0.333814  0.000034  1
  V  V9  1  0.333072  0.666186  0.000034  1
  Si  Si10  1  0.997960  0.401540  0.239926  1
  Si  Si11  1  0.596420  0.598460  0.239926  1
  Si  Si12  1  0.408440  0.000000  0.241006  1
  Si  Si13  1  0.000379  0.596451  0.757868  1
  Si  Si14  1  0.403928  0.403549  0.757868  1
  Si  Si15  1  0.597004  0.000000  0.759427  1
  N  N16  1  0.997416  0.000000  0.507428  1
