# generated using pymatgen
data_Yb5Dy(Si3Ru)8
_symmetry_space_group_name_H-M   'P 1'
_cell_length_a   10.17005834
_cell_length_b   10.17005831
_cell_length_c   8.16092601
_cell_angle_alpha   89.99810891
_cell_angle_beta   89.99810772
_cell_angle_gamma   132.66367880
_symmetry_Int_Tables_number   1
_chemical_formula_structural   Yb5Dy(Si3Ru)8
_chemical_formula_sum   'Yb5 Dy1 Si24 Ru8'
_cell_volume   620.69334013
_cell_formula_units_Z   1
loop_
 _symmetry_equiv_pos_site_id
 _symmetry_equiv_pos_as_xyz
  1  'x, y, z'
loop_
 _atom_site_type_symbol
 _atom_site_label
 _atom_site_symmetry_multiplicity
 _atom_site_fract_x
 _atom_site_fract_y
 _atom_site_fract_z
 _atom_site_occupancy
  Yb  Yb0  1  0.500000  0.500000  0.500000  1
  Yb  Yb1  1  0.502357  0.002265  0.749938  1
  Yb  Yb2  1  0.997735  0.497643  0.250062  1
  Yb  Yb3  1  0.497643  0.997735  0.250062  1
  Yb  Yb4  1  0.002265  0.502357  0.749938  1
  Dy  Dy5  1  0.000000  0.000000  0.000000  1
  Si  Si6  1  0.793974  0.206026  0.500000  1
  Si  Si7  1  0.294045  0.705955  0.000000  1
  Si  Si8  1  0.206026  0.793974  0.500000  1
  Si  Si9  1  0.705955  0.294045  0.000000  1
  Si  Si10  1  0.334792  0.334792  0.831806  1
  Si  Si11  1  0.665208  0.665208  0.168194  1
  Si  Si12  1  0.167532  0.167532  0.334200  1
  Si  Si13  1  0.832468  0.832468  0.665800  1
  Si  Si14  1  0.124184  0.889983  0.728620  1
  Si  Si15  1  0.110017  0.875816  0.271380  1
  Si  Si16  1  0.609348  0.376064  0.229976  1
  Si  Si17  1  0.623936  0.390652  0.770024  1
  Si  Si18  1  0.875816  0.110017  0.271380  1
  Si  Si19  1  0.889983  0.124184  0.728620  1
  Si  Si20  1  0.390652  0.623936  0.770024  1
  Si  Si21  1  0.376064  0.609348  0.229976  1
  Si  Si22  1  0.346929  0.113635  0.507170  1
  Si  Si23  1  0.886365  0.653071  0.492830  1
  Si  Si24  1  0.389154  0.154474  0.006719  1
  Si  Si25  1  0.845526  0.610846  0.993281  1
  Si  Si26  1  0.653071  0.886365  0.492830  1
  Si  Si27  1  0.113635  0.346929  0.507170  1
  Si  Si28  1  0.610846  0.845526  0.993281  1
  Si  Si29  1  0.154474  0.389154  0.006719  1
  Ru  Ru30  1  0.669373  0.330627  0.500000  1
  Ru  Ru31  1  0.168782  0.831218  0.000000  1
  Ru  Ru32  1  0.330627  0.669373  0.500000  1
  Ru  Ru33  1  0.831218  0.168782  0.000000  1
  Ru  Ru34  1  0.125271  0.125271  0.627045  1
  Ru  Ru35  1  0.874729  0.874729  0.372955  1
  Ru  Ru36  1  0.372096  0.372096  0.124302  1
  Ru  Ru37  1  0.627904  0.627904  0.875698  1
