# generated using pymatgen
data_CeScB6Ru
_symmetry_space_group_name_H-M   'P 1'
_cell_length_a   3.61127900
_cell_length_b   9.02457600
_cell_length_c   11.40927300
_cell_angle_alpha   90.00000000
_cell_angle_beta   90.00000000
_cell_angle_gamma   90.00000000
_symmetry_Int_Tables_number   1
_chemical_formula_structural   CeScB6Ru
_chemical_formula_sum   'Ce4 Sc4 B24 Ru4'
_cell_volume   371.83119393
_cell_formula_units_Z   4
loop_
 _symmetry_equiv_pos_site_id
 _symmetry_equiv_pos_as_xyz
  1  'x, y, z'
loop_
 _atom_site_type_symbol
 _atom_site_label
 _atom_site_symmetry_multiplicity
 _atom_site_fract_x
 _atom_site_fract_y
 _atom_site_fract_z
 _atom_site_occupancy
  Ce  Ce0  1  0.000000  0.321498  0.413959  1
  Ce  Ce1  1  0.000000  0.678502  0.586041  1
  Ce  Ce2  1  0.000000  0.821498  0.086041  1
  Ce  Ce3  1  0.000000  0.178502  0.913959  1
  Sc  Sc4  1  0.000000  0.945281  0.375211  1
  Sc  Sc5  1  0.000000  0.054719  0.624789  1
  Sc  Sc6  1  0.000000  0.445281  0.124789  1
  Sc  Sc7  1  0.000000  0.554719  0.875211  1
  B  B8  1  0.500000  0.555698  0.431726  1
  B  B9  1  0.500000  0.444302  0.568274  1
  B  B10  1  0.500000  0.055698  0.068274  1
  B  B11  1  0.500000  0.944302  0.931726  1
  B  B12  1  0.500000  0.753723  0.418290  1
  B  B13  1  0.500000  0.246277  0.581710  1
  B  B14  1  0.500000  0.253723  0.081710  1
  B  B15  1  0.500000  0.746277  0.918290  1
  B  B16  1  0.500000  0.794602  0.265930  1
  B  B17  1  0.500000  0.205398  0.734070  1
  B  B18  1  0.500000  0.294602  0.234070  1
  B  B19  1  0.500000  0.705398  0.765930  1
  B  B20  1  0.500000  0.629686  0.182560  1
  B  B21  1  0.500000  0.370314  0.817440  1
  B  B22  1  0.500000  0.129686  0.317440  1
  B  B23  1  0.500000  0.870314  0.682560  1
  B  B24  1  0.500000  0.983327  0.215758  1
  B  B25  1  0.500000  0.016673  0.784242  1
  B  B26  1  0.500000  0.483327  0.284242  1
  B  B27  1  0.500000  0.516673  0.715758  1
  B  B28  1  0.500000  0.599394  0.026833  1
  B  B29  1  0.500000  0.400606  0.973167  1
  B  B30  1  0.500000  0.099394  0.473167  1
  B  B31  1  0.500000  0.900606  0.526833  1
  Ru  Ru32  1  0.000000  0.641098  0.318036  1
  Ru  Ru33  1  0.000000  0.358902  0.681964  1
  Ru  Ru34  1  0.000000  0.141098  0.181964  1
  Ru  Ru35  1  0.000000  0.858902  0.818036  1
