# generated using pymatgen
data_Ac3Dy(SbTe)4
_symmetry_space_group_name_H-M   'P 1'
_cell_length_a   4.46055600
_cell_length_b   4.47495949
_cell_length_c   19.33538400
_cell_angle_alpha   89.97331721
_cell_angle_beta   90.00000000
_cell_angle_gamma   90.00000000
_symmetry_Int_Tables_number   1
_chemical_formula_structural   Ac3Dy(SbTe)4
_chemical_formula_sum   'Ac3 Dy1 Sb4 Te4'
_cell_volume   385.94983382
_cell_formula_units_Z   1
loop_
 _symmetry_equiv_pos_site_id
 _symmetry_equiv_pos_as_xyz
  1  'x, y, z'
loop_
 _atom_site_type_symbol
 _atom_site_label
 _atom_site_symmetry_multiplicity
 _atom_site_fract_x
 _atom_site_fract_y
 _atom_site_fract_z
 _atom_site_occupancy
  Ac  Ac0  1  0.250000  0.762935  0.133608  1
  Ac  Ac1  1  0.750000  0.265711  0.360422  1
  Ac  Ac2  1  0.250000  0.734745  0.645234  1
  Dy  Dy3  1  0.750000  0.233287  0.861168  1
  Sb  Sb4  1  0.250000  0.279734  0.992404  1
  Sb  Sb5  1  0.750000  0.783117  0.502049  1
  Sb  Sb6  1  0.250000  0.218876  0.504487  1
  Sb  Sb7  1  0.750000  0.718788  0.989234  1
  Te  Te8  1  0.750000  0.262163  0.183339  1
  Te  Te9  1  0.250000  0.764587  0.310688  1
  Te  Te10  1  0.750000  0.236501  0.697866  1
  Te  Te11  1  0.250000  0.739555  0.819503  1
