# generated using pymatgen
data_Pr5Nd2PI12
_symmetry_space_group_name_H-M   'P 1'
_cell_length_a   10.04880680
_cell_length_b   10.03191081
_cell_length_c   10.02078300
_cell_angle_alpha   107.94654361
_cell_angle_beta   108.01042547
_cell_angle_gamma   107.82995953
_symmetry_Int_Tables_number   1
_chemical_formula_structural   Pr5Nd2PI12
_chemical_formula_sum   'Pr5 Nd2 P1 I12'
_cell_volume   819.03377459
_cell_formula_units_Z   1
loop_
 _symmetry_equiv_pos_site_id
 _symmetry_equiv_pos_as_xyz
  1  'x, y, z'
loop_
 _atom_site_type_symbol
 _atom_site_label
 _atom_site_symmetry_multiplicity
 _atom_site_fract_x
 _atom_site_fract_y
 _atom_site_fract_z
 _atom_site_occupancy
  Pr  Pr0  1  0.520963  0.520793  0.521395  1
  Pr  Pr1  1  0.097582  0.304764  0.025998  1
  Pr  Pr2  1  0.303261  0.025611  0.096875  1
  Pr  Pr3  1  0.894261  0.692072  0.964222  1
  Pr  Pr4  1  0.025811  0.097345  0.304057  1
  Nd  Nd5  1  0.693198  0.964224  0.894240  1
  Nd  Nd6  1  0.963781  0.893950  0.692196  1
  P  P7  1  0.999103  0.000124  0.998708  1
  I  I8  1  0.077101  0.223623  0.684099  1
  I  I9  1  0.386959  0.160684  0.466062  1
  I  I10  1  0.613707  0.855006  0.531104  1
  I  I11  1  0.226660  0.684850  0.077590  1
  I  I12  1  0.768136  0.310060  0.923668  1
  I  I13  1  0.684269  0.076631  0.223765  1
  I  I14  1  0.529976  0.615007  0.855553  1
  I  I15  1  0.854630  0.530807  0.610973  1
  I  I16  1  0.923880  0.769227  0.313367  1
  I  I17  1  0.309960  0.922484  0.767558  1
  I  I18  1  0.465502  0.386811  0.160622  1
  I  I19  1  0.161259  0.465925  0.387947  1
