# generated using pymatgen
data_SiMo6Rh3N2
_symmetry_space_group_name_H-M   'P 1'
_cell_length_a   6.82243600
_cell_length_b   6.80610949
_cell_length_c   6.82215224
_cell_angle_alpha   89.42786228
_cell_angle_beta   90.00000000
_cell_angle_gamma   90.00000000
_symmetry_Int_Tables_number   1
_chemical_formula_structural   SiMo6Rh3N2
_chemical_formula_sum   'Si2 Mo12 Rh6 N4'
_cell_volume   316.76570409
_cell_formula_units_Z   2
loop_
 _symmetry_equiv_pos_site_id
 _symmetry_equiv_pos_as_xyz
  1  'x, y, z'
loop_
 _atom_site_type_symbol
 _atom_site_label
 _atom_site_symmetry_multiplicity
 _atom_site_fract_x
 _atom_site_fract_y
 _atom_site_fract_z
 _atom_site_occupancy
  Si  Si0  1  0.682446  0.175086  0.932459  1
  Si  Si1  1  0.182446  0.824914  0.067541  1
  Mo  Mo2  1  0.621712  0.045855  0.546798  1
  Mo  Mo3  1  0.121712  0.954145  0.453202  1
  Mo  Mo4  1  0.868056  0.537372  0.944294  1
  Mo  Mo5  1  0.368056  0.462628  0.055706  1
  Mo  Mo6  1  0.202203  0.624577  0.700037  1
  Mo  Mo7  1  0.300640  0.123404  0.787436  1
  Mo  Mo8  1  0.800640  0.876596  0.212564  1
  Mo  Mo9  1  0.702203  0.375423  0.299963  1
  Mo  Mo10  1  0.046549  0.207757  0.129994  1
  Mo  Mo11  1  0.961390  0.304690  0.622373  1
  Mo  Mo12  1  0.546549  0.792243  0.870006  1
  Mo  Mo13  1  0.461390  0.695310  0.377627  1
  Rh  Rh14  1  0.812743  0.686733  0.567243  1
  Rh  Rh15  1  0.312743  0.313267  0.432757  1
  Rh  Rh16  1  0.063966  0.575876  0.295737  1
  Rh  Rh17  1  0.434967  0.060393  0.168194  1
  Rh  Rh18  1  0.563966  0.424124  0.704263  1
  Rh  Rh19  1  0.934967  0.939607  0.831806  1
  N  N20  1  0.376016  0.872572  0.618288  1
  N  N21  1  0.876016  0.127428  0.381712  1
  N  N22  1  0.129313  0.374797  0.874742  1
  N  N23  1  0.629313  0.625203  0.125258  1
