# generated using pymatgen
data_CuGeF6
_symmetry_space_group_name_H-M   'P 1'
_cell_length_a   5.41205847
_cell_length_b   5.50452457
_cell_length_c   5.24676555
_cell_angle_alpha   58.01274965
_cell_angle_beta   57.58139468
_cell_angle_gamma   54.45016672
_symmetry_Int_Tables_number   1
_chemical_formula_structural   CuGeF6
_chemical_formula_sum   'Cu1 Ge1 F6'
_cell_volume   101.79926536
_cell_formula_units_Z   1
loop_
 _symmetry_equiv_pos_site_id
 _symmetry_equiv_pos_as_xyz
  1  'x, y, z'
loop_
 _atom_site_type_symbol
 _atom_site_label
 _atom_site_symmetry_multiplicity
 _atom_site_fract_x
 _atom_site_fract_y
 _atom_site_fract_z
 _atom_site_occupancy
  Cu  Cu0  1  0.499997  0.500003  0.499998  1
  Ge  Ge1  1  0.000005  0.000002  0.999996  1
  F  F2  1  0.760365  0.355168  0.129060  1
  F  F3  1  0.662152  0.903189  0.217363  1
  F  F4  1  0.125219  0.757193  0.360903  1
  F  F5  1  0.874780  0.242805  0.639098  1
  F  F6  1  0.337847  0.096809  0.782639  1
  F  F7  1  0.239634  0.644830  0.870941  1
