# generated using pymatgen
data_Er4Tm8Mn2In3
_symmetry_space_group_name_H-M   'P 1'
_cell_length_a   8.36548947
_cell_length_b   8.36282217
_cell_length_c   8.36595696
_cell_angle_alpha   110.10742448
_cell_angle_beta   110.17073067
_cell_angle_gamma   108.13502529
_symmetry_Int_Tables_number   1
_chemical_formula_structural   Er4Tm8Mn2In3
_chemical_formula_sum   'Er4 Tm8 Mn2 In3'
_cell_volume   450.41029738
_cell_formula_units_Z   1
loop_
 _symmetry_equiv_pos_site_id
 _symmetry_equiv_pos_as_xyz
  1  'x, y, z'
loop_
 _atom_site_type_symbol
 _atom_site_label
 _atom_site_symmetry_multiplicity
 _atom_site_fract_x
 _atom_site_fract_y
 _atom_site_fract_z
 _atom_site_occupancy
  Er  Er0  1  0.036310  0.789650  0.246980  1
  Er  Er1  1  0.789432  0.036224  0.246752  1
  Er  Er2  1  0.210718  0.457280  0.246862  1
  Er  Er3  1  0.789343  0.542698  0.753098  1
  Tm  Tm4  1  0.303629  0.303577  0.607399  1
  Tm  Tm5  1  0.696352  0.696399  0.392918  1
  Tm  Tm6  1  0.303645  0.696314  0.999874  1
  Tm  Tm7  1  0.696009  0.303339  0.999780  1
  Tm  Tm8  1  0.457206  0.210609  0.246535  1
  Tm  Tm9  1  0.542696  0.789437  0.753296  1
  Tm  Tm10  1  0.964077  0.210488  0.753321  1
  Tm  Tm11  1  0.210648  0.964085  0.753457  1
  Mn  Mn12  1  0.393311  0.393254  0.999928  1
  Mn  Mn13  1  0.606364  0.606409  0.999923  1
  In  In14  1  0.999999  0.999986  0.999687  1
  In  In15  1  0.500185  0.000077  0.500091  1
  In  In16  1  0.000075  0.500174  0.500098  1
