# generated using pymatgen
data_Lu4MnB12Rh
_symmetry_space_group_name_H-M   'P 1'
_cell_length_a   9.07262100
_cell_length_b   11.44540000
_cell_length_c   3.50867800
_cell_angle_alpha   90.00000000
_cell_angle_beta   90.00000000
_cell_angle_gamma   90.00000000
_symmetry_Int_Tables_number   1
_chemical_formula_structural   Lu4MnB12Rh
_chemical_formula_sum   'Lu8 Mn2 B24 Rh2'
_cell_volume   364.34033896
_cell_formula_units_Z   2
loop_
 _symmetry_equiv_pos_site_id
 _symmetry_equiv_pos_as_xyz
  1  'x, y, z'
loop_
 _atom_site_type_symbol
 _atom_site_label
 _atom_site_symmetry_multiplicity
 _atom_site_fract_x
 _atom_site_fract_y
 _atom_site_fract_z
 _atom_site_occupancy
  Lu  Lu0  1  0.321744  0.077605  0.000000  1
  Lu  Lu1  1  0.943350  0.126648  0.000000  1
  Lu  Lu2  1  0.443349  0.373352  0.000000  1
  Lu  Lu3  1  0.821744  0.422394  0.000000  1
  Lu  Lu4  1  0.178524  0.592994  0.000000  1
  Lu  Lu5  1  0.556513  0.629849  0.000000  1
  Lu  Lu6  1  0.056513  0.870150  0.000000  1
  Lu  Lu7  1  0.678524  0.907006  0.000000  1
  Mn  Mn8  1  0.861566  0.679419  0.000000  1
  Mn  Mn9  1  0.361567  0.820580  0.000000  1
  B  B10  1  0.107678  0.029316  0.499999  1
  B  B11  1  0.552110  0.064435  0.499999  1
  B  B12  1  0.749427  0.077254  0.499999  1
  B  B13  1  0.131834  0.181811  0.499999  1
  B  B14  1  0.480762  0.212129  0.499999  1
  B  B15  1  0.791922  0.235952  0.499999  1
  B  B16  1  0.291922  0.264048  0.499999  1
  B  B17  1  0.980761  0.287871  0.499999  1
  B  B18  1  0.631834  0.318188  0.499999  1
  B  B19  1  0.249426  0.422747  0.499999  1
  B  B20  1  0.052110  0.435565  0.499999  1
  B  B21  1  0.607677  0.470685  0.499999  1
  B  B22  1  0.391694  0.529935  0.499999  1
  B  B23  1  0.946392  0.568724  0.499999  1
  B  B24  1  0.753259  0.582650  0.499999  1
  B  B25  1  0.368945  0.686991  0.499999  1
  B  B26  1  0.016574  0.712219  0.499999  1
  B  B27  1  0.709573  0.734024  0.499999  1
  B  B28  1  0.209574  0.765976  0.499999  1
  B  B29  1  0.516574  0.787780  0.499999  1
  B  B30  1  0.868945  0.813009  0.499999  1
  B  B31  1  0.253260  0.917349  0.499999  1
  B  B32  1  0.446391  0.931275  0.499999  1
  B  B33  1  0.891694  0.970064  0.499999  1
  Rh  Rh34  1  0.638133  0.179043  0.000000  1
  Rh  Rh35  1  0.138133  0.320957  0.000000  1
