# generated using pymatgen
data_CaYGa2(Co3B)2
_symmetry_space_group_name_H-M   'P 1'
_cell_length_a   5.17542000
_cell_length_b   5.17541983
_cell_length_c   6.67855500
_cell_angle_alpha   90.00000000
_cell_angle_beta   90.00000000
_cell_angle_gamma   120.00000108
_symmetry_Int_Tables_number   1
_chemical_formula_structural   CaYGa2(Co3B)2
_chemical_formula_sum   'Ca1 Y1 Ga2 Co6 B2'
_cell_volume   154.91886954
_cell_formula_units_Z   1
loop_
 _symmetry_equiv_pos_site_id
 _symmetry_equiv_pos_as_xyz
  1  'x, y, z'
loop_
 _atom_site_type_symbol
 _atom_site_label
 _atom_site_symmetry_multiplicity
 _atom_site_fract_x
 _atom_site_fract_y
 _atom_site_fract_z
 _atom_site_occupancy
  Ca  Ca0  1  0.000000  0.000000  0.000000  1
  Y  Y1  1  0.000000  0.000000  0.500000  1
  Ga  Ga2  1  0.333333  0.666667  0.000000  1
  Ga  Ga3  1  0.666667  0.333333  0.000000  1
  Co  Co4  1  0.500000  0.000000  0.296259  1
  Co  Co5  1  0.500000  0.500000  0.296259  1
  Co  Co6  1  0.000000  0.500000  0.296259  1
  Co  Co7  1  0.500000  0.000000  0.703741  1
  Co  Co8  1  0.500000  0.500000  0.703741  1
  Co  Co9  1  0.000000  0.500000  0.703741  1
  B  B10  1  0.666667  0.333333  0.500000  1
  B  B11  1  0.333333  0.666667  0.500000  1
