# generated using pymatgen
data_Lu5Al2AuC4
_symmetry_space_group_name_H-M   'P 1'
_cell_length_a   10.64584100
_cell_length_b   10.64584100
_cell_length_c   3.42281000
_cell_angle_alpha   90.00000000
_cell_angle_beta   90.00000000
_cell_angle_gamma   90.00000000
_symmetry_Int_Tables_number   1
_chemical_formula_structural   Lu5Al2AuC4
_chemical_formula_sum   'Lu10 Al4 Au2 C8'
_cell_volume   387.92051099
_cell_formula_units_Z   2
loop_
 _symmetry_equiv_pos_site_id
 _symmetry_equiv_pos_as_xyz
  1  'x, y, z'
loop_
 _atom_site_type_symbol
 _atom_site_label
 _atom_site_symmetry_multiplicity
 _atom_site_fract_x
 _atom_site_fract_y
 _atom_site_fract_z
 _atom_site_occupancy
  Lu  Lu0  1  0.548965  0.730202  0.500000  1
  Lu  Lu1  1  0.451035  0.269798  0.500000  1
  Lu  Lu2  1  0.048965  0.769798  0.500000  1
  Lu  Lu3  1  0.951035  0.230202  0.500000  1
  Lu  Lu4  1  0.269798  0.548965  0.500000  1
  Lu  Lu5  1  0.730202  0.451035  0.500000  1
  Lu  Lu6  1  0.230202  0.048965  0.500000  1
  Lu  Lu7  1  0.769798  0.951035  0.500000  1
  Lu  Lu8  1  0.500000  0.000000  0.000000  1
  Lu  Lu9  1  0.000000  0.500000  0.000000  1
  Al  Al10  1  0.703329  0.203329  0.000000  1
  Al  Al11  1  0.296671  0.796671  0.000000  1
  Al  Al12  1  0.203329  0.296671  0.000000  1
  Al  Al13  1  0.796671  0.703329  0.000000  1
  Au  Au14  1  0.500000  0.500000  0.000000  1
  Au  Au15  1  0.000000  0.000000  0.000000  1
  C  C16  1  0.628442  0.128442  0.500000  1
  C  C17  1  0.371558  0.871558  0.500000  1
  C  C18  1  0.128442  0.371558  0.500000  1
  C  C19  1  0.871558  0.628442  0.500000  1
  C  C20  1  0.160890  0.660890  0.000000  1
  C  C21  1  0.839110  0.339110  0.000000  1
  C  C22  1  0.660890  0.839110  0.000000  1
  C  C23  1  0.339110  0.160890  0.000000  1
