# generated using pymatgen
data_Zr16Fe4PtRh3
_symmetry_space_group_name_H-M   'P 1'
_cell_length_a   8.70353370
_cell_length_b   8.70247920
_cell_length_c   8.70247900
_cell_angle_alpha   60.00000455
_cell_angle_beta   60.00401233
_cell_angle_gamma   60.00401709
_symmetry_Int_Tables_number   1
_chemical_formula_structural   Zr16Fe4PtRh3
_chemical_formula_sum   'Zr16 Fe4 Pt1 Rh3'
_cell_volume   466.11487339
_cell_formula_units_Z   1
loop_
 _symmetry_equiv_pos_site_id
 _symmetry_equiv_pos_as_xyz
  1  'x, y, z'
loop_
 _atom_site_type_symbol
 _atom_site_label
 _atom_site_symmetry_multiplicity
 _atom_site_fract_x
 _atom_site_fract_y
 _atom_site_fract_z
 _atom_site_occupancy
  Zr  Zr0  1  0.059626  0.646791  0.646791  1
  Zr  Zr1  1  0.646653  0.059363  0.646992  1
  Zr  Zr2  1  0.646653  0.646992  0.059363  1
  Zr  Zr3  1  0.646653  0.646992  0.646992  1
  Zr  Zr4  1  0.804874  0.806053  0.194537  1
  Zr  Zr5  1  0.194700  0.195254  0.805023  1
  Zr  Zr6  1  0.804874  0.194537  0.806053  1
  Zr  Zr7  1  0.194700  0.805023  0.195254  1
  Zr  Zr8  1  0.194700  0.805023  0.805023  1
  Zr  Zr9  1  0.804874  0.194537  0.194537  1
  Zr  Zr10  1  0.438269  0.438221  0.061755  1
  Zr  Zr11  1  0.063410  0.059698  0.438446  1
  Zr  Zr12  1  0.438269  0.061755  0.438221  1
  Zr  Zr13  1  0.063410  0.438446  0.059698  1
  Zr  Zr14  1  0.063410  0.438446  0.438446  1
  Zr  Zr15  1  0.438269  0.061755  0.061755  1
  Fe  Fe16  1  0.422220  0.859260  0.859260  1
  Fe  Fe17  1  0.859103  0.422554  0.859171  1
  Fe  Fe18  1  0.859103  0.859171  0.422554  1
  Fe  Fe19  1  0.859103  0.859171  0.859171  1
  Pt  Pt20  1  0.750728  0.416424  0.416424  1
  Rh  Rh21  1  0.415467  0.753119  0.415708  1
  Rh  Rh22  1  0.415467  0.415708  0.753119  1
  Rh  Rh23  1  0.415467  0.415708  0.415708  1
