# generated using pymatgen
data_Tb2FeCoSi4
_symmetry_space_group_name_H-M   'P 1'
_cell_length_a   3.98119300
_cell_length_b   4.27708570
_cell_length_c   7.91881553
_cell_angle_alpha   76.97760486
_cell_angle_beta   90.00000000
_cell_angle_gamma   90.00000000
_symmetry_Int_Tables_number   1
_chemical_formula_structural   Tb2FeCoSi4
_chemical_formula_sum   'Tb2 Fe1 Co1 Si4'
_cell_volume   131.37300006
_cell_formula_units_Z   1
loop_
 _symmetry_equiv_pos_site_id
 _symmetry_equiv_pos_as_xyz
  1  'x, y, z'
loop_
 _atom_site_type_symbol
 _atom_site_label
 _atom_site_symmetry_multiplicity
 _atom_site_fract_x
 _atom_site_fract_y
 _atom_site_fract_z
 _atom_site_occupancy
  Tb  Tb0  1  0.250000  0.596607  0.797171  1
  Tb  Tb1  1  0.750000  0.403257  0.202697  1
  Fe  Fe2  1  0.750000  0.120090  0.606743  1
  Co  Co3  1  0.250000  0.882124  0.390566  1
  Si  Si4  1  0.250000  0.959719  0.094754  1
  Si  Si5  1  0.750000  0.041065  0.903690  1
  Si  Si6  1  0.250000  0.326723  0.494489  1
  Si  Si7  1  0.750000  0.670416  0.509892  1
