# generated using pymatgen
data_Dy3Lu(NiP)4
_symmetry_space_group_name_H-M   'P 1'
_cell_length_a   3.89032400
_cell_length_b   3.89032501
_cell_length_c   15.30428100
_cell_angle_alpha   90.00000000
_cell_angle_beta   90.00000000
_cell_angle_gamma   120.00000843
_symmetry_Int_Tables_number   1
_chemical_formula_structural   Dy3Lu(NiP)4
_chemical_formula_sum   'Dy3 Lu1 Ni4 P4'
_cell_volume   200.59272737
_cell_formula_units_Z   1
loop_
 _symmetry_equiv_pos_site_id
 _symmetry_equiv_pos_as_xyz
  1  'x, y, z'
loop_
 _atom_site_type_symbol
 _atom_site_label
 _atom_site_symmetry_multiplicity
 _atom_site_fract_x
 _atom_site_fract_y
 _atom_site_fract_z
 _atom_site_occupancy
  Dy  Dy0  1  0.000000  0.000000  0.496145  1
  Dy  Dy1  1  0.000000  0.000000  0.003855  1
  Dy  Dy2  1  0.000000  0.000000  0.750000  1
  Lu  Lu3  1  0.000000  0.000000  0.250000  1
  Ni  Ni4  1  0.333333  0.666667  0.362811  1
  Ni  Ni5  1  0.666667  0.333333  0.624958  1
  Ni  Ni6  1  0.666667  0.333333  0.875042  1
  Ni  Ni7  1  0.333333  0.666667  0.137189  1
  P  P8  1  0.333333  0.666667  0.877978  1
  P  P9  1  0.666667  0.333333  0.124958  1
  P  P10  1  0.666667  0.333333  0.375042  1
  P  P11  1  0.333333  0.666667  0.622022  1
