# generated using pymatgen
data_Zr3Re2SiGe2Ru
_symmetry_space_group_name_H-M   'P 1'
_cell_length_a   7.01913100
_cell_length_b   7.04979884
_cell_length_c   3.48586100
_cell_angle_alpha   90.00000000
_cell_angle_beta   90.00000000
_cell_angle_gamma   119.85620619
_symmetry_Int_Tables_number   1
_chemical_formula_structural   Zr3Re2SiGe2Ru
_chemical_formula_sum   'Zr3 Re2 Si1 Ge2 Ru1'
_cell_volume   149.59883929
_cell_formula_units_Z   1
loop_
 _symmetry_equiv_pos_site_id
 _symmetry_equiv_pos_as_xyz
  1  'x, y, z'
loop_
 _atom_site_type_symbol
 _atom_site_label
 _atom_site_symmetry_multiplicity
 _atom_site_fract_x
 _atom_site_fract_y
 _atom_site_fract_z
 _atom_site_occupancy
  Zr  Zr0  1  0.396734  0.000000  0.500000  1
  Zr  Zr1  1  0.005339  0.407338  0.500000  1
  Zr  Zr2  1  0.598001  0.592662  0.500000  1
  Re  Re3  1  0.000171  0.752714  0.000000  1
  Re  Re4  1  0.247457  0.247286  0.000000  1
  Si  Si5  1  0.992414  0.000000  0.500000  1
  Ge  Ge6  1  0.337976  0.669752  0.000000  1
  Ge  Ge7  1  0.668225  0.330248  0.000000  1
  Ru  Ru8  1  0.753682  0.000000  0.000000  1
