# generated using pymatgen
data_Tb5Hf3(Co4As3)4
_symmetry_space_group_name_H-M   'P 1'
_cell_length_a   12.72440600
_cell_length_b   12.72440440
_cell_length_c   3.83618600
_cell_angle_alpha   90.00000000
_cell_angle_beta   90.00000000
_cell_angle_gamma   120.00000415
_symmetry_Int_Tables_number   1
_chemical_formula_structural   Tb5Hf3(Co4As3)4
_chemical_formula_sum   'Tb5 Hf3 Co16 As12'
_cell_volume   537.90459055
_cell_formula_units_Z   1
loop_
 _symmetry_equiv_pos_site_id
 _symmetry_equiv_pos_as_xyz
  1  'x, y, z'
loop_
 _atom_site_type_symbol
 _atom_site_label
 _atom_site_symmetry_multiplicity
 _atom_site_fract_x
 _atom_site_fract_y
 _atom_site_fract_z
 _atom_site_occupancy
  Tb  Tb0  1  0.183463  0.183463  0.500000  1
  Tb  Tb1  1  0.816537  0.000000  0.500000  1
  Tb  Tb2  1  0.000000  0.816537  0.500000  1
  Tb  Tb3  1  0.333333  0.666667  0.000000  1
  Tb  Tb4  1  0.666667  0.333333  0.000000  1
  Hf  Hf5  1  0.562295  0.562295  0.000000  1
  Hf  Hf6  1  0.437705  0.000000  0.000000  1
  Hf  Hf7  1  0.000000  0.437705  0.000000  1
  Co  Co8  1  0.718741  0.718741  0.500000  1
  Co  Co9  1  0.281259  0.000000  0.500000  1
  Co  Co10  1  0.000000  0.281259  0.500000  1
  Co  Co11  1  0.177320  0.374317  0.000000  1
  Co  Co12  1  0.625683  0.803003  0.000000  1
  Co  Co13  1  0.196997  0.822680  0.000000  1
  Co  Co14  1  0.803003  0.625683  0.000000  1
  Co  Co15  1  0.822680  0.196997  0.000000  1
  Co  Co16  1  0.374317  0.177320  0.000000  1
  Co  Co17  1  0.358445  0.480493  0.500000  1
  Co  Co18  1  0.519507  0.877953  0.500000  1
  Co  Co19  1  0.122047  0.641555  0.500000  1
  Co  Co20  1  0.877953  0.519507  0.500000  1
  Co  Co21  1  0.641555  0.122047  0.500000  1
  Co  Co22  1  0.480493  0.358445  0.500000  1
  Co  Co23  1  0.000000  0.000000  0.000000  1
  As  As24  1  0.822611  0.822611  0.000000  1
  As  As25  1  0.177389  0.000000  0.000000  1
  As  As26  1  0.000000  0.177389  0.000000  1
  As  As27  1  0.172982  0.481623  0.500000  1
  As  As28  1  0.518377  0.691360  0.500000  1
  As  As29  1  0.308640  0.827018  0.500000  1
  As  As30  1  0.691360  0.518377  0.500000  1
  As  As31  1  0.827018  0.308640  0.500000  1
  As  As32  1  0.481623  0.172982  0.500000  1
  As  As33  1  0.353584  0.353584  0.000000  1
  As  As34  1  0.646416  0.000000  0.000000  1
  As  As35  1  0.000000  0.646416  0.000000  1
