# generated using pymatgen
data_Er29S32
_symmetry_space_group_name_H-M   'P 1'
_cell_length_a   13.37849490
_cell_length_b   13.37849514
_cell_length_c   13.37849500
_cell_angle_alpha   131.84886505
_cell_angle_beta   131.84886598
_cell_angle_gamma   70.46783105
_symmetry_Int_Tables_number   1
_chemical_formula_structural   Er29S32
_chemical_formula_sum   'Er29 S32'
_cell_volume   1301.95041385
_cell_formula_units_Z   1
loop_
 _symmetry_equiv_pos_site_id
 _symmetry_equiv_pos_as_xyz
  1  'x, y, z'
loop_
 _atom_site_type_symbol
 _atom_site_label
 _atom_site_symmetry_multiplicity
 _atom_site_fract_x
 _atom_site_fract_y
 _atom_site_fract_z
 _atom_site_occupancy
  Er  Er0  1  0.125111  0.874270  0.749145  1
  Er  Er1  1  0.374912  0.623572  0.248680  1
  Er  Er2  1  0.625088  0.376428  0.751320  1
  Er  Er3  1  0.874889  0.125730  0.250855  1
  Er  Er4  1  0.748750  0.748748  0.497501  1
  Er  Er5  1  0.000000  0.500000  0.000000  1
  Er  Er6  1  0.251250  0.251252  0.502499  1
  Er  Er7  1  0.500000  0.000000  0.000000  1
  Er  Er8  1  0.874272  0.125113  0.749150  1
  Er  Er9  1  0.125728  0.874887  0.250850  1
  Er  Er10  1  0.376424  0.625085  0.751314  1
  Er  Er11  1  0.623576  0.374915  0.248686  1
  Er  Er12  1  0.625100  0.873772  0.248675  1
  Er  Er13  1  0.874871  0.624035  0.749145  1
  Er  Er14  1  0.125129  0.375965  0.250855  1
  Er  Er15  1  0.374900  0.126228  0.751325  1
  Er  Er16  1  0.000000  0.000000  0.500000  1
  Er  Er17  1  0.251253  0.748747  0.999999  1
  Er  Er18  1  0.500000  0.500000  0.500000  1
  Er  Er19  1  0.748747  0.251253  0.000001  1
  Er  Er20  1  0.126228  0.374896  0.751319  1
  Er  Er21  1  0.375964  0.125125  0.250853  1
  Er  Er22  1  0.624036  0.874875  0.749147  1
  Er  Er23  1  0.873772  0.625104  0.248681  1
  Er  Er24  1  0.500000  0.000000  0.500000  1
  Er  Er25  1  0.751405  0.751404  0.000000  1
  Er  Er26  1  0.000000  0.500000  0.500000  1
  Er  Er27  1  0.248595  0.248596  0.000000  1
  Er  Er28  1  0.000000  0.000000  0.000000  1
  S  S29  1  0.874851  0.874843  0.499578  1
  S  S30  1  0.125148  0.624718  0.999995  1
  S  S31  1  0.375269  0.375273  0.500435  1
  S  S32  1  0.624728  0.125157  0.000005  1
  S  S33  1  0.125149  0.125157  0.500422  1
  S  S34  1  0.375272  0.874843  0.999995  1
  S  S35  1  0.624731  0.624727  0.499565  1
  S  S36  1  0.874852  0.375282  0.000005  1
  S  S37  1  0.749094  0.000007  0.749092  1
  S  S38  1  0.000250  0.749634  0.250594  1
  S  S39  1  0.251078  0.500006  0.751084  1
  S  S40  1  0.500965  0.250346  0.250593  1
  S  S41  1  0.374565  0.874570  0.499989  1
  S  S42  1  0.625683  0.625680  0.999996  1
  S  S43  1  0.874584  0.374576  0.500002  1
  S  S44  1  0.124939  0.124941  0.999989  1
  S  S45  1  0.500010  0.251085  0.751093  1
  S  S46  1  0.749642  0.000252  0.250602  1
  S  S47  1  0.000008  0.749087  0.749085  1
  S  S48  1  0.250338  0.500965  0.250580  1
  S  S49  1  0.250906  0.999993  0.250908  1
  S  S50  1  0.499035  0.749654  0.749407  1
  S  S51  1  0.748922  0.499994  0.248916  1
  S  S52  1  0.999750  0.250366  0.749406  1
  S  S53  1  0.625435  0.125430  0.500011  1
  S  S54  1  0.875061  0.875059  0.000011  1
  S  S55  1  0.125416  0.625424  0.499998  1
  S  S56  1  0.374317  0.374320  0.000004  1
  S  S57  1  0.499990  0.748915  0.248907  1
  S  S58  1  0.749662  0.499035  0.749420  1
  S  S59  1  0.999992  0.250913  0.250915  1
  S  S60  1  0.250358  0.999748  0.749398  1
