# generated using pymatgen
data_Er8AsPd13Pt11
_symmetry_space_group_name_H-M   'P 1'
_cell_length_a   8.37381882
_cell_length_b   8.37790452
_cell_length_c   8.37606600
_cell_angle_alpha   90.01689212
_cell_angle_beta   89.97471104
_cell_angle_gamma   90.01110018
_symmetry_Int_Tables_number   1
_chemical_formula_structural   Er8AsPd13Pt11
_chemical_formula_sum   'Er8 As1 Pd13 Pt11'
_cell_volume   587.62327306
_cell_formula_units_Z   1
loop_
 _symmetry_equiv_pos_site_id
 _symmetry_equiv_pos_as_xyz
  1  'x, y, z'
loop_
 _atom_site_type_symbol
 _atom_site_label
 _atom_site_symmetry_multiplicity
 _atom_site_fract_x
 _atom_site_fract_y
 _atom_site_fract_z
 _atom_site_occupancy
  Er  Er0  1  0.255607  0.254779  0.254688  1
  Er  Er1  1  0.745337  0.743129  0.745935  1
  Er  Er2  1  0.744742  0.744403  0.254223  1
  Er  Er3  1  0.744492  0.256665  0.745482  1
  Er  Er4  1  0.255455  0.255405  0.745241  1
  Er  Er5  1  0.255225  0.745302  0.254702  1
  Er  Er6  1  0.254808  0.744501  0.745318  1
  Er  Er7  1  0.744308  0.255493  0.254455  1
  As  As8  1  0.000410  0.000358  0.000417  1
  Pd  Pd9  1  0.500175  0.999727  0.740626  1
  Pd  Pd10  1  0.740457  0.000154  0.500146  1
  Pd  Pd11  1  0.000063  0.500011  0.257819  1
  Pd  Pd12  1  0.000101  0.500023  0.742375  1
  Pd  Pd13  1  0.499870  0.746545  0.499907  1
  Pd  Pd14  1  0.499947  0.500206  0.253181  1
  Pd  Pd15  1  0.499837  0.500177  0.746814  1
  Pd  Pd16  1  0.288234  0.999796  0.999371  1
  Pd  Pd17  1  0.712250  0.999900  0.999352  1
  Pd  Pd18  1  0.000047  0.286495  0.999971  1
  Pd  Pd19  1  0.000189  0.714003  0.000151  1
  Pd  Pd20  1  0.999340  0.999781  0.287582  1
  Pd  Pd21  1  0.999330  0.999905  0.712939  1
  Pt  Pt22  1  0.258506  0.500131  0.999975  1
  Pt  Pt23  1  0.741676  0.500134  0.000007  1
  Pt  Pt24  1  0.000057  0.260115  0.500134  1
  Pt  Pt25  1  0.500071  0.260404  0.000044  1
  Pt  Pt26  1  0.000117  0.739685  0.500146  1
  Pt  Pt27  1  0.500092  0.739717  0.000118  1
  Pt  Pt28  1  0.499988  0.999889  0.259236  1
  Pt  Pt29  1  0.259460  0.000309  0.499980  1
  Pt  Pt30  1  0.252088  0.499750  0.500011  1
  Pt  Pt31  1  0.747912  0.499722  0.499894  1
  Pt  Pt32  1  0.499807  0.253385  0.499764  1
