# generated using pymatgen
data_Tb7TmNp4O24
_symmetry_space_group_name_H-M   'P 1'
_cell_length_a   5.54482066
_cell_length_b   7.85600561
_cell_length_c   11.86537375
_cell_angle_alpha   73.82003191
_cell_angle_beta   89.96273088
_cell_angle_gamma   89.94978644
_symmetry_Int_Tables_number   1
_chemical_formula_structural   Tb7TmNp4O24
_chemical_formula_sum   'Tb7 Tm1 Np4 O24'
_cell_volume   496.38501639
_cell_formula_units_Z   1
loop_
 _symmetry_equiv_pos_site_id
 _symmetry_equiv_pos_as_xyz
  1  'x, y, z'
loop_
 _atom_site_type_symbol
 _atom_site_label
 _atom_site_symmetry_multiplicity
 _atom_site_fract_x
 _atom_site_fract_y
 _atom_site_fract_z
 _atom_site_occupancy
  Tb  Tb0  1  0.745431  0.000577  0.749005  1
  Tb  Tb1  1  0.254627  0.000744  0.251142  1
  Tb  Tb2  1  0.185558  0.795572  0.579227  1
  Tb  Tb3  1  0.813611  0.794855  0.079455  1
  Tb  Tb4  1  0.700049  0.499634  0.749801  1
  Tb  Tb5  1  0.300404  0.499157  0.251076  1
  Tb  Tb6  1  0.186670  0.205265  0.920365  1
  Tm  Tm7  1  0.813697  0.206584  0.419570  1
  Np  Np8  1  0.256129  0.719627  0.887104  1
  Np  Np9  1  0.743620  0.719787  0.387111  1
  Np  Np10  1  0.256447  0.280069  0.611541  1
  Np  Np11  1  0.744521  0.280072  0.113895  1
  O  O12  1  0.045944  0.941486  0.897490  1
  O  O13  1  0.551825  0.848901  0.931274  1
  O  O14  1  0.950339  0.945095  0.398093  1
  O  O15  1  0.448834  0.800699  0.727293  1
  O  O16  1  0.446493  0.847258  0.431305  1
  O  O17  1  0.964814  0.714689  0.766085  1
  O  O18  1  0.550948  0.799981  0.227884  1
  O  O19  1  0.874508  0.625495  0.554411  1
  O  O20  1  0.389199  0.481260  0.883378  1
  O  O21  1  0.035587  0.715340  0.266941  1
  O  O22  1  0.388499  0.517958  0.615882  1
  O  O23  1  0.874260  0.374634  0.945649  1
  O  O24  1  0.125479  0.624781  0.055013  1
  O  O25  1  0.614053  0.479212  0.383579  1
  O  O26  1  0.965734  0.285128  0.733524  1
  O  O27  1  0.610420  0.518235  0.116701  1
  O  O28  1  0.120439  0.372588  0.444703  1
  O  O29  1  0.449101  0.199211  0.771387  1
  O  O30  1  0.034415  0.284814  0.235585  1
  O  O31  1  0.556013  0.152793  0.565559  1
  O  O32  1  0.553758  0.199052  0.274857  1
  O  O33  1  0.046234  0.059108  0.601644  1
  O  O34  1  0.447974  0.151771  0.069617  1
  O  O35  1  0.954365  0.058570  0.102852  1
