# generated using pymatgen
data_Tb4Pr2RuBr10
_symmetry_space_group_name_H-M   'P 1'
_cell_length_a   7.49885769
_cell_length_b   9.43744764
_cell_length_c   9.36658187
_cell_angle_alpha   107.85447631
_cell_angle_beta   95.78431723
_cell_angle_gamma   106.63241947
_symmetry_Int_Tables_number   1
_chemical_formula_structural   Tb4Pr2RuBr10
_chemical_formula_sum   'Tb4 Pr2 Ru1 Br10'
_cell_volume   591.49048226
_cell_formula_units_Z   1
loop_
 _symmetry_equiv_pos_site_id
 _symmetry_equiv_pos_as_xyz
  1  'x, y, z'
loop_
 _atom_site_type_symbol
 _atom_site_label
 _atom_site_symmetry_multiplicity
 _atom_site_fract_x
 _atom_site_fract_y
 _atom_site_fract_z
 _atom_site_occupancy
  Tb  Tb0  1  0.976323  0.304126  0.097220  1
  Tb  Tb1  1  0.023677  0.695874  0.902780  1
  Tb  Tb2  1  0.367526  0.140739  0.181089  1
  Tb  Tb3  1  0.632474  0.859261  0.818911  1
  Pr  Pr4  1  0.123226  0.046349  0.760982  1
  Pr  Pr5  1  0.876774  0.953651  0.239018  1
  Ru  Ru6  1  0.000000  0.000000  0.000000  1
  Br  Br7  1  0.552793  0.175014  0.920247  1
  Br  Br8  1  0.447207  0.824986  0.079753  1
  Br  Br9  1  0.355514  0.453192  0.272306  1
  Br  Br10  1  0.644486  0.546808  0.727694  1
  Br  Br11  1  0.264769  0.087713  0.450942  1
  Br  Br12  1  0.735231  0.912287  0.549058  1
  Br  Br13  1  0.789872  0.264821  0.344604  1
  Br  Br14  1  0.210128  0.735179  0.655396  1
  Br  Br15  1  0.085780  0.375858  0.833878  1
  Br  Br16  1  0.914220  0.624142  0.166122  1
