# generated using pymatgen
data_Sr2ScInFe4(PO4)6
_symmetry_space_group_name_H-M   'P 1'
_cell_length_a   9.41121917
_cell_length_b   9.41122036
_cell_length_c   9.41122000
_cell_angle_alpha   138.77148985
_cell_angle_beta   108.88769797
_cell_angle_gamma   85.65273043
_symmetry_Int_Tables_number   1
_chemical_formula_structural   Sr2ScInFe4(PO4)6
_chemical_formula_sum   'Sr2 Sc1 In1 Fe4 P6 O24'
_cell_volume   500.64918824
_cell_formula_units_Z   1
loop_
 _symmetry_equiv_pos_site_id
 _symmetry_equiv_pos_as_xyz
  1  'x, y, z'
loop_
 _atom_site_type_symbol
 _atom_site_label
 _atom_site_symmetry_multiplicity
 _atom_site_fract_x
 _atom_site_fract_y
 _atom_site_fract_z
 _atom_site_occupancy
  Sr  Sr0  1  0.750513  0.149298  0.398786  1
  Sr  Sr1  1  0.249487  0.850702  0.601214  1
  Sc  Sc2  1  0.000000  0.000000  0.000000  1
  In  In3  1  0.500000  0.500000  0.000000  1
  Fe  Fe4  1  0.618336  0.618350  0.502034  1
  Fe  Fe5  1  0.381664  0.381650  0.497966  1
  Fe  Fe6  1  0.116315  0.618350  0.000013  1
  Fe  Fe7  1  0.883685  0.381650  0.999987  1
  P  P8  1  0.322874  0.823974  0.999688  1
  P  P9  1  0.751226  0.653074  0.901848  1
  P  P10  1  0.175714  0.176026  0.498900  1
  P  P11  1  0.677126  0.176026  0.000312  1
  P  P12  1  0.248774  0.346926  0.098152  1
  P  P13  1  0.824286  0.823974  0.501100  1
  O  O14  1  0.577773  0.930469  0.781975  1
  O  O15  1  0.078646  0.298288  0.648403  1
  O  O16  1  0.843068  0.878764  0.035697  1
  O  O17  1  0.350115  0.701712  0.780358  1
  O  O18  1  0.139717  0.207432  0.349347  1
  O  O19  1  0.337461  0.292388  0.954927  1
  O  O20  1  0.642035  0.712520  0.357318  1
  O  O21  1  0.860283  0.792568  0.650653  1
  O  O22  1  0.363677  0.491712  0.355234  1
  O  O23  1  0.148493  0.930469  0.352696  1
  O  O24  1  0.644798  0.287480  0.929514  1
  O  O25  1  0.636323  0.508288  0.644766  1
  O  O26  1  0.858086  0.207432  0.067715  1
  O  O27  1  0.851507  0.069531  0.647304  1
  O  O28  1  0.355202  0.712520  0.070486  1
  O  O29  1  0.357965  0.287480  0.642682  1
  O  O30  1  0.662539  0.707612  0.045073  1
  O  O31  1  0.921354  0.701712  0.351597  1
  O  O32  1  0.156932  0.121235  0.964303  1
  O  O33  1  0.863521  0.508288  0.871965  1
  O  O34  1  0.136479  0.491712  0.128035  1
  O  O35  1  0.141914  0.792568  0.932285  1
  O  O36  1  0.649885  0.298288  0.219642  1
  O  O37  1  0.422227  0.069531  0.218025  1
