# generated using pymatgen
data_Zr6Zn11Cu12As
_symmetry_space_group_name_H-M   'P 1'
_cell_length_a   8.59457852
_cell_length_b   8.57787874
_cell_length_c   8.57787900
_cell_angle_alpha   60.00000287
_cell_angle_beta   60.06425796
_cell_angle_gamma   60.06425732
_symmetry_Int_Tables_number   1
_chemical_formula_structural   Zr6Zn11Cu12As
_chemical_formula_sum   'Zr6 Zn11 Cu12 As1'
_cell_volume   447.60047828
_cell_formula_units_Z   1
loop_
 _symmetry_equiv_pos_site_id
 _symmetry_equiv_pos_as_xyz
  1  'x, y, z'
loop_
 _atom_site_type_symbol
 _atom_site_label
 _atom_site_symmetry_multiplicity
 _atom_site_fract_x
 _atom_site_fract_y
 _atom_site_fract_z
 _atom_site_occupancy
  Zr  Zr0  1  0.725743  0.279830  0.279830  1
  Zr  Zr1  1  0.274257  0.720170  0.720170  1
  Zr  Zr2  1  0.274257  0.720170  0.285403  1
  Zr  Zr3  1  0.725743  0.279830  0.714597  1
  Zr  Zr4  1  0.274257  0.285403  0.720170  1
  Zr  Zr5  1  0.725743  0.714597  0.279830  1
  Zn  Zn6  1  0.630942  0.123020  0.123020  1
  Zn  Zn7  1  0.369058  0.876980  0.876980  1
  Zn  Zn8  1  0.330112  0.334972  0.334972  1
  Zn  Zn9  1  0.669888  0.665028  0.665028  1
  Zn  Zn10  1  0.330112  0.334972  0.999946  1
  Zn  Zn11  1  0.330112  0.999946  0.334972  1
  Zn  Zn12  1  0.669888  0.665028  0.000054  1
  Zn  Zn13  1  0.669888  0.000054  0.665028  1
  Zn  Zn14  1  0.008858  0.330381  0.330381  1
  Zn  Zn15  1  0.991142  0.669619  0.669619  1
  Zn  Zn16  1  0.000000  0.000000  0.000000  1
  Cu  Cu17  1  0.121545  0.121522  0.121522  1
  Cu  Cu18  1  0.878455  0.878478  0.878478  1
  Cu  Cu19  1  0.121545  0.121522  0.635411  1
  Cu  Cu20  1  0.121545  0.635411  0.121522  1
  Cu  Cu21  1  0.878455  0.878478  0.364589  1
  Cu  Cu22  1  0.878455  0.364589  0.878478  1
  Cu  Cu23  1  0.500000  0.000000  0.000000  1
  Cu  Cu24  1  0.000000  0.500000  0.500000  1
  Cu  Cu25  1  0.000000  0.500000  0.000000  1
  Cu  Cu26  1  0.500000  0.000000  0.500000  1
  Cu  Cu27  1  0.000000  0.000000  0.500000  1
  Cu  Cu28  1  0.500000  0.500000  0.000000  1
  As  As29  1  0.500000  0.500000  0.500000  1
