# generated using pymatgen
data_Tm12PdRu3
_symmetry_space_group_name_H-M   'P 1'
_cell_length_a   6.27421483
_cell_length_b   7.19904703
_cell_length_c   9.06499600
_cell_angle_alpha   90.00000000
_cell_angle_beta   90.00000000
_cell_angle_gamma   90.06010104
_symmetry_Int_Tables_number   1
_chemical_formula_structural   Tm12PdRu3
_chemical_formula_sum   'Tm12 Pd1 Ru3'
_cell_volume   409.45084663
_cell_formula_units_Z   1
loop_
 _symmetry_equiv_pos_site_id
 _symmetry_equiv_pos_as_xyz
  1  'x, y, z'
loop_
 _atom_site_type_symbol
 _atom_site_label
 _atom_site_symmetry_multiplicity
 _atom_site_fract_x
 _atom_site_fract_y
 _atom_site_fract_z
 _atom_site_occupancy
  Tm  Tm0  1  0.630705  0.031314  0.250000  1
  Tm  Tm1  1  0.373186  0.962393  0.750000  1
  Tm  Tm2  1  0.131290  0.461726  0.750000  1
  Tm  Tm3  1  0.877684  0.540152  0.250000  1
  Tm  Tm4  1  0.164236  0.172877  0.059530  1
  Tm  Tm5  1  0.827704  0.820638  0.935786  1
  Tm  Tm6  1  0.676867  0.322055  0.932561  1
  Tm  Tm7  1  0.827704  0.820638  0.564214  1
  Tm  Tm8  1  0.326124  0.684648  0.058135  1
  Tm  Tm9  1  0.164236  0.172877  0.440470  1
  Tm  Tm10  1  0.326124  0.684648  0.441865  1
  Tm  Tm11  1  0.676867  0.322055  0.567439  1
  Pd  Pd12  1  0.452803  0.389808  0.250000  1
  Ru  Ru13  1  0.535772  0.614021  0.750000  1
  Ru  Ru14  1  0.966177  0.114862  0.750000  1
  Ru  Ru15  1  0.042521  0.885287  0.250000  1
