# generated using pymatgen
data_YbGd4InNi2
_symmetry_space_group_name_H-M   'P 1'
_cell_length_a   8.84729172
_cell_length_b   8.84729007
_cell_length_c   8.84729100
_cell_angle_alpha   128.14486150
_cell_angle_beta   128.14485312
_cell_angle_gamma   76.39047709
_symmetry_Int_Tables_number   1
_chemical_formula_structural   YbGd4InNi2
_chemical_formula_sum   'Yb2 Gd8 In2 Ni4'
_cell_volume   416.19020569
_cell_formula_units_Z   2
loop_
 _symmetry_equiv_pos_site_id
 _symmetry_equiv_pos_as_xyz
  1  'x, y, z'
loop_
 _atom_site_type_symbol
 _atom_site_label
 _atom_site_symmetry_multiplicity
 _atom_site_fract_x
 _atom_site_fract_y
 _atom_site_fract_z
 _atom_site_occupancy
  Yb  Yb0  1  0.000000  0.000000  0.000000  1
  Yb  Yb1  1  0.500000  0.500000  0.000000  1
  Gd  Gd2  1  0.795986  0.295986  0.822779  1
  Gd  Gd3  1  0.204014  0.704014  0.177221  1
  Gd  Gd4  1  0.473207  0.973207  0.177221  1
  Gd  Gd5  1  0.295986  0.473207  0.500000  1
  Gd  Gd6  1  0.026793  0.204014  0.500000  1
  Gd  Gd7  1  0.526793  0.026793  0.822779  1
  Gd  Gd8  1  0.704014  0.526793  0.500000  1
  Gd  Gd9  1  0.973207  0.795986  0.500000  1
  In  In10  1  0.250000  0.250000  0.000000  1
  In  In11  1  0.750000  0.750000  0.000000  1
  Ni  Ni12  1  0.122598  0.622598  0.745194  1
  Ni  Ni13  1  0.877402  0.377402  0.254806  1
  Ni  Ni14  1  0.622598  0.877402  0.500000  1
  Ni  Ni15  1  0.377402  0.122598  0.500000  1
