# generated using pymatgen
data_CePrNdSe3
_symmetry_space_group_name_H-M   'P 1'
_cell_length_a   4.20355300
_cell_length_b   4.20355216
_cell_length_c   10.43295000
_cell_angle_alpha   90.00000000
_cell_angle_beta   90.00000000
_cell_angle_gamma   119.99999876
_symmetry_Int_Tables_number   1
_chemical_formula_structural   CePrNdSe3
_chemical_formula_sum   'Ce1 Pr1 Nd1 Se3'
_cell_volume   159.65066475
_cell_formula_units_Z   1
loop_
 _symmetry_equiv_pos_site_id
 _symmetry_equiv_pos_as_xyz
  1  'x, y, z'
loop_
 _atom_site_type_symbol
 _atom_site_label
 _atom_site_symmetry_multiplicity
 _atom_site_fract_x
 _atom_site_fract_y
 _atom_site_fract_z
 _atom_site_occupancy
  Ce  Ce0  1  0.000000  0.000000  0.999639  1
  Pr  Pr1  1  0.666667  0.333333  0.330506  1
  Nd  Nd2  1  0.333333  0.666667  0.669849  1
  Se  Se3  1  0.333333  0.666667  0.162951  1
  Se  Se4  1  0.666667  0.333333  0.835105  1
  Se  Se5  1  0.000000  0.000000  0.501950  1
