# generated using pymatgen
data_BaMgAl10O17
_symmetry_space_group_name_H-M   'P 1'
_cell_length_a   5.68422400
_cell_length_b   5.68422367
_cell_length_c   22.89241600
_cell_angle_alpha   90.00000000
_cell_angle_beta   90.00000000
_cell_angle_gamma   120.00000194
_symmetry_Int_Tables_number   1
_chemical_formula_structural   BaMgAl10O17
_chemical_formula_sum   'Ba2 Mg2 Al20 O34'
_cell_volume   640.56704950
_cell_formula_units_Z   2
loop_
 _symmetry_equiv_pos_site_id
 _symmetry_equiv_pos_as_xyz
  1  'x, y, z'
loop_
 _atom_site_type_symbol
 _atom_site_label
 _atom_site_symmetry_multiplicity
 _atom_site_fract_x
 _atom_site_fract_y
 _atom_site_fract_z
 _atom_site_occupancy
  Ba  Ba0  1  0.000000  0.000000  0.247260  1
  Ba  Ba1  1  0.666667  0.333333  0.747377  1
  Mg  Mg2  1  0.000000  0.000000  0.524817  1
  Mg  Mg3  1  0.666667  0.333333  0.023875  1
  Al  Al4  1  0.000000  0.000000  0.672429  1
  Al  Al5  1  0.666667  0.333333  0.324438  1
  Al  Al6  1  0.666667  0.333333  0.172169  1
  Al  Al7  1  0.000000  0.000000  0.824105  1
  Al  Al8  1  0.333333  0.666667  0.503313  1
  Al  Al9  1  0.333333  0.666667  0.002456  1
  Al  Al10  1  0.165181  0.330362  0.394685  1
  Al  Al11  1  0.165181  0.834819  0.394685  1
  Al  Al12  1  0.669638  0.834819  0.394685  1
  Al  Al13  1  0.496401  0.992802  0.605593  1
  Al  Al14  1  0.496401  0.503599  0.605593  1
  Al  Al15  1  0.007198  0.503599  0.605593  1
  Al  Al16  1  0.501435  0.002869  0.893895  1
  Al  Al17  1  0.501435  0.498565  0.893895  1
  Al  Al18  1  0.997131  0.498565  0.893895  1
  Al  Al19  1  0.170201  0.340401  0.104772  1
  Al  Al20  1  0.170201  0.829799  0.104772  1
  Al  Al21  1  0.659599  0.829799  0.104772  1
  Al  Al22  1  0.666667  0.333333  0.477198  1
  Al  Al23  1  0.000000  0.000000  0.976244  1
  O  O24  1  0.184331  0.368661  0.553983  1
  O  O25  1  0.184331  0.815669  0.553983  1
  O  O26  1  0.631339  0.815669  0.553983  1
  O  O27  1  0.491255  0.982511  0.450474  1
  O  O28  1  0.491255  0.508745  0.450474  1
  O  O29  1  0.017489  0.508745  0.450474  1
  O  O30  1  0.482392  0.964786  0.053075  1
  O  O31  1  0.482392  0.517608  0.053075  1
  O  O32  1  0.035214  0.517608  0.053075  1
  O  O33  1  0.175470  0.350942  0.949557  1
  O  O34  1  0.175470  0.824530  0.949557  1
  O  O35  1  0.649058  0.824530  0.949557  1
  O  O36  1  0.000000  0.000000  0.438045  1
  O  O37  1  0.666667  0.333333  0.556437  1
  O  O38  1  0.666667  0.333333  0.937234  1
  O  O39  1  0.000000  0.000000  0.055561  1
  O  O40  1  0.827922  0.655844  0.647528  1
  O  O41  1  0.827922  0.172078  0.647528  1
  O  O42  1  0.344156  0.172078  0.647528  1
  O  O43  1  0.836599  0.673197  0.351350  1
  O  O44  1  0.836599  0.163401  0.351350  1
  O  O45  1  0.326803  0.163401  0.351350  1
  O  O46  1  0.838707  0.677414  0.146948  1
  O  O47  1  0.838707  0.161293  0.146948  1
  O  O48  1  0.322586  0.161293  0.146948  1
  O  O49  1  0.830073  0.660147  0.850794  1
  O  O50  1  0.830073  0.169927  0.850794  1
  O  O51  1  0.339853  0.169927  0.850794  1
  O  O52  1  0.333333  0.666667  0.647632  1
  O  O53  1  0.333333  0.666667  0.359363  1
  O  O54  1  0.333333  0.666667  0.146656  1
  O  O55  1  0.333333  0.666667  0.858354  1
  O  O56  1  0.000000  0.000000  0.748528  1
  O  O57  1  0.666667  0.333333  0.248549  1
