# generated using pymatgen
data_Er4Lu8CoTc3
_symmetry_space_group_name_H-M   'P 1'
_cell_length_a   6.17835261
_cell_length_b   7.23831746
_cell_length_c   8.94252500
_cell_angle_alpha   90.00000000
_cell_angle_beta   90.00000000
_cell_angle_gamma   90.12939577
_symmetry_Int_Tables_number   1
_chemical_formula_structural   Er4Lu8CoTc3
_chemical_formula_sum   'Er4 Lu8 Co1 Tc3'
_cell_volume   399.91654594
_cell_formula_units_Z   1
loop_
 _symmetry_equiv_pos_site_id
 _symmetry_equiv_pos_as_xyz
  1  'x, y, z'
loop_
 _atom_site_type_symbol
 _atom_site_label
 _atom_site_symmetry_multiplicity
 _atom_site_fract_x
 _atom_site_fract_y
 _atom_site_fract_z
 _atom_site_occupancy
  Er  Er0  1  0.876189  0.538184  0.250000  1
  Er  Er1  1  0.624104  0.040219  0.250000  1
  Er  Er2  1  0.138027  0.459155  0.750000  1
  Er  Er3  1  0.377970  0.952570  0.750000  1
  Lu  Lu4  1  0.333030  0.678639  0.063132  1
  Lu  Lu5  1  0.161500  0.175951  0.439364  1
  Lu  Lu6  1  0.662781  0.326637  0.564401  1
  Lu  Lu7  1  0.834235  0.820985  0.937257  1
  Lu  Lu8  1  0.662781  0.326637  0.935599  1
  Lu  Lu9  1  0.834235  0.820985  0.562743  1
  Lu  Lu10  1  0.333030  0.678639  0.436868  1
  Lu  Lu11  1  0.161500  0.175951  0.060636  1
  Co  Co12  1  0.539714  0.616212  0.750000  1
  Tc  Tc13  1  0.040574  0.886142  0.250000  1
  Tc  Tc14  1  0.458001  0.389139  0.250000  1
  Tc  Tc15  1  0.962328  0.113957  0.750000  1
