# generated using pymatgen
data_Ho6Th2MgHgRu2
_symmetry_space_group_name_H-M   'P 1'
_cell_length_a   9.67970386
_cell_length_b   9.67970286
_cell_length_c   9.66862900
_cell_angle_alpha   60.03784039
_cell_angle_beta   60.03784379
_cell_angle_gamma   60.26413558
_symmetry_Int_Tables_number   1
_chemical_formula_structural   Ho6Th2MgHgRu2
_chemical_formula_sum   'Ho12 Th4 Mg2 Hg2 Ru4'
_cell_volume   642.21820162
_cell_formula_units_Z   2
loop_
 _symmetry_equiv_pos_site_id
 _symmetry_equiv_pos_as_xyz
  1  'x, y, z'
loop_
 _atom_site_type_symbol
 _atom_site_label
 _atom_site_symmetry_multiplicity
 _atom_site_fract_x
 _atom_site_fract_y
 _atom_site_fract_z
 _atom_site_occupancy
  Ho  Ho0  1  0.812417  0.186902  0.187945  1
  Ho  Ho1  1  0.186902  0.812417  0.812736  1
  Ho  Ho2  1  0.186902  0.812417  0.187945  1
  Ho  Ho3  1  0.812417  0.186902  0.812736  1
  Ho  Ho4  1  0.186744  0.186744  0.813256  1
  Ho  Ho5  1  0.810793  0.810793  0.189207  1
  Ho  Ho6  1  0.932632  0.563734  0.564861  1
  Ho  Ho7  1  0.563734  0.932632  0.938772  1
  Ho  Ho8  1  0.563734  0.932632  0.564861  1
  Ho  Ho9  1  0.932632  0.563734  0.938772  1
  Ho  Ho10  1  0.564666  0.564666  0.935334  1
  Ho  Ho11  1  0.935636  0.935636  0.564364  1
  Th  Th12  1  0.347427  0.347427  0.346763  1
  Th  Th13  1  0.347427  0.347427  0.958383  1
  Th  Th14  1  0.349761  0.955073  0.347583  1
  Th  Th15  1  0.955073  0.349761  0.347583  1
  Mg  Mg16  1  0.579635  0.266579  0.576893  1
  Mg  Mg17  1  0.266579  0.579635  0.576893  1
  Hg  Hg18  1  0.582060  0.582060  0.587497  1
  Hg  Hg19  1  0.582060  0.582060  0.248383  1
  Ru  Ru20  1  0.143519  0.143519  0.141933  1
  Ru  Ru21  1  0.143519  0.143519  0.571029  1
  Ru  Ru22  1  0.143964  0.569765  0.143136  1
  Ru  Ru23  1  0.569765  0.143964  0.143136  1
