# generated using pymatgen
data_Rb2ZrTi2O7
_symmetry_space_group_name_H-M   'P 1'
_cell_length_a   5.96633152
_cell_length_b   5.96633226
_cell_length_c   13.84747356
_cell_angle_alpha   77.13046374
_cell_angle_beta   77.13046175
_cell_angle_gamma   58.52819220
_symmetry_Int_Tables_number   1
_chemical_formula_structural   Rb2ZrTi2O7
_chemical_formula_sum   'Rb4 Zr2 Ti4 O14'
_cell_volume   406.48500062
_cell_formula_units_Z   2
loop_
 _symmetry_equiv_pos_site_id
 _symmetry_equiv_pos_as_xyz
  1  'x, y, z'
loop_
 _atom_site_type_symbol
 _atom_site_label
 _atom_site_symmetry_multiplicity
 _atom_site_fract_x
 _atom_site_fract_y
 _atom_site_fract_z
 _atom_site_occupancy
  Rb  Rb0  1  0.639309  0.064523  0.176948  1
  Rb  Rb1  1  0.935477  0.360691  0.323052  1
  Rb  Rb2  1  0.360691  0.935477  0.823052  1
  Rb  Rb3  1  0.064523  0.639309  0.676948  1
  Zr  Zr4  1  0.500000  0.000000  0.500000  1
  Zr  Zr5  1  0.000000  0.500000  0.000000  1
  Ti  Ti6  1  0.760265  0.316173  0.619762  1
  Ti  Ti7  1  0.316173  0.760265  0.119762  1
  Ti  Ti8  1  0.239735  0.683827  0.380238  1
  Ti  Ti9  1  0.683827  0.239735  0.880238  1
  O  O10  1  0.812960  0.915723  0.952794  1
  O  O11  1  0.323775  0.423977  0.882776  1
  O  O12  1  0.423977  0.323775  0.382776  1
  O  O13  1  0.676225  0.576023  0.117224  1
  O  O14  1  0.835111  0.164889  0.750000  1
  O  O15  1  0.164889  0.835111  0.250000  1
  O  O16  1  0.201303  0.551415  0.094746  1
  O  O17  1  0.448585  0.798697  0.405254  1
  O  O18  1  0.084277  0.187040  0.547206  1
  O  O19  1  0.551415  0.201303  0.594746  1
  O  O20  1  0.187040  0.084277  0.047206  1
  O  O21  1  0.915723  0.812960  0.452794  1
  O  O22  1  0.798697  0.448585  0.905254  1
  O  O23  1  0.576023  0.676225  0.617224  1
