# generated using pymatgen
data_LiNd8Co2Hg
_symmetry_space_group_name_H-M   'P 1'
_cell_length_a   9.81813791
_cell_length_b   9.81813749
_cell_length_c   9.77255400
_cell_angle_alpha   60.15346358
_cell_angle_beta   60.15346497
_cell_angle_gamma   60.50436002
_symmetry_Int_Tables_number   1
_chemical_formula_structural   LiNd8Co2Hg
_chemical_formula_sum   'Li2 Nd16 Co4 Hg2'
_cell_volume   670.17872653
_cell_formula_units_Z   2
loop_
 _symmetry_equiv_pos_site_id
 _symmetry_equiv_pos_as_xyz
  1  'x, y, z'
loop_
 _atom_site_type_symbol
 _atom_site_label
 _atom_site_symmetry_multiplicity
 _atom_site_fract_x
 _atom_site_fract_y
 _atom_site_fract_z
 _atom_site_occupancy
  Li  Li0  1  0.826658  0.541265  0.816039  1
  Li  Li1  1  0.541265  0.826658  0.816039  1
  Nd  Nd2  1  0.594803  0.594803  0.594195  1
  Nd  Nd3  1  0.594803  0.594803  0.216199  1
  Nd  Nd4  1  0.596513  0.208552  0.597467  1
  Nd  Nd5  1  0.208552  0.596513  0.597467  1
  Nd  Nd6  1  0.190732  0.810344  0.810755  1
  Nd  Nd7  1  0.810344  0.190732  0.188168  1
  Nd  Nd8  1  0.810344  0.190732  0.810755  1
  Nd  Nd9  1  0.190732  0.810344  0.188168  1
  Nd  Nd10  1  0.812153  0.812153  0.187847  1
  Nd  Nd11  1  0.188680  0.188680  0.811320  1
  Nd  Nd12  1  0.059405  0.437496  0.438574  1
  Nd  Nd13  1  0.437496  0.059405  0.064525  1
  Nd  Nd14  1  0.437496  0.059405  0.438574  1
  Nd  Nd15  1  0.059405  0.437496  0.064525  1
  Nd  Nd16  1  0.432690  0.432690  0.067310  1
  Nd  Nd17  1  0.053837  0.053837  0.446163  1
  Co  Co18  1  0.390120  0.390120  0.390288  1
  Co  Co19  1  0.390120  0.390120  0.829471  1
  Co  Co20  1  0.389880  0.824374  0.392873  1
  Co  Co21  1  0.824374  0.389880  0.392873  1
  Hg  Hg22  1  0.829798  0.829798  0.838391  1
  Hg  Hg23  1  0.829798  0.829798  0.502014  1
