# generated using pymatgen
data_Sm3Gd5(SO6)4
_symmetry_space_group_name_H-M   'P 1'
_cell_length_a   8.19250935
_cell_length_b   13.16185930
_cell_length_c   4.22021259
_cell_angle_alpha   89.94927418
_cell_angle_beta   90.03302104
_cell_angle_gamma   90.00521211
_symmetry_Int_Tables_number   1
_chemical_formula_structural   Sm3Gd5(SO6)4
_chemical_formula_sum   'Sm3 Gd5 S4 O24'
_cell_volume   455.05959310
_cell_formula_units_Z   1
loop_
 _symmetry_equiv_pos_site_id
 _symmetry_equiv_pos_as_xyz
  1  'x, y, z'
loop_
 _atom_site_type_symbol
 _atom_site_label
 _atom_site_symmetry_multiplicity
 _atom_site_fract_x
 _atom_site_fract_y
 _atom_site_fract_z
 _atom_site_occupancy
  Sm  Sm0  1  0.875008  0.420193  0.742175  1
  Sm  Sm1  1  0.375043  0.079922  0.757932  1
  Sm  Sm2  1  0.375037  0.420386  0.758083  1
  Gd  Gd3  1  0.624928  0.580203  0.243029  1
  Gd  Gd4  1  0.625122  0.919951  0.243245  1
  Gd  Gd5  1  0.124866  0.580180  0.256840  1
  Gd  Gd6  1  0.124659  0.919930  0.257107  1
  Gd  Gd7  1  0.875100  0.078259  0.742668  1
  S  S8  1  0.123804  0.249674  0.195030  1
  S  S9  1  0.624202  0.249621  0.305150  1
  S  S10  1  0.376068  0.750180  0.694155  1
  S  S11  1  0.876022  0.750111  0.805422  1
  O  O12  1  0.727572  0.750243  0.013445  1
  O  O13  1  0.023247  0.750239  0.016626  1
  O  O14  1  0.623076  0.156930  0.106998  1
  O  O15  1  0.624388  0.342877  0.108346  1
  O  O16  1  0.874738  0.003735  0.233671  1
  O  O17  1  0.874762  0.497431  0.234029  1
  O  O18  1  0.374765  0.002446  0.266485  1
  O  O19  1  0.374752  0.497429  0.265984  1
  O  O20  1  0.124560  0.156881  0.393324  1
  O  O21  1  0.123623  0.342852  0.391639  1
  O  O22  1  0.523252  0.750194  0.483191  1
  O  O23  1  0.227475  0.750183  0.486187  1
  O  O24  1  0.772535  0.249095  0.513026  1
  O  O25  1  0.477002  0.249895  0.515865  1
  O  O26  1  0.876172  0.657200  0.608393  1
  O  O27  1  0.876189  0.842998  0.607361  1
  O  O28  1  0.625130  0.505146  0.733498  1
  O  O29  1  0.626898  0.995439  0.733289  1
  O  O30  1  0.125062  0.505117  0.766430  1
  O  O31  1  0.123419  0.995341  0.766934  1
  O  O32  1  0.376255  0.657304  0.891905  1
  O  O33  1  0.376267  0.843213  0.891170  1
  O  O34  1  0.976756  0.249309  0.984181  1
  O  O35  1  0.272251  0.249889  0.987197  1
