# generated using pymatgen
data_Dy16Er3TmSn16
_symmetry_space_group_name_H-M   'P 1'
_cell_length_a   8.01534306
_cell_length_b   8.15944014
_cell_length_c   15.43126902
_cell_angle_alpha   90.00992653
_cell_angle_beta   90.00360332
_cell_angle_gamma   90.00056901
_symmetry_Int_Tables_number   1
_chemical_formula_structural   Dy16Er3TmSn16
_chemical_formula_sum   'Dy16 Er3 Tm1 Sn16'
_cell_volume   1009.21596130
_cell_formula_units_Z   1
loop_
 _symmetry_equiv_pos_site_id
 _symmetry_equiv_pos_as_xyz
  1  'x, y, z'
loop_
 _atom_site_type_symbol
 _atom_site_label
 _atom_site_symmetry_multiplicity
 _atom_site_fract_x
 _atom_site_fract_y
 _atom_site_fract_z
 _atom_site_occupancy
  Dy  Dy0  1  0.867439  0.663350  0.622386  1
  Dy  Dy1  1  0.632603  0.163512  0.377926  1
  Dy  Dy2  1  0.132386  0.336647  0.121490  1
  Dy  Dy3  1  0.632707  0.163688  0.122154  1
  Dy  Dy4  1  0.132075  0.336706  0.377955  1
  Dy  Dy5  1  0.367687  0.836643  0.622481  1
  Dy  Dy6  1  0.867855  0.663199  0.878071  1
  Dy  Dy7  1  0.520815  0.320357  0.902589  1
  Dy  Dy8  1  0.021154  0.179306  0.597791  1
  Dy  Dy9  1  0.479313  0.679311  0.402588  1
  Dy  Dy10  1  0.978626  0.820169  0.097523  1
  Dy  Dy11  1  0.479209  0.679466  0.096970  1
  Dy  Dy12  1  0.978943  0.820349  0.402497  1
  Dy  Dy13  1  0.520828  0.320547  0.597726  1
  Dy  Dy14  1  0.021118  0.179154  0.902245  1
  Dy  Dy15  1  0.301443  0.002332  0.249775  1
  Er  Er16  1  0.367329  0.837109  0.877041  1
  Er  Er17  1  0.199255  0.502897  0.750330  1
  Er  Er18  1  0.698770  0.997118  0.750207  1
  Tm  Tm19  1  0.800982  0.497250  0.250027  1
  Sn  Sn20  1  0.292766  0.035484  0.040736  1
  Sn  Sn21  1  0.792483  0.464406  0.458029  1
  Sn  Sn22  1  0.707624  0.964269  0.542221  1
  Sn  Sn23  1  0.208369  0.537531  0.957695  1
  Sn  Sn24  1  0.705327  0.963687  0.957694  1
  Sn  Sn25  1  0.207575  0.535917  0.542249  1
  Sn  Sn26  1  0.292494  0.036036  0.458362  1
  Sn  Sn27  1  0.792405  0.464256  0.042131  1
  Sn  Sn28  1  0.564926  0.619015  0.750490  1
  Sn  Sn29  1  0.065207  0.881250  0.750479  1
  Sn  Sn30  1  0.435300  0.381740  0.249930  1
  Sn  Sn31  1  0.934490  0.119337  0.249877  1
  Sn  Sn32  1  0.329947  0.147883  0.750321  1
  Sn  Sn33  1  0.829609  0.351905  0.750087  1
  Sn  Sn34  1  0.670859  0.851438  0.249952  1
  Sn  Sn35  1  0.170079  0.646737  0.249977  1
