# generated using pymatgen
data_Zr6TaMnNb3(Al2Ir)6
_symmetry_space_group_name_H-M   'P 1'
_cell_length_a   8.81584189
_cell_length_b   8.81584283
_cell_length_c   8.81584300
_cell_angle_alpha   60.00000311
_cell_angle_beta   59.99999958
_cell_angle_gamma   60.00000542
_symmetry_Int_Tables_number   1
_chemical_formula_structural   Zr6TaMnNb3(Al2Ir)6
_chemical_formula_sum   'Zr6 Ta1 Mn1 Nb3 Al12 Ir6'
_cell_volume   484.48072968
_cell_formula_units_Z   1
loop_
 _symmetry_equiv_pos_site_id
 _symmetry_equiv_pos_as_xyz
  1  'x, y, z'
loop_
 _atom_site_type_symbol
 _atom_site_label
 _atom_site_symmetry_multiplicity
 _atom_site_fract_x
 _atom_site_fract_y
 _atom_site_fract_z
 _atom_site_occupancy
  Zr  Zr0  1  0.690881  0.690881  0.309167  1
  Zr  Zr1  1  0.309316  0.690621  0.309316  1
  Zr  Zr2  1  0.690621  0.309316  0.309316  1
  Zr  Zr3  1  0.309316  0.309316  0.690621  1
  Zr  Zr4  1  0.690881  0.309167  0.690881  1
  Zr  Zr5  1  0.309167  0.690881  0.690881  1
  Ta  Ta6  1  0.882321  0.882321  0.882321  1
  Mn  Mn7  1  0.000055  0.000055  0.000055  1
  Nb  Nb8  1  0.882586  0.882586  0.352054  1
  Nb  Nb9  1  0.882586  0.352054  0.882586  1
  Nb  Nb10  1  0.352054  0.882586  0.882586  1
  Al  Al11  1  0.119217  0.119217  0.642124  1
  Al  Al12  1  0.119217  0.642124  0.119217  1
  Al  Al13  1  0.642124  0.119217  0.119217  1
  Al  Al14  1  0.119468  0.119468  0.119468  1
  Al  Al15  1  0.661027  0.661027  0.016151  1
  Al  Al16  1  0.661027  0.016151  0.661027  1
  Al  Al17  1  0.016151  0.661027  0.661027  1
  Al  Al18  1  0.661449  0.661449  0.661449  1
  Al  Al19  1  0.336976  0.336976  0.989015  1
  Al  Al20  1  0.336976  0.989015  0.336976  1
  Al  Al21  1  0.989015  0.336976  0.336976  1
  Al  Al22  1  0.336992  0.336992  0.336992  1
  Ir  Ir23  1  0.998104  0.998104  0.503003  1
  Ir  Ir24  1  0.501419  0.998530  0.501419  1
  Ir  Ir25  1  0.998530  0.501419  0.501419  1
  Ir  Ir26  1  0.501419  0.501419  0.998530  1
  Ir  Ir27  1  0.998104  0.503003  0.998104  1
  Ir  Ir28  1  0.503003  0.998104  0.998104  1
