# generated using pymatgen
data_LiNd4Ho(P2Ru3)6
_symmetry_space_group_name_H-M   'P 1'
_cell_length_a   12.69607102
_cell_length_b   12.50809037
_cell_length_c   4.00427100
_cell_angle_alpha   90.00000000
_cell_angle_beta   90.00000000
_cell_angle_gamma   119.48955360
_symmetry_Int_Tables_number   1
_chemical_formula_structural   LiNd4Ho(P2Ru3)6
_chemical_formula_sum   'Li1 Nd4 Ho1 P12 Ru18'
_cell_volume   553.50988473
_cell_formula_units_Z   1
loop_
 _symmetry_equiv_pos_site_id
 _symmetry_equiv_pos_as_xyz
  1  'x, y, z'
loop_
 _atom_site_type_symbol
 _atom_site_label
 _atom_site_symmetry_multiplicity
 _atom_site_fract_x
 _atom_site_fract_y
 _atom_site_fract_z
 _atom_site_occupancy
  Li  Li0  1  0.999694  0.561779  0.000000  1
  Nd  Nd1  1  0.000009  0.182266  0.500000  1
  Nd  Nd2  1  0.817822  0.814666  0.500000  1
  Nd  Nd3  1  0.183139  0.998524  0.500000  1
  Nd  Nd4  1  0.658980  0.329300  0.000000  1
  Ho  Ho5  1  0.340991  0.669507  0.000000  1
  P  P6  1  0.001530  0.805055  0.000000  1
  P  P7  1  0.184310  0.187341  0.000000  1
  P  P8  1  0.814269  0.999984  0.000000  1
  P  P9  1  0.691942  0.171007  0.500000  1
  P  P10  1  0.820181  0.520648  0.500000  1
  P  P11  1  0.471890  0.305912  0.500000  1
  P  P12  1  0.183624  0.700660  0.500000  1
  P  P13  1  0.525444  0.830297  0.500000  1
  P  P14  1  0.306788  0.482573  0.500000  1
  P  P15  1  0.999082  0.369710  0.000000  1
  P  P16  1  0.624249  0.623746  0.000000  1
  P  P17  1  0.376102  0.000246  0.000000  1
  Ru  Ru18  1  0.443820  0.445141  0.000000  1
  Ru  Ru19  1  0.556227  0.001322  0.000000  1
  Ru  Ru20  1  0.001770  0.708494  0.500000  1
  Ru  Ru21  1  0.282229  0.286964  0.500000  1
  Ru  Ru22  1  0.716423  0.001059  0.500000  1
  Ru  Ru23  1  0.804093  0.185410  0.000000  1
  Ru  Ru24  1  0.814081  0.617991  0.000000  1
  Ru  Ru25  1  0.373439  0.191395  0.000000  1
  Ru  Ru26  1  0.189054  0.803555  0.000000  1
  Ru  Ru27  1  0.623381  0.815418  0.000000  1
  Ru  Ru28  1  0.196100  0.384617  0.000000  1
  Ru  Ru29  1  0.877793  0.367928  0.500000  1
  Ru  Ru30  1  0.630235  0.510271  0.500000  1
  Ru  Ru31  1  0.490032  0.125884  0.500000  1
  Ru  Ru32  1  0.371270  0.877086  0.500000  1
  Ru  Ru33  1  0.505930  0.634744  0.500000  1
  Ru  Ru34  1  0.124172  0.493736  0.500000  1
  Ru  Ru35  1  0.999905  0.995766  0.000000  1
