# generated using pymatgen
data_Dy3Tm7In8Pt3Au
_symmetry_space_group_name_H-M   'P 1'
_cell_length_a   3.59097400
_cell_length_b   8.15166493
_cell_length_c   18.22227274
_cell_angle_alpha   89.88765966
_cell_angle_beta   90.00000000
_cell_angle_gamma   90.00000000
_symmetry_Int_Tables_number   1
_chemical_formula_structural   Dy3Tm7In8Pt3Au
_chemical_formula_sum   'Dy3 Tm7 In8 Pt3 Au1'
_cell_volume   533.40893801
_cell_formula_units_Z   1
loop_
 _symmetry_equiv_pos_site_id
 _symmetry_equiv_pos_as_xyz
  1  'x, y, z'
loop_
 _atom_site_type_symbol
 _atom_site_label
 _atom_site_symmetry_multiplicity
 _atom_site_fract_x
 _atom_site_fract_y
 _atom_site_fract_z
 _atom_site_occupancy
  Dy  Dy0  1  0.000000  0.730318  0.280279  1
  Dy  Dy1  1  0.000000  0.998724  0.998712  1
  Dy  Dy2  1  0.000000  0.499289  0.500569  1
  Tm  Tm3  1  0.000000  0.121309  0.420597  1
  Tm  Tm4  1  0.000000  0.883851  0.586723  1
  Tm  Tm5  1  0.000000  0.383814  0.913987  1
  Tm  Tm6  1  0.000000  0.616551  0.083016  1
  Tm  Tm7  1  0.000000  0.251646  0.215727  1
  Tm  Tm8  1  0.000000  0.756016  0.779836  1
  Tm  Tm9  1  0.000000  0.256394  0.721133  1
  In  In10  1  0.500000  0.418193  0.351861  1
  In  In11  1  0.500000  0.577518  0.649263  1
  In  In12  1  0.500000  0.077363  0.851205  1
  In  In13  1  0.500000  0.920765  0.147893  1
  In  In14  1  0.500000  0.294061  0.064211  1
  In  In15  1  0.500000  0.706111  0.932440  1
  In  In16  1  0.500000  0.207005  0.568586  1
  In  In17  1  0.500000  0.794946  0.435495  1
  Pt  Pt18  1  0.500000  0.974193  0.697422  1
  Pt  Pt19  1  0.500000  0.474391  0.803098  1
  Pt  Pt20  1  0.500000  0.525134  0.194932  1
  Au  Au21  1  0.500000  0.032408  0.303016  1
