# generated using pymatgen
data_Nd2Fe4P7(IrRu3)2
_symmetry_space_group_name_H-M   'P 1'
_cell_length_a   9.34346246
_cell_length_b   9.29593751
_cell_length_c   3.87746300
_cell_angle_alpha   90.00000000
_cell_angle_beta   90.00000000
_cell_angle_gamma   119.78845117
_symmetry_Int_Tables_number   1
_chemical_formula_structural   Nd2Fe4P7(IrRu3)2
_chemical_formula_sum   'Nd2 Fe4 P7 Ir2 Ru6'
_cell_volume   292.28140162
_cell_formula_units_Z   1
loop_
 _symmetry_equiv_pos_site_id
 _symmetry_equiv_pos_as_xyz
  1  'x, y, z'
loop_
 _atom_site_type_symbol
 _atom_site_label
 _atom_site_symmetry_multiplicity
 _atom_site_fract_x
 _atom_site_fract_y
 _atom_site_fract_z
 _atom_site_occupancy
  Nd  Nd0  1  0.665053  0.333305  0.000000  1
  Nd  Nd1  1  0.332752  0.661248  0.500000  1
  Fe  Fe2  1  0.361190  0.417908  0.000000  1
  Fe  Fe3  1  0.266624  0.114954  0.000000  1
  Fe  Fe4  1  0.841200  0.731053  0.000000  1
  Fe  Fe5  1  0.890754  0.158221  0.000000  1
  P  P6  1  0.304757  0.899050  0.000000  1
  P  P7  1  0.582807  0.683733  0.000000  1
  P  P8  1  0.113650  0.405380  0.000000  1
  P  P9  1  0.394509  0.285307  0.500000  1
  P  P10  1  0.881345  0.604689  0.500000  1
  P  P11  1  0.723587  0.120056  0.500000  1
  P  P12  1  0.999241  0.999418  0.000000  1
  Ir  Ir13  1  0.065425  0.640398  0.000000  1
  Ir  Ir14  1  0.576585  0.934661  0.000000  1
  Ru  Ru15  1  0.436851  0.051400  0.500000  1
  Ru  Ru16  1  0.610573  0.562848  0.500000  1
  Ru  Ru17  1  0.951262  0.389526  0.500000  1
  Ru  Ru18  1  0.087150  0.881438  0.500000  1
  Ru  Ru19  1  0.794210  0.914021  0.500000  1
  Ru  Ru20  1  0.120474  0.211386  0.500000  1
