# generated using pymatgen
data_DyHoMoOs3
_symmetry_space_group_name_H-M   'P 1'
_cell_length_a   5.48564400
_cell_length_b   5.48564445
_cell_length_c   8.51816200
_cell_angle_alpha   90.00000000
_cell_angle_beta   90.00000000
_cell_angle_gamma   120.00000936
_symmetry_Int_Tables_number   1
_chemical_formula_structural   DyHoMoOs3
_chemical_formula_sum   'Dy2 Ho2 Mo2 Os6'
_cell_volume   221.98915668
_cell_formula_units_Z   2
loop_
 _symmetry_equiv_pos_site_id
 _symmetry_equiv_pos_as_xyz
  1  'x, y, z'
loop_
 _atom_site_type_symbol
 _atom_site_label
 _atom_site_symmetry_multiplicity
 _atom_site_fract_x
 _atom_site_fract_y
 _atom_site_fract_z
 _atom_site_occupancy
  Dy  Dy0  1  0.333333  0.666667  0.435045  1
  Dy  Dy1  1  0.666667  0.333333  0.564955  1
  Ho  Ho2  1  0.666667  0.333333  0.935204  1
  Ho  Ho3  1  0.333333  0.666667  0.064796  1
  Mo  Mo4  1  0.000000  0.000000  0.500000  1
  Mo  Mo5  1  0.000000  0.000000  0.000000  1
  Os  Os6  1  0.827325  0.172675  0.249422  1
  Os  Os7  1  0.827325  0.654652  0.249422  1
  Os  Os8  1  0.345348  0.172675  0.249422  1
  Os  Os9  1  0.172675  0.827325  0.750578  1
  Os  Os10  1  0.172675  0.345348  0.750578  1
  Os  Os11  1  0.654652  0.827325  0.750578  1
