# generated using pymatgen
data_YbU(P2O7)2
_symmetry_space_group_name_H-M   'P 1'
_cell_length_a   8.89600684
_cell_length_b   5.21489570
_cell_length_c   7.24807300
_cell_angle_alpha   70.69519313
_cell_angle_beta   90.94884941
_cell_angle_gamma   91.13144393
_symmetry_Int_Tables_number   1
_chemical_formula_structural   YbU(P2O7)2
_chemical_formula_sum   'Yb1 U1 P4 O14'
_cell_volume   317.26467083
_cell_formula_units_Z   1
loop_
 _symmetry_equiv_pos_site_id
 _symmetry_equiv_pos_as_xyz
  1  'x, y, z'
loop_
 _atom_site_type_symbol
 _atom_site_label
 _atom_site_symmetry_multiplicity
 _atom_site_fract_x
 _atom_site_fract_y
 _atom_site_fract_z
 _atom_site_occupancy
  Yb  Yb0  1  0.547677  0.793205  0.729407  1
  U  U1  1  0.050600  0.201418  0.285531  1
  P  P2  1  0.272365  0.780324  0.082972  1
  P  P3  1  0.774776  0.219075  0.910362  1
  P  P4  1  0.381953  0.415561  0.467510  1
  P  P5  1  0.863082  0.594248  0.536035  1
  O  O6  1  0.366777  0.588885  0.592941  1
  O  O7  1  0.645388  0.384916  0.929730  1
  O  O8  1  0.135308  0.576733  0.094428  1
  O  O9  1  0.216899  0.269904  0.458809  1
  O  O10  1  0.883731  0.153440  0.102918  1
  O  O11  1  0.207371  0.002809  0.159921  1
  O  O12  1  0.342542  0.886950  0.888584  1
  O  O13  1  0.992322  0.816906  0.489935  1
  O  O14  1  0.393069  0.612492  0.237775  1
  O  O15  1  0.898858  0.409926  0.409560  1
  O  O16  1  0.499332  0.205938  0.500129  1
  O  O17  1  0.750573  0.964650  0.861661  1
  O  O18  1  0.710000  0.708927  0.506105  1
  O  O19  1  0.899100  0.413696  0.755688  1
