# generated using pymatgen
data_Tb3Pr16YIr12
_symmetry_space_group_name_H-M   'P 1'
_cell_length_a   11.29788400
_cell_length_b   11.29788400
_cell_length_c   6.58355800
_cell_angle_alpha   90.00000000
_cell_angle_beta   90.00000000
_cell_angle_gamma   90.00000000
_symmetry_Int_Tables_number   1
_chemical_formula_structural   Tb3Pr16YIr12
_chemical_formula_sum   'Tb3 Pr16 Y1 Ir12'
_cell_volume   840.33971422
_cell_formula_units_Z   1
loop_
 _symmetry_equiv_pos_site_id
 _symmetry_equiv_pos_as_xyz
  1  'x, y, z'
loop_
 _atom_site_type_symbol
 _atom_site_label
 _atom_site_symmetry_multiplicity
 _atom_site_fract_x
 _atom_site_fract_y
 _atom_site_fract_z
 _atom_site_occupancy
  Tb  Tb0  1  0.000000  0.000000  0.000000  1
  Tb  Tb1  1  0.500000  0.500000  0.000000  1
  Tb  Tb2  1  0.500000  0.500000  0.500000  1
  Pr  Pr3  1  0.289192  0.088259  0.381552  1
  Pr  Pr4  1  0.289218  0.911863  0.881469  1
  Pr  Pr5  1  0.710782  0.088137  0.881469  1
  Pr  Pr6  1  0.710808  0.911741  0.381552  1
  Pr  Pr7  1  0.588119  0.789263  0.881546  1
  Pr  Pr8  1  0.588234  0.210745  0.381480  1
  Pr  Pr9  1  0.411766  0.789255  0.381480  1
  Pr  Pr10  1  0.411881  0.210737  0.881546  1
  Pr  Pr11  1  0.210745  0.411766  0.618520  1
  Pr  Pr12  1  0.210737  0.588119  0.118454  1
  Pr  Pr13  1  0.789263  0.411881  0.118454  1
  Pr  Pr14  1  0.789255  0.588234  0.618520  1
  Pr  Pr15  1  0.911863  0.710782  0.118531  1
  Pr  Pr16  1  0.911741  0.289192  0.618448  1
  Pr  Pr17  1  0.088259  0.710808  0.618448  1
  Pr  Pr18  1  0.088137  0.289218  0.118531  1
  Y  Y19  1  0.000000  0.000000  0.500000  1
  Ir  Ir20  1  0.851277  0.148831  0.249668  1
  Ir  Ir21  1  0.851169  0.851277  0.750332  1
  Ir  Ir22  1  0.148831  0.148723  0.750332  1
  Ir  Ir23  1  0.148723  0.851169  0.249668  1
  Ir  Ir24  1  0.648661  0.351330  0.750030  1
  Ir  Ir25  1  0.648670  0.648661  0.249970  1
  Ir  Ir26  1  0.351330  0.351339  0.249970  1
  Ir  Ir27  1  0.351339  0.648670  0.750030  1
  Ir  Ir28  1  0.500000  0.000000  0.118399  1
  Ir  Ir29  1  0.500000  0.000000  0.618409  1
  Ir  Ir30  1  0.000000  0.500000  0.881601  1
  Ir  Ir31  1  0.000000  0.500000  0.381591  1
