# generated using pymatgen
data_Ho7Sn22BiOs6
_symmetry_space_group_name_H-M   'P 1'
_cell_length_a   9.81446100
_cell_length_b   9.81445977
_cell_length_c   10.16644000
_cell_angle_alpha   90.00000000
_cell_angle_beta   90.00000000
_cell_angle_gamma   119.99999402
_symmetry_Int_Tables_number   1
_chemical_formula_structural   Ho7Sn22BiOs6
_chemical_formula_sum   'Ho7 Sn22 Bi1 Os6'
_cell_volume   848.07139052
_cell_formula_units_Z   1
loop_
 _symmetry_equiv_pos_site_id
 _symmetry_equiv_pos_as_xyz
  1  'x, y, z'
loop_
 _atom_site_type_symbol
 _atom_site_label
 _atom_site_symmetry_multiplicity
 _atom_site_fract_x
 _atom_site_fract_y
 _atom_site_fract_z
 _atom_site_occupancy
  Ho  Ho0  1  0.000000  0.000000  0.000000  1
  Ho  Ho1  1  0.515748  0.484252  0.696428  1
  Ho  Ho2  1  0.515748  0.031495  0.696428  1
  Ho  Ho3  1  0.968505  0.484252  0.696428  1
  Ho  Ho4  1  0.031495  0.515748  0.303572  1
  Ho  Ho5  1  0.484252  0.968505  0.303572  1
  Ho  Ho6  1  0.484252  0.515748  0.303572  1
  Sn  Sn7  1  0.666667  0.333333  0.177841  1
  Sn  Sn8  1  0.666667  0.333333  0.870890  1
  Sn  Sn9  1  0.333333  0.666667  0.129110  1
  Sn  Sn10  1  0.350630  0.350630  0.000000  1
  Sn  Sn11  1  0.000000  0.649370  0.000000  1
  Sn  Sn12  1  0.649370  0.000000  0.000000  1
  Sn  Sn13  1  0.649370  0.649370  0.000000  1
  Sn  Sn14  1  0.333333  0.666667  0.822159  1
  Sn  Sn15  1  0.440705  0.220352  0.460953  1
  Sn  Sn16  1  0.220352  0.779648  0.539047  1
  Sn  Sn17  1  0.220352  0.440705  0.539047  1
  Sn  Sn18  1  0.559295  0.779648  0.539047  1
  Sn  Sn19  1  0.119605  0.880395  0.272050  1
  Sn  Sn20  1  0.779648  0.559295  0.460953  1
  Sn  Sn21  1  0.779648  0.220352  0.460953  1
  Sn  Sn22  1  0.350630  0.000000  0.000000  1
  Sn  Sn23  1  0.119605  0.239212  0.272050  1
  Sn  Sn24  1  0.760788  0.880395  0.272050  1
  Sn  Sn25  1  0.239212  0.119605  0.727950  1
  Sn  Sn26  1  0.880395  0.760788  0.727950  1
  Sn  Sn27  1  0.880395  0.119605  0.727950  1
  Sn  Sn28  1  0.000000  0.350630  0.000000  1
  Bi  Bi29  1  0.000000  0.000000  0.500000  1
  Os  Os30  1  0.170218  0.829782  0.798739  1
  Os  Os31  1  0.170218  0.340436  0.798739  1
  Os  Os32  1  0.659564  0.829782  0.798739  1
  Os  Os33  1  0.340436  0.170218  0.201261  1
  Os  Os34  1  0.829782  0.659564  0.201261  1
  Os  Os35  1  0.829782  0.170218  0.201261  1
