# generated using pymatgen
data_Ho10Ga3CoBi2
_symmetry_space_group_name_H-M   'P 1'
_cell_length_a   8.57889783
_cell_length_b   8.57889816
_cell_length_c   8.73266280
_cell_angle_alpha   124.89979735
_cell_angle_beta   124.89980030
_cell_angle_gamma   80.51463097
_symmetry_Int_Tables_number   1
_chemical_formula_structural   Ho10Ga3CoBi2
_chemical_formula_sum   'Ho10 Ga3 Co1 Bi2'
_cell_volume   419.50190476
_cell_formula_units_Z   1
loop_
 _symmetry_equiv_pos_site_id
 _symmetry_equiv_pos_as_xyz
  1  'x, y, z'
loop_
 _atom_site_type_symbol
 _atom_site_label
 _atom_site_symmetry_multiplicity
 _atom_site_fract_x
 _atom_site_fract_y
 _atom_site_fract_z
 _atom_site_occupancy
  Ho  Ho0  1  0.702934  0.516988  0.500000  1
  Ho  Ho1  1  0.481504  0.000912  0.204935  1
  Ho  Ho2  1  0.776569  0.295977  0.795065  1
  Ho  Ho3  1  0.499088  0.018496  0.795065  1
  Ho  Ho4  1  0.997612  0.998407  0.996019  1
  Ho  Ho5  1  0.048391  0.191587  0.500000  1
  Ho  Ho6  1  0.308413  0.451609  0.500000  1
  Ho  Ho7  1  0.204023  0.723431  0.204935  1
  Ho  Ho8  1  0.983012  0.797066  0.500000  1
  Ho  Ho9  1  0.501593  0.502388  0.003981  1
  Ga  Ga10  1  0.139884  0.641257  0.781140  1
  Ga  Ga11  1  0.858743  0.360116  0.218860  1
  Ga  Ga12  1  0.632972  0.867028  0.500000  1
  Co  Co13  1  0.378650  0.121350  0.500000  1
  Bi  Bi14  1  0.243306  0.256694  0.000000  1
  Bi  Bi15  1  0.743306  0.756694  0.000000  1
