# generated using pymatgen
data_Eu13Th3(MgIr)4
_symmetry_space_group_name_H-M   'P 1'
_cell_length_a   10.31574338
_cell_length_b   10.34686553
_cell_length_c   10.34686500
_cell_angle_alpha   59.99999849
_cell_angle_beta   59.90014809
_cell_angle_gamma   59.90014965
_symmetry_Int_Tables_number   1
_chemical_formula_structural   Eu13Th3(MgIr)4
_chemical_formula_sum   'Eu13 Th3 Mg4 Ir4'
_cell_volume   779.73316088
_cell_formula_units_Z   1
loop_
 _symmetry_equiv_pos_site_id
 _symmetry_equiv_pos_as_xyz
  1  'x, y, z'
loop_
 _atom_site_type_symbol
 _atom_site_label
 _atom_site_symmetry_multiplicity
 _atom_site_fract_x
 _atom_site_fract_y
 _atom_site_fract_z
 _atom_site_occupancy
  Eu  Eu0  1  0.215430  0.594857  0.594857  1
  Eu  Eu1  1  0.058135  0.441986  0.441986  1
  Eu  Eu2  1  0.441540  0.058046  0.058046  1
  Eu  Eu3  1  0.441540  0.058046  0.442368  1
  Eu  Eu4  1  0.058135  0.441986  0.057895  1
  Eu  Eu5  1  0.441540  0.442368  0.058046  1
  Eu  Eu6  1  0.058135  0.057895  0.441986  1
  Eu  Eu7  1  0.190502  0.808524  0.808524  1
  Eu  Eu8  1  0.805534  0.193104  0.193104  1
  Eu  Eu9  1  0.805534  0.193104  0.808258  1
  Eu  Eu10  1  0.190502  0.808524  0.192451  1
  Eu  Eu11  1  0.805534  0.808258  0.193104  1
  Eu  Eu12  1  0.190502  0.192451  0.808524  1
  Th  Th13  1  0.589990  0.590513  0.590513  1
  Th  Th14  1  0.589990  0.590513  0.228984  1
  Th  Th15  1  0.589990  0.228984  0.590513  1
  Mg  Mg16  1  0.822469  0.828406  0.828406  1
  Mg  Mg17  1  0.822469  0.828406  0.520720  1
  Mg  Mg18  1  0.822469  0.520720  0.828406  1
  Mg  Mg19  1  0.516037  0.827988  0.827988  1
  Ir  Ir20  1  0.411697  0.387645  0.387645  1
  Ir  Ir21  1  0.411697  0.387645  0.813014  1
  Ir  Ir22  1  0.411697  0.813014  0.387645  1
  Ir  Ir23  1  0.808935  0.397021  0.397021  1
