# generated using pymatgen
data_Dy4Ho16CoBi8Os3
_symmetry_space_group_name_H-M   'P 1'
_cell_length_a   7.94549911
_cell_length_b   8.99655600
_cell_length_c   12.42379495
_cell_angle_alpha   90.00000000
_cell_angle_beta   89.75493968
_cell_angle_gamma   90.00000000
_symmetry_Int_Tables_number   1
_chemical_formula_structural   Dy4Ho16CoBi8Os3
_chemical_formula_sum   'Dy4 Ho16 Co1 Bi8 Os3'
_cell_volume   888.07117409
_cell_formula_units_Z   1
loop_
 _symmetry_equiv_pos_site_id
 _symmetry_equiv_pos_as_xyz
  1  'x, y, z'
loop_
 _atom_site_type_symbol
 _atom_site_label
 _atom_site_symmetry_multiplicity
 _atom_site_fract_x
 _atom_site_fract_y
 _atom_site_fract_z
 _atom_site_occupancy
  Dy  Dy0  1  0.344153  0.750000  0.701993  1
  Dy  Dy1  1  0.156555  0.750000  0.207146  1
  Dy  Dy2  1  0.878452  0.750000  0.805325  1
  Dy  Dy3  1  0.617437  0.750000  0.312211  1
  Ho  Ho4  1  0.658445  0.250000  0.292115  1
  Ho  Ho5  1  0.841957  0.250000  0.790947  1
  Ho  Ho6  1  0.120037  0.250000  0.193861  1
  Ho  Ho7  1  0.378317  0.250000  0.693071  1
  Ho  Ho8  1  0.675351  0.541753  0.563901  1
  Ho  Ho9  1  0.325277  0.459726  0.436909  1
  Ho  Ho10  1  0.174589  0.457216  0.936102  1
  Ho  Ho11  1  0.325277  0.040274  0.436909  1
  Ho  Ho12  1  0.824425  0.542892  0.064359  1
  Ho  Ho13  1  0.675351  0.958247  0.563901  1
  Ho  Ho14  1  0.824425  0.957108  0.064359  1
  Ho  Ho15  1  0.174589  0.042784  0.936102  1
  Ho  Ho16  1  0.055901  0.750000  0.496622  1
  Ho  Ho17  1  0.944706  0.250000  0.503149  1
  Ho  Ho18  1  0.558451  0.250000  0.003654  1
  Ho  Ho19  1  0.442147  0.750000  0.995454  1
  Co  Co20  1  0.429332  0.750000  0.491157  1
  Bi  Bi21  1  0.569922  0.508035  0.827541  1
  Bi  Bi22  1  0.429901  0.491783  0.172775  1
  Bi  Bi23  1  0.071371  0.491497  0.671611  1
  Bi  Bi24  1  0.429901  0.008217  0.172775  1
  Bi  Bi25  1  0.929471  0.508446  0.328769  1
  Bi  Bi26  1  0.569922  0.991965  0.827541  1
  Bi  Bi27  1  0.929471  0.991554  0.328769  1
  Bi  Bi28  1  0.071371  0.008503  0.671611  1
  Os  Os29  1  0.075692  0.750000  0.988914  1
  Os  Os30  1  0.923598  0.250000  0.010282  1
  Os  Os31  1  0.574205  0.250000  0.510164  1
