# generated using pymatgen
data_NdTh2CoSn3Ir2
_symmetry_space_group_name_H-M   'P 1'
_cell_length_a   7.55705500
_cell_length_b   7.59042135
_cell_length_c   4.04374900
_cell_angle_alpha   90.00000000
_cell_angle_beta   90.00000000
_cell_angle_gamma   119.85467093
_symmetry_Int_Tables_number   1
_chemical_formula_structural   NdTh2CoSn3Ir2
_chemical_formula_sum   'Nd1 Th2 Co1 Sn3 Ir2'
_cell_volume   201.17194914
_cell_formula_units_Z   1
loop_
 _symmetry_equiv_pos_site_id
 _symmetry_equiv_pos_as_xyz
  1  'x, y, z'
loop_
 _atom_site_type_symbol
 _atom_site_label
 _atom_site_symmetry_multiplicity
 _atom_site_fract_x
 _atom_site_fract_y
 _atom_site_fract_z
 _atom_site_occupancy
  Nd  Nd0  1  0.409230  0.000000  0.500000  1
  Th  Th1  1  0.001600  0.411606  0.500000  1
  Th  Th2  1  0.589995  0.588394  0.500000  1
  Co  Co3  1  0.987180  0.000000  0.500000  1
  Sn  Sn4  1  0.007043  0.763815  0.000000  1
  Sn  Sn5  1  0.243227  0.236185  0.000000  1
  Sn  Sn6  1  0.748304  0.000000  0.000000  1
  Ir  Ir7  1  0.331039  0.648657  0.000000  1
  Ir  Ir8  1  0.682383  0.351343  0.000000  1
