# generated using pymatgen
data_Y5Tm15Cd5InNi2
_symmetry_space_group_name_H-M   'P 1'
_cell_length_a   9.57037715
_cell_length_b   9.57037772
_cell_length_c   9.61187400
_cell_angle_alpha   90.00000000
_cell_angle_beta   90.00000000
_cell_angle_gamma   120.08104604
_symmetry_Int_Tables_number   1
_chemical_formula_structural   Y5Tm15Cd5InNi2
_chemical_formula_sum   'Y5 Tm15 Cd5 In1 Ni2'
_cell_volume   761.80106517
_cell_formula_units_Z   1
loop_
 _symmetry_equiv_pos_site_id
 _symmetry_equiv_pos_as_xyz
  1  'x, y, z'
loop_
 _atom_site_type_symbol
 _atom_site_label
 _atom_site_symmetry_multiplicity
 _atom_site_fract_x
 _atom_site_fract_y
 _atom_site_fract_z
 _atom_site_occupancy
  Y  Y0  1  0.539010  0.086620  0.250000  1
  Y  Y1  1  0.913380  0.460990  0.250000  1
  Y  Y2  1  0.456810  0.543190  0.750000  1
  Y  Y3  1  0.457565  0.914311  0.750000  1
  Y  Y4  1  0.085689  0.542435  0.750000  1
  Tm  Tm5  1  0.001791  0.998209  0.501914  1
  Tm  Tm6  1  0.001791  0.998209  0.998086  1
  Tm  Tm7  1  0.541901  0.458099  0.250000  1
  Tm  Tm8  1  0.210842  0.789158  0.437190  1
  Tm  Tm9  1  0.210889  0.420764  0.436162  1
  Tm  Tm10  1  0.579236  0.789111  0.436162  1
  Tm  Tm11  1  0.789508  0.210492  0.562931  1
  Tm  Tm12  1  0.788566  0.578371  0.563666  1
  Tm  Tm13  1  0.421629  0.211434  0.563666  1
  Tm  Tm14  1  0.789508  0.210492  0.937069  1
  Tm  Tm15  1  0.788566  0.578371  0.936334  1
  Tm  Tm16  1  0.421629  0.211434  0.936334  1
  Tm  Tm17  1  0.210842  0.789158  0.062810  1
  Tm  Tm18  1  0.210889  0.420764  0.063838  1
  Tm  Tm19  1  0.579236  0.789111  0.063838  1
  Cd  Cd20  1  0.884953  0.770104  0.250000  1
  Cd  Cd21  1  0.229896  0.115047  0.250000  1
  Cd  Cd22  1  0.115492  0.884508  0.750000  1
  Cd  Cd23  1  0.114283  0.229363  0.750000  1
  Cd  Cd24  1  0.770637  0.885717  0.750000  1
  In  In25  1  0.885121  0.114879  0.250000  1
  Ni  Ni26  1  0.333185  0.666815  0.250000  1
  Ni  Ni27  1  0.667157  0.332843  0.750000  1
