# generated using pymatgen
data_Pu2AlIr3
_symmetry_space_group_name_H-M   'P 1'
_cell_length_a   5.11988169
_cell_length_b   5.59376505
_cell_length_c   5.59376500
_cell_angle_alpha   59.99999439
_cell_angle_beta   56.88790190
_cell_angle_gamma   56.88791038
_symmetry_Int_Tables_number   1
_chemical_formula_structural   Pu2AlIr3
_chemical_formula_sum   'Pu2 Al1 Ir3'
_cell_volume   107.65531042
_cell_formula_units_Z   1
loop_
 _symmetry_equiv_pos_site_id
 _symmetry_equiv_pos_as_xyz
  1  'x, y, z'
loop_
 _atom_site_type_symbol
 _atom_site_label
 _atom_site_symmetry_multiplicity
 _atom_site_fract_x
 _atom_site_fract_y
 _atom_site_fract_z
 _atom_site_occupancy
  Pu  Pu0  1  0.992378  0.002540  0.002540  1
  Pu  Pu1  1  0.257622  0.247460  0.247460  1
  Al  Al2  1  0.125000  0.625000  0.625000  1
  Ir  Ir3  1  0.625000  0.625000  0.625000  1
  Ir  Ir4  1  0.625000  0.125000  0.625000  1
  Ir  Ir5  1  0.625000  0.625000  0.125000  1
