# generated using pymatgen
data_Yb3Pr7(Ga2Sn)2
_symmetry_space_group_name_H-M   'P 1'
_cell_length_a   8.08368500
_cell_length_b   8.09772600
_cell_length_c   14.58186700
_cell_angle_alpha   89.99754996
_cell_angle_beta   90.00000000
_cell_angle_gamma   90.00000000
_symmetry_Int_Tables_number   1
_chemical_formula_structural   Yb3Pr7(Ga2Sn)2
_chemical_formula_sum   'Yb6 Pr14 Ga8 Sn4'
_cell_volume   954.52122959
_cell_formula_units_Z   2
loop_
 _symmetry_equiv_pos_site_id
 _symmetry_equiv_pos_as_xyz
  1  'x, y, z'
loop_
 _atom_site_type_symbol
 _atom_site_label
 _atom_site_symmetry_multiplicity
 _atom_site_fract_x
 _atom_site_fract_y
 _atom_site_fract_z
 _atom_site_occupancy
  Yb  Yb0  1  0.830415  0.838549  0.608284  1
  Yb  Yb1  1  0.169585  0.838549  0.108284  1
  Yb  Yb2  1  0.996727  0.505260  0.741497  1
  Yb  Yb3  1  0.003273  0.505260  0.241497  1
  Yb  Yb4  1  0.498486  0.997963  0.253626  1
  Yb  Yb5  1  0.501514  0.997963  0.753626  1
  Pr  Pr6  1  0.171245  0.821840  0.391818  1
  Pr  Pr7  1  0.830839  0.176409  0.390665  1
  Pr  Pr8  1  0.672982  0.667446  0.395511  1
  Pr  Pr9  1  0.669181  0.322663  0.605736  1
  Pr  Pr10  1  0.330963  0.673957  0.606092  1
  Pr  Pr11  1  0.669037  0.673957  0.106092  1
  Pr  Pr12  1  0.673781  0.328852  0.895327  1
  Pr  Pr13  1  0.828755  0.821840  0.891818  1
  Pr  Pr14  1  0.326219  0.328852  0.395327  1
  Pr  Pr15  1  0.175968  0.171810  0.607415  1
  Pr  Pr16  1  0.824032  0.171810  0.107415  1
  Pr  Pr17  1  0.327018  0.667446  0.895511  1
  Pr  Pr18  1  0.330819  0.322663  0.105736  1
  Pr  Pr19  1  0.169161  0.176409  0.890665  1
  Ga  Ga20  1  0.617520  0.381439  0.249975  1
  Ga  Ga21  1  0.121303  0.881350  0.751342  1
  Ga  Ga22  1  0.382480  0.381439  0.749975  1
  Ga  Ga23  1  0.385080  0.614928  0.251898  1
  Ga  Ga24  1  0.878697  0.881350  0.251342  1
  Ga  Ga25  1  0.614920  0.614928  0.751898  1
  Ga  Ga26  1  0.881697  0.121031  0.750189  1
  Ga  Ga27  1  0.118303  0.121031  0.250189  1
  Sn  Sn28  1  0.997280  0.500122  0.503671  1
  Sn  Sn29  1  0.500133  0.996380  0.496957  1
  Sn  Sn30  1  0.499867  0.996380  0.996957  1
  Sn  Sn31  1  0.002720  0.500122  0.003671  1
