# generated using pymatgen
data_Yb4Ga5Tc2Ru
_symmetry_space_group_name_H-M   'P 1'
_cell_length_a   5.45513041
_cell_length_b   5.60214202
_cell_length_c   8.62760756
_cell_angle_alpha   89.99878886
_cell_angle_beta   89.46731100
_cell_angle_gamma   120.84708810
_symmetry_Int_Tables_number   1
_chemical_formula_structural   Yb4Ga5Tc2Ru
_chemical_formula_sum   'Yb4 Ga5 Tc2 Ru1'
_cell_volume   226.35184056
_cell_formula_units_Z   1
loop_
 _symmetry_equiv_pos_site_id
 _symmetry_equiv_pos_as_xyz
  1  'x, y, z'
loop_
 _atom_site_type_symbol
 _atom_site_label
 _atom_site_symmetry_multiplicity
 _atom_site_fract_x
 _atom_site_fract_y
 _atom_site_fract_z
 _atom_site_occupancy
  Yb  Yb0  1  0.671769  0.335641  0.559457  1
  Yb  Yb1  1  0.333798  0.666876  0.449058  1
  Yb  Yb2  1  0.335165  0.668036  0.052229  1
  Yb  Yb3  1  0.669097  0.334097  0.942178  1
  Ga  Ga4  1  0.165733  0.322843  0.750293  1
  Ga  Ga5  1  0.165750  0.842464  0.750297  1
  Ga  Ga6  1  0.675243  0.837726  0.749445  1
  Ga  Ga7  1  0.804342  0.656212  0.251765  1
  Ga  Ga8  1  0.804051  0.148263  0.251763  1
  Tc  Tc9  1  0.032104  0.016005  0.485029  1
  Tc  Tc10  1  0.318467  0.159620  0.248961  1
  Ru  Ru11  1  0.024481  0.012215  0.009525  1
