# generated using pymatgen
data_Zr5Sn2HgBi
_symmetry_space_group_name_H-M   'P 1'
_cell_length_a   8.87406059
_cell_length_b   8.86449363
_cell_length_c   6.00542000
_cell_angle_alpha   90.00000000
_cell_angle_beta   90.00000000
_cell_angle_gamma   119.96433638
_symmetry_Int_Tables_number   1
_chemical_formula_structural   Zr5Sn2HgBi
_chemical_formula_sum   'Zr10 Sn4 Hg2 Bi2'
_cell_volume   409.26659653
_cell_formula_units_Z   2
loop_
 _symmetry_equiv_pos_site_id
 _symmetry_equiv_pos_as_xyz
  1  'x, y, z'
loop_
 _atom_site_type_symbol
 _atom_site_label
 _atom_site_symmetry_multiplicity
 _atom_site_fract_x
 _atom_site_fract_y
 _atom_site_fract_z
 _atom_site_occupancy
  Zr  Zr0  1  0.327593  0.663797  0.000000  1
  Zr  Zr1  1  0.667826  0.333913  0.500000  1
  Zr  Zr2  1  0.667826  0.333913  0.000000  1
  Zr  Zr3  1  0.327593  0.663797  0.500000  1
  Zr  Zr4  1  0.277995  0.999179  0.250000  1
  Zr  Zr5  1  0.277995  0.278817  0.750000  1
  Zr  Zr6  1  0.005341  0.720173  0.750000  1
  Zr  Zr7  1  0.005341  0.285169  0.250000  1
  Zr  Zr8  1  0.721665  0.715878  0.250000  1
  Zr  Zr9  1  0.721665  0.005787  0.750000  1
  Sn  Sn10  1  0.999561  0.381742  0.750000  1
  Sn  Sn11  1  0.999561  0.617820  0.250000  1
  Sn  Sn12  1  0.381809  0.381133  0.250000  1
  Sn  Sn13  1  0.381809  0.000676  0.750000  1
  Hg  Hg14  1  0.000531  0.000266  0.000000  1
  Hg  Hg15  1  0.000531  0.000266  0.500000  1
  Bi  Bi16  1  0.617677  0.999048  0.250000  1
  Bi  Bi17  1  0.617677  0.618628  0.750000  1
