# generated using pymatgen
data_Ca2Cu3Ni4
_symmetry_space_group_name_H-M   'P 1'
_cell_length_a   5.01978146
_cell_length_b   5.01536989
_cell_length_c   12.48422720
_cell_angle_alpha   78.42239193
_cell_angle_beta   78.40193016
_cell_angle_gamma   59.97090242
_symmetry_Int_Tables_number   1
_chemical_formula_structural   Ca2Cu3Ni4
_chemical_formula_sum   'Ca4 Cu6 Ni8'
_cell_volume   264.69644208
_cell_formula_units_Z   2
loop_
 _symmetry_equiv_pos_site_id
 _symmetry_equiv_pos_as_xyz
  1  'x, y, z'
loop_
 _atom_site_type_symbol
 _atom_site_label
 _atom_site_symmetry_multiplicity
 _atom_site_fract_x
 _atom_site_fract_y
 _atom_site_fract_z
 _atom_site_occupancy
  Ca  Ca0  1  0.951279  0.951420  0.146020  1
  Ca  Ca1  1  0.051293  0.050782  0.846633  1
  Ca  Ca2  1  0.848586  0.851277  0.451553  1
  Ca  Ca3  1  0.146765  0.146212  0.560258  1
  Cu  Cu4  1  0.722280  0.721272  0.834168  1
  Cu  Cu5  1  0.281683  0.272905  0.163730  1
  Cu  Cu6  1  0.608660  0.619473  0.163207  1
  Cu  Cu7  1  0.388333  0.388737  0.834596  1
  Cu  Cu8  1  0.390942  0.388341  0.329407  1
  Cu  Cu9  1  0.891311  0.388341  0.329407  1
  Ni  Ni10  1  0.496171  0.505450  0.502209  1
  Ni  Ni11  1  0.999597  0.500006  0.999799  1
  Ni  Ni12  1  0.500280  0.000529  0.998911  1
  Ni  Ni13  1  0.500598  0.500006  0.999799  1
  Ni  Ni14  1  0.391193  0.886582  0.331032  1
  Ni  Ni15  1  0.610423  0.609392  0.669740  1
  Ni  Ni16  1  0.110444  0.609392  0.669740  1
  Ni  Ni17  1  0.610162  0.109882  0.669792  1
