# generated using pymatgen
data_Dy7Co5TcSn23
_symmetry_space_group_name_H-M   'P 1'
_cell_length_a   9.73654410
_cell_length_b   9.73654389
_cell_length_c   9.99575399
_cell_angle_alpha   90.08892491
_cell_angle_beta   89.91107740
_cell_angle_gamma   119.72940757
_symmetry_Int_Tables_number   1
_chemical_formula_structural   Dy7Co5TcSn23
_chemical_formula_sum   'Dy7 Co5 Tc1 Sn23'
_cell_volume   822.87313550
_cell_formula_units_Z   1
loop_
 _symmetry_equiv_pos_site_id
 _symmetry_equiv_pos_as_xyz
  1  'x, y, z'
loop_
 _atom_site_type_symbol
 _atom_site_label
 _atom_site_symmetry_multiplicity
 _atom_site_fract_x
 _atom_site_fract_y
 _atom_site_fract_z
 _atom_site_occupancy
  Dy  Dy0  1  0.995963  0.004037  0.004725  1
  Dy  Dy1  1  0.479872  0.520128  0.307225  1
  Dy  Dy2  1  0.520663  0.479337  0.693700  1
  Dy  Dy3  1  0.481371  0.959488  0.305849  1
  Dy  Dy4  1  0.519187  0.040603  0.694459  1
  Dy  Dy5  1  0.040512  0.518629  0.305849  1
  Dy  Dy6  1  0.959397  0.480813  0.694459  1
  Co  Co7  1  0.167596  0.832404  0.801618  1
  Co  Co8  1  0.832142  0.662544  0.196436  1
  Co  Co9  1  0.169864  0.337577  0.801504  1
  Co  Co10  1  0.337456  0.167858  0.196436  1
  Co  Co11  1  0.662423  0.830136  0.801504  1
  Tc  Tc12  1  0.833491  0.166509  0.199549  1
  Sn  Sn13  1  0.344045  0.998971  0.999399  1
  Sn  Sn14  1  0.650037  0.996882  0.995441  1
  Sn  Sn15  1  0.003118  0.349963  0.995441  1
  Sn  Sn16  1  0.001029  0.655955  0.999399  1
  Sn  Sn17  1  0.653265  0.653026  0.999639  1
  Sn  Sn18  1  0.346974  0.346735  0.999639  1
  Sn  Sn19  1  0.333003  0.666997  0.816984  1
  Sn  Sn20  1  0.665361  0.334639  0.183155  1
  Sn  Sn21  1  0.999585  0.000415  0.500812  1
  Sn  Sn22  1  0.779817  0.220183  0.458768  1
  Sn  Sn23  1  0.217519  0.782481  0.548080  1
  Sn  Sn24  1  0.781889  0.564028  0.451628  1
  Sn  Sn25  1  0.218832  0.436532  0.548075  1
  Sn  Sn26  1  0.435972  0.218111  0.451628  1
  Sn  Sn27  1  0.563468  0.781168  0.548075  1
  Sn  Sn28  1  0.332940  0.667060  0.117262  1
  Sn  Sn29  1  0.666874  0.333126  0.881422  1
  Sn  Sn30  1  0.117813  0.882187  0.272187  1
  Sn  Sn31  1  0.882861  0.117139  0.727040  1
  Sn  Sn32  1  0.126295  0.238004  0.273725  1
  Sn  Sn33  1  0.881476  0.764106  0.727581  1
  Sn  Sn34  1  0.761996  0.873705  0.273725  1
  Sn  Sn35  1  0.235894  0.118524  0.727581  1
