# generated using pymatgen
data_Yb2Pr17SmIr12
_symmetry_space_group_name_H-M   'P 1'
_cell_length_a   11.31619400
_cell_length_b   11.31619400
_cell_length_c   6.56439700
_cell_angle_alpha   90.00000000
_cell_angle_beta   90.00000000
_cell_angle_gamma   90.00000000
_symmetry_Int_Tables_number   1
_chemical_formula_structural   Yb2Pr17SmIr12
_chemical_formula_sum   'Yb2 Pr17 Sm1 Ir12'
_cell_volume   840.61204131
_cell_formula_units_Z   1
loop_
 _symmetry_equiv_pos_site_id
 _symmetry_equiv_pos_as_xyz
  1  'x, y, z'
loop_
 _atom_site_type_symbol
 _atom_site_label
 _atom_site_symmetry_multiplicity
 _atom_site_fract_x
 _atom_site_fract_y
 _atom_site_fract_z
 _atom_site_occupancy
  Yb  Yb0  1  0.000000  0.000000  0.500000  1
  Yb  Yb1  1  0.500000  0.500000  0.000000  1
  Pr  Pr2  1  0.285867  0.088373  0.385958  1
  Pr  Pr3  1  0.290569  0.911750  0.885168  1
  Pr  Pr4  1  0.709431  0.088250  0.885168  1
  Pr  Pr5  1  0.714133  0.911627  0.385958  1
  Pr  Pr6  1  0.588831  0.787664  0.885970  1
  Pr  Pr7  1  0.588344  0.207786  0.384677  1
  Pr  Pr8  1  0.411656  0.792214  0.384677  1
  Pr  Pr9  1  0.411169  0.212336  0.885970  1
  Pr  Pr10  1  0.207786  0.411656  0.615323  1
  Pr  Pr11  1  0.212336  0.588831  0.114030  1
  Pr  Pr12  1  0.787664  0.411169  0.114030  1
  Pr  Pr13  1  0.792214  0.588344  0.615323  1
  Pr  Pr14  1  0.911750  0.709431  0.114832  1
  Pr  Pr15  1  0.911627  0.285867  0.614042  1
  Pr  Pr16  1  0.088373  0.714133  0.614042  1
  Pr  Pr17  1  0.088250  0.290569  0.114832  1
  Pr  Pr18  1  0.500000  0.500000  0.500000  1
  Sm  Sm19  1  0.000000  0.000000  0.000000  1
  Ir  Ir20  1  0.848933  0.153470  0.243704  1
  Ir  Ir21  1  0.846530  0.848933  0.756296  1
  Ir  Ir22  1  0.153470  0.151067  0.756296  1
  Ir  Ir23  1  0.151067  0.846530  0.243704  1
  Ir  Ir24  1  0.655294  0.346145  0.745626  1
  Ir  Ir25  1  0.653855  0.655294  0.254374  1
  Ir  Ir26  1  0.346145  0.344706  0.254374  1
  Ir  Ir27  1  0.344706  0.653855  0.745626  1
  Ir  Ir28  1  0.500000  0.000000  0.117406  1
  Ir  Ir29  1  0.500000  0.000000  0.616540  1
  Ir  Ir30  1  0.000000  0.500000  0.882594  1
  Ir  Ir31  1  0.000000  0.500000  0.383460  1
