# generated using pymatgen
data_La11GaSi5Ni4
_symmetry_space_group_name_H-M   'P 1'
_cell_length_a   4.32357365
_cell_length_b   9.56641049
_cell_length_c   14.13487767
_cell_angle_alpha   105.44791170
_cell_angle_beta   89.91452376
_cell_angle_gamma   102.98226192
_symmetry_Int_Tables_number   1
_chemical_formula_structural   La11GaSi5Ni4
_chemical_formula_sum   'La11 Ga1 Si5 Ni4'
_cell_volume   548.04863509
_cell_formula_units_Z   1
loop_
 _symmetry_equiv_pos_site_id
 _symmetry_equiv_pos_as_xyz
  1  'x, y, z'
loop_
 _atom_site_type_symbol
 _atom_site_label
 _atom_site_symmetry_multiplicity
 _atom_site_fract_x
 _atom_site_fract_y
 _atom_site_fract_z
 _atom_site_occupancy
  La  La0  1  0.905893  0.810476  0.215007  1
  La  La1  1  0.855430  0.708211  0.650091  1
  La  La2  1  0.216583  0.432941  0.101094  1
  La  La3  1  0.548251  0.095355  0.124983  1
  La  La4  1  0.336580  0.675267  0.403690  1
  La  La5  1  0.452346  0.902687  0.877895  1
  La  La6  1  0.999504  0.998573  0.498302  1
  La  La7  1  0.139677  0.283952  0.349940  1
  La  La8  1  0.783755  0.566345  0.900652  1
  La  La9  1  0.663568  0.326675  0.593741  1
  La  La10  1  0.099103  0.197167  0.789287  1
  Ga  Ga11  1  0.487333  0.972152  0.652356  1
  Si  Si12  1  0.626441  0.252612  0.953628  1
  Si  Si13  1  0.262565  0.524062  0.733027  1
  Si  Si14  1  0.736269  0.474866  0.268534  1
  Si  Si15  1  0.373992  0.746524  0.048451  1
  Si  Si16  1  0.513632  0.028284  0.348167  1
  Ni  Ni17  1  0.750276  0.502199  0.445334  1
  Ni  Ni18  1  0.938729  0.874912  0.024792  1
  Ni  Ni19  1  0.062027  0.123932  0.977889  1
  Ni  Ni20  1  0.250642  0.499854  0.554661  1
