# generated using pymatgen
data_LuBi4Mo3F28
_symmetry_space_group_name_H-M   'P 1'
_cell_length_a   5.71290511
_cell_length_b   9.25374257
_cell_length_c   12.39653500
_cell_angle_alpha   62.24454912
_cell_angle_beta   89.85975174
_cell_angle_gamma   90.04905195
_symmetry_Int_Tables_number   1
_chemical_formula_structural   LuBi4Mo3F28
_chemical_formula_sum   'Lu1 Bi4 Mo3 F28'
_cell_volume   579.94631532
_cell_formula_units_Z   1
loop_
 _symmetry_equiv_pos_site_id
 _symmetry_equiv_pos_as_xyz
  1  'x, y, z'
loop_
 _atom_site_type_symbol
 _atom_site_label
 _atom_site_symmetry_multiplicity
 _atom_site_fract_x
 _atom_site_fract_y
 _atom_site_fract_z
 _atom_site_occupancy
  Lu  Lu0  1  0.755847  0.274157  0.956422  1
  Bi  Bi1  1  0.768348  0.801446  0.771836  1
  Bi  Bi2  1  0.263843  0.180936  0.745141  1
  Bi  Bi3  1  0.245439  0.188822  0.225591  1
  Bi  Bi4  1  0.734838  0.826722  0.256290  1
  Mo  Mo5  1  0.257291  0.729053  0.541095  1
  Mo  Mo6  1  0.241477  0.725132  0.044804  1
  Mo  Mo7  1  0.745404  0.274396  0.456009  1
  F  F8  1  0.426566  0.703685  0.918995  1
  F  F9  1  0.921713  0.297358  0.578986  1
  F  F10  1  0.545293  0.287505  0.093083  1
  F  F11  1  0.064578  0.711823  0.415786  1
  F  F12  1  0.451220  0.280785  0.534048  1
  F  F13  1  0.933239  0.727289  0.958124  1
  F  F14  1  0.557136  0.725469  0.451066  1
  F  F15  1  0.071385  0.272332  0.049203  1
  F  F16  1  0.786832  0.527625  0.861389  1
  F  F17  1  0.267330  0.488388  0.635189  1
  F  F18  1  0.218026  0.486192  0.143889  1
  F  F19  1  0.735862  0.504120  0.365110  1
  F  F20  1  0.761030  0.016513  0.063100  1
  F  F21  1  0.261993  0.970496  0.447102  1
  F  F22  1  0.248340  0.968196  0.948349  1
  F  F23  1  0.740771  0.043899  0.540826  1
  F  F24  1  0.962052  0.738285  0.632920  1
  F  F25  1  0.459872  0.269253  0.857941  1
  F  F26  1  0.034806  0.272167  0.374939  1
  F  F27  1  0.533733  0.719620  0.140704  1
  F  F28  1  0.058283  0.745824  0.172786  1
  F  F29  1  0.572059  0.256810  0.327883  1
  F  F30  1  0.954403  0.241177  0.826133  1
  F  F31  1  0.446103  0.747663  0.668827  1
  F  F32  1  0.395699  0.967822  0.225093  1
  F  F33  1  0.903324  0.034209  0.270895  1
  F  F34  1  0.589154  0.027772  0.769715  1
  F  F35  1  0.086709  0.967058  0.730734  1
