# generated using pymatgen
data_HoScTeO6
_symmetry_space_group_name_H-M   'P 1'
_cell_length_a   8.96097400
_cell_length_b   8.96097526
_cell_length_c   5.10190400
_cell_angle_alpha   90.00000000
_cell_angle_beta   90.00000000
_cell_angle_gamma   120.00000275
_symmetry_Int_Tables_number   1
_chemical_formula_structural   HoScTeO6
_chemical_formula_sum   'Ho3 Sc3 Te3 O18'
_cell_volume   354.79165596
_cell_formula_units_Z   3
loop_
 _symmetry_equiv_pos_site_id
 _symmetry_equiv_pos_as_xyz
  1  'x, y, z'
loop_
 _atom_site_type_symbol
 _atom_site_label
 _atom_site_symmetry_multiplicity
 _atom_site_fract_x
 _atom_site_fract_y
 _atom_site_fract_z
 _atom_site_occupancy
  Ho  Ho0  1  0.621624  0.000009  0.000008  1
  Ho  Ho1  1  0.000004  0.621606  0.000000  1
  Ho  Ho2  1  0.378378  0.378386  0.999996  1
  Sc  Sc3  1  0.288441  0.000014  0.500004  1
  Sc  Sc4  1  0.999996  0.288423  0.499984  1
  Sc  Sc5  1  0.711562  0.711580  0.500015  1
  Te  Te6  1  0.999991  0.000051  0.000007  1
  Te  Te7  1  0.333318  0.666641  0.499918  1
  Te  Te8  1  0.666647  0.333298  0.500082  1
  O  O9  1  0.092946  0.886344  0.784192  1
  O  O10  1  0.113626  0.206570  0.784196  1
  O  O11  1  0.793428  0.907026  0.784180  1
  O  O12  1  0.206577  0.113600  0.215809  1
  O  O13  1  0.907055  0.793404  0.215821  1
  O  O14  1  0.886371  0.092954  0.215808  1
  O  O15  1  0.464199  0.593202  0.714170  1
  O  O16  1  0.406792  0.870985  0.714168  1
  O  O17  1  0.129018  0.535818  0.714186  1
  O  O18  1  0.870980  0.406825  0.285822  1
  O  O19  1  0.535800  0.129005  0.285837  1
  O  O20  1  0.593221  0.464206  0.285817  1
  O  O21  1  0.228444  0.771079  0.285555  1
  O  O22  1  0.228957  0.457400  0.285603  1
  O  O23  1  0.542608  0.771565  0.285571  1
  O  O24  1  0.457398  0.228938  0.714408  1
  O  O25  1  0.771573  0.542636  0.714423  1
  O  O26  1  0.771047  0.228433  0.714421  1
