# generated using pymatgen
data_RbGaGeSe4
_symmetry_space_group_name_H-M   'P 1'
_cell_length_a   17.28569200
_cell_length_b   7.37550720
_cell_length_c   7.83866210
_cell_angle_alpha   69.57623076
_cell_angle_beta   90.00000000
_cell_angle_gamma   90.00000000
_symmetry_Int_Tables_number   1
_chemical_formula_structural   RbGaGeSe4
_chemical_formula_sum   'Rb4 Ga4 Ge4 Se16'
_cell_volume   936.53460953
_cell_formula_units_Z   4
loop_
 _symmetry_equiv_pos_site_id
 _symmetry_equiv_pos_as_xyz
  1  'x, y, z'
loop_
 _atom_site_type_symbol
 _atom_site_label
 _atom_site_symmetry_multiplicity
 _atom_site_fract_x
 _atom_site_fract_y
 _atom_site_fract_z
 _atom_site_occupancy
  Rb  Rb0  1  0.397152  0.972697  0.179584  1
  Rb  Rb1  1  0.897152  0.027303  0.820416  1
  Rb  Rb2  1  0.602296  0.515758  0.821265  1
  Rb  Rb3  1  0.102296  0.484242  0.178735  1
  Ga  Ga4  1  0.584128  0.166943  0.473043  1
  Ga  Ga5  1  0.084128  0.833057  0.526957  1
  Ga  Ga6  1  0.272632  0.595036  0.710232  1
  Ga  Ga7  1  0.772632  0.404964  0.289768  1
  Ge  Ge8  1  0.419789  0.332257  0.533992  1
  Ge  Ge9  1  0.919789  0.667743  0.466008  1
  Ge  Ge10  1  0.724737  0.909904  0.271870  1
  Ge  Ge11  1  0.224737  0.090096  0.728130  1
  Se  Se12  1  0.594334  0.886035  0.376858  1
  Se  Se13  1  0.094334  0.113965  0.623142  1
  Se  Se14  1  0.409835  0.607543  0.625519  1
  Se  Se15  1  0.909835  0.392457  0.374481  1
  Se  Se16  1  0.799187  0.778384  0.548941  1
  Se  Se17  1  0.299187  0.221616  0.451059  1
  Se  Se18  1  0.201779  0.727145  0.432272  1
  Se  Se19  1  0.701779  0.272855  0.567728  1
  Se  Se20  1  0.764034  0.225209  0.079417  1
  Se  Se21  1  0.264034  0.774791  0.920583  1
  Se  Se22  1  0.238027  0.272947  0.924010  1
  Se  Se23  1  0.738027  0.727053  0.075990  1
  Se  Se24  1  0.997365  0.913663  0.257185  1
  Se  Se25  1  0.497365  0.086337  0.742815  1
  Se  Se26  1  0.994703  0.596781  0.738266  1
  Se  Se27  1  0.494703  0.403219  0.261734  1
