# generated using pymatgen
data_Tm3Tc(P3Rh4)2
_symmetry_space_group_name_H-M   'P 1'
_cell_length_a   3.90553100
_cell_length_b   11.10915100
_cell_length_c   12.75262500
_cell_angle_alpha   90.00000000
_cell_angle_beta   90.00000000
_cell_angle_gamma   90.00000000
_symmetry_Int_Tables_number   1
_chemical_formula_structural   Tm3Tc(P3Rh4)2
_chemical_formula_sum   'Tm6 Tc2 P12 Rh16'
_cell_volume   553.29984481
_cell_formula_units_Z   2
loop_
 _symmetry_equiv_pos_site_id
 _symmetry_equiv_pos_as_xyz
  1  'x, y, z'
loop_
 _atom_site_type_symbol
 _atom_site_label
 _atom_site_symmetry_multiplicity
 _atom_site_fract_x
 _atom_site_fract_y
 _atom_site_fract_z
 _atom_site_occupancy
  Tm  Tm0  1  0.000000  0.500000  0.522075  1
  Tm  Tm1  1  0.500000  0.000000  0.477925  1
  Tm  Tm2  1  0.500000  0.815973  0.205477  1
  Tm  Tm3  1  0.500000  0.184027  0.205477  1
  Tm  Tm4  1  0.000000  0.684027  0.794523  1
  Tm  Tm5  1  0.000000  0.315973  0.794523  1
  Tc  Tc6  1  0.500000  0.500000  0.159010  1
  Tc  Tc7  1  0.000000  0.000000  0.840990  1
  P  P8  1  0.500000  0.500000  0.875528  1
  P  P9  1  0.000000  0.000000  0.124472  1
  P  P10  1  0.500000  0.500000  0.347864  1
  P  P11  1  0.000000  0.000000  0.652136  1
  P  P12  1  0.500000  0.315757  0.619207  1
  P  P13  1  0.500000  0.684243  0.619207  1
  P  P14  1  0.000000  0.184243  0.380793  1
  P  P15  1  0.000000  0.815757  0.380793  1
  P  P16  1  0.500000  0.848596  0.887831  1
  P  P17  1  0.500000  0.151404  0.887831  1
  P  P18  1  0.000000  0.651404  0.112169  1
  P  P19  1  0.000000  0.348596  0.112169  1
  Rh  Rh20  1  0.500000  0.500000  0.699742  1
  Rh  Rh21  1  0.000000  0.000000  0.300258  1
  Rh  Rh22  1  0.000000  0.500000  0.987825  1
  Rh  Rh23  1  0.500000  0.000000  0.012175  1
  Rh  Rh24  1  0.500000  0.331052  0.982818  1
  Rh  Rh25  1  0.500000  0.668948  0.982818  1
  Rh  Rh26  1  0.000000  0.168948  0.017182  1
  Rh  Rh27  1  0.000000  0.831052  0.017182  1
  Rh  Rh28  1  0.500000  0.297007  0.432634  1
  Rh  Rh29  1  0.500000  0.702993  0.432634  1
  Rh  Rh30  1  0.000000  0.202993  0.567366  1
  Rh  Rh31  1  0.000000  0.797007  0.567366  1
  Rh  Rh32  1  0.500000  0.874958  0.709067  1
  Rh  Rh33  1  0.500000  0.125042  0.709067  1
  Rh  Rh34  1  0.000000  0.625042  0.290933  1
  Rh  Rh35  1  0.000000  0.374958  0.290933  1
