# generated using pymatgen
data_RbBi(PS3)2
_symmetry_space_group_name_H-M   'P 1'
_cell_length_a   7.70563000
_cell_length_b   6.86157248
_cell_length_c   10.29285422
_cell_angle_alpha   87.70885560
_cell_angle_beta   90.00000000
_cell_angle_gamma   90.00000000
_symmetry_Int_Tables_number   1
_chemical_formula_structural   RbBi(PS3)2
_chemical_formula_sum   'Rb2 Bi2 P4 S12'
_cell_volume   543.77634186
_cell_formula_units_Z   2
loop_
 _symmetry_equiv_pos_site_id
 _symmetry_equiv_pos_as_xyz
  1  'x, y, z'
loop_
 _atom_site_type_symbol
 _atom_site_label
 _atom_site_symmetry_multiplicity
 _atom_site_fract_x
 _atom_site_fract_y
 _atom_site_fract_z
 _atom_site_occupancy
  Rb  Rb0  1  0.476979  0.703817  0.497708  1
  Rb  Rb1  1  0.976979  0.296183  0.502292  1
  Bi  Bi2  1  0.237351  0.208661  0.986457  1
  Bi  Bi3  1  0.737351  0.791339  0.013543  1
  P  P4  1  0.681654  0.309958  0.835378  1
  P  P5  1  0.958098  0.791298  0.289527  1
  P  P6  1  0.181654  0.690042  0.164622  1
  P  P7  1  0.458098  0.208702  0.710473  1
  S  S8  1  0.769569  0.566934  0.760054  1
  S  S9  1  0.533821  0.185887  0.527872  1
  S  S10  1  0.771993  0.587126  0.259021  1
  S  S11  1  0.569271  0.341417  0.016873  1
  S  S12  1  0.382753  0.958486  0.813570  1
  S  S13  1  0.271993  0.412874  0.740979  1
  S  S14  1  0.069271  0.658583  0.983127  1
  S  S15  1  0.882753  0.041514  0.186430  1
  S  S16  1  0.033821  0.814113  0.472128  1
  S  S17  1  0.367401  0.906184  0.164090  1
  S  S18  1  0.867401  0.093816  0.835910  1
  S  S19  1  0.269569  0.433066  0.239946  1
