# generated using pymatgen
data_Tb4LuSn3
_symmetry_space_group_name_H-M   'P 1'
_cell_length_a   8.98268100
_cell_length_b   8.98268130
_cell_length_c   6.53552300
_cell_angle_alpha   90.00000000
_cell_angle_beta   90.00000000
_cell_angle_gamma   120.00000257
_symmetry_Int_Tables_number   1
_chemical_formula_structural   Tb4LuSn3
_chemical_formula_sum   'Tb8 Lu2 Sn6'
_cell_volume   456.69150818
_cell_formula_units_Z   2
loop_
 _symmetry_equiv_pos_site_id
 _symmetry_equiv_pos_as_xyz
  1  'x, y, z'
loop_
 _atom_site_type_symbol
 _atom_site_label
 _atom_site_symmetry_multiplicity
 _atom_site_fract_x
 _atom_site_fract_y
 _atom_site_fract_z
 _atom_site_occupancy
  Tb  Tb0  1  0.666667  0.333333  0.000000  1
  Tb  Tb1  1  0.333333  0.666667  0.000000  1
  Tb  Tb2  1  0.760117  0.760117  0.749131  1
  Tb  Tb3  1  0.239883  0.000000  0.749131  1
  Tb  Tb4  1  0.000000  0.239883  0.749131  1
  Tb  Tb5  1  0.239883  0.239883  0.250869  1
  Tb  Tb6  1  0.760117  0.000000  0.250869  1
  Tb  Tb7  1  0.000000  0.760117  0.250869  1
  Lu  Lu8  1  0.333333  0.666667  0.500000  1
  Lu  Lu9  1  0.666667  0.333333  0.500000  1
  Sn  Sn10  1  0.395437  0.395437  0.746780  1
  Sn  Sn11  1  0.604563  0.000000  0.746780  1
  Sn  Sn12  1  0.000000  0.604563  0.746780  1
  Sn  Sn13  1  0.604563  0.604563  0.253220  1
  Sn  Sn14  1  0.395437  0.000000  0.253220  1
  Sn  Sn15  1  0.000000  0.395437  0.253220  1
