# generated using pymatgen
data_Ho2Tm17Lu(CoSb2)4
_symmetry_space_group_name_H-M   'P 1'
_cell_length_a   7.75032423
_cell_length_b   8.69816014
_cell_length_c   12.02485234
_cell_angle_alpha   90.01406453
_cell_angle_beta   89.97662933
_cell_angle_gamma   89.98523037
_symmetry_Int_Tables_number   1
_chemical_formula_structural   Ho2Tm17Lu(CoSb2)4
_chemical_formula_sum   'Ho2 Tm17 Lu1 Co4 Sb8'
_cell_volume   810.63800079
_cell_formula_units_Z   1
loop_
 _symmetry_equiv_pos_site_id
 _symmetry_equiv_pos_as_xyz
  1  'x, y, z'
loop_
 _atom_site_type_symbol
 _atom_site_label
 _atom_site_symmetry_multiplicity
 _atom_site_fract_x
 _atom_site_fract_y
 _atom_site_fract_z
 _atom_site_occupancy
  Ho  Ho0  1  0.377364  0.249999  0.692326  1
  Ho  Ho1  1  0.877227  0.750206  0.807832  1
  Tm  Tm2  1  0.156599  0.750118  0.203803  1
  Tm  Tm3  1  0.656868  0.249951  0.296111  1
  Tm  Tm4  1  0.843438  0.249950  0.796365  1
  Tm  Tm5  1  0.343412  0.750012  0.703810  1
  Tm  Tm6  1  0.450356  0.750126  0.998089  1
  Tm  Tm7  1  0.950200  0.249994  0.501888  1
  Tm  Tm8  1  0.549633  0.249802  0.002139  1
  Tm  Tm9  1  0.049179  0.750034  0.497888  1
  Tm  Tm10  1  0.622018  0.749982  0.308396  1
  Tm  Tm11  1  0.121643  0.249894  0.191382  1
  Tm  Tm12  1  0.323669  0.036527  0.434225  1
  Tm  Tm13  1  0.176677  0.462389  0.934871  1
  Tm  Tm14  1  0.676719  0.537677  0.565172  1
  Tm  Tm15  1  0.176419  0.037666  0.934940  1
  Tm  Tm16  1  0.676753  0.962344  0.565191  1
  Tm  Tm17  1  0.823730  0.536375  0.065757  1
  Tm  Tm18  1  0.323644  0.463497  0.434229  1
  Lu  Lu19  1  0.824699  0.963545  0.065637  1
  Co  Co20  1  0.432003  0.750006  0.490559  1
  Co  Co21  1  0.931732  0.249713  0.009451  1
  Co  Co22  1  0.568207  0.249993  0.508917  1
  Co  Co23  1  0.067578  0.750331  0.991265  1
  Sb  Sb24  1  0.930838  0.991606  0.327320  1
  Sb  Sb25  1  0.431301  0.008286  0.172432  1
  Sb  Sb26  1  0.069075  0.491514  0.672329  1
  Sb  Sb27  1  0.569079  0.508516  0.827710  1
  Sb  Sb28  1  0.069103  0.008466  0.672311  1
  Sb  Sb29  1  0.568956  0.991465  0.827682  1
  Sb  Sb30  1  0.930918  0.508375  0.327431  1
  Sb  Sb31  1  0.430964  0.491640  0.172543  1
