# generated using pymatgen
data_Tb3Ho9Tc3Ir
_symmetry_space_group_name_H-M   'P 1'
_cell_length_a   6.28201326
_cell_length_b   7.38657945
_cell_length_c   9.11597600
_cell_angle_alpha   90.00000000
_cell_angle_beta   90.00000000
_cell_angle_gamma   89.96340950
_symmetry_Int_Tables_number   1
_chemical_formula_structural   Tb3Ho9Tc3Ir
_chemical_formula_sum   'Tb3 Ho9 Tc3 Ir1'
_cell_volume   423.00481125
_cell_formula_units_Z   1
loop_
 _symmetry_equiv_pos_site_id
 _symmetry_equiv_pos_as_xyz
  1  'x, y, z'
loop_
 _atom_site_type_symbol
 _atom_site_label
 _atom_site_symmetry_multiplicity
 _atom_site_fract_x
 _atom_site_fract_y
 _atom_site_fract_z
 _atom_site_occupancy
  Tb  Tb0  1  0.874672  0.541225  0.250000  1
  Tb  Tb1  1  0.624961  0.038840  0.250000  1
  Tb  Tb2  1  0.130813  0.457860  0.750000  1
  Ho  Ho3  1  0.333484  0.676264  0.064301  1
  Ho  Ho4  1  0.163001  0.175765  0.436892  1
  Ho  Ho5  1  0.664388  0.322714  0.561756  1
  Ho  Ho6  1  0.835556  0.825170  0.937576  1
  Ho  Ho7  1  0.664388  0.322714  0.938244  1
  Ho  Ho8  1  0.835556  0.825170  0.562424  1
  Ho  Ho9  1  0.333484  0.676264  0.435699  1
  Ho  Ho10  1  0.163001  0.175765  0.063108  1
  Ho  Ho11  1  0.370960  0.960045  0.750000  1
  Tc  Tc12  1  0.039960  0.883202  0.250000  1
  Tc  Tc13  1  0.461961  0.385978  0.250000  1
  Tc  Tc14  1  0.960348  0.116243  0.750000  1
  Ir  Ir15  1  0.543468  0.616782  0.750000  1
