# generated using pymatgen
data_Ho4Zn2Ga14Co3
_symmetry_space_group_name_H-M   'P 1'
_cell_length_a   6.01758700
_cell_length_b   6.01758700
_cell_length_c   11.04756700
_cell_angle_alpha   90.00000000
_cell_angle_beta   90.00000000
_cell_angle_gamma   90.00000000
_symmetry_Int_Tables_number   1
_chemical_formula_structural   Ho4Zn2Ga14Co3
_chemical_formula_sum   'Ho4 Zn2 Ga14 Co3'
_cell_volume   400.04735177
_cell_formula_units_Z   1
loop_
 _symmetry_equiv_pos_site_id
 _symmetry_equiv_pos_as_xyz
  1  'x, y, z'
loop_
 _atom_site_type_symbol
 _atom_site_label
 _atom_site_symmetry_multiplicity
 _atom_site_fract_x
 _atom_site_fract_y
 _atom_site_fract_z
 _atom_site_occupancy
  Ho  Ho0  1  0.000000  0.500000  0.193344  1
  Ho  Ho1  1  0.000000  0.500000  0.806656  1
  Ho  Ho2  1  0.500000  0.000000  0.806656  1
  Ho  Ho3  1  0.500000  0.000000  0.193344  1
  Zn  Zn4  1  0.500000  0.500000  0.199291  1
  Zn  Zn5  1  0.500000  0.500000  0.800709  1
  Ga  Ga6  1  0.000000  0.000000  0.217148  1
  Ga  Ga7  1  0.000000  0.000000  0.782852  1
  Ga  Ga8  1  0.281247  0.281247  0.000000  1
  Ga  Ga9  1  0.718753  0.718753  0.000000  1
  Ga  Ga10  1  0.281247  0.718753  0.000000  1
  Ga  Ga11  1  0.718753  0.281247  0.000000  1
  Ga  Ga12  1  0.251773  0.251773  0.382842  1
  Ga  Ga13  1  0.748227  0.748227  0.382842  1
  Ga  Ga14  1  0.251773  0.748227  0.617158  1
  Ga  Ga15  1  0.748227  0.251773  0.617158  1
  Ga  Ga16  1  0.748227  0.748227  0.617158  1
  Ga  Ga17  1  0.251773  0.251773  0.617158  1
  Ga  Ga18  1  0.251773  0.748227  0.382842  1
  Ga  Ga19  1  0.748227  0.251773  0.382842  1
  Co  Co20  1  0.000000  0.500000  0.500000  1
  Co  Co21  1  0.500000  0.000000  0.500000  1
  Co  Co22  1  0.000000  0.000000  0.000000  1
