# generated using pymatgen
data_Tm5TiRuO12
_symmetry_space_group_name_H-M   'P 1'
_cell_length_a   6.72978236
_cell_length_b   6.72978074
_cell_length_c   7.17051900
_cell_angle_alpha   74.41775252
_cell_angle_beta   74.41775636
_cell_angle_gamma   51.27623111
_symmetry_Int_Tables_number   1
_chemical_formula_structural   Tm5TiRuO12
_chemical_formula_sum   'Tm5 Ti1 Ru1 O12'
_cell_volume   241.85460263
_cell_formula_units_Z   1
loop_
 _symmetry_equiv_pos_site_id
 _symmetry_equiv_pos_as_xyz
  1  'x, y, z'
loop_
 _atom_site_type_symbol
 _atom_site_label
 _atom_site_symmetry_multiplicity
 _atom_site_fract_x
 _atom_site_fract_y
 _atom_site_fract_z
 _atom_site_occupancy
  Tm  Tm0  1  0.695270  0.688687  0.670654  1
  Tm  Tm1  1  0.696450  0.702064  0.138938  1
  Tm  Tm2  1  0.997677  0.002323  0.000000  1
  Tm  Tm3  1  0.297936  0.303550  0.861062  1
  Tm  Tm4  1  0.311313  0.304730  0.329346  1
  Ti  Ti5  1  0.236446  0.763554  0.500000  1
  Ru  Ru6  1  0.752031  0.247969  0.500000  1
  O  O7  1  0.401597  0.902845  0.926365  1
  O  O8  1  0.570629  0.094768  0.586105  1
  O  O9  1  0.905232  0.429371  0.413895  1
  O  O10  1  0.097155  0.598403  0.073635  1
  O  O11  1  0.999174  0.000117  0.312320  1
  O  O12  1  0.503359  0.496948  0.690522  1
  O  O13  1  0.900943  0.403241  0.928031  1
  O  O14  1  0.102732  0.567638  0.584053  1
  O  O15  1  0.432362  0.897268  0.415947  1
  O  O16  1  0.596759  0.099057  0.071969  1
  O  O17  1  0.503052  0.496641  0.309478  1
  O  O18  1  0.999883  0.000826  0.687680  1
