# generated using pymatgen
data_ZrSiNi3Pd
_symmetry_space_group_name_H-M   'P 1'
_cell_length_a   4.75493857
_cell_length_b   4.75493900
_cell_length_c   4.75493894
_cell_angle_alpha   62.25089787
_cell_angle_beta   62.25089216
_cell_angle_gamma   62.25090235
_symmetry_Int_Tables_number   1
_chemical_formula_structural   ZrSiNi3Pd
_chemical_formula_sum   'Zr1 Si1 Ni3 Pd1'
_cell_volume   79.83889068
_cell_formula_units_Z   1
loop_
 _symmetry_equiv_pos_site_id
 _symmetry_equiv_pos_as_xyz
  1  'x, y, z'
loop_
 _atom_site_type_symbol
 _atom_site_label
 _atom_site_symmetry_multiplicity
 _atom_site_fract_x
 _atom_site_fract_y
 _atom_site_fract_z
 _atom_site_occupancy
  Zr  Zr0  1  0.747192  0.747192  0.747192  1
  Si  Si1  1  0.128069  0.128069  0.128069  1
  Ni  Ni2  1  0.624432  0.126418  0.126418  1
  Ni  Ni3  1  0.126418  0.624432  0.126418  1
  Ni  Ni4  1  0.126418  0.126418  0.624432  1
  Pd  Pd5  1  0.497473  0.497473  0.497473  1
