# generated using pymatgen
data_Lu8Sc11Si16Tc
_symmetry_space_group_name_H-M   'P 1'
_cell_length_a   6.95007345
_cell_length_b   7.28467656
_cell_length_c   13.77308100
_cell_angle_alpha   90.00000000
_cell_angle_beta   90.00000000
_cell_angle_gamma   90.12063756
_symmetry_Int_Tables_number   1
_chemical_formula_structural   Lu8Sc11Si16Tc
_chemical_formula_sum   'Lu8 Sc11 Si16 Tc1'
_cell_volume   697.31628420
_cell_formula_units_Z   1
loop_
 _symmetry_equiv_pos_site_id
 _symmetry_equiv_pos_as_xyz
  1  'x, y, z'
loop_
 _atom_site_type_symbol
 _atom_site_label
 _atom_site_symmetry_multiplicity
 _atom_site_fract_x
 _atom_site_fract_y
 _atom_site_fract_z
 _atom_site_occupancy
  Lu  Lu0  1  0.011993  0.178870  0.093081  1
  Lu  Lu1  1  0.992801  0.817185  0.900951  1
  Lu  Lu2  1  0.487773  0.673471  0.902878  1
  Lu  Lu3  1  0.992801  0.817185  0.599049  1
  Lu  Lu4  1  0.511445  0.322298  0.094957  1
  Lu  Lu5  1  0.011993  0.178870  0.406919  1
  Lu  Lu6  1  0.511445  0.322298  0.405043  1
  Lu  Lu7  1  0.487773  0.673471  0.597122  1
  Sc  Sc8  1  0.841400  0.495696  0.250000  1
  Sc  Sc9  1  0.342046  0.004572  0.250000  1
  Sc  Sc10  1  0.656877  0.993967  0.750000  1
  Sc  Sc11  1  0.326122  0.178314  0.627580  1
  Sc  Sc12  1  0.672068  0.824310  0.374534  1
  Sc  Sc13  1  0.172266  0.674279  0.376749  1
  Sc  Sc14  1  0.672068  0.824310  0.125466  1
  Sc  Sc15  1  0.827236  0.330747  0.628533  1
  Sc  Sc16  1  0.326122  0.178314  0.872420  1
  Sc  Sc17  1  0.827236  0.330747  0.871467  1
  Sc  Sc18  1  0.172266  0.674279  0.123251  1
  Si  Si19  1  0.028274  0.114713  0.750000  1
  Si  Si20  1  0.973300  0.888815  0.250000  1
  Si  Si21  1  0.469690  0.612558  0.250000  1
  Si  Si22  1  0.517894  0.398472  0.750000  1
  Si  Si23  1  0.284304  0.857688  0.750000  1
  Si  Si24  1  0.717926  0.132859  0.250000  1
  Si  Si25  1  0.215038  0.367861  0.250000  1
  Si  Si26  1  0.793761  0.632472  0.750000  1
  Si  Si27  1  0.157441  0.467353  0.547532  1
  Si  Si28  1  0.841002  0.535048  0.463458  1
  Si  Si29  1  0.343717  0.965665  0.463081  1
  Si  Si30  1  0.841002  0.535048  0.036542  1
  Si  Si31  1  0.660145  0.033978  0.539809  1
  Si  Si32  1  0.157441  0.467353  0.952468  1
  Si  Si33  1  0.660145  0.033978  0.960191  1
  Si  Si34  1  0.343717  0.965665  0.036919  1
  Tc  Tc35  1  0.151466  0.497283  0.750000  1
