# generated using pymatgen
data_Y10Lu2InCo4Rh
_symmetry_space_group_name_H-M   'P 1'
_cell_length_a   8.32189527
_cell_length_b   8.33081325
_cell_length_c   8.32189357
_cell_angle_alpha   110.92387038
_cell_angle_beta   110.37711650
_cell_angle_gamma   107.09621605
_symmetry_Int_Tables_number   1
_chemical_formula_structural   Y10Lu2InCo4Rh
_chemical_formula_sum   'Y10 Lu2 In1 Co4 Rh1'
_cell_volume   443.78893591
_cell_formula_units_Z   1
loop_
 _symmetry_equiv_pos_site_id
 _symmetry_equiv_pos_as_xyz
  1  'x, y, z'
loop_
 _atom_site_type_symbol
 _atom_site_label
 _atom_site_symmetry_multiplicity
 _atom_site_fract_x
 _atom_site_fract_y
 _atom_site_fract_z
 _atom_site_occupancy
  Y  Y0  1  0.406527  0.210525  0.193724  1
  Y  Y1  1  0.593473  0.789475  0.806276  1
  Y  Y2  1  0.016802  0.210525  0.803997  1
  Y  Y3  1  0.983198  0.789475  0.196003  1
  Y  Y4  1  0.186049  0.291902  0.479687  1
  Y  Y5  1  0.813951  0.708098  0.520313  1
  Y  Y6  1  0.187786  0.708098  0.894147  1
  Y  Y7  1  0.812214  0.291902  0.105853  1
  Y  Y8  1  0.314566  0.619406  0.304841  1
  Y  Y9  1  0.685434  0.380594  0.695159  1
  Lu  Lu10  1  0.314568  0.006845  0.692276  1
  Lu  Lu11  1  0.685432  0.993155  0.307724  1
  In  In12  1  0.500000  0.500000  0.000000  1
  Co  Co13  1  0.382385  0.000000  0.382385  1
  Co  Co14  1  0.617615  0.000000  0.617615  1
  Co  Co15  1  0.111550  0.612718  0.501168  1
  Co  Co16  1  0.888450  0.387282  0.498832  1
  Rh  Rh17  1  0.000000  0.000000  0.000000  1
