# generated using pymatgen
data_DyEr3(PbO4)3
_symmetry_space_group_name_H-M   'P 1'
_cell_length_a   6.44990404
_cell_length_b   6.52886553
_cell_length_c   6.72607476
_cell_angle_alpha   100.50323240
_cell_angle_beta   98.38930421
_cell_angle_gamma   99.59636586
_symmetry_Int_Tables_number   1
_chemical_formula_structural   DyEr3(PbO4)3
_chemical_formula_sum   'Dy1 Er3 Pb3 O12'
_cell_volume   270.01809392
_cell_formula_units_Z   1
loop_
 _symmetry_equiv_pos_site_id
 _symmetry_equiv_pos_as_xyz
  1  'x, y, z'
loop_
 _atom_site_type_symbol
 _atom_site_label
 _atom_site_symmetry_multiplicity
 _atom_site_fract_x
 _atom_site_fract_y
 _atom_site_fract_z
 _atom_site_occupancy
  Dy  Dy0  1  0.394180  0.699503  0.863618  1
  Er  Er1  1  0.694883  0.868934  0.389277  1
  Er  Er2  1  0.606113  0.299882  0.137255  1
  Er  Er3  1  0.305857  0.130999  0.610986  1
  Pb  Pb4  1  0.000310  0.001065  0.000378  1
  Pb  Pb5  1  0.848876  0.397432  0.672782  1
  Pb  Pb6  1  0.150587  0.601848  0.326548  1
  O  O7  1  0.042355  0.676527  0.889509  1
  O  O8  1  0.680637  0.936691  0.066365  1
  O  O9  1  0.921937  0.074614  0.684392  1
  O  O10  1  0.954940  0.324854  0.108711  1
  O  O11  1  0.320184  0.067046  0.936199  1
  O  O12  1  0.078528  0.924918  0.315118  1
  O  O13  1  0.575508  0.182886  0.425934  1
  O  O14  1  0.177239  0.422275  0.580091  1
  O  O15  1  0.425140  0.584932  0.176745  1
  O  O16  1  0.424597  0.818169  0.572666  1
  O  O17  1  0.822122  0.576309  0.418187  1
  O  O18  1  0.576007  0.411114  0.825239  1
