# generated using pymatgen
data_Mn3Fe3W6N
_symmetry_space_group_name_H-M   'P 1'
_cell_length_a   7.73381726
_cell_length_b   7.74686871
_cell_length_c   7.73381600
_cell_angle_alpha   60.05571191
_cell_angle_beta   59.99999683
_cell_angle_gamma   60.05571051
_symmetry_Int_Tables_number   1
_chemical_formula_structural   Mn3Fe3W6N
_chemical_formula_sum   'Mn6 Fe6 W12 N2'
_cell_volume   327.91714512
_cell_formula_units_Z   2
loop_
 _symmetry_equiv_pos_site_id
 _symmetry_equiv_pos_as_xyz
  1  'x, y, z'
loop_
 _atom_site_type_symbol
 _atom_site_label
 _atom_site_symmetry_multiplicity
 _atom_site_fract_x
 _atom_site_fract_y
 _atom_site_fract_z
 _atom_site_occupancy
  Mn  Mn0  1  0.922944  0.231171  0.922944  1
  Mn  Mn1  1  0.327056  0.018829  0.327056  1
  Mn  Mn2  1  0.125000  0.125000  0.625000  1
  Mn  Mn3  1  0.125000  0.625000  0.125000  1
  Mn  Mn4  1  0.125000  0.125000  0.125000  1
  Mn  Mn5  1  0.625000  0.125000  0.125000  1
  Fe  Fe6  1  0.328610  0.330106  0.328610  1
  Fe  Fe7  1  0.012672  0.330106  0.328610  1
  Fe  Fe8  1  0.921390  0.919894  0.237328  1
  Fe  Fe9  1  0.237328  0.919894  0.921390  1
  Fe  Fe10  1  0.328610  0.330106  0.012672  1
  Fe  Fe11  1  0.921390  0.919894  0.921390  1
  W  W12  1  0.302836  0.695979  0.698349  1
  W  W13  1  0.302864  0.301665  0.697735  1
  W  W14  1  0.552265  0.948335  0.552265  1
  W  W15  1  0.947164  0.554021  0.551651  1
  W  W16  1  0.552265  0.948335  0.947136  1
  W  W17  1  0.697735  0.301665  0.302864  1
  W  W18  1  0.947164  0.554021  0.947164  1
  W  W19  1  0.302836  0.695979  0.302836  1
  W  W20  1  0.551651  0.554021  0.947164  1
  W  W21  1  0.697735  0.301665  0.697735  1
  W  W22  1  0.698349  0.695979  0.302836  1
  W  W23  1  0.947136  0.948335  0.552265  1
  N  N24  1  0.750033  0.749900  0.750033  1
  N  N25  1  0.499967  0.500100  0.499967  1
