# generated using pymatgen
data_Zr3Al2PtN
_symmetry_space_group_name_H-M   'P 1'
_cell_length_a   8.63473487
_cell_length_b   8.63473528
_cell_length_c   8.63473600
_cell_angle_alpha   60.00000490
_cell_angle_beta   60.00000332
_cell_angle_gamma   59.99999937
_symmetry_Int_Tables_number   1
_chemical_formula_structural   Zr3Al2PtN
_chemical_formula_sum   'Zr12 Al8 Pt4 N4'
_cell_volume   455.23131113
_cell_formula_units_Z   4
loop_
 _symmetry_equiv_pos_site_id
 _symmetry_equiv_pos_as_xyz
  1  'x, y, z'
loop_
 _atom_site_type_symbol
 _atom_site_label
 _atom_site_symmetry_multiplicity
 _atom_site_fract_x
 _atom_site_fract_y
 _atom_site_fract_z
 _atom_site_occupancy
  Zr  Zr0  1  0.811566  0.188434  0.188434  1
  Zr  Zr1  1  0.188434  0.811566  0.188434  1
  Zr  Zr2  1  0.811566  0.811566  0.188434  1
  Zr  Zr3  1  0.188434  0.811566  0.811566  1
  Zr  Zr4  1  0.811566  0.188434  0.811566  1
  Zr  Zr5  1  0.188434  0.188434  0.811566  1
  Zr  Zr6  1  0.438434  0.061566  0.061566  1
  Zr  Zr7  1  0.061566  0.438434  0.061566  1
  Zr  Zr8  1  0.438434  0.438434  0.061566  1
  Zr  Zr9  1  0.061566  0.438434  0.438434  1
  Zr  Zr10  1  0.438434  0.061566  0.438434  1
  Zr  Zr11  1  0.061566  0.061566  0.438434  1
  Al  Al12  1  0.419172  0.419172  0.742483  1
  Al  Al13  1  0.419172  0.419172  0.419172  1
  Al  Al14  1  0.742483  0.419172  0.419172  1
  Al  Al15  1  0.419172  0.742483  0.419172  1
  Al  Al16  1  0.830828  0.830828  0.507517  1
  Al  Al17  1  0.830828  0.830828  0.830828  1
  Al  Al18  1  0.507517  0.830828  0.830828  1
  Al  Al19  1  0.830828  0.507517  0.830828  1
  Pt  Pt20  1  0.625000  0.625000  0.125000  1
  Pt  Pt21  1  0.625000  0.625000  0.625000  1
  Pt  Pt22  1  0.125000  0.625000  0.625000  1
  Pt  Pt23  1  0.625000  0.125000  0.625000  1
  N  N24  1  0.125000  0.125000  0.625000  1
  N  N25  1  0.125000  0.125000  0.125000  1
  N  N26  1  0.625000  0.125000  0.125000  1
  N  N27  1  0.125000  0.625000  0.125000  1
