# generated using pymatgen
data_Nd2GdY5(WO6)4
_symmetry_space_group_name_H-M   'P 1'
_cell_length_a   5.47393800
_cell_length_b   7.79584799
_cell_length_c   11.56571843
_cell_angle_alpha   75.80097751
_cell_angle_beta   90.00000000
_cell_angle_gamma   90.00000000
_symmetry_Int_Tables_number   1
_chemical_formula_structural   Nd2GdY5(WO6)4
_chemical_formula_sum   'Nd2 Gd1 Y5 W4 O24'
_cell_volume   478.47699072
_cell_formula_units_Z   1
loop_
 _symmetry_equiv_pos_site_id
 _symmetry_equiv_pos_as_xyz
  1  'x, y, z'
loop_
 _atom_site_type_symbol
 _atom_site_label
 _atom_site_symmetry_multiplicity
 _atom_site_fract_x
 _atom_site_fract_y
 _atom_site_fract_z
 _atom_site_occupancy
  Nd  Nd0  1  0.315805  0.500000  0.750000  1
  Nd  Nd1  1  0.684924  0.500000  0.250000  1
  Gd  Gd2  1  0.258599  0.000000  0.750000  1
  Y  Y3  1  0.186057  0.795969  0.077561  1
  Y  Y4  1  0.741024  0.000000  0.250000  1
  Y  Y5  1  0.186057  0.204031  0.422439  1
  Y  Y6  1  0.813529  0.204432  0.923485  1
  Y  Y7  1  0.813529  0.795568  0.576515  1
  W  W8  1  0.746287  0.725974  0.885109  1
  W  W9  1  0.253984  0.727271  0.384440  1
  W  W10  1  0.746287  0.274026  0.614891  1
  W  W11  1  0.253984  0.272729  0.115560  1
  O  O12  1  0.853383  0.360345  0.454008  1
  O  O13  1  0.468948  0.844483  0.931818  1
  O  O14  1  0.853383  0.639655  0.045992  1
  O  O15  1  0.013543  0.284442  0.728847  1
  O  O16  1  0.986297  0.283071  0.229221  1
  O  O17  1  0.147739  0.358869  0.954602  1
  O  O18  1  0.648376  0.492860  0.887726  1
  O  O19  1  0.531639  0.153803  0.069520  1
  O  O20  1  0.147739  0.641131  0.545398  1
  O  O21  1  0.013543  0.715558  0.771153  1
  O  O22  1  0.455504  0.206667  0.272148  1
  O  O23  1  0.043521  0.940477  0.395489  1
  O  O24  1  0.468948  0.155517  0.568182  1
  O  O25  1  0.986297  0.716929  0.270779  1
  O  O26  1  0.953355  0.060143  0.602802  1
  O  O27  1  0.546764  0.208874  0.771943  1
  O  O28  1  0.546764  0.791126  0.728057  1
  O  O29  1  0.043521  0.059523  0.104511  1
  O  O30  1  0.648376  0.507140  0.612274  1
  O  O31  1  0.350896  0.505894  0.113025  1
  O  O32  1  0.455504  0.793333  0.227852  1
  O  O33  1  0.350896  0.494106  0.386975  1
  O  O34  1  0.531639  0.846197  0.430480  1
  O  O35  1  0.953355  0.939857  0.897198  1
