# generated using pymatgen
data_NdTmMn3Ni9P7
_symmetry_space_group_name_H-M   'P 1'
_cell_length_a   9.14809200
_cell_length_b   9.14809244
_cell_length_c   3.68435900
_cell_angle_alpha   90.00000000
_cell_angle_beta   90.00000000
_cell_angle_gamma   119.99999937
_symmetry_Int_Tables_number   1
_chemical_formula_structural   NdTmMn3Ni9P7
_chemical_formula_sum   'Nd1 Tm1 Mn3 Ni9 P7'
_cell_volume   267.02605723
_cell_formula_units_Z   1
loop_
 _symmetry_equiv_pos_site_id
 _symmetry_equiv_pos_as_xyz
  1  'x, y, z'
loop_
 _atom_site_type_symbol
 _atom_site_label
 _atom_site_symmetry_multiplicity
 _atom_site_fract_x
 _atom_site_fract_y
 _atom_site_fract_z
 _atom_site_occupancy
  Nd  Nd0  1  0.000000  0.000000  0.000000  1
  Tm  Tm1  1  0.666667  0.333333  0.500000  1
  Mn  Mn2  1  0.453327  0.567585  0.500000  1
  Mn  Mn3  1  0.432415  0.885743  0.500000  1
  Mn  Mn4  1  0.114257  0.546673  0.500000  1
  Ni  Ni5  1  0.702444  0.601693  0.000000  1
  Ni  Ni6  1  0.398307  0.100751  0.000000  1
  Ni  Ni7  1  0.899249  0.297556  0.000000  1
  Ni  Ni8  1  0.210354  0.390637  0.000000  1
  Ni  Ni9  1  0.609363  0.819717  0.000000  1
  Ni  Ni10  1  0.180283  0.789646  0.000000  1
  Ni  Ni11  1  0.287108  0.234778  0.500000  1
  Ni  Ni12  1  0.765222  0.052329  0.500000  1
  Ni  Ni13  1  0.947671  0.712892  0.500000  1
  P  P14  1  0.446152  0.369830  0.000000  1
  P  P15  1  0.630170  0.076323  0.000000  1
  P  P16  1  0.923677  0.553848  0.000000  1
  P  P17  1  0.041337  0.265985  0.500000  1
  P  P18  1  0.734015  0.775353  0.500000  1
  P  P19  1  0.224647  0.958663  0.500000  1
  P  P20  1  0.333333  0.666667  0.000000  1
