# generated using pymatgen
data_Zr6Al16Pd6Rh
_symmetry_space_group_name_H-M   'P 1'
_cell_length_a   8.78934607
_cell_length_b   8.78934503
_cell_length_c   8.78934500
_cell_angle_alpha   59.99999636
_cell_angle_beta   60.00000027
_cell_angle_gamma   60.00000062
_symmetry_Int_Tables_number   1
_chemical_formula_structural   Zr6Al16Pd6Rh
_chemical_formula_sum   'Zr6 Al16 Pd6 Rh1'
_cell_volume   480.12529054
_cell_formula_units_Z   1
loop_
 _symmetry_equiv_pos_site_id
 _symmetry_equiv_pos_as_xyz
  1  'x, y, z'
loop_
 _atom_site_type_symbol
 _atom_site_label
 _atom_site_symmetry_multiplicity
 _atom_site_fract_x
 _atom_site_fract_y
 _atom_site_fract_z
 _atom_site_occupancy
  Zr  Zr0  1  0.688020  0.688020  0.311980  1
  Zr  Zr1  1  0.311980  0.688020  0.311980  1
  Zr  Zr2  1  0.688020  0.311980  0.311980  1
  Zr  Zr3  1  0.311980  0.311980  0.688020  1
  Zr  Zr4  1  0.688020  0.311980  0.688020  1
  Zr  Zr5  1  0.311980  0.688020  0.688020  1
  Al  Al6  1  0.881316  0.881316  0.356050  1
  Al  Al7  1  0.881316  0.356050  0.881316  1
  Al  Al8  1  0.356050  0.881316  0.881316  1
  Al  Al9  1  0.881316  0.881316  0.881316  1
  Al  Al10  1  0.118684  0.118684  0.643950  1
  Al  Al11  1  0.118684  0.643950  0.118684  1
  Al  Al12  1  0.643950  0.118684  0.118684  1
  Al  Al13  1  0.118684  0.118684  0.118684  1
  Al  Al14  1  0.665796  0.665796  0.002610  1
  Al  Al15  1  0.665796  0.002610  0.665796  1
  Al  Al16  1  0.002610  0.665796  0.665796  1
  Al  Al17  1  0.665796  0.665796  0.665796  1
  Al  Al18  1  0.334204  0.334204  0.997390  1
  Al  Al19  1  0.334204  0.997390  0.334204  1
  Al  Al20  1  0.997390  0.334204  0.334204  1
  Al  Al21  1  0.334204  0.334204  0.334204  1
  Pd  Pd22  1  0.000000  0.000000  0.500000  1
  Pd  Pd23  1  0.500000  0.000000  0.500000  1
  Pd  Pd24  1  0.000000  0.500000  0.500000  1
  Pd  Pd25  1  0.500000  0.500000  0.000000  1
  Pd  Pd26  1  0.000000  0.500000  0.000000  1
  Pd  Pd27  1  0.500000  0.000000  0.000000  1
  Rh  Rh28  1  0.000000  0.000000  0.000000  1
