# generated using pymatgen
data_TlHg3(Pt2O7)2
_symmetry_space_group_name_H-M   'P 1'
_cell_length_a   7.34625757
_cell_length_b   7.34625715
_cell_length_c   7.34625800
_cell_angle_alpha   59.41511410
_cell_angle_beta   59.41511605
_cell_angle_gamma   59.41511583
_symmetry_Int_Tables_number   1
_chemical_formula_structural   TlHg3(Pt2O7)2
_chemical_formula_sum   'Tl1 Hg3 Pt4 O14'
_cell_volume   276.60801875
_cell_formula_units_Z   1
loop_
 _symmetry_equiv_pos_site_id
 _symmetry_equiv_pos_as_xyz
  1  'x, y, z'
loop_
 _atom_site_type_symbol
 _atom_site_label
 _atom_site_symmetry_multiplicity
 _atom_site_fract_x
 _atom_site_fract_y
 _atom_site_fract_z
 _atom_site_occupancy
  Tl  Tl0  1  0.125000  0.125000  0.125000  1
  Hg  Hg1  1  0.625000  0.125000  0.125000  1
  Hg  Hg2  1  0.125000  0.625000  0.125000  1
  Hg  Hg3  1  0.125000  0.125000  0.625000  1
  Pt  Pt4  1  0.625000  0.625000  0.125000  1
  Pt  Pt5  1  0.625000  0.625000  0.625000  1
  Pt  Pt6  1  0.625000  0.125000  0.625000  1
  Pt  Pt7  1  0.125000  0.625000  0.625000  1
  O  O8  1  0.714945  0.293579  0.293579  1
  O  O9  1  0.703043  0.295448  0.703043  1
  O  O10  1  0.994121  0.994121  0.994121  1
  O  O11  1  0.293579  0.714945  0.293579  1
  O  O12  1  0.703043  0.703043  0.295448  1
  O  O13  1  0.954552  0.546957  0.546957  1
  O  O14  1  0.295448  0.703043  0.703043  1
  O  O15  1  0.255879  0.255879  0.255879  1
  O  O16  1  0.956421  0.535055  0.956421  1
  O  O17  1  0.546957  0.954552  0.546957  1
  O  O18  1  0.546957  0.546957  0.954552  1
  O  O19  1  0.956421  0.956421  0.535055  1
  O  O20  1  0.535055  0.956421  0.956421  1
  O  O21  1  0.293579  0.293579  0.714945  1
