# generated using pymatgen
data_Pr3Nd(Ga12Pt)2
_symmetry_space_group_name_H-M   'P 1'
_cell_length_a   6.19085574
_cell_length_b   6.19085625
_cell_length_c   15.56274700
_cell_angle_alpha   90.00000000
_cell_angle_beta   90.00000000
_cell_angle_gamma   89.96919967
_symmetry_Int_Tables_number   1
_chemical_formula_structural   Pr3Nd(Ga12Pt)2
_chemical_formula_sum   'Pr3 Nd1 Ga24 Pt2'
_cell_volume   596.46861734
_cell_formula_units_Z   1
loop_
 _symmetry_equiv_pos_site_id
 _symmetry_equiv_pos_as_xyz
  1  'x, y, z'
loop_
 _atom_site_type_symbol
 _atom_site_label
 _atom_site_symmetry_multiplicity
 _atom_site_fract_x
 _atom_site_fract_y
 _atom_site_fract_z
 _atom_site_occupancy
  Pr  Pr0  1  0.750000  0.250000  0.246036  1
  Pr  Pr1  1  0.250000  0.750000  0.245950  1
  Pr  Pr2  1  0.250000  0.750000  0.753957  1
  Nd  Nd3  1  0.750000  0.250000  0.754572  1
  Ga  Ga4  1  0.250000  0.250000  0.185842  1
  Ga  Ga5  1  0.750000  0.750000  0.185842  1
  Ga  Ga6  1  0.750000  0.750000  0.813827  1
  Ga  Ga7  1  0.250000  0.250000  0.813827  1
  Ga  Ga8  1  0.250000  0.250000  0.345943  1
  Ga  Ga9  1  0.750000  0.750000  0.345943  1
  Ga  Ga10  1  0.750000  0.750000  0.654129  1
  Ga  Ga11  1  0.250000  0.250000  0.654129  1
  Ga  Ga12  1  0.500111  0.000111  0.911685  1
  Ga  Ga13  1  0.999737  0.000263  0.911524  1
  Ga  Ga14  1  0.500263  0.499737  0.911524  1
  Ga  Ga15  1  0.999889  0.499889  0.911685  1
  Ga  Ga16  1  0.499963  0.999963  0.087860  1
  Ga  Ga17  1  0.000192  0.999808  0.088015  1
  Ga  Ga18  1  0.499808  0.500192  0.088015  1
  Ga  Ga19  1  0.000037  0.500037  0.087860  1
  Ga  Ga20  1  0.581396  0.081396  0.431817  1
  Ga  Ga21  1  0.080791  0.919209  0.431812  1
  Ga  Ga22  1  0.419209  0.580791  0.431812  1
  Ga  Ga23  1  0.918604  0.418604  0.431817  1
  Ga  Ga24  1  0.418045  0.918045  0.568481  1
  Ga  Ga25  1  0.917748  0.082252  0.569044  1
  Ga  Ga26  1  0.582252  0.417748  0.569044  1
  Ga  Ga27  1  0.081955  0.581955  0.568481  1
  Pt  Pt28  1  0.750000  0.250000  0.999895  1
  Pt  Pt29  1  0.250000  0.750000  0.999635  1
