# generated using pymatgen
data_Ca6RuAuO12
_symmetry_space_group_name_H-M   'P 1'
_cell_length_a   6.60249859
_cell_length_b   6.60249773
_cell_length_c   6.60249900
_cell_angle_alpha   91.96576388
_cell_angle_beta   91.96577231
_cell_angle_gamma   91.96577434
_symmetry_Int_Tables_number   1
_chemical_formula_structural   Ca6RuAuO12
_chemical_formula_sum   'Ca6 Ru1 Au1 O12'
_cell_volume   287.30253000
_cell_formula_units_Z   1
loop_
 _symmetry_equiv_pos_site_id
 _symmetry_equiv_pos_as_xyz
  1  'x, y, z'
loop_
 _atom_site_type_symbol
 _atom_site_label
 _atom_site_symmetry_multiplicity
 _atom_site_fract_x
 _atom_site_fract_y
 _atom_site_fract_z
 _atom_site_occupancy
  Ca  Ca0  1  0.931414  0.433318  0.748725  1
  Ca  Ca1  1  0.748725  0.931414  0.433318  1
  Ca  Ca2  1  0.566682  0.251275  0.068586  1
  Ca  Ca3  1  0.433318  0.748725  0.931414  1
  Ca  Ca4  1  0.251275  0.068586  0.566682  1
  Ca  Ca5  1  0.068586  0.566682  0.251275  1
  Ru  Ru6  1  0.500000  0.500000  0.500000  1
  Au  Au7  1  0.000000  0.000000  0.000000  1
  O  O8  1  0.926215  0.293472  0.070818  1
  O  O9  1  0.929182  0.073785  0.706528  1
  O  O10  1  0.778515  0.573949  0.452998  1
  O  O11  1  0.706528  0.929182  0.073785  1
  O  O12  1  0.573949  0.452998  0.778515  1
  O  O13  1  0.547002  0.221485  0.426051  1
  O  O14  1  0.452998  0.778515  0.573949  1
  O  O15  1  0.426051  0.547002  0.221485  1
  O  O16  1  0.293472  0.070818  0.926215  1
  O  O17  1  0.221485  0.426051  0.547002  1
  O  O18  1  0.070818  0.926215  0.293472  1
  O  O19  1  0.073785  0.706528  0.929182  1
