# generated using pymatgen
data_Tb2Th(MgPt)3
_symmetry_space_group_name_H-M   'P 1'
_cell_length_a   7.51634722
_cell_length_b   7.61307650
_cell_length_c   4.02001100
_cell_angle_alpha   90.00000000
_cell_angle_beta   90.00000000
_cell_angle_gamma   120.42663250
_symmetry_Int_Tables_number   1
_chemical_formula_structural   Tb2Th(MgPt)3
_chemical_formula_sum   'Tb2 Th1 Mg3 Pt3'
_cell_volume   198.35436235
_cell_formula_units_Z   1
loop_
 _symmetry_equiv_pos_site_id
 _symmetry_equiv_pos_as_xyz
  1  'x, y, z'
loop_
 _atom_site_type_symbol
 _atom_site_label
 _atom_site_symmetry_multiplicity
 _atom_site_fract_x
 _atom_site_fract_y
 _atom_site_fract_z
 _atom_site_occupancy
  Tb  Tb0  1  0.408120  0.410409  0.500000  1
  Tb  Tb1  1  0.591880  0.002289  0.500000  1
  Th  Th2  1  0.000000  0.585968  0.500000  1
  Mg  Mg3  1  0.746086  0.754764  0.000000  1
  Mg  Mg4  1  0.253914  0.008678  0.000000  1
  Mg  Mg5  1  0.000000  0.235634  0.000000  1
  Pt  Pt6  1  0.675033  0.341377  0.000000  1
  Pt  Pt7  1  0.324967  0.666344  0.000000  1
  Pt  Pt8  1  0.000000  0.994538  0.500000  1
