# generated using pymatgen
data_Mg4Sn2PdPt9
_symmetry_space_group_name_H-M   'P 1'
_cell_length_a   4.12552400
_cell_length_b   5.65400638
_cell_length_c   11.16356185
_cell_angle_alpha   89.73387961
_cell_angle_beta   90.00000000
_cell_angle_gamma   90.00000000
_symmetry_Int_Tables_number   1
_chemical_formula_structural   Mg4Sn2PdPt9
_chemical_formula_sum   'Mg4 Sn2 Pd1 Pt9'
_cell_volume   260.39552124
_cell_formula_units_Z   1
loop_
 _symmetry_equiv_pos_site_id
 _symmetry_equiv_pos_as_xyz
  1  'x, y, z'
loop_
 _atom_site_type_symbol
 _atom_site_label
 _atom_site_symmetry_multiplicity
 _atom_site_fract_x
 _atom_site_fract_y
 _atom_site_fract_z
 _atom_site_occupancy
  Mg  Mg0  1  0.500000  0.194031  0.138462  1
  Mg  Mg1  1  0.500000  0.805969  0.861538  1
  Mg  Mg2  1  0.500000  0.306594  0.638858  1
  Mg  Mg3  1  0.500000  0.693406  0.361142  1
  Sn  Sn4  1  0.000000  0.000000  0.500000  1
  Sn  Sn5  1  0.000000  0.500000  0.000000  1
  Pd  Pd6  1  0.000000  0.500000  0.500000  1
  Pt  Pt7  1  0.500000  0.215430  0.382030  1
  Pt  Pt8  1  0.500000  0.784570  0.617970  1
  Pt  Pt9  1  0.500000  0.284041  0.882560  1
  Pt  Pt10  1  0.500000  0.715959  0.117440  1
  Pt  Pt11  1  0.000000  0.451771  0.246376  1
  Pt  Pt12  1  0.000000  0.548229  0.753624  1
  Pt  Pt13  1  0.000000  0.048151  0.746295  1
  Pt  Pt14  1  0.000000  0.951849  0.253705  1
  Pt  Pt15  1  0.000000  0.000000  0.000000  1
