# generated using pymatgen
data_Pr7As12Pd16Rh
_symmetry_space_group_name_H-M   'P 1'
_cell_length_a   12.79442581
_cell_length_b   12.79442637
_cell_length_c   13.99978802
_cell_angle_alpha   68.68798724
_cell_angle_beta   68.68798550
_cell_angle_gamma   18.90722517
_symmetry_Int_Tables_number   1
_chemical_formula_structural   Pr7As12Pd16Rh
_chemical_formula_sum   'Pr7 As12 Pd16 Rh1'
_cell_volume   690.35987847
_cell_formula_units_Z   1
loop_
 _symmetry_equiv_pos_site_id
 _symmetry_equiv_pos_as_xyz
  1  'x, y, z'
loop_
 _atom_site_type_symbol
 _atom_site_label
 _atom_site_symmetry_multiplicity
 _atom_site_fract_x
 _atom_site_fract_y
 _atom_site_fract_z
 _atom_site_occupancy
  Pr  Pr0  1  0.500092  0.500092  0.500282  1
  Pr  Pr1  1  0.366402  0.366402  0.003531  1
  Pr  Pr2  1  0.632636  0.632636  0.999865  1
  Pr  Pr3  1  0.234336  0.234336  0.311659  1
  Pr  Pr4  1  0.767042  0.767042  0.686552  1
  Pr  Pr5  1  0.416996  0.416996  0.260212  1
  Pr  Pr6  1  0.581279  0.581279  0.739650  1
  As  As7  1  0.061836  0.061836  0.925101  1
  As  As8  1  0.937023  0.937023  0.076811  1
  As  As9  1  0.885060  0.885060  0.829082  1
  As  As10  1  0.115238  0.115238  0.171433  1
  As  As11  1  0.189199  0.189199  0.619485  1
  As  As12  1  0.811733  0.811733  0.376073  1
  As  As13  1  0.365746  0.365746  0.579166  1
  As  As14  1  0.634544  0.634544  0.420232  1
  As  As15  1  0.011545  0.011545  0.668559  1
  As  As16  1  0.988233  0.988233  0.330605  1
  As  As17  1  0.233515  0.233515  0.883649  1
  As  As18  1  0.767230  0.767230  0.118446  1
  Pd  Pd19  1  0.161637  0.161637  0.806427  1
  Pd  Pd20  1  0.024868  0.024868  0.127356  1
  Pd  Pd21  1  0.975079  0.975079  0.872679  1
  Pd  Pd22  1  0.887653  0.887653  0.459294  1
  Pd  Pd23  1  0.112341  0.112341  0.540504  1
  Pd  Pd24  1  0.498995  0.498995  0.000909  1
  Pd  Pd25  1  0.547857  0.547857  0.254448  1
  Pd  Pd26  1  0.451740  0.451740  0.746533  1
  Pd  Pd27  1  0.295172  0.295172  0.488497  1
  Pd  Pd28  1  0.705537  0.705537  0.509373  1
  Pd  Pd29  1  0.663876  0.663876  0.224416  1
  Pd  Pd30  1  0.336125  0.336125  0.775570  1
  Pd  Pd31  1  0.909443  0.909443  0.638538  1
  Pd  Pd32  1  0.090570  0.090570  0.361711  1
  Pd  Pd33  1  0.220478  0.220478  0.071937  1
  Pd  Pd34  1  0.780177  0.780177  0.929518  1
  Rh  Rh35  1  0.838765  0.838765  0.191897  1
