# generated using pymatgen
data_Hf2Zr7NiMo4
_symmetry_space_group_name_H-M   'P 1'
_cell_length_a   8.46945808
_cell_length_b   8.77977489
_cell_length_c   8.78692131
_cell_angle_alpha   120.02661308
_cell_angle_beta   90.00545948
_cell_angle_gamma   89.94733392
_symmetry_Int_Tables_number   1
_chemical_formula_structural   Hf2Zr7NiMo4
_chemical_formula_sum   'Hf4 Zr14 Ni2 Mo8'
_cell_volume   565.70448688
_cell_formula_units_Z   2
loop_
 _symmetry_equiv_pos_site_id
 _symmetry_equiv_pos_as_xyz
  1  'x, y, z'
loop_
 _atom_site_type_symbol
 _atom_site_label
 _atom_site_symmetry_multiplicity
 _atom_site_fract_x
 _atom_site_fract_y
 _atom_site_fract_z
 _atom_site_occupancy
  Hf  Hf0  1  0.057646  0.603922  0.801972  1
  Hf  Hf1  1  0.942491  0.799925  0.601738  1
  Hf  Hf2  1  0.942459  0.799932  0.198185  1
  Hf  Hf3  1  0.941755  0.398272  0.199124  1
  Zr  Zr4  1  0.557348  0.800531  0.601139  1
  Zr  Zr5  1  0.557294  0.800527  0.199377  1
  Zr  Zr6  1  0.557363  0.398814  0.199414  1
  Zr  Zr7  1  0.443066  0.199391  0.398716  1
  Zr  Zr8  1  0.443129  0.199402  0.800702  1
  Zr  Zr9  1  0.442600  0.601374  0.800684  1
  Zr  Zr10  1  0.056198  0.199785  0.398686  1
  Zr  Zr11  1  0.056239  0.199774  0.801092  1
  Zr  Zr12  1  0.752664  0.458126  0.914942  1
  Zr  Zr13  1  0.752676  0.458123  0.543175  1
  Zr  Zr14  1  0.751998  0.084069  0.542028  1
  Zr  Zr15  1  0.247760  0.543444  0.085767  1
  Zr  Zr16  1  0.247738  0.543448  0.457683  1
  Zr  Zr17  1  0.248036  0.913857  0.456934  1
  Ni  Ni18  1  0.753816  0.666777  0.333364  1
  Ni  Ni19  1  0.248585  0.335269  0.667652  1
  Mo  Mo20  1  0.750597  0.110033  0.220686  1
  Mo  Mo21  1  0.750640  0.110043  0.889323  1
  Mo  Mo22  1  0.751305  0.778172  0.889088  1
  Mo  Mo23  1  0.249000  0.888540  0.778690  1
  Mo  Mo24  1  0.248936  0.888522  0.109873  1
  Mo  Mo25  1  0.248760  0.220543  0.110275  1
  Mo  Mo26  1  0.500363  0.000018  0.000014  1
  Mo  Mo27  1  0.999537  0.999366  0.999677  1
