# generated using pymatgen
data_Pr3InPd3Pb2
_symmetry_space_group_name_H-M   'P 1'
_cell_length_a   7.94694527
_cell_length_b   7.87735614
_cell_length_c   4.08908800
_cell_angle_alpha   90.00000000
_cell_angle_beta   90.00000000
_cell_angle_gamma   119.71075714
_symmetry_Int_Tables_number   1
_chemical_formula_structural   Pr3InPd3Pb2
_chemical_formula_sum   'Pr3 In1 Pd3 Pb2'
_cell_volume   222.32905557
_cell_formula_units_Z   1
loop_
 _symmetry_equiv_pos_site_id
 _symmetry_equiv_pos_as_xyz
  1  'x, y, z'
loop_
 _atom_site_type_symbol
 _atom_site_label
 _atom_site_symmetry_multiplicity
 _atom_site_fract_x
 _atom_site_fract_y
 _atom_site_fract_z
 _atom_site_occupancy
  Pr  Pr0  1  0.406846  0.409822  0.500000  1
  Pr  Pr1  1  0.593154  0.002976  0.500000  1
  Pr  Pr2  1  0.000000  0.585637  0.500000  1
  In  In3  1  0.000000  0.255770  0.000000  1
  Pd  Pd4  1  0.671614  0.331549  0.000000  1
  Pd  Pd5  1  0.328386  0.659937  0.000000  1
  Pd  Pd6  1  0.000000  0.005771  0.500000  1
  Pb  Pb7  1  0.743912  0.746225  0.000000  1
  Pb  Pb8  1  0.256088  0.002313  0.000000  1
