# generated using pymatgen
data_UNi2(AsO5)2
_symmetry_space_group_name_H-M   'P 1'
_cell_length_a   5.39763964
_cell_length_b   5.82475382
_cell_length_c   7.91692429
_cell_angle_alpha   111.58413763
_cell_angle_beta   113.08113799
_cell_angle_gamma   90.00000130
_symmetry_Int_Tables_number   1
_chemical_formula_structural   UNi2(AsO5)2
_chemical_formula_sum   'U1 Ni2 As2 O10'
_cell_volume   209.87829451
_cell_formula_units_Z   1
loop_
 _symmetry_equiv_pos_site_id
 _symmetry_equiv_pos_as_xyz
  1  'x, y, z'
loop_
 _atom_site_type_symbol
 _atom_site_label
 _atom_site_symmetry_multiplicity
 _atom_site_fract_x
 _atom_site_fract_y
 _atom_site_fract_z
 _atom_site_occupancy
  U  U0  1  0.000000  0.000000  0.000000  1
  Ni  Ni1  1  0.499999  0.000000  0.500000  1
  Ni  Ni2  1  0.499999  0.500000  0.500000  1
  As  As3  1  0.868241  0.629940  0.259881  1
  As  As4  1  0.131757  0.370060  0.740119  1
  O  O5  1  0.809287  0.317976  0.107464  1
  O  O6  1  0.809287  0.789487  0.107464  1
  O  O7  1  0.308067  0.128850  0.257700  1
  O  O8  1  0.642286  0.683334  0.366669  1
  O  O9  1  0.201757  0.718347  0.436694  1
  O  O10  1  0.798244  0.281652  0.563305  1
  O  O11  1  0.357713  0.316665  0.633331  1
  O  O12  1  0.691932  0.871149  0.742300  1
  O  O13  1  0.190712  0.210514  0.892537  1
  O  O14  1  0.190712  0.682023  0.892537  1
