# generated using pymatgen
data_Dy2Co5P6Rh3W2
_symmetry_space_group_name_H-M   'P 1'
_cell_length_a   3.78064700
_cell_length_b   10.58117000
_cell_length_c   12.13045600
_cell_angle_alpha   90.00000000
_cell_angle_beta   90.00000000
_cell_angle_gamma   90.00000000
_symmetry_Int_Tables_number   1
_chemical_formula_structural   Dy2Co5P6Rh3W2
_chemical_formula_sum   'Dy4 Co10 P12 Rh6 W4'
_cell_volume   485.26274200
_cell_formula_units_Z   2
loop_
 _symmetry_equiv_pos_site_id
 _symmetry_equiv_pos_as_xyz
  1  'x, y, z'
loop_
 _atom_site_type_symbol
 _atom_site_label
 _atom_site_symmetry_multiplicity
 _atom_site_fract_x
 _atom_site_fract_y
 _atom_site_fract_z
 _atom_site_occupancy
  Dy  Dy0  1  0.250000  0.585479  0.709116  1
  Dy  Dy1  1  0.250000  0.914521  0.209116  1
  Dy  Dy2  1  0.750000  0.420879  0.291497  1
  Dy  Dy3  1  0.750000  0.079121  0.791497  1
  Co  Co4  1  0.750000  0.775207  0.820719  1
  Co  Co5  1  0.750000  0.724793  0.320719  1
  Co  Co6  1  0.250000  0.881923  0.696338  1
  Co  Co7  1  0.250000  0.618077  0.196338  1
  Co  Co8  1  0.750000  0.109036  0.304653  1
  Co  Co9  1  0.750000  0.390964  0.804653  1
  Co  Co10  1  0.250000  0.465497  0.934657  1
  Co  Co11  1  0.250000  0.034503  0.434657  1
  Co  Co12  1  0.750000  0.535427  0.064078  1
  Co  Co13  1  0.750000  0.964573  0.564078  1
  P  P14  1  0.250000  0.429098  0.112766  1
  P  P15  1  0.250000  0.070902  0.612766  1
  P  P16  1  0.750000  0.580579  0.885508  1
  P  P17  1  0.750000  0.919421  0.385508  1
  P  P18  1  0.250000  0.272644  0.870352  1
  P  P19  1  0.250000  0.227356  0.370352  1
  P  P20  1  0.750000  0.725398  0.137656  1
  P  P21  1  0.750000  0.774602  0.637656  1
  P  P22  1  0.250000  0.605498  0.380673  1
  P  P23  1  0.250000  0.894502  0.880673  1
  P  P24  1  0.750000  0.402880  0.614791  1
  P  P25  1  0.750000  0.097120  0.114791  1
  Rh  Rh26  1  0.250000  0.407651  0.482555  1
  Rh  Rh27  1  0.250000  0.092349  0.982555  1
  Rh  Rh28  1  0.750000  0.599916  0.515677  1
  Rh  Rh29  1  0.750000  0.900084  0.015677  1
  Rh  Rh30  1  0.250000  0.225390  0.181595  1
  Rh  Rh31  1  0.250000  0.274610  0.681595  1
  W  W32  1  0.250000  0.704791  0.984519  1
  W  W33  1  0.250000  0.795209  0.484519  1
  W  W34  1  0.750000  0.293891  0.012849  1
  W  W35  1  0.750000  0.206109  0.512849  1
