# generated using pymatgen
data_NiMo12Pt7N4
_symmetry_space_group_name_H-M   'P 1'
_cell_length_a   6.87908075
_cell_length_b   6.87908005
_cell_length_c   6.87907944
_cell_angle_alpha   90.02369728
_cell_angle_beta   90.02370064
_cell_angle_gamma   90.02368721
_symmetry_Int_Tables_number   1
_chemical_formula_structural   NiMo12Pt7N4
_chemical_formula_sum   'Ni1 Mo12 Pt7 N4'
_cell_volume   325.52997426
_cell_formula_units_Z   1
loop_
 _symmetry_equiv_pos_site_id
 _symmetry_equiv_pos_as_xyz
  1  'x, y, z'
loop_
 _atom_site_type_symbol
 _atom_site_label
 _atom_site_symmetry_multiplicity
 _atom_site_fract_x
 _atom_site_fract_y
 _atom_site_fract_z
 _atom_site_occupancy
  Ni  Ni0  1  0.193562  0.193562  0.193562  1
  Mo  Mo1  1  0.622985  0.702245  0.950555  1
  Mo  Mo2  1  0.453466  0.876572  0.301563  1
  Mo  Mo3  1  0.702245  0.950555  0.622985  1
  Mo  Mo4  1  0.542414  0.372468  0.199666  1
  Mo  Mo5  1  0.372468  0.199666  0.542414  1
  Mo  Mo6  1  0.199666  0.542414  0.372468  1
  Mo  Mo7  1  0.876572  0.301563  0.453466  1
  Mo  Mo8  1  0.049095  0.122847  0.801439  1
  Mo  Mo9  1  0.301563  0.453466  0.876572  1
  Mo  Mo10  1  0.122847  0.801439  0.049095  1
  Mo  Mo11  1  0.801439  0.049095  0.122847  1
  Mo  Mo12  1  0.950555  0.622985  0.702245  1
  Pt  Pt13  1  0.306185  0.810792  0.691151  1
  Pt  Pt14  1  0.431864  0.062226  0.951842  1
  Pt  Pt15  1  0.810792  0.691151  0.306185  1
  Pt  Pt16  1  0.691151  0.306185  0.810792  1
  Pt  Pt17  1  0.557268  0.557268  0.557268  1
  Pt  Pt18  1  0.062226  0.951842  0.431864  1
  Pt  Pt19  1  0.951842  0.431864  0.062226  1
  N  N20  1  0.374661  0.626056  0.124940  1
  N  N21  1  0.874136  0.874136  0.874136  1
  N  N22  1  0.124940  0.374661  0.626056  1
  N  N23  1  0.626056  0.124940  0.374661  1
