# generated using pymatgen
data_Yb2Ho2Ir3RuO14
_symmetry_space_group_name_H-M   'P 1'
_cell_length_a   7.21132860
_cell_length_b   7.23362602
_cell_length_c   7.20385400
_cell_angle_alpha   60.13605578
_cell_angle_beta   60.03428148
_cell_angle_gamma   60.10041257
_symmetry_Int_Tables_number   1
_chemical_formula_structural   Yb2Ho2Ir3RuO14
_chemical_formula_sum   'Yb2 Ho2 Ir3 Ru1 O14'
_cell_volume   266.26113207
_cell_formula_units_Z   1
loop_
 _symmetry_equiv_pos_site_id
 _symmetry_equiv_pos_as_xyz
  1  'x, y, z'
loop_
 _atom_site_type_symbol
 _atom_site_label
 _atom_site_symmetry_multiplicity
 _atom_site_fract_x
 _atom_site_fract_y
 _atom_site_fract_z
 _atom_site_occupancy
  Yb  Yb0  1  0.625000  0.625000  0.125000  1
  Yb  Yb1  1  0.625000  0.625000  0.625000  1
  Ho  Ho2  1  0.625000  0.125000  0.625000  1
  Ho  Ho3  1  0.125000  0.625000  0.625000  1
  Ir  Ir4  1  0.125000  0.125000  0.625000  1
  Ir  Ir5  1  0.625000  0.125000  0.125000  1
  Ir  Ir6  1  0.125000  0.125000  0.125000  1
  Ru  Ru7  1  0.125000  0.625000  0.125000  1
  O  O8  1  0.456811  0.046602  0.458197  1
  O  O9  1  0.200724  0.796170  0.794763  1
  O  O10  1  0.793189  0.203398  0.211612  1
  O  O11  1  0.200724  0.796170  0.208344  1
  O  O12  1  0.799502  0.799225  0.200636  1
  O  O13  1  0.209018  0.209571  0.790706  1
  O  O14  1  0.450498  0.450775  0.049364  1
  O  O15  1  0.049276  0.453830  0.455237  1
  O  O16  1  0.456811  0.046602  0.038388  1
  O  O17  1  0.040982  0.040429  0.459294  1
  O  O18  1  0.793189  0.203398  0.791803  1
  O  O19  1  0.049276  0.453830  0.041656  1
  O  O20  1  0.494028  0.494575  0.505698  1
  O  O21  1  0.755972  0.755425  0.744302  1
