# generated using pymatgen
data_Tb5Y2Ho13Pt16
_symmetry_space_group_name_H-M   'P 1'
_cell_length_a   7.47332701
_cell_length_b   7.55195517
_cell_length_c   14.73523002
_cell_angle_alpha   90.00753212
_cell_angle_beta   90.00256886
_cell_angle_gamma   89.98886301
_symmetry_Int_Tables_number   1
_chemical_formula_structural   Tb5Y2Ho13Pt16
_chemical_formula_sum   'Tb5 Y2 Ho13 Pt16'
_cell_volume   831.63028533
_cell_formula_units_Z   1
loop_
 _symmetry_equiv_pos_site_id
 _symmetry_equiv_pos_as_xyz
  1  'x, y, z'
loop_
 _atom_site_type_symbol
 _atom_site_label
 _atom_site_symmetry_multiplicity
 _atom_site_fract_x
 _atom_site_fract_y
 _atom_site_fract_z
 _atom_site_occupancy
  Tb  Tb0  1  0.498066  0.679940  0.093147  1
  Tb  Tb1  1  0.502093  0.320151  0.593012  1
  Tb  Tb2  1  0.002024  0.179824  0.906997  1
  Tb  Tb3  1  0.001860  0.179579  0.592943  1
  Tb  Tb4  1  0.501993  0.320137  0.906919  1
  Y  Y5  1  0.498076  0.679978  0.406979  1
  Y  Y6  1  0.998159  0.820121  0.093023  1
  Ho  Ho7  1  0.681237  0.988437  0.250134  1
  Ho  Ho8  1  0.180931  0.511649  0.250177  1
  Ho  Ho9  1  0.818951  0.488576  0.749920  1
  Ho  Ho10  1  0.318983  0.011384  0.750013  1
  Ho  Ho11  1  0.656303  0.832314  0.622228  1
  Ho  Ho12  1  0.156211  0.667746  0.877682  1
  Ho  Ho13  1  0.843667  0.332454  0.377688  1
  Ho  Ho14  1  0.343539  0.167501  0.122393  1
  Ho  Ho15  1  0.343462  0.167374  0.377710  1
  Ho  Ho16  1  0.843810  0.332333  0.122432  1
  Ho  Ho17  1  0.156204  0.667847  0.622148  1
  Ho  Ho18  1  0.656484  0.832339  0.877684  1
  Ho  Ho19  1  0.997566  0.819674  0.406753  1
  Pt  Pt20  1  0.816571  0.642498  0.250575  1
  Pt  Pt21  1  0.315796  0.857930  0.250064  1
  Pt  Pt22  1  0.683720  0.142194  0.749977  1
  Pt  Pt23  1  0.183742  0.357829  0.749986  1
  Pt  Pt24  1  0.546762  0.386277  0.249973  1
  Pt  Pt25  1  0.046538  0.113498  0.250261  1
  Pt  Pt26  1  0.953431  0.886150  0.750001  1
  Pt  Pt27  1  0.453428  0.613833  0.749981  1
  Pt  Pt28  1  0.817301  0.533345  0.541854  1
  Pt  Pt29  1  0.317164  0.967061  0.957977  1
  Pt  Pt30  1  0.684078  0.032297  0.457796  1
  Pt  Pt31  1  0.182971  0.467067  0.042019  1
  Pt  Pt32  1  0.182409  0.467799  0.457808  1
  Pt  Pt33  1  0.682698  0.033088  0.041944  1
  Pt  Pt34  1  0.316802  0.966976  0.541922  1
  Pt  Pt35  1  0.816965  0.532804  0.957875  1
