# generated using pymatgen
data_K2Sn(OF3)2
_symmetry_space_group_name_H-M   'P 1'
_cell_length_a   6.29286513
_cell_length_b   6.29299183
_cell_length_c   5.46917163
_cell_angle_alpha   79.66553599
_cell_angle_beta   79.66713019
_cell_angle_gamma   94.40342439
_symmetry_Int_Tables_number   1
_chemical_formula_structural   K2Sn(OF3)2
_chemical_formula_sum   'K2 Sn1 O2 F6'
_cell_volume   208.28272927
_cell_formula_units_Z   1
loop_
 _symmetry_equiv_pos_site_id
 _symmetry_equiv_pos_as_xyz
  1  'x, y, z'
loop_
 _atom_site_type_symbol
 _atom_site_label
 _atom_site_symmetry_multiplicity
 _atom_site_fract_x
 _atom_site_fract_y
 _atom_site_fract_z
 _atom_site_occupancy
  K  K0  1  0.500000  0.000000  0.500000  1
  K  K1  1  0.000000  0.500000  0.500000  1
  Sn  Sn2  1  0.000000  0.000000  0.000000  1
  O  O3  1  0.447451  0.447460  0.101299  1
  O  O4  1  0.552549  0.552540  0.898701  1
  F  F5  1  0.223404  0.909177  0.205397  1
  F  F6  1  0.909213  0.223365  0.205471  1
  F  F7  1  0.776596  0.090823  0.794603  1
  F  F8  1  0.090787  0.776635  0.794529  1
  F  F9  1  0.780171  0.780159  0.251886  1
  F  F10  1  0.219829  0.219841  0.748114  1
