# generated using pymatgen
data_Nd4Pd3RuO14
_symmetry_space_group_name_H-M   'P 1'
_cell_length_a   7.44542620
_cell_length_b   7.44542640
_cell_length_c   7.44542632
_cell_angle_alpha   59.65245772
_cell_angle_beta   59.65245605
_cell_angle_gamma   59.65245918
_symmetry_Int_Tables_number   1
_chemical_formula_structural   Nd4Pd3RuO14
_chemical_formula_sum   'Nd4 Pd3 Ru1 O14'
_cell_volume   289.54135773
_cell_formula_units_Z   1
loop_
 _symmetry_equiv_pos_site_id
 _symmetry_equiv_pos_as_xyz
  1  'x, y, z'
loop_
 _atom_site_type_symbol
 _atom_site_label
 _atom_site_symmetry_multiplicity
 _atom_site_fract_x
 _atom_site_fract_y
 _atom_site_fract_z
 _atom_site_occupancy
  Nd  Nd0  1  0.625000  0.125000  0.125000  1
  Nd  Nd1  1  0.125000  0.625000  0.125000  1
  Nd  Nd2  1  0.125000  0.125000  0.625000  1
  Nd  Nd3  1  0.125000  0.125000  0.125000  1
  Pd  Pd4  1  0.125000  0.625000  0.625000  1
  Pd  Pd5  1  0.625000  0.125000  0.625000  1
  Pd  Pd6  1  0.625000  0.625000  0.125000  1
  Ru  Ru7  1  0.625000  0.625000  0.625000  1
  O  O8  1  0.706513  0.706513  0.297870  1
  O  O9  1  0.288655  0.288655  0.709675  1
  O  O10  1  0.706513  0.297870  0.706513  1
  O  O11  1  0.288655  0.709675  0.288655  1
  O  O12  1  0.297870  0.706513  0.706513  1
  O  O13  1  0.709675  0.288655  0.288655  1
  O  O14  1  0.543487  0.543487  0.952130  1
  O  O15  1  0.961345  0.961345  0.540325  1
  O  O16  1  0.543487  0.952130  0.543487  1
  O  O17  1  0.961345  0.540325  0.961345  1
  O  O18  1  0.952130  0.543487  0.543487  1
  O  O19  1  0.540325  0.961345  0.961345  1
  O  O20  1  0.250198  0.250198  0.250198  1
  O  O21  1  0.999802  0.999802  0.999802  1
