# generated using pymatgen
data_Sc12Zn(PtI8)2
_symmetry_space_group_name_H-M   'P 1'
_cell_length_a   9.28241925
_cell_length_b   12.01938693
_cell_length_c   12.64530568
_cell_angle_alpha   117.23258634
_cell_angle_beta   101.30370101
_cell_angle_gamma   100.79739535
_symmetry_Int_Tables_number   1
_chemical_formula_structural   Sc12Zn(PtI8)2
_chemical_formula_sum   'Sc12 Zn1 Pt2 I16'
_cell_volume   1166.36658969
_cell_formula_units_Z   1
loop_
 _symmetry_equiv_pos_site_id
 _symmetry_equiv_pos_as_xyz
  1  'x, y, z'
loop_
 _atom_site_type_symbol
 _atom_site_label
 _atom_site_symmetry_multiplicity
 _atom_site_fract_x
 _atom_site_fract_y
 _atom_site_fract_z
 _atom_site_occupancy
  Sc  Sc0  1  0.090215  0.271608  0.359472  1
  Sc  Sc1  1  0.909785  0.728392  0.640528  1
  Sc  Sc2  1  0.778502  0.534936  0.330287  1
  Sc  Sc3  1  0.221498  0.465064  0.669713  1
  Sc  Sc4  1  0.276953  0.728969  0.640191  1
  Sc  Sc5  1  0.723047  0.271031  0.359809  1
  Sc  Sc6  1  0.145675  0.534982  0.330555  1
  Sc  Sc7  1  0.854325  0.465018  0.669445  1
  Sc  Sc8  1  0.406812  0.360295  0.276261  1
  Sc  Sc9  1  0.593188  0.639705  0.723739  1
  Sc  Sc10  1  0.459171  0.310368  0.521082  1
  Sc  Sc11  1  0.540829  0.689632  0.478918  1
  Zn  Zn12  1  0.000000  0.500000  0.500000  1
  Pt  Pt13  1  0.342337  0.500135  0.499258  1
  Pt  Pt14  1  0.657664  0.499865  0.500742  1
  I  I15  1  0.396410  0.739915  0.882910  1
  I  I16  1  0.603590  0.260085  0.117090  1
  I  I17  1  0.186337  0.959143  0.780299  1
  I  I18  1  0.813663  0.040857  0.219701  1
  I  I19  1  0.338400  0.097214  0.252329  1
  I  I20  1  0.661600  0.902786  0.747671  1
  I  I21  1  0.557290  0.438654  0.798974  1
  I  I22  1  0.442710  0.561346  0.201026  1
  I  I23  1  0.307661  0.824690  0.461756  1
  I  I24  1  0.692339  0.175310  0.538244  1
  I  I25  1  0.167845  0.174019  0.534614  1
  I  I26  1  0.832155  0.825981  0.465386  1
  I  I27  1  0.925821  0.572859  0.161939  1
  I  I28  1  0.074179  0.427141  0.838061  1
  I  I29  1  0.922440  0.738201  0.883183  1
  I  I30  1  0.077560  0.261799  0.116817  1
