# generated using pymatgen
data_Li4ErTh3Pt4
_symmetry_space_group_name_H-M   'P 1'
_cell_length_a   4.04670100
_cell_length_b   7.20019430
_cell_length_c   8.59024397
_cell_angle_alpha   90.66091130
_cell_angle_beta   90.00000000
_cell_angle_gamma   90.00000000
_symmetry_Int_Tables_number   1
_chemical_formula_structural   Li4ErTh3Pt4
_chemical_formula_sum   'Li4 Er1 Th3 Pt4'
_cell_volume   250.27757442
_cell_formula_units_Z   1
loop_
 _symmetry_equiv_pos_site_id
 _symmetry_equiv_pos_as_xyz
  1  'x, y, z'
loop_
 _atom_site_type_symbol
 _atom_site_label
 _atom_site_symmetry_multiplicity
 _atom_site_fract_x
 _atom_site_fract_y
 _atom_site_fract_z
 _atom_site_occupancy
  Li  Li0  1  0.250000  0.620953  0.562482  1
  Li  Li1  1  0.250000  0.134900  0.941290  1
  Li  Li2  1  0.750000  0.376311  0.445709  1
  Li  Li3  1  0.750000  0.871442  0.055633  1
  Er  Er4  1  0.750000  0.450620  0.812646  1
  Th  Th5  1  0.250000  0.049046  0.310573  1
  Th  Th6  1  0.250000  0.546659  0.183236  1
  Th  Th7  1  0.750000  0.952427  0.695031  1
  Pt  Pt8  1  0.250000  0.235882  0.619653  1
  Pt  Pt9  1  0.250000  0.738636  0.876453  1
  Pt  Pt10  1  0.750000  0.763244  0.378122  1
  Pt  Pt11  1  0.750000  0.259879  0.119172  1
