# generated using pymatgen
data_Li8Pu7UN16
_symmetry_space_group_name_H-M   'P 1'
_cell_length_a   22.25093102
_cell_length_b   4.30219300
_cell_length_c   4.30370500
_cell_angle_alpha   89.99985337
_cell_angle_beta   89.99867151
_cell_angle_gamma   90.00327423
_symmetry_Int_Tables_number   1
_chemical_formula_structural   Li8Pu7UN16
_chemical_formula_sum   'Li8 Pu7 U1 N16'
_cell_volume   411.98420945
_cell_formula_units_Z   1
loop_
 _symmetry_equiv_pos_site_id
 _symmetry_equiv_pos_as_xyz
  1  'x, y, z'
loop_
 _atom_site_type_symbol
 _atom_site_label
 _atom_site_symmetry_multiplicity
 _atom_site_fract_x
 _atom_site_fract_y
 _atom_site_fract_z
 _atom_site_occupancy
  Li  Li0  1  0.185848  0.997894  0.745800  1
  Li  Li1  1  0.812527  0.002101  0.254321  1
  Li  Li2  1  0.313374  0.997924  0.245776  1
  Li  Li3  1  0.689342  0.002118  0.754263  1
  Li  Li4  1  0.062367  0.498439  0.748927  1
  Li  Li5  1  0.937332  0.501603  0.251065  1
  Li  Li6  1  0.436761  0.498532  0.248896  1
  Li  Li7  1  0.562319  0.501484  0.750965  1
  Pu  Pu8  1  0.563934  0.001330  0.250568  1
  Pu  Pu9  1  0.062136  0.998542  0.249291  1
  Pu  Pu10  1  0.937475  0.001491  0.750707  1
  Pu  Pu11  1  0.311149  0.498136  0.745966  1
  Pu  Pu12  1  0.688302  0.501883  0.254110  1
  Pu  Pu13  1  0.186766  0.498103  0.245995  1
  Pu  Pu14  1  0.812845  0.501917  0.754063  1
  U  U15  1  0.437472  0.998616  0.749189  1
  N  N16  1  0.337267  0.998150  0.746467  1
  N  N17  1  0.666901  0.001843  0.253842  1
  N  N18  1  0.165226  0.998127  0.246307  1
  N  N19  1  0.834121  0.001904  0.753736  1
  N  N20  1  0.419661  0.498552  0.748701  1
  N  N21  1  0.584548  0.501486  0.251241  1
  N  N22  1  0.083850  0.498419  0.248679  1
  N  N23  1  0.915650  0.501620  0.751342  1
  N  N24  1  0.040791  0.998956  0.749512  1
  N  N25  1  0.959230  0.001083  0.250493  1
  N  N26  1  0.454929  0.998929  0.249282  1
  N  N27  1  0.537714  0.000759  0.750338  1
  N  N28  1  0.208414  0.498035  0.745847  1
  N  N29  1  0.791099  0.502009  0.254241  1
  N  N30  1  0.290925  0.498034  0.245820  1
  N  N31  1  0.709726  0.501980  0.754250  1
