# generated using pymatgen
data_AcCe3Ir4F28
_symmetry_space_group_name_H-M   'P 1'
_cell_length_a   5.61824524
_cell_length_b   9.08778485
_cell_length_c   12.18913500
_cell_angle_alpha   62.61040749
_cell_angle_beta   89.90189363
_cell_angle_gamma   89.88908407
_symmetry_Int_Tables_number   1
_chemical_formula_structural   AcCe3Ir4F28
_chemical_formula_sum   'Ac1 Ce3 Ir4 F28'
_cell_volume   552.57873152
_cell_formula_units_Z   1
loop_
 _symmetry_equiv_pos_site_id
 _symmetry_equiv_pos_as_xyz
  1  'x, y, z'
loop_
 _atom_site_type_symbol
 _atom_site_label
 _atom_site_symmetry_multiplicity
 _atom_site_fract_x
 _atom_site_fract_y
 _atom_site_fract_z
 _atom_site_occupancy
  Ac  Ac0  1  0.759583  0.807578  0.764559  1
  Ce  Ce1  1  0.262844  0.198901  0.735004  1
  Ce  Ce2  1  0.242385  0.193053  0.235787  1
  Ce  Ce3  1  0.743176  0.806791  0.265004  1
  Ir  Ir4  1  0.755881  0.262990  0.963115  1
  Ir  Ir5  1  0.251539  0.728053  0.534312  1
  Ir  Ir6  1  0.244578  0.726056  0.047568  1
  Ir  Ir7  1  0.743303  0.276830  0.455769  1
  F  F8  1  0.422621  0.701958  0.917535  1
  F  F9  1  0.943323  0.293948  0.583411  1
  F  F10  1  0.557287  0.288178  0.088594  1
  F  F11  1  0.065295  0.707620  0.403992  1
  F  F12  1  0.449448  0.283367  0.544503  1
  F  F13  1  0.944643  0.716012  0.968609  1
  F  F14  1  0.558209  0.725933  0.451827  1
  F  F15  1  0.052138  0.270349  0.050084  1
  F  F16  1  0.771920  0.504519  0.862965  1
  F  F17  1  0.263509  0.484200  0.636352  1
  F  F18  1  0.234506  0.481693  0.145095  1
  F  F19  1  0.730272  0.521908  0.358158  1
  F  F20  1  0.756474  0.017669  0.058877  1
  F  F21  1  0.254600  0.973164  0.441455  1
  F  F22  1  0.243341  0.969121  0.950437  1
  F  F23  1  0.743327  0.034019  0.545834  1
  F  F24  1  0.952323  0.723575  0.619609  1
  F  F25  1  0.464338  0.270210  0.868997  1
  F  F26  1  0.028939  0.273368  0.360718  1
  F  F27  1  0.540409  0.727525  0.136251  1
  F  F28  1  0.064399  0.748471  0.178753  1
  F  F29  1  0.549857  0.257567  0.326814  1
  F  F30  1  0.948532  0.245024  0.833086  1
  F  F31  1  0.420835  0.742891  0.670117  1
  F  F32  1  0.406193  0.969816  0.230246  1
  F  F33  1  0.905557  0.031899  0.269921  1
  F  F34  1  0.597753  0.056722  0.770214  1
  F  F35  1  0.126661  0.979018  0.726425  1
