# generated using pymatgen
data_Np3U(VN2)4
_symmetry_space_group_name_H-M   'P 1'
_cell_length_a   3.15570100
_cell_length_b   5.44392222
_cell_length_c   10.61174043
_cell_angle_alpha   89.96728503
_cell_angle_beta   90.00000000
_cell_angle_gamma   90.00000000
_symmetry_Int_Tables_number   1
_chemical_formula_structural   Np3U(VN2)4
_chemical_formula_sum   'Np3 U1 V4 N8'
_cell_volume   182.30320623
_cell_formula_units_Z   1
loop_
 _symmetry_equiv_pos_site_id
 _symmetry_equiv_pos_as_xyz
  1  'x, y, z'
loop_
 _atom_site_type_symbol
 _atom_site_label
 _atom_site_symmetry_multiplicity
 _atom_site_fract_x
 _atom_site_fract_y
 _atom_site_fract_z
 _atom_site_occupancy
  Np  Np0  1  0.750000  0.077671  0.857677  1
  Np  Np1  1  0.750000  0.577286  0.643068  1
  Np  Np2  1  0.250000  0.922831  0.141901  1
  U  U3  1  0.250000  0.421489  0.357765  1
  V  V4  1  0.250000  0.075635  0.598626  1
  V  V5  1  0.750000  0.423822  0.098300  1
  V  V6  1  0.250000  0.576783  0.901012  1
  V  V7  1  0.750000  0.923348  0.400621  1
  N  N8  1  0.250000  0.335784  0.745490  1
  N  N9  1  0.750000  0.166640  0.246666  1
  N  N10  1  0.250000  0.262183  0.007104  1
  N  N11  1  0.750000  0.662864  0.255595  1
  N  N12  1  0.250000  0.836290  0.754216  1
  N  N13  1  0.750000  0.738147  0.992470  1
  N  N14  1  0.750000  0.237634  0.507350  1
  N  N15  1  0.250000  0.761593  0.492137  1
