# generated using pymatgen
data_Er4TmIn4PtRh
_symmetry_space_group_name_H-M   'P 1'
_cell_length_a   3.59532800
_cell_length_b   8.08800349
_cell_length_c   18.12095207
_cell_angle_alpha   90.09270864
_cell_angle_beta   90.00000000
_cell_angle_gamma   90.00000000
_symmetry_Int_Tables_number   1
_chemical_formula_structural   Er4TmIn4PtRh
_chemical_formula_sum   'Er8 Tm2 In8 Pt2 Rh2'
_cell_volume   526.93893566
_cell_formula_units_Z   2
loop_
 _symmetry_equiv_pos_site_id
 _symmetry_equiv_pos_as_xyz
  1  'x, y, z'
loop_
 _atom_site_type_symbol
 _atom_site_label
 _atom_site_symmetry_multiplicity
 _atom_site_fract_x
 _atom_site_fract_y
 _atom_site_fract_z
 _atom_site_occupancy
  Er  Er0  1  0.000000  0.382918  0.913701  1
  Er  Er1  1  0.000000  0.617082  0.086299  1
  Er  Er2  1  0.000000  0.238915  0.221512  1
  Er  Er3  1  0.000000  0.761085  0.778488  1
  Er  Er4  1  0.000000  0.251756  0.720524  1
  Er  Er5  1  0.000000  0.748244  0.279476  1
  Er  Er6  1  0.000000  0.000000  0.000000  1
  Er  Er7  1  0.000000  0.500000  0.500000  1
  Tm  Tm8  1  0.000000  0.115195  0.412450  1
  Tm  Tm9  1  0.000000  0.884805  0.587550  1
  In  In10  1  0.500000  0.422599  0.351750  1
  In  In11  1  0.500000  0.577401  0.648250  1
  In  In12  1  0.500000  0.072797  0.850378  1
  In  In13  1  0.500000  0.927203  0.149622  1
  In  In14  1  0.500000  0.291885  0.066280  1
  In  In15  1  0.500000  0.708115  0.933720  1
  In  In16  1  0.500000  0.206295  0.567207  1
  In  In17  1  0.500000  0.793705  0.432793  1
  Pt  Pt18  1  0.500000  0.478450  0.803552  1
  Pt  Pt19  1  0.500000  0.521550  0.196448  1
  Rh  Rh20  1  0.500000  0.022147  0.304848  1
  Rh  Rh21  1  0.500000  0.977853  0.695152  1
