# generated using pymatgen
data_TbEr4Cd3InPd2
_symmetry_space_group_name_H-M   'P 1'
_cell_length_a   7.96918500
_cell_length_b   18.41682859
_cell_length_c   3.60581000
_cell_angle_alpha   90.00000000
_cell_angle_beta   90.00000000
_cell_angle_gamma   89.60691945
_symmetry_Int_Tables_number   1
_chemical_formula_structural   TbEr4Cd3InPd2
_chemical_formula_sum   'Tb2 Er8 Cd6 In2 Pd4'
_cell_volume   529.20187351
_cell_formula_units_Z   2
loop_
 _symmetry_equiv_pos_site_id
 _symmetry_equiv_pos_as_xyz
  1  'x, y, z'
loop_
 _atom_site_type_symbol
 _atom_site_label
 _atom_site_symmetry_multiplicity
 _atom_site_fract_x
 _atom_site_fract_y
 _atom_site_fract_z
 _atom_site_occupancy
  Tb  Tb0  1  0.500000  0.500000  0.000000  1
  Tb  Tb1  1  0.000000  0.000000  0.000000  1
  Er  Er2  1  0.742717  0.280464  0.000000  1
  Er  Er3  1  0.257283  0.719536  0.000000  1
  Er  Er4  1  0.754286  0.779865  0.000000  1
  Er  Er5  1  0.245714  0.220135  0.000000  1
  Er  Er6  1  0.614218  0.083650  0.000000  1
  Er  Er7  1  0.385782  0.916350  0.000000  1
  Er  Er8  1  0.885210  0.583415  0.000000  1
  Er  Er9  1  0.114790  0.416585  0.000000  1
  Cd  Cd10  1  0.712451  0.930633  0.500000  1
  Cd  Cd11  1  0.287549  0.069367  0.500000  1
  Cd  Cd12  1  0.786674  0.430298  0.500000  1
  Cd  Cd13  1  0.213326  0.569702  0.500000  1
  Cd  Cd14  1  0.573837  0.648307  0.500000  1
  Cd  Cd15  1  0.426163  0.351693  0.500000  1
  In  In16  1  0.927230  0.148664  0.500000  1
  In  In17  1  0.072770  0.851336  0.500000  1
  Pd  Pd18  1  0.528860  0.195610  0.500000  1
  Pd  Pd19  1  0.471140  0.804390  0.500000  1
  Pd  Pd20  1  0.971809  0.696007  0.500000  1
  Pd  Pd21  1  0.028191  0.303993  0.500000  1
