# generated using pymatgen
data_Sr2Mn3Si7Pt9
_symmetry_space_group_name_H-M   'P 1'
_cell_length_a   10.03693100
_cell_length_b   10.03693006
_cell_length_c   3.93524200
_cell_angle_alpha   90.00000000
_cell_angle_beta   90.00000000
_cell_angle_gamma   119.99999322
_symmetry_Int_Tables_number   1
_chemical_formula_structural   Sr2Mn3Si7Pt9
_chemical_formula_sum   'Sr2 Mn3 Si7 Pt9'
_cell_volume   343.32382502
_cell_formula_units_Z   1
loop_
 _symmetry_equiv_pos_site_id
 _symmetry_equiv_pos_as_xyz
  1  'x, y, z'
loop_
 _atom_site_type_symbol
 _atom_site_label
 _atom_site_symmetry_multiplicity
 _atom_site_fract_x
 _atom_site_fract_y
 _atom_site_fract_z
 _atom_site_occupancy
  Sr  Sr0  1  0.000000  0.000000  0.000000  1
  Sr  Sr1  1  0.333333  0.666667  0.500000  1
  Mn  Mn2  1  0.888488  0.454778  0.500000  1
  Mn  Mn3  1  0.566289  0.111512  0.500000  1
  Mn  Mn4  1  0.545222  0.433711  0.500000  1
  Si  Si5  1  0.263465  0.217590  0.500000  1
  Si  Si6  1  0.782410  0.045876  0.500000  1
  Si  Si7  1  0.954124  0.736535  0.500000  1
  Si  Si8  1  0.554611  0.636036  0.000000  1
  Si  Si9  1  0.363964  0.918574  0.000000  1
  Si  Si10  1  0.081426  0.445389  0.000000  1
  Si  Si11  1  0.666667  0.333333  0.000000  1
  Pt  Pt12  1  0.226988  0.943596  0.500000  1
  Pt  Pt13  1  0.056404  0.283393  0.500000  1
  Pt  Pt14  1  0.716607  0.773012  0.500000  1
  Pt  Pt15  1  0.306454  0.402538  0.000000  1
  Pt  Pt16  1  0.597462  0.903916  0.000000  1
  Pt  Pt17  1  0.096084  0.693546  0.000000  1
  Pt  Pt18  1  0.397601  0.177100  0.000000  1
  Pt  Pt19  1  0.822900  0.220501  0.000000  1
  Pt  Pt20  1  0.779499  0.602399  0.000000  1
