# generated using pymatgen
data_SmDy3Tm4(WO6)4
_symmetry_space_group_name_H-M   'P 1'
_cell_length_a   5.39441400
_cell_length_b   7.68707614
_cell_length_c   11.41225041
_cell_angle_alpha   75.57218722
_cell_angle_beta   90.00000000
_cell_angle_gamma   90.00000000
_symmetry_Int_Tables_number   1
_chemical_formula_structural   SmDy3Tm4(WO6)4
_chemical_formula_sum   'Sm1 Dy3 Tm4 W4 O24'
_cell_volume   458.31015535
_cell_formula_units_Z   1
loop_
 _symmetry_equiv_pos_site_id
 _symmetry_equiv_pos_as_xyz
  1  'x, y, z'
loop_
 _atom_site_type_symbol
 _atom_site_label
 _atom_site_symmetry_multiplicity
 _atom_site_fract_x
 _atom_site_fract_y
 _atom_site_fract_z
 _atom_site_occupancy
  Sm  Sm0  1  0.684484  0.500000  0.750000  1
  Dy  Dy1  1  0.742801  0.000000  0.750000  1
  Dy  Dy2  1  0.259772  0.000000  0.250000  1
  Dy  Dy3  1  0.315708  0.500000  0.250000  1
  Tm  Tm4  1  0.184792  0.795817  0.577301  1
  Tm  Tm5  1  0.816202  0.794286  0.078960  1
  Tm  Tm6  1  0.184792  0.204183  0.922699  1
  Tm  Tm7  1  0.816202  0.205714  0.421040  1
  W  W8  1  0.254963  0.725422  0.886486  1
  W  W9  1  0.744834  0.724004  0.384674  1
  W  W10  1  0.254963  0.274578  0.613514  1
  W  W11  1  0.744834  0.275996  0.115326  1
  O  O12  1  0.044057  0.940774  0.898820  1
  O  O13  1  0.537207  0.844685  0.932220  1
  O  O14  1  0.954262  0.941722  0.395262  1
  O  O15  1  0.454632  0.793227  0.726250  1
  O  O16  1  0.465000  0.845464  0.431998  1
  O  O17  1  0.983937  0.717511  0.769541  1
  O  O18  1  0.543259  0.791126  0.226027  1
  O  O19  1  0.856379  0.636090  0.546933  1
  O  O20  1  0.351881  0.489417  0.887908  1
  O  O21  1  0.018518  0.711000  0.270492  1
  O  O22  1  0.351881  0.510583  0.612092  1
  O  O23  1  0.856379  0.363910  0.953067  1
  O  O24  1  0.148116  0.637683  0.050145  1
  O  O25  1  0.640580  0.489255  0.386048  1
  O  O26  1  0.983937  0.282489  0.730459  1
  O  O27  1  0.640580  0.510745  0.113952  1
  O  O28  1  0.148116  0.362317  0.449855  1
  O  O29  1  0.454632  0.206773  0.773750  1
  O  O30  1  0.018518  0.289000  0.229508  1
  O  O31  1  0.537207  0.155315  0.567780  1
  O  O32  1  0.543259  0.208874  0.273973  1
  O  O33  1  0.044057  0.059226  0.601180  1
  O  O34  1  0.465000  0.154536  0.068002  1
  O  O35  1  0.954262  0.058278  0.104738  1
