# generated using pymatgen
data_Sm2TcB8W
_symmetry_space_group_name_H-M   'P 1'
_cell_length_a   6.06080301
_cell_length_b   11.73194209
_cell_length_c   3.65825200
_cell_angle_alpha   90.00000000
_cell_angle_beta   90.00000000
_cell_angle_gamma   89.91801071
_symmetry_Int_Tables_number   1
_chemical_formula_structural   Sm2TcB8W
_chemical_formula_sum   'Sm4 Tc2 B16 W2'
_cell_volume   260.11970531
_cell_formula_units_Z   2
loop_
 _symmetry_equiv_pos_site_id
 _symmetry_equiv_pos_as_xyz
  1  'x, y, z'
loop_
 _atom_site_type_symbol
 _atom_site_label
 _atom_site_symmetry_multiplicity
 _atom_site_fract_x
 _atom_site_fract_y
 _atom_site_fract_z
 _atom_site_occupancy
  Sm  Sm0  1  0.626410  0.348174  0.000000  1
  Sm  Sm1  1  0.373590  0.651826  0.000000  1
  Sm  Sm2  1  0.127024  0.148844  0.000000  1
  Sm  Sm3  1  0.872976  0.851156  0.000000  1
  Tc  Tc4  1  0.632692  0.086050  0.000000  1
  Tc  Tc5  1  0.367308  0.913950  0.000000  1
  B  B6  1  0.782645  0.183099  0.500000  1
  B  B7  1  0.217355  0.816901  0.500000  1
  B  B8  1  0.286719  0.313573  0.500000  1
  B  B9  1  0.713281  0.686427  0.500000  1
  B  B10  1  0.861219  0.031314  0.500000  1
  B  B11  1  0.138781  0.968686  0.500000  1
  B  B12  1  0.365112  0.467444  0.500000  1
  B  B13  1  0.634888  0.532556  0.500000  1
  B  B14  1  0.886627  0.453366  0.500000  1
  B  B15  1  0.113373  0.546634  0.500000  1
  B  B16  1  0.388377  0.046186  0.500000  1
  B  B17  1  0.611623  0.953814  0.500000  1
  B  B18  1  0.975741  0.307086  0.500000  1
  B  B19  1  0.024259  0.692914  0.500000  1
  B  B20  1  0.477078  0.189618  0.500000  1
  B  B21  1  0.522922  0.810382  0.500000  1
  W  W22  1  0.129047  0.415107  0.000000  1
  W  W23  1  0.870953  0.584893  0.000000  1
