# generated using pymatgen
data_ErLuMnB6
_symmetry_space_group_name_H-M   'P 1'
_cell_length_a   3.49992800
_cell_length_b   9.01662200
_cell_length_c   11.39033300
_cell_angle_alpha   90.00000000
_cell_angle_beta   90.00000000
_cell_angle_gamma   90.00000000
_symmetry_Int_Tables_number   1
_chemical_formula_structural   ErLuMnB6
_chemical_formula_sum   'Er4 Lu4 Mn4 B24'
_cell_volume   359.45075034
_cell_formula_units_Z   4
loop_
 _symmetry_equiv_pos_site_id
 _symmetry_equiv_pos_as_xyz
  1  'x, y, z'
loop_
 _atom_site_type_symbol
 _atom_site_label
 _atom_site_symmetry_multiplicity
 _atom_site_fract_x
 _atom_site_fract_y
 _atom_site_fract_z
 _atom_site_occupancy
  Er  Er0  1  0.000000  0.823623  0.085326  1
  Er  Er1  1  0.000000  0.176377  0.914674  1
  Er  Er2  1  0.000000  0.323623  0.414674  1
  Er  Er3  1  0.000000  0.676377  0.585326  1
  Lu  Lu4  1  0.000000  0.442627  0.131154  1
  Lu  Lu5  1  0.000000  0.557373  0.868846  1
  Lu  Lu6  1  0.000000  0.942627  0.368846  1
  Lu  Lu7  1  0.000000  0.057373  0.631154  1
  Mn  Mn8  1  0.000000  0.139229  0.180031  1
  Mn  Mn9  1  0.000000  0.860771  0.819969  1
  Mn  Mn10  1  0.000000  0.639229  0.319969  1
  Mn  Mn11  1  0.000000  0.360771  0.680031  1
  B  B12  1  0.500000  0.054081  0.067877  1
  B  B13  1  0.500000  0.945919  0.932123  1
  B  B14  1  0.500000  0.554081  0.432123  1
  B  B15  1  0.500000  0.445919  0.567877  1
  B  B16  1  0.500000  0.248293  0.082172  1
  B  B17  1  0.500000  0.751707  0.917828  1
  B  B18  1  0.500000  0.748293  0.417828  1
  B  B19  1  0.500000  0.251707  0.582172  1
  B  B20  1  0.500000  0.291326  0.234819  1
  B  B21  1  0.500000  0.708674  0.765181  1
  B  B22  1  0.500000  0.791326  0.265181  1
  B  B23  1  0.500000  0.208674  0.734819  1
  B  B24  1  0.500000  0.131060  0.314257  1
  B  B25  1  0.500000  0.868940  0.685743  1
  B  B26  1  0.500000  0.631060  0.185743  1
  B  B27  1  0.500000  0.368940  0.814257  1
  B  B28  1  0.500000  0.483878  0.288245  1
  B  B29  1  0.500000  0.516122  0.711755  1
  B  B30  1  0.500000  0.983878  0.211755  1
  B  B31  1  0.500000  0.016122  0.788245  1
  B  B32  1  0.500000  0.100879  0.472162  1
  B  B33  1  0.500000  0.899121  0.527838  1
  B  B34  1  0.500000  0.600879  0.027838  1
  B  B35  1  0.500000  0.399121  0.972162  1
