# generated using pymatgen
data_Tm9In(SiB4)4
_symmetry_space_group_name_H-M   'P 1'
_cell_length_a   7.13374600
_cell_length_b   7.13374600
_cell_length_c   7.88963300
_cell_angle_alpha   90.00000000
_cell_angle_beta   90.00000000
_cell_angle_gamma   90.00000000
_symmetry_Int_Tables_number   1
_chemical_formula_structural   Tm9In(SiB4)4
_chemical_formula_sum   'Tm9 In1 Si4 B16'
_cell_volume   401.50604267
_cell_formula_units_Z   1
loop_
 _symmetry_equiv_pos_site_id
 _symmetry_equiv_pos_as_xyz
  1  'x, y, z'
loop_
 _atom_site_type_symbol
 _atom_site_label
 _atom_site_symmetry_multiplicity
 _atom_site_fract_x
 _atom_site_fract_y
 _atom_site_fract_z
 _atom_site_occupancy
  Tm  Tm0  1  0.680778  0.180667  0.225509  1
  Tm  Tm1  1  0.319222  0.819333  0.774491  1
  Tm  Tm2  1  0.319222  0.819333  0.225509  1
  Tm  Tm3  1  0.819333  0.680778  0.225509  1
  Tm  Tm4  1  0.819333  0.680778  0.774491  1
  Tm  Tm5  1  0.680778  0.180667  0.774491  1
  Tm  Tm6  1  0.180667  0.319222  0.774491  1
  Tm  Tm7  1  0.180667  0.319222  0.225509  1
  Tm  Tm8  1  0.500000  0.500000  0.500000  1
  In  In9  1  0.000000  0.000000  0.500000  1
  Si  Si10  1  0.119896  0.612141  0.500000  1
  Si  Si11  1  0.880104  0.387859  0.500000  1
  Si  Si12  1  0.387859  0.119896  0.500000  1
  Si  Si13  1  0.612141  0.880104  0.500000  1
  B  B14  1  0.175603  0.039798  0.000000  1
  B  B15  1  0.824397  0.960202  0.000000  1
  B  B16  1  0.960202  0.175603  0.000000  1
  B  B17  1  0.327109  0.539755  0.000000  1
  B  B18  1  0.039798  0.824397  0.000000  1
  B  B19  1  0.672891  0.460245  0.000000  1
  B  B20  1  0.539755  0.672891  0.000000  1
  B  B21  1  0.460245  0.327109  0.000000  1
  B  B22  1  0.089792  0.588070  0.000000  1
  B  B23  1  0.910208  0.411930  0.000000  1
  B  B24  1  0.411930  0.089792  0.000000  1
  B  B25  1  0.588070  0.910208  0.000000  1
  B  B26  1  0.000000  0.000000  0.159724  1
  B  B27  1  0.000000  0.000000  0.840276  1
  B  B28  1  0.500000  0.500000  0.833435  1
  B  B29  1  0.500000  0.500000  0.166565  1
