# generated using pymatgen
data_Nd12C3SCl12
_symmetry_space_group_name_H-M   'P 1'
_cell_length_a   9.63682537
_cell_length_b   9.71863451
_cell_length_c   9.71863300
_cell_angle_alpha   109.64110695
_cell_angle_beta   109.30079069
_cell_angle_gamma   109.30079482
_symmetry_Int_Tables_number   1
_chemical_formula_structural   Nd12C3SCl12
_chemical_formula_sum   'Nd12 C3 S1 Cl12'
_cell_volume   702.15287713
_cell_formula_units_Z   1
loop_
 _symmetry_equiv_pos_site_id
 _symmetry_equiv_pos_as_xyz
  1  'x, y, z'
loop_
 _atom_site_type_symbol
 _atom_site_label
 _atom_site_symmetry_multiplicity
 _atom_site_fract_x
 _atom_site_fract_y
 _atom_site_fract_z
 _atom_site_occupancy
  Nd  Nd0  1  0.473194  0.476900  0.246141  1
  Nd  Nd1  1  0.750000  0.233310  0.266690  1
  Nd  Nd2  1  0.750000  0.018034  0.481966  1
  Nd  Nd3  1  0.231966  0.463933  0.481966  1
  Nd  Nd4  1  0.272947  0.769241  0.246141  1
  Nd  Nd5  1  0.026806  0.253859  0.023100  1
  Nd  Nd6  1  0.016690  0.033380  0.266690  1
  Nd  Nd7  1  0.496294  0.769241  0.023100  1
  Nd  Nd8  1  0.483310  0.233310  0.466620  1
  Nd  Nd9  1  0.003706  0.476900  0.730759  1
  Nd  Nd10  1  0.268034  0.018034  0.036067  1
  Nd  Nd11  1  0.227053  0.253859  0.730759  1
  C  C12  1  0.250000  0.250162  0.249838  1
  C  C13  1  0.499838  0.999676  0.249838  1
  C  C14  1  0.000162  0.250162  0.500324  1
  S  S15  1  0.250000  0.500000  0.000000  1
  Cl  Cl16  1  0.250000  0.756522  0.743478  1
  Cl  Cl17  1  0.512034  0.505983  0.754423  1
  Cl  Cl18  1  0.987966  0.745577  0.994017  1
  Cl  Cl19  1  0.742389  0.248440  0.754423  1
  Cl  Cl20  1  0.993478  0.986956  0.743478  1
  Cl  Cl21  1  0.250000  0.993073  0.506927  1
  Cl  Cl22  1  0.756927  0.513855  0.506927  1
  Cl  Cl23  1  0.506051  0.248440  0.994017  1
  Cl  Cl24  1  0.757611  0.745577  0.251560  1
  Cl  Cl25  1  0.743073  0.993073  0.986145  1
  Cl  Cl26  1  0.993949  0.505983  0.251560  1
  Cl  Cl27  1  0.506522  0.756522  0.513044  1
