# generated using pymatgen
data_Ba3Ta3Si4W3O26
_symmetry_space_group_name_H-M   'P 1'
_cell_length_a   9.15107500
_cell_length_b   9.15107585
_cell_length_c   7.80046900
_cell_angle_alpha   89.99932116
_cell_angle_beta   89.99932619
_cell_angle_gamma   119.99872467
_symmetry_Int_Tables_number   1
_chemical_formula_structural   Ba3Ta3Si4W3O26
_chemical_formula_sum   'Ba3 Ta3 Si4 W3 O26'
_cell_volume   565.71956345
_cell_formula_units_Z   1
loop_
 _symmetry_equiv_pos_site_id
 _symmetry_equiv_pos_as_xyz
  1  'x, y, z'
loop_
 _atom_site_type_symbol
 _atom_site_label
 _atom_site_symmetry_multiplicity
 _atom_site_fract_x
 _atom_site_fract_y
 _atom_site_fract_z
 _atom_site_occupancy
  Ba  Ba0  1  0.600550  0.000012  0.492104  1
  Ba  Ba1  1  0.399452  0.399452  0.492080  1
  Ba  Ba2  1  0.000012  0.600550  0.492104  1
  Ta  Ta3  1  0.762159  0.762159  0.750182  1
  Ta  Ta4  1  0.237852  0.000003  0.750175  1
  Ta  Ta5  1  0.000003  0.237853  0.750175  1
  Si  Si6  1  0.666687  0.333356  0.208179  1
  Si  Si7  1  0.333356  0.666686  0.208179  1
  Si  Si8  1  0.666666  0.333339  0.794823  1
  Si  Si9  1  0.333339  0.666665  0.794823  1
  W  W10  1  0.238104  0.000013  0.241483  1
  W  W11  1  0.000013  0.238105  0.241483  1
  W  W12  1  0.761937  0.761937  0.241499  1
  O  O13  1  0.273208  0.999966  0.001757  1
  O  O14  1  0.999966  0.273208  0.001757  1
  O  O15  1  0.666702  0.333341  0.001098  1
  O  O16  1  0.333342  0.666703  0.001098  1
  O  O17  1  0.726828  0.726828  0.001757  1
  O  O18  1  0.812007  0.000023  0.239900  1
  O  O19  1  0.000023  0.812007  0.239900  1
  O  O20  1  0.188015  0.188016  0.239859  1
  O  O21  1  0.489912  0.181592  0.286238  1
  O  O22  1  0.181591  0.489912  0.286238  1
  O  O23  1  0.818429  0.308329  0.286266  1
  O  O24  1  0.308330  0.818430  0.286266  1
  O  O25  1  0.691667  0.510094  0.286268  1
  O  O26  1  0.510094  0.691667  0.286268  1
  O  O27  1  0.226301  0.000038  0.497914  1
  O  O28  1  0.000038  0.226302  0.497914  1
  O  O29  1  0.773701  0.773700  0.497894  1
  O  O30  1  0.696941  0.513553  0.718565  1
  O  O31  1  0.513553  0.696941  0.718565  1
  O  O32  1  0.816588  0.303041  0.718564  1
  O  O33  1  0.303042  0.816589  0.718564  1
  O  O34  1  0.486454  0.183410  0.718577  1
  O  O35  1  0.183409  0.486454  0.718577  1
  O  O36  1  0.175148  0.175149  0.764307  1
  O  O37  1  0.824833  0.000001  0.764302  1
  O  O38  1  0.000001  0.824833  0.764302  1
