# generated using pymatgen
data_Ac2In2(GaAu)3
_symmetry_space_group_name_H-M   'P 1'
_cell_length_a   4.51913000
_cell_length_b   4.51913000
_cell_length_c   11.77773600
_cell_angle_alpha   90.00000000
_cell_angle_beta   90.00000000
_cell_angle_gamma   90.00000000
_symmetry_Int_Tables_number   1
_chemical_formula_structural   Ac2In2(GaAu)3
_chemical_formula_sum   'Ac2 In2 Ga3 Au3'
_cell_volume   240.53123695
_cell_formula_units_Z   1
loop_
 _symmetry_equiv_pos_site_id
 _symmetry_equiv_pos_as_xyz
  1  'x, y, z'
loop_
 _atom_site_type_symbol
 _atom_site_label
 _atom_site_symmetry_multiplicity
 _atom_site_fract_x
 _atom_site_fract_y
 _atom_site_fract_z
 _atom_site_occupancy
  Ac  Ac0  1  0.000000  0.500000  0.272136  1
  Ac  Ac1  1  0.500000  0.000000  0.727864  1
  In  In2  1  0.500000  0.500000  0.000000  1
  In  In3  1  0.000000  0.000000  0.000000  1
  Ga  Ga4  1  0.000000  0.500000  0.624192  1
  Ga  Ga5  1  0.500000  0.000000  0.375808  1
  Ga  Ga6  1  0.000000  0.000000  0.500000  1
  Au  Au7  1  0.000000  0.500000  0.844594  1
  Au  Au8  1  0.500000  0.000000  0.155406  1
  Au  Au9  1  0.500000  0.500000  0.500000  1
