# generated using pymatgen
data_Pr5NdEr10(CdIr)4
_symmetry_space_group_name_H-M   'P 1'
_cell_length_a   9.73108273
_cell_length_b   9.73108360
_cell_length_c   9.74009100
_cell_angle_alpha   59.96937221
_cell_angle_beta   59.96936928
_cell_angle_gamma   59.92379373
_symmetry_Int_Tables_number   1
_chemical_formula_structural   Pr5NdEr10(CdIr)4
_chemical_formula_sum   'Pr5 Nd1 Er10 Cd4 Ir4'
_cell_volume   651.50634991
_cell_formula_units_Z   1
loop_
 _symmetry_equiv_pos_site_id
 _symmetry_equiv_pos_as_xyz
  1  'x, y, z'
loop_
 _atom_site_type_symbol
 _atom_site_label
 _atom_site_symmetry_multiplicity
 _atom_site_fract_x
 _atom_site_fract_y
 _atom_site_fract_z
 _atom_site_occupancy
  Pr  Pr0  1  0.941467  0.558569  0.558331  1
  Pr  Pr1  1  0.558569  0.941467  0.941633  1
  Pr  Pr2  1  0.558569  0.941467  0.558331  1
  Pr  Pr3  1  0.941467  0.558569  0.941633  1
  Pr  Pr4  1  0.558538  0.558538  0.941462  1
  Nd  Nd5  1  0.942354  0.942354  0.557646  1
  Er  Er6  1  0.346995  0.346995  0.345999  1
  Er  Er7  1  0.346995  0.346995  0.960011  1
  Er  Er8  1  0.347260  0.959390  0.346675  1
  Er  Er9  1  0.959390  0.347260  0.346675  1
  Er  Er10  1  0.812477  0.185778  0.187953  1
  Er  Er11  1  0.185778  0.812477  0.813792  1
  Er  Er12  1  0.185778  0.812477  0.187953  1
  Er  Er13  1  0.812477  0.185778  0.813792  1
  Er  Er14  1  0.186886  0.186886  0.813114  1
  Er  Er15  1  0.813260  0.813260  0.186740  1
  Cd  Cd16  1  0.579042  0.579042  0.578999  1
  Cd  Cd17  1  0.579042  0.579042  0.262917  1
  Cd  Cd18  1  0.579876  0.261930  0.579097  1
  Cd  Cd19  1  0.261930  0.579876  0.579097  1
  Ir  Ir20  1  0.141343  0.141343  0.140557  1
  Ir  Ir21  1  0.141343  0.141343  0.576755  1
  Ir  Ir22  1  0.141963  0.577201  0.140417  1
  Ir  Ir23  1  0.577201  0.141963  0.140417  1
