# generated using pymatgen
data_Ta8AlCoTe8
_symmetry_space_group_name_H-M   'P 1'
_cell_length_a   4.86481700
_cell_length_b   10.96392900
_cell_length_c   19.01743300
_cell_angle_alpha   90.00000000
_cell_angle_beta   90.00000000
_cell_angle_gamma   90.00000000
_symmetry_Int_Tables_number   1
_chemical_formula_structural   Ta8AlCoTe8
_chemical_formula_sum   'Ta16 Al2 Co2 Te16'
_cell_volume   1014.34248831
_cell_formula_units_Z   2
loop_
 _symmetry_equiv_pos_site_id
 _symmetry_equiv_pos_as_xyz
  1  'x, y, z'
loop_
 _atom_site_type_symbol
 _atom_site_label
 _atom_site_symmetry_multiplicity
 _atom_site_fract_x
 _atom_site_fract_y
 _atom_site_fract_z
 _atom_site_occupancy
  Ta  Ta0  1  0.499706  0.564440  0.382964  1
  Ta  Ta1  1  0.499706  0.435560  0.617036  1
  Ta  Ta2  1  0.500294  0.064440  0.117036  1
  Ta  Ta3  1  0.500294  0.935560  0.882964  1
  Ta  Ta4  1  0.496150  0.704571  0.536439  1
  Ta  Ta5  1  0.496150  0.295429  0.463561  1
  Ta  Ta6  1  0.503850  0.204571  0.963561  1
  Ta  Ta7  1  0.503850  0.795429  0.036439  1
  Ta  Ta8  1  0.003444  0.689969  0.442934  1
  Ta  Ta9  1  0.003444  0.310031  0.557066  1
  Ta  Ta10  1  0.996556  0.189969  0.057066  1
  Ta  Ta11  1  0.996556  0.810031  0.942934  1
  Ta  Ta12  1  0.000535  0.400842  0.391325  1
  Ta  Ta13  1  0.000535  0.599158  0.608675  1
  Ta  Ta14  1  0.999465  0.900842  0.108675  1
  Ta  Ta15  1  0.999465  0.099158  0.891325  1
  Al  Al16  1  0.249891  0.500000  0.500000  1
  Al  Al17  1  0.750109  0.000000  0.000000  1
  Co  Co18  1  0.749946  0.500000  0.500000  1
  Co  Co19  1  0.250054  0.000000  0.000000  1
  Te  Te20  1  0.989333  0.847039  0.562953  1
  Te  Te21  1  0.989333  0.152961  0.437047  1
  Te  Te22  1  0.010667  0.347039  0.937047  1
  Te  Te23  1  0.010667  0.652961  0.062953  1
  Te  Te24  1  0.508070  0.332731  0.315210  1
  Te  Te25  1  0.508070  0.667269  0.684790  1
  Te  Te26  1  0.491930  0.832731  0.184790  1
  Te  Te27  1  0.491930  0.167269  0.815210  1
  Te  Te28  1  0.510997  0.822755  0.402516  1
  Te  Te29  1  0.510997  0.177245  0.597484  1
  Te  Te30  1  0.489003  0.322755  0.097484  1
  Te  Te31  1  0.489003  0.677245  0.902516  1
  Te  Te32  1  0.991856  0.607942  0.300604  1
  Te  Te33  1  0.991856  0.392058  0.699396  1
  Te  Te34  1  0.008144  0.107942  0.199396  1
  Te  Te35  1  0.008144  0.892058  0.800604  1
