# generated using pymatgen
data_Ho5Lu5In8PtRh3
_symmetry_space_group_name_H-M   'P 1'
_cell_length_a   3.59001400
_cell_length_b   7.99802001
_cell_length_c   18.07031547
_cell_angle_alpha   89.94572905
_cell_angle_beta   90.00000000
_cell_angle_gamma   90.00000000
_symmetry_Int_Tables_number   1
_chemical_formula_structural   Ho5Lu5In8PtRh3
_chemical_formula_sum   'Ho5 Lu5 In8 Pt1 Rh3'
_cell_volume   518.85280395
_cell_formula_units_Z   1
loop_
 _symmetry_equiv_pos_site_id
 _symmetry_equiv_pos_as_xyz
  1  'x, y, z'
loop_
 _atom_site_type_symbol
 _atom_site_label
 _atom_site_symmetry_multiplicity
 _atom_site_fract_x
 _atom_site_fract_y
 _atom_site_fract_z
 _atom_site_occupancy
  Ho  Ho0  1  0.000000  0.755422  0.779797  1
  Ho  Ho1  1  0.000000  0.256116  0.720026  1
  Ho  Ho2  1  0.000000  0.749641  0.279793  1
  Ho  Ho3  1  0.000000  0.998440  0.999613  1
  Ho  Ho4  1  0.000000  0.500622  0.499987  1
  Lu  Lu5  1  0.000000  0.116702  0.412148  1
  Lu  Lu6  1  0.000000  0.882577  0.588274  1
  Lu  Lu7  1  0.000000  0.382598  0.911946  1
  Lu  Lu8  1  0.000000  0.616788  0.087774  1
  Lu  Lu9  1  0.000000  0.241916  0.221121  1
  In  In10  1  0.500000  0.421162  0.351622  1
  In  In11  1  0.500000  0.574166  0.650048  1
  In  In12  1  0.500000  0.076062  0.849609  1
  In  In13  1  0.500000  0.931179  0.149139  1
  In  In14  1  0.500000  0.294170  0.064523  1
  In  In15  1  0.500000  0.701967  0.934540  1
  In  In16  1  0.500000  0.202292  0.564779  1
  In  In17  1  0.500000  0.797419  0.434431  1
  Pt  Pt18  1  0.500000  0.521135  0.196350  1
  Rh  Rh19  1  0.500000  0.028993  0.304557  1
  Rh  Rh20  1  0.500000  0.976063  0.694332  1
  Rh  Rh21  1  0.500000  0.474572  0.805590  1
