# generated using pymatgen
data_Lu2Al5Si4Os2Rh
_symmetry_space_group_name_H-M   'P 1'
_cell_length_a   7.40638397
_cell_length_b   7.40638339
_cell_length_c   9.25704100
_cell_angle_alpha   90.00000000
_cell_angle_beta   90.00000000
_cell_angle_gamma   119.94750899
_symmetry_Int_Tables_number   1
_chemical_formula_structural   Lu2Al5Si4Os2Rh
_chemical_formula_sum   'Lu4 Al10 Si8 Os4 Rh2'
_cell_volume   439.99192075
_cell_formula_units_Z   2
loop_
 _symmetry_equiv_pos_site_id
 _symmetry_equiv_pos_as_xyz
  1  'x, y, z'
loop_
 _atom_site_type_symbol
 _atom_site_label
 _atom_site_symmetry_multiplicity
 _atom_site_fract_x
 _atom_site_fract_y
 _atom_site_fract_z
 _atom_site_occupancy
  Lu  Lu0  1  0.003878  0.667686  0.250000  1
  Lu  Lu1  1  0.996122  0.332314  0.750000  1
  Lu  Lu2  1  0.667686  0.003878  0.250000  1
  Lu  Lu3  1  0.332314  0.996122  0.750000  1
  Al  Al4  1  0.126293  0.126293  0.250000  1
  Al  Al5  1  0.873707  0.873707  0.750000  1
  Al  Al6  1  0.335430  0.335430  0.561935  1
  Al  Al7  1  0.664570  0.664570  0.438065  1
  Al  Al8  1  0.664570  0.664570  0.061935  1
  Al  Al9  1  0.335430  0.335430  0.938065  1
  Al  Al10  1  0.339711  0.548127  0.250000  1
  Al  Al11  1  0.660289  0.451873  0.750000  1
  Al  Al12  1  0.548127  0.339711  0.250000  1
  Al  Al13  1  0.451873  0.660289  0.750000  1
  Si  Si14  1  0.008126  0.336811  0.072039  1
  Si  Si15  1  0.991874  0.663189  0.927961  1
  Si  Si16  1  0.991874  0.663189  0.572039  1
  Si  Si17  1  0.336811  0.008126  0.427961  1
  Si  Si18  1  0.008126  0.336811  0.427961  1
  Si  Si19  1  0.663189  0.991874  0.572039  1
  Si  Si20  1  0.663189  0.991874  0.927961  1
  Si  Si21  1  0.336811  0.008126  0.072039  1
  Os  Os22  1  0.681373  0.318627  0.000000  1
  Os  Os23  1  0.318627  0.681373  0.000000  1
  Os  Os24  1  0.318627  0.681373  0.500000  1
  Os  Os25  1  0.681373  0.318627  0.500000  1
  Rh  Rh26  1  0.000000  0.000000  0.000000  1
  Rh  Rh27  1  0.000000  0.000000  0.500000  1
