# generated using pymatgen
data_RhSeO5
_symmetry_space_group_name_H-M   'P 1'
_cell_length_a   4.99617700
_cell_length_b   8.82112400
_cell_length_c   9.39342100
_cell_angle_alpha   90.00000000
_cell_angle_beta   90.00000000
_cell_angle_gamma   90.00000000
_symmetry_Int_Tables_number   1
_chemical_formula_structural   RhSeO5
_chemical_formula_sum   'Rh4 Se4 O20'
_cell_volume   413.98588131
_cell_formula_units_Z   4
loop_
 _symmetry_equiv_pos_site_id
 _symmetry_equiv_pos_as_xyz
  1  'x, y, z'
loop_
 _atom_site_type_symbol
 _atom_site_label
 _atom_site_symmetry_multiplicity
 _atom_site_fract_x
 _atom_site_fract_y
 _atom_site_fract_z
 _atom_site_occupancy
  Rh  Rh0  1  0.620683  0.339571  0.592992  1
  Rh  Rh1  1  0.120683  0.160429  0.407008  1
  Rh  Rh2  1  0.879317  0.660429  0.092992  1
  Rh  Rh3  1  0.379317  0.839571  0.907008  1
  Se  Se4  1  0.894010  0.022948  0.712069  1
  Se  Se5  1  0.394010  0.477052  0.287931  1
  Se  Se6  1  0.605990  0.977052  0.212069  1
  Se  Se7  1  0.105990  0.522948  0.787931  1
  O  O8  1  0.321211  0.382229  0.752184  1
  O  O9  1  0.217057  0.702034  0.753043  1
  O  O10  1  0.822835  0.520902  0.688851  1
  O  O11  1  0.946344  0.997425  0.533922  1
  O  O12  1  0.399740  0.176641  0.539251  1
  O  O13  1  0.899740  0.323359  0.460749  1
  O  O14  1  0.446344  0.502575  0.466078  1
  O  O15  1  0.322835  0.979098  0.311149  1
  O  O16  1  0.717057  0.797966  0.246957  1
  O  O17  1  0.821211  0.117771  0.247816  1
  O  O18  1  0.178789  0.617771  0.252184  1
  O  O19  1  0.282943  0.297966  0.253043  1
  O  O20  1  0.677165  0.479098  0.188851  1
  O  O21  1  0.553656  0.002575  0.033922  1
  O  O22  1  0.100260  0.823359  0.039251  1
  O  O23  1  0.600260  0.676641  0.960749  1
  O  O24  1  0.053656  0.497425  0.966078  1
  O  O25  1  0.177165  0.020902  0.811149  1
  O  O26  1  0.782943  0.202034  0.746957  1
  O  O27  1  0.678789  0.882229  0.747816  1
