# generated using pymatgen
data_SrPr(AsPd)4
_symmetry_space_group_name_H-M   'P 1'
_cell_length_a   4.43969900
_cell_length_b   4.43969900
_cell_length_c   10.21078900
_cell_angle_alpha   90.00000000
_cell_angle_beta   90.00000000
_cell_angle_gamma   90.00000000
_symmetry_Int_Tables_number   1
_chemical_formula_structural   SrPr(AsPd)4
_chemical_formula_sum   'Sr1 Pr1 As4 Pd4'
_cell_volume   201.26411874
_cell_formula_units_Z   1
loop_
 _symmetry_equiv_pos_site_id
 _symmetry_equiv_pos_as_xyz
  1  'x, y, z'
loop_
 _atom_site_type_symbol
 _atom_site_label
 _atom_site_symmetry_multiplicity
 _atom_site_fract_x
 _atom_site_fract_y
 _atom_site_fract_z
 _atom_site_occupancy
  Sr  Sr0  1  0.000000  0.500001  0.250087  1
  Pr  Pr1  1  0.500001  0.000000  0.753189  1
  As  As2  1  0.000000  0.000000  0.997088  1
  As  As3  1  0.500001  0.500001  0.997088  1
  As  As4  1  0.500001  0.000000  0.366694  1
  As  As5  1  0.000000  0.500001  0.632472  1
  Pd  Pd6  1  0.500001  0.000000  0.120201  1
  Pd  Pd7  1  0.000000  0.000000  0.504720  1
  Pd  Pd8  1  0.500001  0.500001  0.504720  1
  Pd  Pd9  1  0.000000  0.500001  0.873740  1
