# generated using pymatgen
data_TmLu2Fe9
_symmetry_space_group_name_H-M   'P 1'
_cell_length_a   5.04927316
_cell_length_b   5.04927368
_cell_length_c   8.50630210
_cell_angle_alpha   72.73473674
_cell_angle_beta   72.73473333
_cell_angle_gamma   60.00000688
_symmetry_Int_Tables_number   1
_chemical_formula_structural   TmLu2Fe9
_chemical_formula_sum   'Tm1 Lu2 Fe9'
_cell_volume   176.44070247
_cell_formula_units_Z   1
loop_
 _symmetry_equiv_pos_site_id
 _symmetry_equiv_pos_as_xyz
  1  'x, y, z'
loop_
 _atom_site_type_symbol
 _atom_site_label
 _atom_site_symmetry_multiplicity
 _atom_site_fract_x
 _atom_site_fract_y
 _atom_site_fract_z
 _atom_site_occupancy
  Tm  Tm0  1  0.000000  0.000000  0.000000  1
  Lu  Lu1  1  0.141951  0.141951  0.574146  1
  Lu  Lu2  1  0.858049  0.858049  0.425854  1
  Fe  Fe3  1  0.081556  0.582251  0.753942  1
  Fe  Fe4  1  0.582251  0.582251  0.753942  1
  Fe  Fe5  1  0.582251  0.081556  0.753942  1
  Fe  Fe6  1  0.918444  0.417749  0.246058  1
  Fe  Fe7  1  0.417749  0.417749  0.246058  1
  Fe  Fe8  1  0.417749  0.918444  0.246058  1
  Fe  Fe9  1  0.332817  0.332817  0.001549  1
  Fe  Fe10  1  0.667183  0.667183  0.998451  1
  Fe  Fe11  1  0.500000  0.500000  0.500000  1
