# generated using pymatgen
data_Yb12Dy7YSn16
_symmetry_space_group_name_H-M   'P 1'
_cell_length_a   7.84025300
_cell_length_b   8.44210300
_cell_length_c   16.05604700
_cell_angle_alpha   90.00152023
_cell_angle_beta   90.00150567
_cell_angle_gamma   89.99925401
_symmetry_Int_Tables_number   1
_chemical_formula_structural   Yb12Dy7YSn16
_chemical_formula_sum   'Yb12 Dy7 Y1 Sn16'
_cell_volume   1062.72122489
_cell_formula_units_Z   1
loop_
 _symmetry_equiv_pos_site_id
 _symmetry_equiv_pos_as_xyz
  1  'x, y, z'
loop_
 _atom_site_type_symbol
 _atom_site_label
 _atom_site_symmetry_multiplicity
 _atom_site_fract_x
 _atom_site_fract_y
 _atom_site_fract_z
 _atom_site_occupancy
  Yb  Yb0  1  0.505038  0.688711  0.592736  1
  Yb  Yb1  1  0.005005  0.811282  0.907263  1
  Yb  Yb2  1  0.494995  0.311291  0.092744  1
  Yb  Yb3  1  0.994996  0.188705  0.407250  1
  Yb  Yb4  1  0.494971  0.311290  0.407236  1
  Yb  Yb5  1  0.994995  0.188707  0.092747  1
  Yb  Yb6  1  0.505011  0.688698  0.907258  1
  Yb  Yb7  1  0.005030  0.811246  0.592739  1
  Yb  Yb8  1  0.835459  0.512304  0.750015  1
  Yb  Yb9  1  0.335400  0.987687  0.750023  1
  Yb  Yb10  1  0.164557  0.487728  0.249997  1
  Yb  Yb11  1  0.664555  0.012275  0.250002  1
  Dy  Dy12  1  0.172778  0.334112  0.877975  1
  Dy  Dy13  1  0.327236  0.834097  0.122035  1
  Dy  Dy14  1  0.827234  0.665911  0.377973  1
  Dy  Dy15  1  0.327213  0.834053  0.377966  1
  Dy  Dy16  1  0.827254  0.665910  0.122032  1
  Dy  Dy17  1  0.672731  0.165921  0.877954  1
  Dy  Dy18  1  0.172736  0.334077  0.622030  1
  Y  Y19  1  0.672828  0.165905  0.622007  1
  Sn  Sn20  1  0.671768  0.964278  0.459187  1
  Sn  Sn21  1  0.171786  0.535668  0.040757  1
  Sn  Sn22  1  0.328213  0.035667  0.959250  1
  Sn  Sn23  1  0.828293  0.464558  0.540697  1
  Sn  Sn24  1  0.328131  0.035620  0.540717  1
  Sn  Sn25  1  0.828226  0.464332  0.959241  1
  Sn  Sn26  1  0.671780  0.964334  0.040754  1
  Sn  Sn27  1  0.171780  0.535659  0.459242  1
  Sn  Sn28  1  0.471508  0.374812  0.750103  1
  Sn  Sn29  1  0.971683  0.125252  0.750020  1
  Sn  Sn30  1  0.528394  0.625289  0.250007  1
  Sn  Sn31  1  0.028393  0.874719  0.250001  1
  Sn  Sn32  1  0.717585  0.873458  0.750046  1
  Sn  Sn33  1  0.217548  0.626439  0.749989  1
  Sn  Sn34  1  0.282444  0.126433  0.250005  1
  Sn  Sn35  1  0.782446  0.373570  0.250003  1
