# generated using pymatgen
data_Tb17Zr2CdIr12
_symmetry_space_group_name_H-M   'P 1'
_cell_length_a   10.89547400
_cell_length_b   10.89547400
_cell_length_c   6.30921400
_cell_angle_alpha   90.00000000
_cell_angle_beta   90.00000000
_cell_angle_gamma   90.00000000
_symmetry_Int_Tables_number   1
_chemical_formula_structural   Tb17Zr2CdIr12
_chemical_formula_sum   'Tb17 Zr2 Cd1 Ir12'
_cell_volume   748.97533463
_cell_formula_units_Z   1
loop_
 _symmetry_equiv_pos_site_id
 _symmetry_equiv_pos_as_xyz
  1  'x, y, z'
loop_
 _atom_site_type_symbol
 _atom_site_label
 _atom_site_symmetry_multiplicity
 _atom_site_fract_x
 _atom_site_fract_y
 _atom_site_fract_z
 _atom_site_occupancy
  Tb  Tb0  1  0.283145  0.083403  0.378351  1
  Tb  Tb1  1  0.293003  0.910990  0.877624  1
  Tb  Tb2  1  0.706997  0.089010  0.877624  1
  Tb  Tb3  1  0.716855  0.916597  0.378351  1
  Tb  Tb4  1  0.587526  0.789330  0.878623  1
  Tb  Tb5  1  0.585235  0.210037  0.375036  1
  Tb  Tb6  1  0.414765  0.789963  0.375036  1
  Tb  Tb7  1  0.412474  0.210670  0.878623  1
  Tb  Tb8  1  0.210037  0.414765  0.624964  1
  Tb  Tb9  1  0.210670  0.587526  0.121377  1
  Tb  Tb10  1  0.789330  0.412474  0.121377  1
  Tb  Tb11  1  0.789963  0.585235  0.624964  1
  Tb  Tb12  1  0.910990  0.706997  0.122376  1
  Tb  Tb13  1  0.916597  0.283145  0.621649  1
  Tb  Tb14  1  0.083403  0.716855  0.621649  1
  Tb  Tb15  1  0.089010  0.293003  0.122376  1
  Tb  Tb16  1  0.000000  0.000000  0.000000  1
  Zr  Zr17  1  0.500000  0.500000  0.000000  1
  Zr  Zr18  1  0.500000  0.500000  0.500000  1
  Cd  Cd19  1  0.000000  0.000000  0.500000  1
  Ir  Ir20  1  0.843086  0.159482  0.240501  1
  Ir  Ir21  1  0.840518  0.843086  0.759499  1
  Ir  Ir22  1  0.159482  0.156914  0.759499  1
  Ir  Ir23  1  0.156914  0.840518  0.240501  1
  Ir  Ir24  1  0.643611  0.357081  0.747564  1
  Ir  Ir25  1  0.642919  0.643611  0.252436  1
  Ir  Ir26  1  0.357081  0.356389  0.252436  1
  Ir  Ir27  1  0.356389  0.642919  0.747564  1
  Ir  Ir28  1  0.500000  0.000000  0.124827  1
  Ir  Ir29  1  0.500000  0.000000  0.619669  1
  Ir  Ir30  1  0.000000  0.500000  0.875173  1
  Ir  Ir31  1  0.000000  0.500000  0.380331  1
