# generated using pymatgen
data_RbHgF4
_symmetry_space_group_name_H-M   'P 1'
_cell_length_a   7.68182207
_cell_length_b   7.68182304
_cell_length_c   7.68182264
_cell_angle_alpha   132.05058985
_cell_angle_beta   132.05059428
_cell_angle_gamma   70.14913548
_symmetry_Int_Tables_number   1
_chemical_formula_structural   RbHgF4
_chemical_formula_sum   'Rb2 Hg2 F8'
_cell_volume   245.01111620
_cell_formula_units_Z   2
loop_
 _symmetry_equiv_pos_site_id
 _symmetry_equiv_pos_as_xyz
  1  'x, y, z'
loop_
 _atom_site_type_symbol
 _atom_site_label
 _atom_site_symmetry_multiplicity
 _atom_site_fract_x
 _atom_site_fract_y
 _atom_site_fract_z
 _atom_site_occupancy
  Rb  Rb0  1  0.250000  0.250000  0.000000  1
  Rb  Rb1  1  0.750000  0.750000  0.000000  1
  Hg  Hg2  1  0.500000  0.000000  0.500000  1
  Hg  Hg3  1  0.000000  0.500000  0.500000  1
  F  F4  1  0.440330  0.940330  0.154295  1
  F  F5  1  0.213964  0.713964  0.154295  1
  F  F6  1  0.559670  0.059670  0.845705  1
  F  F7  1  0.059670  0.213964  0.500000  1
  F  F8  1  0.786036  0.286036  0.845705  1
  F  F9  1  0.286036  0.440330  0.500000  1
  F  F10  1  0.940330  0.786036  0.500000  1
  F  F11  1  0.713964  0.559670  0.500000  1
