# generated using pymatgen
data_YLu4(CoO6)2
_symmetry_space_group_name_H-M   'P 1'
_cell_length_a   6.63263585
_cell_length_b   6.63263613
_cell_length_c   7.02878200
_cell_angle_alpha   74.58268910
_cell_angle_beta   74.58267949
_cell_angle_gamma   50.57871282
_symmetry_Int_Tables_number   1
_chemical_formula_structural   YLu4(CoO6)2
_chemical_formula_sum   'Y1 Lu4 Co2 O12'
_cell_volume   228.30498446
_cell_formula_units_Z   1
loop_
 _symmetry_equiv_pos_site_id
 _symmetry_equiv_pos_as_xyz
  1  'x, y, z'
loop_
 _atom_site_type_symbol
 _atom_site_label
 _atom_site_symmetry_multiplicity
 _atom_site_fract_x
 _atom_site_fract_y
 _atom_site_fract_z
 _atom_site_occupancy
  Y  Y0  1  0.000000  0.000000  0.500000  1
  Lu  Lu1  1  0.304847  0.304847  0.356635  1
  Lu  Lu2  1  0.695153  0.695153  0.643365  1
  Lu  Lu3  1  0.307754  0.307754  0.834948  1
  Lu  Lu4  1  0.692246  0.692246  0.165052  1
  Co  Co5  1  0.754756  0.245244  0.000000  1
  Co  Co6  1  0.245244  0.754756  0.000000  1
  O  O7  1  0.901664  0.421429  0.919821  1
  O  O8  1  0.421429  0.901664  0.919821  1
  O  O9  1  0.098336  0.578571  0.080179  1
  O  O10  1  0.578571  0.098336  0.080179  1
  O  O11  1  0.097386  0.592661  0.577284  1
  O  O12  1  0.592661  0.097386  0.577284  1
  O  O13  1  0.902614  0.407339  0.422716  1
  O  O14  1  0.407339  0.902614  0.422716  1
  O  O15  1  0.000406  0.000406  0.827035  1
  O  O16  1  0.999594  0.999594  0.172965  1
  O  O17  1  0.500325  0.500325  0.818671  1
  O  O18  1  0.499675  0.499675  0.181329  1
