# generated using pymatgen
data_Tb3Y2Ho5(CoSb2)2
_symmetry_space_group_name_H-M   'P 1'
_cell_length_a   7.88419000
_cell_length_b   8.76159700
_cell_length_c   12.19989500
_cell_angle_alpha   90.00000000
_cell_angle_beta   90.00000000
_cell_angle_gamma   90.00000000
_symmetry_Int_Tables_number   1
_chemical_formula_structural   Tb3Y2Ho5(CoSb2)2
_chemical_formula_sum   'Tb6 Y4 Ho10 Co4 Sb8'
_cell_volume   842.74551131
_cell_formula_units_Z   2
loop_
 _symmetry_equiv_pos_site_id
 _symmetry_equiv_pos_as_xyz
  1  'x, y, z'
loop_
 _atom_site_type_symbol
 _atom_site_label
 _atom_site_symmetry_multiplicity
 _atom_site_fract_x
 _atom_site_fract_y
 _atom_site_fract_z
 _atom_site_occupancy
  Tb  Tb0  1  0.545456  0.250000  0.001932  1
  Tb  Tb1  1  0.045456  0.750000  0.498068  1
  Tb  Tb2  1  0.622408  0.750000  0.306203  1
  Tb  Tb3  1  0.122408  0.250000  0.193797  1
  Tb  Tb4  1  0.377744  0.250000  0.693797  1
  Tb  Tb5  1  0.877744  0.750000  0.806203  1
  Y  Y6  1  0.154881  0.750000  0.204017  1
  Y  Y7  1  0.654881  0.250000  0.295983  1
  Y  Y8  1  0.845195  0.250000  0.795762  1
  Y  Y9  1  0.345195  0.750000  0.704238  1
  Ho  Ho10  1  0.454256  0.750000  0.998181  1
  Ho  Ho11  1  0.954256  0.250000  0.501819  1
  Ho  Ho12  1  0.821728  0.964156  0.064886  1
  Ho  Ho13  1  0.321728  0.035844  0.435114  1
  Ho  Ho14  1  0.178390  0.464698  0.935176  1
  Ho  Ho15  1  0.678390  0.535302  0.564824  1
  Ho  Ho16  1  0.178390  0.035302  0.935176  1
  Ho  Ho17  1  0.678390  0.964698  0.564824  1
  Ho  Ho18  1  0.821728  0.535844  0.064886  1
  Ho  Ho19  1  0.321728  0.464156  0.435114  1
  Co  Co20  1  0.434228  0.750000  0.489744  1
  Co  Co21  1  0.934228  0.250000  0.010256  1
  Co  Co22  1  0.566166  0.250000  0.510271  1
  Co  Co23  1  0.066166  0.750000  0.989729  1
  Sb  Sb24  1  0.928223  0.992239  0.327237  1
  Sb  Sb25  1  0.428223  0.007761  0.172763  1
  Sb  Sb26  1  0.071491  0.491175  0.672827  1
  Sb  Sb27  1  0.571491  0.508825  0.827173  1
  Sb  Sb28  1  0.071491  0.008825  0.672827  1
  Sb  Sb29  1  0.571491  0.991175  0.827173  1
  Sb  Sb30  1  0.928223  0.507761  0.327237  1
  Sb  Sb31  1  0.428223  0.492239  0.172763  1
