# generated using pymatgen
data_Pr6Nd(YPb2)3
_symmetry_space_group_name_H-M   'P 1'
_cell_length_a   9.35154600
_cell_length_b   9.35154789
_cell_length_c   6.84641800
_cell_angle_alpha   90.00000000
_cell_angle_beta   90.00000000
_cell_angle_gamma   120.00000041
_symmetry_Int_Tables_number   1
_chemical_formula_structural   Pr6Nd(YPb2)3
_chemical_formula_sum   'Pr6 Nd1 Y3 Pb6'
_cell_volume   518.51456167
_cell_formula_units_Z   1
loop_
 _symmetry_equiv_pos_site_id
 _symmetry_equiv_pos_as_xyz
  1  'x, y, z'
loop_
 _atom_site_type_symbol
 _atom_site_label
 _atom_site_symmetry_multiplicity
 _atom_site_fract_x
 _atom_site_fract_y
 _atom_site_fract_z
 _atom_site_occupancy
  Pr  Pr0  1  0.759590  0.759162  0.750771  1
  Pr  Pr1  1  0.240838  0.000428  0.750771  1
  Pr  Pr2  1  0.999572  0.240410  0.750771  1
  Pr  Pr3  1  0.240838  0.240410  0.249229  1
  Pr  Pr4  1  0.759590  0.000428  0.249229  1
  Pr  Pr5  1  0.999572  0.759162  0.249229  1
  Nd  Nd6  1  0.666667  0.333333  0.500000  1
  Y  Y7  1  0.666667  0.333333  0.000000  1
  Y  Y8  1  0.333333  0.666667  0.000000  1
  Y  Y9  1  0.333333  0.666667  0.500000  1
  Pb  Pb10  1  0.396648  0.400013  0.753487  1
  Pb  Pb11  1  0.599987  0.996635  0.753487  1
  Pb  Pb12  1  0.003365  0.603352  0.753487  1
  Pb  Pb13  1  0.599987  0.603352  0.246513  1
  Pb  Pb14  1  0.396648  0.996635  0.246513  1
  Pb  Pb15  1  0.003365  0.400013  0.246513  1
