# generated using pymatgen
data_Cs2NdCl5
_symmetry_space_group_name_H-M   'P 1'
_cell_length_a   8.67668900
_cell_length_b   9.14337700
_cell_length_c   14.11908300
_cell_angle_alpha   90.00000000
_cell_angle_beta   90.00000000
_cell_angle_gamma   90.00000000
_symmetry_Int_Tables_number   1
_chemical_formula_structural   Cs2NdCl5
_chemical_formula_sum   'Cs8 Nd4 Cl20'
_cell_volume   1120.12670008
_cell_formula_units_Z   4
loop_
 _symmetry_equiv_pos_site_id
 _symmetry_equiv_pos_as_xyz
  1  'x, y, z'
loop_
 _atom_site_type_symbol
 _atom_site_label
 _atom_site_symmetry_multiplicity
 _atom_site_fract_x
 _atom_site_fract_y
 _atom_site_fract_z
 _atom_site_occupancy
  Cs  Cs0  1  0.947079  0.005217  0.828496  1
  Cs  Cs1  1  0.052921  0.994783  0.171504  1
  Cs  Cs2  1  0.447079  0.994783  0.671504  1
  Cs  Cs3  1  0.052921  0.505217  0.171504  1
  Cs  Cs4  1  0.552921  0.005217  0.328496  1
  Cs  Cs5  1  0.947079  0.494783  0.828496  1
  Cs  Cs6  1  0.552921  0.494783  0.328496  1
  Cs  Cs7  1  0.447079  0.505217  0.671504  1
  Nd  Nd8  1  0.933961  0.750000  0.502773  1
  Nd  Nd9  1  0.066039  0.250000  0.497227  1
  Nd  Nd10  1  0.433961  0.250000  0.997227  1
  Nd  Nd11  1  0.566039  0.750000  0.002773  1
  Cl  Cl12  1  0.111244  0.750000  0.666183  1
  Cl  Cl13  1  0.888756  0.250000  0.333817  1
  Cl  Cl14  1  0.611244  0.250000  0.833817  1
  Cl  Cl15  1  0.388756  0.750000  0.166183  1
  Cl  Cl16  1  0.847440  0.040195  0.568473  1
  Cl  Cl17  1  0.152560  0.959805  0.431527  1
  Cl  Cl18  1  0.347440  0.959805  0.931527  1
  Cl  Cl19  1  0.152560  0.540195  0.431527  1
  Cl  Cl20  1  0.652560  0.040195  0.068473  1
  Cl  Cl21  1  0.847440  0.459805  0.568473  1
  Cl  Cl22  1  0.652560  0.459805  0.068473  1
  Cl  Cl23  1  0.347440  0.540195  0.931527  1
  Cl  Cl24  1  0.612358  0.750000  0.512901  1
  Cl  Cl25  1  0.387642  0.250000  0.487099  1
  Cl  Cl26  1  0.112358  0.250000  0.987099  1
  Cl  Cl27  1  0.887642  0.750000  0.012901  1
  Cl  Cl28  1  0.648693  0.750000  0.812252  1
  Cl  Cl29  1  0.351307  0.250000  0.187748  1
  Cl  Cl30  1  0.148693  0.250000  0.687748  1
  Cl  Cl31  1  0.851307  0.750000  0.312252  1
