# generated using pymatgen
data_Tb4Ga18IrRu5
_symmetry_space_group_name_H-M   'P 1'
_cell_length_a   7.51608987
_cell_length_b   7.51609071
_cell_length_c   9.69409773
_cell_angle_alpha   90.08133408
_cell_angle_beta   90.08134705
_cell_angle_gamma   119.67504956
_symmetry_Int_Tables_number   1
_chemical_formula_structural   Tb4Ga18IrRu5
_chemical_formula_sum   'Tb4 Ga18 Ir1 Ru5'
_cell_volume   475.80942115
_cell_formula_units_Z   1
loop_
 _symmetry_equiv_pos_site_id
 _symmetry_equiv_pos_as_xyz
  1  'x, y, z'
loop_
 _atom_site_type_symbol
 _atom_site_label
 _atom_site_symmetry_multiplicity
 _atom_site_fract_x
 _atom_site_fract_y
 _atom_site_fract_z
 _atom_site_occupancy
  Tb  Tb0  1  0.997669  0.670015  0.249991  1
  Tb  Tb1  1  0.002331  0.329985  0.750009  1
  Tb  Tb2  1  0.670016  0.997669  0.249991  1
  Tb  Tb3  1  0.329984  0.002331  0.750009  1
  Ga  Ga4  1  0.129774  0.129774  0.251212  1
  Ga  Ga5  1  0.870226  0.870226  0.748788  1
  Ga  Ga6  1  0.004810  0.336802  0.076860  1
  Ga  Ga7  1  0.995190  0.663198  0.923140  1
  Ga  Ga8  1  0.993954  0.664472  0.576260  1
  Ga  Ga9  1  0.335528  0.006046  0.423740  1
  Ga  Ga10  1  0.006046  0.335528  0.423740  1
  Ga  Ga11  1  0.664472  0.993954  0.576260  1
  Ga  Ga12  1  0.663198  0.995190  0.923140  1
  Ga  Ga13  1  0.336802  0.004810  0.076860  1
  Ga  Ga14  1  0.337448  0.337448  0.560872  1
  Ga  Ga15  1  0.662552  0.662552  0.439128  1
  Ga  Ga16  1  0.661348  0.661348  0.061385  1
  Ga  Ga17  1  0.338652  0.338652  0.938615  1
  Ga  Ga18  1  0.337685  0.550083  0.249953  1
  Ga  Ga19  1  0.662315  0.449917  0.750047  1
  Ga  Ga20  1  0.550083  0.337685  0.249953  1
  Ga  Ga21  1  0.449917  0.662315  0.750047  1
  Ir  Ir22  1  0.000000  0.000000  0.000000  1
  Ru  Ru23  1  0.673827  0.326173  0.000000  1
  Ru  Ru24  1  0.326173  0.673827  0.000000  1
  Ru  Ru25  1  0.325539  0.674460  0.500000  1
  Ru  Ru26  1  0.674461  0.325540  0.500000  1
  Ru  Ru27  1  0.000000  0.000000  0.500000  1
