# generated using pymatgen
data_Zr4In2NiIrPd2
_symmetry_space_group_name_H-M   'P 1'
_cell_length_a   7.52849408
_cell_length_b   7.52849455
_cell_length_c   6.75232882
_cell_angle_alpha   90.31193078
_cell_angle_beta   89.68806933
_cell_angle_gamma   89.13568502
_symmetry_Int_Tables_number   1
_chemical_formula_structural   Zr4In2NiIrPd2
_chemical_formula_sum   'Zr8 In4 Ni2 Ir2 Pd4'
_cell_volume   382.65496298
_cell_formula_units_Z   2
loop_
 _symmetry_equiv_pos_site_id
 _symmetry_equiv_pos_as_xyz
  1  'x, y, z'
loop_
 _atom_site_type_symbol
 _atom_site_label
 _atom_site_symmetry_multiplicity
 _atom_site_fract_x
 _atom_site_fract_y
 _atom_site_fract_z
 _atom_site_occupancy
  Zr  Zr0  1  0.652812  0.652812  0.500000  1
  Zr  Zr1  1  0.808742  0.191258  0.501691  1
  Zr  Zr2  1  0.673129  0.673129  0.000000  1
  Zr  Zr3  1  0.833944  0.166056  0.000687  1
  Zr  Zr4  1  0.191258  0.808742  0.498309  1
  Zr  Zr5  1  0.326871  0.326871  0.000000  1
  Zr  Zr6  1  0.166056  0.833944  0.999313  1
  Zr  Zr7  1  0.347188  0.347188  0.500000  1
  In  In8  1  0.003504  0.500856  0.248875  1
  In  In9  1  0.500856  0.003504  0.751125  1
  In  In10  1  0.499144  0.996496  0.248875  1
  In  In11  1  0.996496  0.499144  0.751125  1
  Ni  Ni12  1  0.631629  0.368371  0.780499  1
  Ni  Ni13  1  0.368371  0.631629  0.219501  1
  Ir  Ir14  1  0.621668  0.378332  0.231429  1
  Ir  Ir15  1  0.378332  0.621668  0.768571  1
  Pd  Pd16  1  0.871880  0.871143  0.722829  1
  Pd  Pd17  1  0.128120  0.128857  0.277171  1
  Pd  Pd18  1  0.871143  0.871880  0.277171  1
  Pd  Pd19  1  0.128857  0.128120  0.722829  1
