# generated using pymatgen
data_Cd4P7N12
_symmetry_space_group_name_H-M   'P 1'
_cell_length_a   7.42503593
_cell_length_b   7.42503662
_cell_length_c   7.42503700
_cell_angle_alpha   109.47121894
_cell_angle_beta   109.47122083
_cell_angle_gamma   109.47122242
_symmetry_Int_Tables_number   1
_chemical_formula_structural   Cd4P7N12
_chemical_formula_sum   'Cd4 P7 N12'
_cell_volume   315.11849190
_cell_formula_units_Z   1
loop_
 _symmetry_equiv_pos_site_id
 _symmetry_equiv_pos_as_xyz
  1  'x, y, z'
loop_
 _atom_site_type_symbol
 _atom_site_label
 _atom_site_symmetry_multiplicity
 _atom_site_fract_x
 _atom_site_fract_y
 _atom_site_fract_z
 _atom_site_occupancy
  Cd  Cd0  1  0.668188  0.000000  0.000000  1
  Cd  Cd1  1  0.000000  0.000000  0.668188  1
  Cd  Cd2  1  0.000000  0.668188  0.000000  1
  Cd  Cd3  1  0.331812  0.331812  0.331812  1
  P  P4  1  0.250000  0.750000  0.500000  1
  P  P5  1  0.750000  0.250000  0.500000  1
  P  P6  1  0.750000  0.500000  0.250000  1
  P  P7  1  0.250000  0.500000  0.750000  1
  P  P8  1  0.500000  0.750000  0.250000  1
  P  P9  1  0.500000  0.250000  0.750000  1
  P  P10  1  0.000000  0.000000  0.000000  1
  N  N11  1  0.710630  0.286647  0.286647  1
  N  N12  1  0.286647  0.710630  0.286647  1
  N  N13  1  0.289370  0.576017  0.576017  1
  N  N14  1  0.576017  0.576017  0.289370  1
  N  N15  1  0.423983  0.713353  0.000000  1
  N  N16  1  0.000000  0.713353  0.423983  1
  N  N17  1  0.576017  0.289370  0.576017  1
  N  N18  1  0.713353  0.000000  0.423983  1
  N  N19  1  0.423983  0.000000  0.713353  1
  N  N20  1  0.713353  0.423983  0.000000  1
  N  N21  1  0.286647  0.286647  0.710630  1
  N  N22  1  0.000000  0.423983  0.713353  1
