# generated using pymatgen
data_GdDyRu2F14
_symmetry_space_group_name_H-M   'P 1'
_cell_length_a   5.58268400
_cell_length_b   8.98574521
_cell_length_c   12.07308000
_cell_angle_alpha   63.04509673
_cell_angle_beta   90.00000000
_cell_angle_gamma   90.00000000
_symmetry_Int_Tables_number   1
_chemical_formula_structural   GdDyRu2F14
_chemical_formula_sum   'Gd2 Dy2 Ru4 F28'
_cell_volume   539.84627460
_cell_formula_units_Z   2
loop_
 _symmetry_equiv_pos_site_id
 _symmetry_equiv_pos_as_xyz
  1  'x, y, z'
loop_
 _atom_site_type_symbol
 _atom_site_label
 _atom_site_symmetry_multiplicity
 _atom_site_fract_x
 _atom_site_fract_y
 _atom_site_fract_z
 _atom_site_occupancy
  Gd  Gd0  1  0.241330  0.190451  0.231798  1
  Gd  Gd1  1  0.741330  0.809549  0.268202  1
  Dy  Dy2  1  0.758632  0.811786  0.767714  1
  Dy  Dy3  1  0.258632  0.188214  0.732286  1
  Ru  Ru4  1  0.756005  0.274317  0.953443  1
  Ru  Ru5  1  0.256005  0.725683  0.546557  1
  Ru  Ru6  1  0.245512  0.728510  0.041163  1
  Ru  Ru7  1  0.745512  0.271490  0.458837  1
  F  F8  1  0.446620  0.706905  0.915460  1
  F  F9  1  0.946620  0.293095  0.584540  1
  F  F10  1  0.555571  0.294834  0.079796  1
  F  F11  1  0.055571  0.705166  0.420204  1
  F  F12  1  0.451371  0.279927  0.548135  1
  F  F13  1  0.951371  0.720073  0.951865  1
  F  F14  1  0.548534  0.717066  0.457105  1
  F  F15  1  0.048534  0.282934  0.042895  1
  F  F16  1  0.766039  0.512741  0.858717  1
  F  F17  1  0.266039  0.487259  0.641283  1
  F  F18  1  0.232572  0.490760  0.136473  1
  F  F19  1  0.732572  0.509240  0.363527  1
  F  F20  1  0.757554  0.037598  0.046526  1
  F  F21  1  0.257554  0.962402  0.453474  1
  F  F22  1  0.244272  0.965397  0.949577  1
  F  F23  1  0.744272  0.034603  0.550423  1
  F  F24  1  0.969881  0.732316  0.640259  1
  F  F25  1  0.469881  0.267684  0.859741  1
  F  F26  1  0.032719  0.269828  0.364999  1
  F  F27  1  0.532719  0.730172  0.135001  1
  F  F28  1  0.048801  0.748136  0.170299  1
  F  F29  1  0.548801  0.251864  0.329701  1
  F  F30  1  0.955886  0.251143  0.826653  1
  F  F31  1  0.455886  0.748857  0.673347  1
  F  F32  1  0.412747  0.969075  0.231082  1
  F  F33  1  0.912747  0.030925  0.268918  1
  F  F34  1  0.575954  0.026034  0.767031  1
  F  F35  1  0.075954  0.973966  0.732969  1
