# generated using pymatgen
data_Tb4Ho(OsO6)2
_symmetry_space_group_name_H-M   'P 1'
_cell_length_a   6.90368891
_cell_length_b   6.90368973
_cell_length_c   7.51426800
_cell_angle_alpha   73.95134439
_cell_angle_beta   73.95133909
_cell_angle_gamma   48.48659798
_symmetry_Int_Tables_number   1
_chemical_formula_structural   Tb4Ho(OsO6)2
_chemical_formula_sum   'Tb4 Ho1 Os2 O12'
_cell_volume   255.55016003
_cell_formula_units_Z   1
loop_
 _symmetry_equiv_pos_site_id
 _symmetry_equiv_pos_as_xyz
  1  'x, y, z'
loop_
 _atom_site_type_symbol
 _atom_site_label
 _atom_site_symmetry_multiplicity
 _atom_site_fract_x
 _atom_site_fract_y
 _atom_site_fract_z
 _atom_site_occupancy
  Tb  Tb0  1  0.312517  0.312517  0.828483  1
  Tb  Tb1  1  0.687483  0.687483  0.171517  1
  Tb  Tb2  1  0.698465  0.698465  0.642313  1
  Tb  Tb3  1  0.301535  0.301535  0.357687  1
  Ho  Ho4  1  0.000000  0.000000  0.500000  1
  Os  Os5  1  0.218983  0.781017  0.000000  1
  Os  Os6  1  0.781017  0.218983  0.000000  1
  O  O7  1  0.498890  0.498890  0.172815  1
  O  O8  1  0.501110  0.501110  0.827185  1
  O  O9  1  0.001066  0.001066  0.203693  1
  O  O10  1  0.998934  0.998934  0.796307  1
  O  O11  1  0.913478  0.418067  0.914698  1
  O  O12  1  0.581933  0.086522  0.085302  1
  O  O13  1  0.086522  0.581933  0.085302  1
  O  O14  1  0.597987  0.098572  0.572066  1
  O  O15  1  0.901428  0.402013  0.427934  1
  O  O16  1  0.402013  0.901428  0.427934  1
  O  O17  1  0.098572  0.597987  0.572066  1
  O  O18  1  0.418067  0.913478  0.914698  1
