# generated using pymatgen
data_Na5SrVAs4
_symmetry_space_group_name_H-M   'P 1'
_cell_length_a   9.44831088
_cell_length_b   9.44831088
_cell_length_c   7.50852469
_cell_angle_alpha   90.18249088
_cell_angle_beta   90.18248473
_cell_angle_gamma   120.12030491
_symmetry_Int_Tables_number   1
_chemical_formula_structural   Na5SrVAs4
_chemical_formula_sum   'Na10 Sr2 V2 As8'
_cell_volume   579.77166978
_cell_formula_units_Z   2
loop_
 _symmetry_equiv_pos_site_id
 _symmetry_equiv_pos_as_xyz
  1  'x, y, z'
loop_
 _atom_site_type_symbol
 _atom_site_label
 _atom_site_symmetry_multiplicity
 _atom_site_fract_x
 _atom_site_fract_y
 _atom_site_fract_z
 _atom_site_occupancy
  Na  Na0  1  0.534572  0.475173  0.611393  1
  Na  Na1  1  0.940995  0.473696  0.610918  1
  Na  Na2  1  0.475173  0.534572  0.111393  1
  Na  Na3  1  0.473696  0.940995  0.110918  1
  Na  Na4  1  0.134583  0.853705  0.782040  1
  Na  Na5  1  0.711318  0.847581  0.795113  1
  Na  Na6  1  0.147551  0.290529  0.774673  1
  Na  Na7  1  0.853705  0.134583  0.282040  1
  Na  Na8  1  0.290529  0.147551  0.274673  1
  Na  Na9  1  0.847581  0.711318  0.295113  1
  Sr  Sr10  1  0.531278  0.059517  0.608687  1
  Sr  Sr11  1  0.059517  0.531278  0.108687  1
  V  V12  1  0.332101  0.662390  0.499602  1
  V  V13  1  0.662390  0.332101  0.999602  1
  As  As14  1  0.807336  0.195744  0.898358  1
  As  As15  1  0.388738  0.194914  0.894137  1
  As  As16  1  0.805768  0.610475  0.904368  1
  As  As17  1  0.195744  0.807336  0.398358  1
  As  As18  1  0.610475  0.805768  0.404368  1
  As  As19  1  0.194914  0.388738  0.394137  1
  As  As20  1  0.331959  0.670077  0.817812  1
  As  As21  1  0.670077  0.331959  0.317812  1
