# generated using pymatgen
data_LiTh3Zn2C
_symmetry_space_group_name_H-M   'P 1'
_cell_length_a   9.54532840
_cell_length_b   9.54532831
_cell_length_c   9.54532800
_cell_angle_alpha   60.00000107
_cell_angle_beta   60.00000139
_cell_angle_gamma   60.00000061
_symmetry_Int_Tables_number   1
_chemical_formula_structural   LiTh3Zn2C
_chemical_formula_sum   'Li4 Th12 Zn8 C4'
_cell_volume   614.97521605
_cell_formula_units_Z   4
loop_
 _symmetry_equiv_pos_site_id
 _symmetry_equiv_pos_as_xyz
  1  'x, y, z'
loop_
 _atom_site_type_symbol
 _atom_site_label
 _atom_site_symmetry_multiplicity
 _atom_site_fract_x
 _atom_site_fract_y
 _atom_site_fract_z
 _atom_site_occupancy
  Li  Li0  1  0.625000  0.625000  0.125000  1
  Li  Li1  1  0.625000  0.125000  0.625000  1
  Li  Li2  1  0.125000  0.625000  0.625000  1
  Li  Li3  1  0.625000  0.625000  0.625000  1
  Th  Th4  1  0.439376  0.439376  0.060624  1
  Th  Th5  1  0.060624  0.439376  0.060624  1
  Th  Th6  1  0.439376  0.060624  0.060624  1
  Th  Th7  1  0.060624  0.060624  0.439376  1
  Th  Th8  1  0.439376  0.060624  0.439376  1
  Th  Th9  1  0.060624  0.439376  0.439376  1
  Th  Th10  1  0.810624  0.810624  0.189376  1
  Th  Th11  1  0.189376  0.810624  0.189376  1
  Th  Th12  1  0.810624  0.189376  0.189376  1
  Th  Th13  1  0.189376  0.189376  0.810624  1
  Th  Th14  1  0.810624  0.189376  0.810624  1
  Th  Th15  1  0.189376  0.810624  0.810624  1
  Zn  Zn16  1  0.825199  0.825199  0.524404  1
  Zn  Zn17  1  0.825199  0.524404  0.825199  1
  Zn  Zn18  1  0.524404  0.825199  0.825199  1
  Zn  Zn19  1  0.825199  0.825199  0.825199  1
  Zn  Zn20  1  0.424801  0.424801  0.725596  1
  Zn  Zn21  1  0.424801  0.725596  0.424801  1
  Zn  Zn22  1  0.725596  0.424801  0.424801  1
  Zn  Zn23  1  0.424801  0.424801  0.424801  1
  C  C24  1  0.125000  0.125000  0.625000  1
  C  C25  1  0.125000  0.625000  0.125000  1
  C  C26  1  0.625000  0.125000  0.125000  1
  C  C27  1  0.125000  0.125000  0.125000  1
