# generated using pymatgen
data_YbY3B16
_symmetry_space_group_name_H-M   'P 1'
_cell_length_a   7.11487049
_cell_length_b   7.11487049
_cell_length_c   4.02979700
_cell_angle_alpha   90.00000000
_cell_angle_beta   90.00000000
_cell_angle_gamma   89.95741594
_symmetry_Int_Tables_number   1
_chemical_formula_structural   YbY3B16
_chemical_formula_sum   'Yb1 Y3 B16'
_cell_volume   203.99383741
_cell_formula_units_Z   1
loop_
 _symmetry_equiv_pos_site_id
 _symmetry_equiv_pos_as_xyz
  1  'x, y, z'
loop_
 _atom_site_type_symbol
 _atom_site_label
 _atom_site_symmetry_multiplicity
 _atom_site_fract_x
 _atom_site_fract_y
 _atom_site_fract_z
 _atom_site_occupancy
  Yb  Yb0  1  0.682739  0.817261  0.000000  1
  Y  Y1  1  0.817716  0.317969  0.000000  1
  Y  Y2  1  0.182031  0.682284  0.000000  1
  Y  Y3  1  0.319356  0.180644  0.000000  1
  B  B4  1  0.500597  0.501826  0.796972  1
  B  B5  1  0.998174  0.999403  0.796972  1
  B  B6  1  0.500597  0.501826  0.203028  1
  B  B7  1  0.998174  0.999403  0.203028  1
  B  B8  1  0.913339  0.586661  0.500000  1
  B  B9  1  0.087003  0.412997  0.500000  1
  B  B10  1  0.413064  0.913587  0.500000  1
  B  B11  1  0.586413  0.086936  0.500000  1
  B  B12  1  0.675882  0.538427  0.500000  1
  B  B13  1  0.324730  0.461223  0.500000  1
  B  B14  1  0.176358  0.962026  0.500000  1
  B  B15  1  0.823518  0.038016  0.500000  1
  B  B16  1  0.461984  0.676482  0.500000  1
  B  B17  1  0.537974  0.323642  0.500000  1
  B  B18  1  0.038777  0.175270  0.500000  1
  B  B19  1  0.961573  0.824118  0.500000  1
