# generated using pymatgen
data_Hf18Re8AsIr
_symmetry_space_group_name_H-M   'P 1'
_cell_length_a   8.62862100
_cell_length_b   8.62779194
_cell_length_c   8.62779201
_cell_angle_alpha   119.99589588
_cell_angle_beta   90.00000000
_cell_angle_gamma   90.00000000
_symmetry_Int_Tables_number   1
_chemical_formula_structural   Hf18Re8AsIr
_chemical_formula_sum   'Hf18 Re8 As1 Ir1'
_cell_volume   556.27470857
_cell_formula_units_Z   1
loop_
 _symmetry_equiv_pos_site_id
 _symmetry_equiv_pos_as_xyz
  1  'x, y, z'
loop_
 _atom_site_type_symbol
 _atom_site_label
 _atom_site_symmetry_multiplicity
 _atom_site_fract_x
 _atom_site_fract_y
 _atom_site_fract_z
 _atom_site_occupancy
  Hf  Hf0  1  0.547711  0.807334  0.614677  1
  Hf  Hf1  1  0.547736  0.807336  0.192664  1
  Hf  Hf2  1  0.547711  0.385323  0.192666  1
  Hf  Hf3  1  0.446945  0.195768  0.391556  1
  Hf  Hf4  1  0.446904  0.195768  0.804232  1
  Hf  Hf5  1  0.446945  0.608444  0.804232  1
  Hf  Hf6  1  0.053055  0.195768  0.391556  1
  Hf  Hf7  1  0.053096  0.195768  0.804232  1
  Hf  Hf8  1  0.053055  0.608444  0.804232  1
  Hf  Hf9  1  0.952289  0.807334  0.614677  1
  Hf  Hf10  1  0.952264  0.807336  0.192664  1
  Hf  Hf11  1  0.952289  0.385323  0.192666  1
  Hf  Hf12  1  0.750000  0.458123  0.916201  1
  Hf  Hf13  1  0.750000  0.458079  0.541921  1
  Hf  Hf14  1  0.750000  0.083799  0.541877  1
  Hf  Hf15  1  0.250000  0.541381  0.082820  1
  Hf  Hf16  1  0.250000  0.541414  0.458586  1
  Hf  Hf17  1  0.250000  0.917180  0.458619  1
  Re  Re18  1  0.750000  0.110042  0.220025  1
  Re  Re19  1  0.750000  0.110055  0.889945  1
  Re  Re20  1  0.750000  0.779975  0.889958  1
  Re  Re21  1  0.250000  0.889667  0.779388  1
  Re  Re22  1  0.250000  0.889642  0.110358  1
  Re  Re23  1  0.250000  0.220612  0.110333  1
  Re  Re24  1  0.499029  0.999991  0.000009  1
  Re  Re25  1  0.000971  0.999991  0.000009  1
  As  As26  1  0.750000  0.666666  0.333334  1
  Ir  Ir27  1  0.250000  0.333442  0.666558  1
