# generated using pymatgen
data_Tb9Sb5CO4
_symmetry_space_group_name_H-M   'P 1'
_cell_length_a   9.97413900
_cell_length_b   9.97413900
_cell_length_c   9.10132300
_cell_angle_alpha   90.00000000
_cell_angle_beta   90.00000000
_cell_angle_gamma   90.00000000
_symmetry_Int_Tables_number   1
_chemical_formula_structural   Tb9Sb5CO4
_chemical_formula_sum   'Tb18 Sb10 C2 O8'
_cell_volume   905.43100060
_cell_formula_units_Z   2
loop_
 _symmetry_equiv_pos_site_id
 _symmetry_equiv_pos_as_xyz
  1  'x, y, z'
loop_
 _atom_site_type_symbol
 _atom_site_label
 _atom_site_symmetry_multiplicity
 _atom_site_fract_x
 _atom_site_fract_y
 _atom_site_fract_z
 _atom_site_occupancy
  Tb  Tb0  1  0.170280  0.025553  0.003666  1
  Tb  Tb1  1  0.474447  0.170280  0.003666  1
  Tb  Tb2  1  0.025553  0.329720  0.003666  1
  Tb  Tb3  1  0.329720  0.474447  0.003666  1
  Tb  Tb4  1  0.750000  0.750000  0.312064  1
  Tb  Tb5  1  0.954957  0.144873  0.337539  1
  Tb  Tb6  1  0.545042  0.355127  0.337539  1
  Tb  Tb7  1  0.144873  0.545042  0.337539  1
  Tb  Tb8  1  0.355127  0.954957  0.337539  1
  Tb  Tb9  1  0.644873  0.045042  0.662461  1
  Tb  Tb10  1  0.855127  0.454958  0.662461  1
  Tb  Tb11  1  0.454958  0.644873  0.662461  1
  Tb  Tb12  1  0.045042  0.855127  0.662461  1
  Tb  Tb13  1  0.250000  0.250000  0.687936  1
  Tb  Tb14  1  0.670280  0.525554  0.996334  1
  Tb  Tb15  1  0.974446  0.670280  0.996334  1
  Tb  Tb16  1  0.525554  0.829721  0.996334  1
  Tb  Tb17  1  0.829721  0.974446  0.996334  1
  Sb  Sb18  1  0.653279  0.057659  0.306588  1
  Sb  Sb19  1  0.846722  0.442340  0.306588  1
  Sb  Sb20  1  0.442340  0.653279  0.306588  1
  Sb  Sb21  1  0.057659  0.846722  0.306588  1
  Sb  Sb22  1  0.250000  0.250000  0.331033  1
  Sb  Sb23  1  0.750000  0.750000  0.668967  1
  Sb  Sb24  1  0.942341  0.153279  0.693412  1
  Sb  Sb25  1  0.557659  0.346721  0.693412  1
  Sb  Sb26  1  0.153279  0.557659  0.693412  1
  Sb  Sb27  1  0.346721  0.942341  0.693412  1
  C  C28  1  0.750000  0.750000  0.060113  1
  C  C29  1  0.250000  0.250000  0.939887  1
  O  O30  1  0.976120  0.128231  0.093876  1
  O  O31  1  0.523880  0.371769  0.093876  1
  O  O32  1  0.128231  0.523880  0.093876  1
  O  O33  1  0.371769  0.976120  0.093876  1
  O  O34  1  0.628231  0.023880  0.906123  1
  O  O35  1  0.871769  0.476121  0.906123  1
  O  O36  1  0.476121  0.628231  0.906123  1
  O  O37  1  0.023880  0.871769  0.906123  1
