# generated using pymatgen
data_CaHoMnIr3
_symmetry_space_group_name_H-M   'P 1'
_cell_length_a   5.18856372
_cell_length_b   5.18856396
_cell_length_c   5.18856278
_cell_angle_alpha   63.60188200
_cell_angle_beta   63.60188295
_cell_angle_gamma   63.60188680
_symmetry_Int_Tables_number   1
_chemical_formula_structural   CaHoMnIr3
_chemical_formula_sum   'Ca1 Ho1 Mn1 Ir3'
_cell_volume   106.63090306
_cell_formula_units_Z   1
loop_
 _symmetry_equiv_pos_site_id
 _symmetry_equiv_pos_as_xyz
  1  'x, y, z'
loop_
 _atom_site_type_symbol
 _atom_site_label
 _atom_site_symmetry_multiplicity
 _atom_site_fract_x
 _atom_site_fract_y
 _atom_site_fract_z
 _atom_site_occupancy
  Ca  Ca0  1  0.250310  0.250310  0.250310  1
  Ho  Ho1  1  0.999706  0.999706  0.999706  1
  Mn  Mn2  1  0.625170  0.625170  0.625170  1
  Ir  Ir3  1  0.624479  0.624479  0.125854  1
  Ir  Ir4  1  0.624479  0.125854  0.624479  1
  Ir  Ir5  1  0.125854  0.624479  0.624479  1
