# generated using pymatgen
data_Li3Mg(AsPd5)2
_symmetry_space_group_name_H-M   'P 1'
_cell_length_a   4.11708600
_cell_length_b   5.42987288
_cell_length_c   10.54231345
_cell_angle_alpha   90.66473543
_cell_angle_beta   90.00000000
_cell_angle_gamma   90.00000000
_symmetry_Int_Tables_number   1
_chemical_formula_structural   Li3Mg(AsPd5)2
_chemical_formula_sum   'Li3 Mg1 As2 Pd10'
_cell_volume   235.66022974
_cell_formula_units_Z   1
loop_
 _symmetry_equiv_pos_site_id
 _symmetry_equiv_pos_as_xyz
  1  'x, y, z'
loop_
 _atom_site_type_symbol
 _atom_site_label
 _atom_site_symmetry_multiplicity
 _atom_site_fract_x
 _atom_site_fract_y
 _atom_site_fract_z
 _atom_site_occupancy
  Li  Li0  1  0.500000  0.161020  0.139538  1
  Li  Li1  1  0.500000  0.840450  0.857618  1
  Li  Li2  1  0.500000  0.339521  0.645421  1
  Mg  Mg3  1  0.500000  0.656903  0.356710  1
  As  As4  1  0.000000  0.006992  0.504757  1
  As  As5  1  0.000000  0.498083  0.997619  1
  Pd  Pd6  1  0.500000  0.176740  0.393768  1
  Pd  Pd7  1  0.500000  0.815211  0.607964  1
  Pd  Pd8  1  0.500000  0.315496  0.892728  1
  Pd  Pd9  1  0.500000  0.685650  0.102375  1
  Pd  Pd10  1  0.000000  0.410789  0.232858  1
  Pd  Pd11  1  0.000000  0.592503  0.765389  1
  Pd  Pd12  1  0.000000  0.090342  0.737841  1
  Pd  Pd13  1  0.000000  0.916470  0.262419  1
  Pd  Pd14  1  0.000000  0.000983  0.999392  1
  Pd  Pd15  1  0.000000  0.492846  0.503603  1
