# generated using pymatgen
data_La4Mo3WO14
_symmetry_space_group_name_H-M   'P 1'
_cell_length_a   7.60231728
_cell_length_b   7.60231793
_cell_length_c   7.54895500
_cell_angle_alpha   59.76587693
_cell_angle_beta   59.76588282
_cell_angle_gamma   59.99999955
_symmetry_Int_Tables_number   1
_chemical_formula_structural   La4Mo3WO14
_chemical_formula_sum   'La4 Mo3 W1 O14'
_cell_volume   307.40994177
_cell_formula_units_Z   1
loop_
 _symmetry_equiv_pos_site_id
 _symmetry_equiv_pos_as_xyz
  1  'x, y, z'
loop_
 _atom_site_type_symbol
 _atom_site_label
 _atom_site_symmetry_multiplicity
 _atom_site_fract_x
 _atom_site_fract_y
 _atom_site_fract_z
 _atom_site_occupancy
  La  La0  1  0.125000  0.625000  0.125000  1
  La  La1  1  0.125000  0.125000  0.625000  1
  La  La2  1  0.625000  0.125000  0.125000  1
  La  La3  1  0.125000  0.125000  0.125000  1
  Mo  Mo4  1  0.625000  0.625000  0.625000  1
  Mo  Mo5  1  0.125000  0.625000  0.625000  1
  Mo  Mo6  1  0.625000  0.125000  0.625000  1
  W  W7  1  0.625000  0.625000  0.125000  1
  O  O8  1  0.291729  0.701805  0.714737  1
  O  O9  1  0.545327  0.946037  0.963309  1
  O  O10  1  0.704673  0.704673  0.286691  1
  O  O11  1  0.291729  0.291729  0.714737  1
  O  O12  1  0.999421  0.999421  0.001739  1
  O  O13  1  0.303963  0.704673  0.286691  1
  O  O14  1  0.701805  0.291729  0.714737  1
  O  O15  1  0.946037  0.545327  0.963309  1
  O  O16  1  0.545327  0.545327  0.963309  1
  O  O17  1  0.958271  0.958271  0.535263  1
  O  O18  1  0.250579  0.250579  0.248261  1
  O  O19  1  0.548195  0.958271  0.535263  1
  O  O20  1  0.704673  0.303963  0.286691  1
  O  O21  1  0.958271  0.548195  0.535263  1
