# generated using pymatgen
data_Ta6Cu3Ni(SnC)2
_symmetry_space_group_name_H-M   'P 1'
_cell_length_a   8.36507528
_cell_length_b   8.36016111
_cell_length_c   8.36232300
_cell_angle_alpha   59.99144935
_cell_angle_beta   60.01088727
_cell_angle_gamma   59.97813041
_symmetry_Int_Tables_number   1
_chemical_formula_structural   Ta6Cu3Ni(SnC)2
_chemical_formula_sum   'Ta12 Cu6 Ni2 Sn4 C4'
_cell_volume   413.45881087
_cell_formula_units_Z   2
loop_
 _symmetry_equiv_pos_site_id
 _symmetry_equiv_pos_as_xyz
  1  'x, y, z'
loop_
 _atom_site_type_symbol
 _atom_site_label
 _atom_site_symmetry_multiplicity
 _atom_site_fract_x
 _atom_site_fract_y
 _atom_site_fract_z
 _atom_site_occupancy
  Ta  Ta0  1  0.430459  0.069799  0.069408  1
  Ta  Ta1  1  0.069793  0.430593  0.430501  1
  Ta  Ta2  1  0.069793  0.430593  0.069114  1
  Ta  Ta3  1  0.068548  0.068145  0.431653  1
  Ta  Ta4  1  0.430459  0.069799  0.430334  1
  Ta  Ta5  1  0.427772  0.427746  0.072241  1
  Ta  Ta6  1  0.179804  0.820594  0.179135  1
  Ta  Ta7  1  0.820515  0.179929  0.820426  1
  Ta  Ta8  1  0.820515  0.179929  0.179130  1
  Ta  Ta9  1  0.177543  0.177646  0.822406  1
  Ta  Ta10  1  0.179804  0.820594  0.820465  1
  Ta  Ta11  1  0.817533  0.817600  0.182433  1
  Cu  Cu12  1  0.835401  0.835520  0.837594  1
  Cu  Cu13  1  0.835401  0.835520  0.491486  1
  Cu  Cu14  1  0.494119  0.833662  0.836110  1
  Cu  Cu15  1  0.832958  0.494774  0.836134  1
  Cu  Cu16  1  0.412823  0.412640  0.414257  1
  Cu  Cu17  1  0.412823  0.412640  0.760280  1
  Ni  Ni18  1  0.406387  0.774209  0.409702  1
  Ni  Ni19  1  0.776265  0.405883  0.408926  1
  Sn  Sn20  1  0.623422  0.623669  0.619378  1
  Sn  Sn21  1  0.623422  0.623669  0.133532  1
  Sn  Sn22  1  0.127580  0.626492  0.622964  1
  Sn  Sn23  1  0.626489  0.127841  0.622835  1
  C  C24  1  0.125246  0.125297  0.125258  1
  C  C25  1  0.125246  0.125297  0.624200  1
  C  C26  1  0.625732  0.124164  0.125052  1
  C  C27  1  0.124148  0.625760  0.125046  1
