# generated using pymatgen
data_Cs4TbPaTe6
_symmetry_space_group_name_H-M   'P 1'
_cell_length_a   15.42897300
_cell_length_b   7.64121842
_cell_length_c   10.15341995
_cell_angle_alpha   72.23932490
_cell_angle_beta   90.00000000
_cell_angle_gamma   90.00000000
_symmetry_Int_Tables_number   1
_chemical_formula_structural   Cs4TbPaTe6
_chemical_formula_sum   'Cs8 Tb2 Pa2 Te12'
_cell_volume   1139.99656897
_cell_formula_units_Z   2
loop_
 _symmetry_equiv_pos_site_id
 _symmetry_equiv_pos_as_xyz
  1  'x, y, z'
loop_
 _atom_site_type_symbol
 _atom_site_label
 _atom_site_symmetry_multiplicity
 _atom_site_fract_x
 _atom_site_fract_y
 _atom_site_fract_z
 _atom_site_occupancy
  Cs  Cs0  1  0.954623  0.671640  0.666878  1
  Cs  Cs1  1  0.454623  0.828360  0.333122  1
  Cs  Cs2  1  0.042982  0.329245  0.338309  1
  Cs  Cs3  1  0.542982  0.170755  0.661691  1
  Cs  Cs4  1  0.872185  0.090187  0.896362  1
  Cs  Cs5  1  0.372185  0.409813  0.103638  1
  Cs  Cs6  1  0.129284  0.919689  0.104044  1
  Cs  Cs7  1  0.629284  0.580311  0.895956  1
  Tb  Tb8  1  0.249207  0.340925  0.704240  1
  Tb  Tb9  1  0.749207  0.159075  0.295760  1
  Pa  Pa10  1  0.750854  0.659965  0.295274  1
  Pa  Pa11  1  0.250854  0.840035  0.704726  1
  Te  Te12  1  0.906314  0.907895  0.283813  1
  Te  Te13  1  0.406314  0.592105  0.716187  1
  Te  Te14  1  0.094153  0.077117  0.717384  1
  Te  Te15  1  0.594153  0.422883  0.282616  1
  Te  Te16  1  0.817743  0.327994  0.517482  1
  Te  Te17  1  0.317743  0.172006  0.482518  1
  Te  Te18  1  0.180999  0.688804  0.484105  1
  Te  Te19  1  0.680999  0.811196  0.515895  1
  Te  Te20  1  0.839945  0.504188  0.085545  1
  Te  Te21  1  0.339945  0.995812  0.914455  1
  Te  Te22  1  0.161713  0.513345  0.915823  1
  Te  Te23  1  0.661713  0.986655  0.084177  1
