# generated using pymatgen
data_Yb9Hg4
_symmetry_space_group_name_H-M   'P 1'
_cell_length_a   9.88837341
_cell_length_b   9.88765634
_cell_length_c   9.91360855
_cell_angle_alpha   92.92559355
_cell_angle_beta   92.98984564
_cell_angle_gamma   153.83722542
_symmetry_Int_Tables_number   1
_chemical_formula_structural   Yb9Hg4
_chemical_formula_sum   'Yb9 Hg4'
_cell_volume   416.12400843
_cell_formula_units_Z   1
loop_
 _symmetry_equiv_pos_site_id
 _symmetry_equiv_pos_as_xyz
  1  'x, y, z'
loop_
 _atom_site_type_symbol
 _atom_site_label
 _atom_site_symmetry_multiplicity
 _atom_site_fract_x
 _atom_site_fract_y
 _atom_site_fract_z
 _atom_site_occupancy
  Yb  Yb0  1  0.500000  0.500000  0.000000  1
  Yb  Yb1  1  0.616029  0.901318  0.517216  1
  Yb  Yb2  1  0.383971  0.098682  0.482784  1
  Yb  Yb3  1  0.098316  0.615819  0.713925  1
  Yb  Yb4  1  0.901684  0.384181  0.286075  1
  Yb  Yb5  1  0.874029  0.813603  0.687194  1
  Yb  Yb6  1  0.125971  0.186397  0.312806  1
  Yb  Yb7  1  0.187439  0.873120  0.060360  1
  Yb  Yb8  1  0.812561  0.126880  0.939640  1
  Hg  Hg9  1  0.731803  0.550884  0.282568  1
  Hg  Hg10  1  0.268197  0.449116  0.717432  1
  Hg  Hg11  1  0.448816  0.731961  0.180652  1
  Hg  Hg12  1  0.551184  0.268039  0.819348  1
