# generated using pymatgen
data_Nd8Er12Sn11Bi5
_symmetry_space_group_name_H-M   'P 1'
_cell_length_a   8.24827955
_cell_length_b   8.28372941
_cell_length_c   15.65322600
_cell_angle_alpha   90.10191711
_cell_angle_beta   90.13980322
_cell_angle_gamma   89.94858890
_symmetry_Int_Tables_number   1
_chemical_formula_structural   Nd8Er12Sn11Bi5
_chemical_formula_sum   'Nd8 Er12 Sn11 Bi5'
_cell_volume   1069.52509297
_cell_formula_units_Z   1
loop_
 _symmetry_equiv_pos_site_id
 _symmetry_equiv_pos_as_xyz
  1  'x, y, z'
loop_
 _atom_site_type_symbol
 _atom_site_label
 _atom_site_symmetry_multiplicity
 _atom_site_fract_x
 _atom_site_fract_y
 _atom_site_fract_z
 _atom_site_occupancy
  Nd  Nd0  1  0.538273  0.329947  0.895627  1
  Nd  Nd1  1  0.037802  0.175145  0.603053  1
  Nd  Nd2  1  0.462794  0.675998  0.397124  1
  Nd  Nd3  1  0.966017  0.821380  0.105585  1
  Nd  Nd4  1  0.473133  0.671908  0.103830  1
  Nd  Nd5  1  0.977431  0.824104  0.398159  1
  Nd  Nd6  1  0.522315  0.324590  0.601365  1
  Nd  Nd7  1  0.030290  0.179549  0.895980  1
  Er  Er8  1  0.370220  0.840225  0.874394  1
  Er  Er9  1  0.873687  0.659743  0.625209  1
  Er  Er10  1  0.626141  0.159636  0.374546  1
  Er  Er11  1  0.124394  0.339647  0.125380  1
  Er  Er12  1  0.632992  0.164423  0.125417  1
  Er  Er13  1  0.134899  0.337214  0.377046  1
  Er  Er14  1  0.363503  0.838276  0.623721  1
  Er  Er15  1  0.867723  0.657080  0.875423  1
  Er  Er16  1  0.200881  0.502213  0.745418  1
  Er  Er17  1  0.700221  0.998463  0.749007  1
  Er  Er18  1  0.799662  0.497923  0.247453  1
  Er  Er19  1  0.299903  0.001855  0.253797  1
  Sn  Sn20  1  0.209256  0.537069  0.543562  1
  Sn  Sn21  1  0.290409  0.036233  0.456724  1
  Sn  Sn22  1  0.788511  0.464222  0.043563  1
  Sn  Sn23  1  0.565781  0.629052  0.749161  1
  Sn  Sn24  1  0.064736  0.872910  0.752153  1
  Sn  Sn25  1  0.432913  0.372767  0.249184  1
  Sn  Sn26  1  0.933978  0.127023  0.251439  1
  Sn  Sn27  1  0.338847  0.143981  0.751286  1
  Sn  Sn28  1  0.837149  0.355321  0.748284  1
  Sn  Sn29  1  0.662949  0.856354  0.250933  1
  Sn  Sn30  1  0.163351  0.642213  0.249947  1
  Bi  Bi31  1  0.287483  0.034396  0.044461  1
  Bi  Bi32  1  0.789048  0.463993  0.456301  1
  Bi  Bi33  1  0.710168  0.964017  0.543126  1
  Bi  Bi34  1  0.211117  0.536123  0.956212  1
  Bi  Bi35  1  0.712023  0.965010  0.956128  1
