# generated using pymatgen
data_Li3Zn8Ir4Pd
_symmetry_space_group_name_H-M   'P 1'
_cell_length_a   6.08025100
_cell_length_b   6.11579600
_cell_length_c   6.00565900
_cell_angle_alpha   90.00000000
_cell_angle_beta   89.99994311
_cell_angle_gamma   90.00000000
_symmetry_Int_Tables_number   1
_chemical_formula_structural   Li3Zn8Ir4Pd
_chemical_formula_sum   'Li3 Zn8 Ir4 Pd1'
_cell_volume   223.32388164
_cell_formula_units_Z   1
loop_
 _symmetry_equiv_pos_site_id
 _symmetry_equiv_pos_as_xyz
  1  'x, y, z'
loop_
 _atom_site_type_symbol
 _atom_site_label
 _atom_site_symmetry_multiplicity
 _atom_site_fract_x
 _atom_site_fract_y
 _atom_site_fract_z
 _atom_site_occupancy
  Li  Li0  1  0.750975  0.750000  0.000001  1
  Li  Li1  1  0.748993  0.750000  0.499990  1
  Li  Li2  1  0.250932  0.250000  0.500011  1
  Zn  Zn3  1  0.500573  0.999466  0.251133  1
  Zn  Zn4  1  0.500573  0.500531  0.251133  1
  Zn  Zn5  1  0.999372  0.999441  0.252273  1
  Zn  Zn6  1  0.999372  0.500561  0.252273  1
  Zn  Zn7  1  0.999369  0.999435  0.747727  1
  Zn  Zn8  1  0.999369  0.500563  0.747727  1
  Zn  Zn9  1  0.500578  0.999465  0.748866  1
  Zn  Zn10  1  0.500578  0.500538  0.748866  1
  Ir  Ir11  1  0.750167  0.250000  0.000000  1
  Ir  Ir12  1  0.249410  0.750000  0.999999  1
  Ir  Ir13  1  0.250509  0.750000  0.500001  1
  Ir  Ir14  1  0.749595  0.250000  0.500000  1
  Pd  Pd15  1  0.249631  0.250000  0.999998  1
