# generated using pymatgen
data_Y6Hf8Ga8Ir7
_symmetry_space_group_name_H-M   'P 1'
_cell_length_a   9.27797744
_cell_length_b   9.27797758
_cell_length_c   9.27797800
_cell_angle_alpha   59.99999852
_cell_angle_beta   59.99999801
_cell_angle_gamma   60.00000124
_symmetry_Int_Tables_number   1
_chemical_formula_structural   Y6Hf8Ga8Ir7
_chemical_formula_sum   'Y6 Hf8 Ga8 Ir7'
_cell_volume   564.73533818
_cell_formula_units_Z   1
loop_
 _symmetry_equiv_pos_site_id
 _symmetry_equiv_pos_as_xyz
  1  'x, y, z'
loop_
 _atom_site_type_symbol
 _atom_site_label
 _atom_site_symmetry_multiplicity
 _atom_site_fract_x
 _atom_site_fract_y
 _atom_site_fract_z
 _atom_site_occupancy
  Y  Y0  1  0.691424  0.691438  0.308575  1
  Y  Y1  1  0.308568  0.691435  0.308569  1
  Y  Y2  1  0.691427  0.308560  0.308576  1
  Y  Y3  1  0.308576  0.308562  0.691425  1
  Y  Y4  1  0.691432  0.308565  0.691431  1
  Y  Y5  1  0.308573  0.691440  0.691424  1
  Hf  Hf6  1  0.875527  0.875531  0.373415  1
  Hf  Hf7  1  0.875538  0.373392  0.875535  1
  Hf  Hf8  1  0.373410  0.875532  0.875529  1
  Hf  Hf9  1  0.875530  0.875532  0.875529  1
  Hf  Hf10  1  0.124473  0.124469  0.626585  1
  Hf  Hf11  1  0.124462  0.626608  0.124465  1
  Hf  Hf12  1  0.626590  0.124468  0.124471  1
  Hf  Hf13  1  0.124470  0.124468  0.124471  1
  Ga  Ga14  1  0.659991  0.659980  0.020043  1
  Ga  Ga15  1  0.659986  0.020044  0.659988  1
  Ga  Ga16  1  0.020059  0.659976  0.659986  1
  Ga  Ga17  1  0.659993  0.659982  0.659997  1
  Ga  Ga18  1  0.340009  0.340020  0.979957  1
  Ga  Ga19  1  0.340014  0.979956  0.340012  1
  Ga  Ga20  1  0.979941  0.340024  0.340014  1
  Ga  Ga21  1  0.340007  0.340018  0.340003  1
  Ir  Ir22  1  0.000000  0.000000  0.000000  1
  Ir  Ir23  1  0.000000  0.000000  0.500000  1
  Ir  Ir24  1  0.500000  0.000000  0.500000  1
  Ir  Ir25  1  0.000000  0.500000  0.500000  1
  Ir  Ir26  1  0.500000  0.500000  0.000000  1
  Ir  Ir27  1  0.000000  0.500000  0.000000  1
  Ir  Ir28  1  0.500000  0.000000  0.000000  1
