# generated using pymatgen
data_Ho4Al18(IrPt)3
_symmetry_space_group_name_H-M   'P 1'
_cell_length_a   7.58859645
_cell_length_b   7.58859630
_cell_length_c   9.41973726
_cell_angle_alpha   89.98658161
_cell_angle_beta   89.98657949
_cell_angle_gamma   119.65754581
_symmetry_Int_Tables_number   1
_chemical_formula_structural   Ho4Al18(IrPt)3
_chemical_formula_sum   'Ho4 Al18 Ir3 Pt3'
_cell_volume   471.39028068
_cell_formula_units_Z   1
loop_
 _symmetry_equiv_pos_site_id
 _symmetry_equiv_pos_as_xyz
  1  'x, y, z'
loop_
 _atom_site_type_symbol
 _atom_site_label
 _atom_site_symmetry_multiplicity
 _atom_site_fract_x
 _atom_site_fract_y
 _atom_site_fract_z
 _atom_site_occupancy
  Ho  Ho0  1  0.995753  0.670170  0.250531  1
  Ho  Ho1  1  0.004822  0.330249  0.749513  1
  Ho  Ho2  1  0.669751  0.995178  0.250487  1
  Ho  Ho3  1  0.329830  0.004247  0.749469  1
  Al  Al4  1  0.126040  0.126706  0.250507  1
  Al  Al5  1  0.873294  0.873960  0.749493  1
  Al  Al6  1  0.999922  0.331445  0.076521  1
  Al  Al7  1  0.999684  0.668909  0.922895  1
  Al  Al8  1  0.997108  0.665097  0.575272  1
  Al  Al9  1  0.334903  0.002892  0.424728  1
  Al  Al10  1  0.996668  0.331150  0.424739  1
  Al  Al11  1  0.668850  0.003332  0.575261  1
  Al  Al12  1  0.668555  0.000078  0.923479  1
  Al  Al13  1  0.331091  0.000316  0.077105  1
  Al  Al14  1  0.332750  0.329529  0.554614  1
  Al  Al15  1  0.670471  0.667250  0.445386  1
  Al  Al16  1  0.669588  0.669628  0.057502  1
  Al  Al17  1  0.330372  0.330412  0.942498  1
  Al  Al18  1  0.339540  0.545421  0.250536  1
  Al  Al19  1  0.659919  0.452502  0.747478  1
  Al  Al20  1  0.547498  0.340081  0.252522  1
  Al  Al21  1  0.454579  0.660460  0.749464  1
  Ir  Ir22  1  0.672052  0.327948  0.500000  1
  Ir  Ir23  1  0.999818  0.000182  0.000000  1
  Ir  Ir24  1  0.000310  0.999690  0.500000  1
  Pt  Pt25  1  0.672192  0.327808  0.000000  1
  Pt  Pt26  1  0.327283  0.672717  0.000000  1
  Pt  Pt27  1  0.327359  0.672641  0.500000  1
