# generated using pymatgen
data_Ba3CeScSe6
_symmetry_space_group_name_H-M   'P 1'
_cell_length_a   8.85812016
_cell_length_b   8.85811862
_cell_length_c   8.85811961
_cell_angle_alpha   92.28095107
_cell_angle_beta   92.28095121
_cell_angle_gamma   92.28094380
_symmetry_Int_Tables_number   1
_chemical_formula_structural   Ba3CeScSe6
_chemical_formula_sum   'Ba6 Ce2 Sc2 Se12'
_cell_volume   693.36631915
_cell_formula_units_Z   2
loop_
 _symmetry_equiv_pos_site_id
 _symmetry_equiv_pos_as_xyz
  1  'x, y, z'
loop_
 _atom_site_type_symbol
 _atom_site_label
 _atom_site_symmetry_multiplicity
 _atom_site_fract_x
 _atom_site_fract_y
 _atom_site_fract_z
 _atom_site_occupancy
  Ba  Ba0  1  0.371835  0.750000  0.128165  1
  Ba  Ba1  1  0.128165  0.371835  0.750000  1
  Ba  Ba2  1  0.750000  0.128165  0.371835  1
  Ba  Ba3  1  0.628165  0.250000  0.871835  1
  Ba  Ba4  1  0.871835  0.628165  0.250000  1
  Ba  Ba5  1  0.250000  0.871835  0.628165  1
  Ce  Ce6  1  0.250000  0.250000  0.250000  1
  Ce  Ce7  1  0.750000  0.750000  0.750000  1
  Sc  Sc8  1  0.500000  0.500000  0.500000  1
  Sc  Sc9  1  0.000000  0.000000  0.000000  1
  Se  Se10  1  0.544906  0.412819  0.204054  1
  Se  Se11  1  0.204054  0.544906  0.412819  1
  Se  Se12  1  0.412819  0.204054  0.544906  1
  Se  Se13  1  0.955094  0.295946  0.087181  1
  Se  Se14  1  0.087181  0.955094  0.295946  1
  Se  Se15  1  0.295946  0.087181  0.955094  1
  Se  Se16  1  0.455094  0.587181  0.795946  1
  Se  Se17  1  0.795946  0.455094  0.587181  1
  Se  Se18  1  0.587181  0.795946  0.455094  1
  Se  Se19  1  0.044906  0.704054  0.912819  1
  Se  Se20  1  0.704054  0.912819  0.044906  1
  Se  Se21  1  0.912819  0.044906  0.704054  1
