# generated using pymatgen
data_Tb2B10Ir
_symmetry_space_group_name_H-M   'P 1'
_cell_length_a   4.17755000
_cell_length_b   5.68883700
_cell_length_c   11.35430500
_cell_angle_alpha   90.00000000
_cell_angle_beta   90.00000000
_cell_angle_gamma   90.00000000
_symmetry_Int_Tables_number   1
_chemical_formula_structural   Tb2B10Ir
_chemical_formula_sum   'Tb4 B20 Ir2'
_cell_volume   269.83961151
_cell_formula_units_Z   2
loop_
 _symmetry_equiv_pos_site_id
 _symmetry_equiv_pos_as_xyz
  1  'x, y, z'
loop_
 _atom_site_type_symbol
 _atom_site_label
 _atom_site_symmetry_multiplicity
 _atom_site_fract_x
 _atom_site_fract_y
 _atom_site_fract_z
 _atom_site_occupancy
  Tb  Tb0  1  0.500000  0.205834  0.365877  1
  Tb  Tb1  1  0.500000  0.794166  0.634123  1
  Tb  Tb2  1  0.500000  0.294166  0.865877  1
  Tb  Tb3  1  0.500000  0.705834  0.134123  1
  B  B4  1  0.000000  0.381432  0.042476  1
  B  B5  1  0.000000  0.618568  0.957524  1
  B  B6  1  0.000000  0.118568  0.542476  1
  B  B7  1  0.000000  0.881432  0.457524  1
  B  B8  1  0.000000  0.364223  0.197143  1
  B  B9  1  0.000000  0.635777  0.802857  1
  B  B10  1  0.000000  0.135777  0.697143  1
  B  B11  1  0.000000  0.864223  0.302857  1
  B  B12  1  0.000000  0.056676  0.193191  1
  B  B13  1  0.000000  0.943324  0.806809  1
  B  B14  1  0.000000  0.443324  0.693191  1
  B  B15  1  0.000000  0.556676  0.306809  1
  B  B16  1  0.301346  0.220410  0.119171  1
  B  B17  1  0.698654  0.779590  0.880829  1
  B  B18  1  0.301346  0.779590  0.880829  1
  B  B19  1  0.698654  0.279590  0.619171  1
  B  B20  1  0.698654  0.220410  0.119171  1
  B  B21  1  0.301346  0.720410  0.380829  1
  B  B22  1  0.698654  0.720410  0.380829  1
  B  B23  1  0.301346  0.279590  0.619171  1
  Ir  Ir24  1  0.000000  0.000000  0.000000  1
  Ir  Ir25  1  0.000000  0.500000  0.500000  1
