# generated using pymatgen
data_Ti4In(Re7Tc)3
_symmetry_space_group_name_H-M   'P 1'
_cell_length_a   8.38941227
_cell_length_b   8.37871753
_cell_length_c   8.37867213
_cell_angle_alpha   109.44477475
_cell_angle_beta   109.49684646
_cell_angle_gamma   109.49765645
_symmetry_Int_Tables_number   1
_chemical_formula_structural   Ti4In(Re7Tc)3
_chemical_formula_sum   'Ti4 In1 Re21 Tc3'
_cell_volume   453.23655464
_cell_formula_units_Z   1
loop_
 _symmetry_equiv_pos_site_id
 _symmetry_equiv_pos_as_xyz
  1  'x, y, z'
loop_
 _atom_site_type_symbol
 _atom_site_label
 _atom_site_symmetry_multiplicity
 _atom_site_fract_x
 _atom_site_fract_y
 _atom_site_fract_z
 _atom_site_occupancy
  Ti  Ti0  1  0.631884  0.999995  0.000000  1
  Ti  Ti1  1  0.999763  0.632840  0.000006  1
  Ti  Ti2  1  0.999743  0.999996  0.632826  1
  Ti  Ti3  1  0.366922  0.367179  0.367170  1
  In  In4  1  0.999548  0.000010  0.000001  1
  Re  Re5  1  0.680024  0.397952  0.999995  1
  Re  Re6  1  0.000857  0.399152  0.680966  1
  Re  Re7  1  0.319895  0.718200  0.319041  1
  Re  Re8  1  0.319892  0.319033  0.718189  1
  Re  Re9  1  0.000860  0.680958  0.399152  1
  Re  Re10  1  0.680029  0.000000  0.397948  1
  Re  Re11  1  0.601708  0.600853  0.281814  1
  Re  Re12  1  0.282073  0.602050  0.602047  1
  Re  Re13  1  0.601691  0.281793  0.600833  1
  Re  Re14  1  0.376358  0.194669  0.000009  1
  Re  Re15  1  0.181687  0.805337  0.805336  1
  Re  Re16  1  0.376357  0.000001  0.194663  1
  Re  Re17  1  0.194147  0.377803  0.999993  1
  Re  Re18  1  0.000490  0.377346  0.194160  1
  Re  Re19  1  0.806332  0.183182  0.805838  1
  Re  Re20  1  0.806336  0.805842  0.183188  1
  Re  Re21  1  0.000494  0.194154  0.377355  1
  Re  Re22  1  0.194150  0.999998  0.377801  1
  Re  Re23  1  0.623147  0.622647  0.816804  1
  Re  Re24  1  0.816348  0.622200  0.622199  1
  Re  Re25  1  0.623148  0.816813  0.622647  1
  Tc  Tc26  1  0.399187  0.681417  0.999992  1
  Tc  Tc27  1  0.717758  0.318580  0.318583  1
  Tc  Tc28  1  0.399177  0.000002  0.681441  1
