# generated using pymatgen
data_Yb12Ag11SnGe12
_symmetry_space_group_name_H-M   'P 1'
_cell_length_a   4.59201000
_cell_length_b   7.89968940
_cell_length_c   21.44766696
_cell_angle_alpha   90.12462043
_cell_angle_beta   90.00000000
_cell_angle_gamma   90.00000000
_symmetry_Int_Tables_number   1
_chemical_formula_structural   Yb12Ag11SnGe12
_chemical_formula_sum   'Yb12 Ag11 Sn1 Ge12'
_cell_volume   778.02198906
_cell_formula_units_Z   1
loop_
 _symmetry_equiv_pos_site_id
 _symmetry_equiv_pos_as_xyz
  1  'x, y, z'
loop_
 _atom_site_type_symbol
 _atom_site_label
 _atom_site_symmetry_multiplicity
 _atom_site_fract_x
 _atom_site_fract_y
 _atom_site_fract_z
 _atom_site_occupancy
  Yb  Yb0  1  0.250000  0.786094  0.166097  1
  Yb  Yb1  1  0.250000  0.777117  0.499299  1
  Yb  Yb2  1  0.250000  0.712725  0.332826  1
  Yb  Yb3  1  0.750000  0.223432  0.498815  1
  Yb  Yb4  1  0.750000  0.286579  0.662372  1
  Yb  Yb5  1  0.750000  0.281328  0.000348  1
  Yb  Yb6  1  0.250000  0.789957  0.839389  1
  Yb  Yb7  1  0.250000  0.720942  0.000755  1
  Yb  Yb8  1  0.750000  0.213521  0.167326  1
  Yb  Yb9  1  0.750000  0.288082  0.333648  1
  Yb  Yb10  1  0.250000  0.717067  0.662010  1
  Yb  Yb11  1  0.750000  0.205105  0.838280  1
  Ag  Ag12  1  0.750000  0.582365  0.903154  1
  Ag  Ag13  1  0.250000  0.417180  0.433215  1
  Ag  Ag14  1  0.750000  0.584242  0.565521  1
  Ag  Ag15  1  0.750000  0.918147  0.406030  1
  Ag  Ag16  1  0.250000  0.417678  0.093729  1
  Ag  Ag17  1  0.250000  0.412644  0.238313  1
  Ag  Ag18  1  0.750000  0.913261  0.261388  1
  Ag  Ag19  1  0.250000  0.084443  0.736025  1
  Ag  Ag20  1  0.250000  0.083727  0.936629  1
  Ag  Ag21  1  0.750000  0.917354  0.066629  1
  Ag  Ag22  1  0.250000  0.083416  0.592653  1
  Sn  Sn23  1  0.750000  0.592760  0.763537  1
  Ge  Ge24  1  0.250000  0.409131  0.900668  1
  Ge  Ge25  1  0.750000  0.929622  0.725291  1
  Ge  Ge26  1  0.750000  0.582051  0.229122  1
  Ge  Ge27  1  0.250000  0.087813  0.070996  1
  Ge  Ge28  1  0.750000  0.909798  0.930750  1
  Ge  Ge29  1  0.750000  0.914737  0.599631  1
  Ge  Ge30  1  0.250000  0.411470  0.572254  1
  Ge  Ge31  1  0.250000  0.085972  0.396976  1
  Ge  Ge32  1  0.250000  0.081932  0.271019  1
  Ge  Ge33  1  0.750000  0.589034  0.428631  1
  Ge  Ge34  1  0.250000  0.402531  0.773518  1
  Ge  Ge35  1  0.750000  0.586741  0.103156  1
