# generated using pymatgen
data_Ho2Si2Tc
_symmetry_space_group_name_H-M   'P 1'
_cell_length_a   5.78701434
_cell_length_b   5.78701510
_cell_length_c   10.05678023
_cell_angle_alpha   63.68538052
_cell_angle_beta   63.68537515
_cell_angle_gamma   42.36180243
_symmetry_Int_Tables_number   1
_chemical_formula_structural   Ho2Si2Tc
_chemical_formula_sum   'Ho4 Si4 Tc2'
_cell_volume   199.65031974
_cell_formula_units_Z   2
loop_
 _symmetry_equiv_pos_site_id
 _symmetry_equiv_pos_as_xyz
  1  'x, y, z'
loop_
 _atom_site_type_symbol
 _atom_site_label
 _atom_site_symmetry_multiplicity
 _atom_site_fract_x
 _atom_site_fract_y
 _atom_site_fract_z
 _atom_site_occupancy
  Ho  Ho0  1  0.004261  0.004261  0.323147  1
  Ho  Ho1  1  0.995739  0.995739  0.676853  1
  Ho  Ho2  1  0.812686  0.812686  0.108488  1
  Ho  Ho3  1  0.187314  0.187314  0.891512  1
  Si  Si4  1  0.642813  0.642813  0.438873  1
  Si  Si5  1  0.357187  0.357187  0.561127  1
  Si  Si6  1  0.501703  0.501703  0.121839  1
  Si  Si7  1  0.498297  0.498297  0.878161  1
  Tc  Tc8  1  0.727361  0.727361  0.629815  1
  Tc  Tc9  1  0.272639  0.272639  0.370185  1
