# generated using pymatgen
data_HoTm3LuInAu4
_symmetry_space_group_name_H-M   'P 1'
_cell_length_a   8.00311571
_cell_length_b   8.00948871
_cell_length_c   3.70701500
_cell_angle_alpha   90.00000000
_cell_angle_beta   90.00000000
_cell_angle_gamma   90.04819794
_symmetry_Int_Tables_number   1
_chemical_formula_structural   HoTm3LuInAu4
_chemical_formula_sum   'Ho1 Tm3 Lu1 In1 Au4'
_cell_volume   237.62278360
_cell_formula_units_Z   1
loop_
 _symmetry_equiv_pos_site_id
 _symmetry_equiv_pos_as_xyz
  1  'x, y, z'
loop_
 _atom_site_type_symbol
 _atom_site_label
 _atom_site_symmetry_multiplicity
 _atom_site_fract_x
 _atom_site_fract_y
 _atom_site_fract_z
 _atom_site_occupancy
  Ho  Ho0  1  0.858198  0.687103  0.500000  1
  Tm  Tm1  1  0.686331  0.142033  0.500000  1
  Tm  Tm2  1  0.313001  0.858585  0.500000  1
  Tm  Tm3  1  0.142165  0.312610  0.500000  1
  Lu  Lu4  1  0.500107  0.499773  0.000000  1
  In  In5  1  0.000158  0.001300  0.000000  1
  Au  Au6  1  0.149078  0.618752  0.000000  1
  Au  Au7  1  0.853306  0.378547  0.000000  1
  Au  Au8  1  0.617723  0.853794  0.000000  1
  Au  Au9  1  0.379934  0.147504  0.000000  1
