# generated using pymatgen
data_Lu4Zn(GeB4)2
_symmetry_space_group_name_H-M   'P 1'
_cell_length_a   7.09259700
_cell_length_b   7.09259700
_cell_length_c   7.56869900
_cell_angle_alpha   90.00000000
_cell_angle_beta   90.00000000
_cell_angle_gamma   90.00000000
_symmetry_Int_Tables_number   1
_chemical_formula_structural   Lu4Zn(GeB4)2
_chemical_formula_sum   'Lu8 Zn2 Ge4 B16'
_cell_volume   380.74289007
_cell_formula_units_Z   2
loop_
 _symmetry_equiv_pos_site_id
 _symmetry_equiv_pos_as_xyz
  1  'x, y, z'
loop_
 _atom_site_type_symbol
 _atom_site_label
 _atom_site_symmetry_multiplicity
 _atom_site_fract_x
 _atom_site_fract_y
 _atom_site_fract_z
 _atom_site_occupancy
  Lu  Lu0  1  0.681908  0.181908  0.229299  1
  Lu  Lu1  1  0.318092  0.818092  0.770701  1
  Lu  Lu2  1  0.318092  0.818092  0.229299  1
  Lu  Lu3  1  0.818092  0.681908  0.229299  1
  Lu  Lu4  1  0.818092  0.681908  0.770701  1
  Lu  Lu5  1  0.681908  0.181908  0.770701  1
  Lu  Lu6  1  0.181908  0.318092  0.770701  1
  Lu  Lu7  1  0.181908  0.318092  0.229299  1
  Zn  Zn8  1  0.000000  0.000000  0.500000  1
  Zn  Zn9  1  0.500000  0.500000  0.500000  1
  Ge  Ge10  1  0.121553  0.621553  0.500000  1
  Ge  Ge11  1  0.878447  0.378447  0.500000  1
  Ge  Ge12  1  0.378447  0.121553  0.500000  1
  Ge  Ge13  1  0.621553  0.878447  0.500000  1
  B  B14  1  0.174167  0.040128  0.000000  1
  B  B15  1  0.825833  0.959872  0.000000  1
  B  B16  1  0.959872  0.174167  0.000000  1
  B  B17  1  0.325833  0.540128  0.000000  1
  B  B18  1  0.040128  0.825833  0.000000  1
  B  B19  1  0.674167  0.459872  0.000000  1
  B  B20  1  0.540128  0.674167  0.000000  1
  B  B21  1  0.459872  0.325833  0.000000  1
  B  B22  1  0.088794  0.588794  0.000000  1
  B  B23  1  0.911206  0.411206  0.000000  1
  B  B24  1  0.411206  0.088794  0.000000  1
  B  B25  1  0.588794  0.911206  0.000000  1
  B  B26  1  0.000000  0.000000  0.170490  1
  B  B27  1  0.000000  0.000000  0.829510  1
  B  B28  1  0.500000  0.500000  0.829510  1
  B  B29  1  0.500000  0.500000  0.170490  1
