# generated using pymatgen
data_TbHo2Lu7Pb6
_symmetry_space_group_name_H-M   'P 1'
_cell_length_a   8.95008956
_cell_length_b   8.92819444
_cell_length_c   6.51767500
_cell_angle_alpha   90.00000000
_cell_angle_beta   90.00000000
_cell_angle_gamma   120.01799368
_symmetry_Int_Tables_number   1
_chemical_formula_structural   TbHo2Lu7Pb6
_chemical_formula_sum   'Tb1 Ho2 Lu7 Pb6'
_cell_volume   450.95746497
_cell_formula_units_Z   1
loop_
 _symmetry_equiv_pos_site_id
 _symmetry_equiv_pos_as_xyz
  1  'x, y, z'
loop_
 _atom_site_type_symbol
 _atom_site_label
 _atom_site_symmetry_multiplicity
 _atom_site_fract_x
 _atom_site_fract_y
 _atom_site_fract_z
 _atom_site_occupancy
  Tb  Tb0  1  0.999847  0.763792  0.250000  1
  Ho  Ho1  1  0.763479  0.764660  0.750000  1
  Ho  Ho2  1  0.235834  0.235628  0.250000  1
  Lu  Lu3  1  0.667472  0.333578  0.999917  1
  Lu  Lu4  1  0.332653  0.666621  0.999945  1
  Lu  Lu5  1  0.332653  0.666621  0.500055  1
  Lu  Lu6  1  0.667472  0.333578  0.500083  1
  Lu  Lu7  1  0.237097  0.001173  0.750000  1
  Lu  Lu8  1  0.000231  0.234735  0.750000  1
  Lu  Lu9  1  0.763344  0.999569  0.250000  1
  Pb  Pb10  1  0.393450  0.393599  0.750000  1
  Pb  Pb11  1  0.604516  0.000917  0.750000  1
  Pb  Pb12  1  0.001000  0.605238  0.750000  1
  Pb  Pb13  1  0.603319  0.605602  0.250000  1
  Pb  Pb14  1  0.398484  0.001130  0.250000  1
  Pb  Pb15  1  0.999150  0.393560  0.250000  1
