# generated using pymatgen
data_Ce4ReB8Os3
_symmetry_space_group_name_H-M   'P 1'
_cell_length_a   5.38896000
_cell_length_b   5.91170124
_cell_length_c   6.52947195
_cell_angle_alpha   89.82749535
_cell_angle_beta   90.00000000
_cell_angle_gamma   90.00000000
_symmetry_Int_Tables_number   1
_chemical_formula_structural   Ce4ReB8Os3
_chemical_formula_sum   'Ce4 Re1 B8 Os3'
_cell_volume   208.01446197
_cell_formula_units_Z   1
loop_
 _symmetry_equiv_pos_site_id
 _symmetry_equiv_pos_as_xyz
  1  'x, y, z'
loop_
 _atom_site_type_symbol
 _atom_site_label
 _atom_site_symmetry_multiplicity
 _atom_site_fract_x
 _atom_site_fract_y
 _atom_site_fract_z
 _atom_site_occupancy
  Ce  Ce0  1  0.750000  0.495751  0.160260  1
  Ce  Ce1  1  0.750000  0.998870  0.341297  1
  Ce  Ce2  1  0.250000  0.502765  0.841220  1
  Ce  Ce3  1  0.250000  0.004134  0.658965  1
  Re  Re4  1  0.250000  0.183497  0.187027  1
  B  B5  1  0.914304  0.128211  0.962487  1
  B  B6  1  0.586815  0.628815  0.537753  1
  B  B7  1  0.414176  0.870681  0.036802  1
  B  B8  1  0.085378  0.372398  0.462513  1
  B  B9  1  0.085824  0.870681  0.036802  1
  B  B10  1  0.414622  0.372398  0.462513  1
  B  B11  1  0.585696  0.128211  0.962487  1
  B  B12  1  0.913185  0.628815  0.537753  1
  Os  Os13  1  0.750000  0.314926  0.688787  1
  Os  Os14  1  0.750000  0.813699  0.812199  1
  Os  Os15  1  0.250000  0.686148  0.311135  1
