# generated using pymatgen
data_U4P5S3
_symmetry_space_group_name_H-M   'P 1'
_cell_length_a   5.37727506
_cell_length_b   5.36333971
_cell_length_c   8.72345940
_cell_angle_alpha   107.90314793
_cell_angle_beta   107.95124547
_cell_angle_gamma   89.99999991
_symmetry_Int_Tables_number   1
_chemical_formula_structural   U4P5S3
_chemical_formula_sum   'U4 P5 S3'
_cell_volume   226.49828263
_cell_formula_units_Z   1
loop_
 _symmetry_equiv_pos_site_id
 _symmetry_equiv_pos_as_xyz
  1  'x, y, z'
loop_
 _atom_site_type_symbol
 _atom_site_label
 _atom_site_symmetry_multiplicity
 _atom_site_fract_x
 _atom_site_fract_y
 _atom_site_fract_z
 _atom_site_occupancy
  U  U0  1  0.990030  0.990030  0.980059  1
  U  U1  1  0.507323  0.507323  0.014644  1
  U  U2  1  0.723293  0.223292  0.446585  1
  U  U3  1  0.220401  0.720402  0.440803  1
  P  P4  1  0.038828  0.538829  0.077657  1
  P  P5  1  0.140214  0.138129  0.722315  1
  P  P6  1  0.582100  0.138129  0.722315  1
  P  P7  1  0.140214  0.584186  0.722315  1
  P  P8  1  0.582100  0.584186  0.722315  1
  S  S9  1  0.542248  0.042247  0.084494  1
  S  S10  1  0.173496  0.173496  0.346993  1
  S  S11  1  0.684654  0.684654  0.369306  1
