# generated using pymatgen
data_Sr2Si3Ni18P7
_symmetry_space_group_name_H-M   'P 1'
_cell_length_a   6.59064600
_cell_length_b   6.59064612
_cell_length_c   10.64707400
_cell_angle_alpha   90.00000000
_cell_angle_beta   90.00000000
_cell_angle_gamma   119.99999941
_symmetry_Int_Tables_number   1
_chemical_formula_structural   Sr2Si3Ni18P7
_chemical_formula_sum   'Sr2 Si3 Ni18 P7'
_cell_volume   400.51324711
_cell_formula_units_Z   1
loop_
 _symmetry_equiv_pos_site_id
 _symmetry_equiv_pos_as_xyz
  1  'x, y, z'
loop_
 _atom_site_type_symbol
 _atom_site_label
 _atom_site_symmetry_multiplicity
 _atom_site_fract_x
 _atom_site_fract_y
 _atom_site_fract_z
 _atom_site_occupancy
  Sr  Sr0  1  0.000000  0.000000  0.000123  1
  Sr  Sr1  1  0.000000  0.000000  0.500572  1
  Si  Si2  1  0.333333  0.666667  0.065090  1
  Si  Si3  1  0.666667  0.333333  0.564750  1
  Si  Si4  1  0.666667  0.333333  0.934986  1
  Ni  Ni5  1  0.538862  0.077724  0.110352  1
  Ni  Ni6  1  0.461047  0.538953  0.609451  1
  Ni  Ni7  1  0.077906  0.538953  0.609451  1
  Ni  Ni8  1  0.922276  0.461138  0.110352  1
  Ni  Ni9  1  0.538862  0.461138  0.110352  1
  Ni  Ni10  1  0.461107  0.922213  0.889021  1
  Ni  Ni11  1  0.461107  0.538893  0.889021  1
  Ni  Ni12  1  0.461047  0.922094  0.609451  1
  Ni  Ni13  1  0.077787  0.538893  0.889021  1
  Ni  Ni14  1  0.928034  0.464017  0.390898  1
  Ni  Ni15  1  0.535983  0.071966  0.390898  1
  Ni  Ni16  1  0.535983  0.464017  0.390898  1
  Ni  Ni17  1  0.202267  0.404533  0.249386  1
  Ni  Ni18  1  0.797336  0.202664  0.749683  1
  Ni  Ni19  1  0.405326  0.202664  0.749683  1
  Ni  Ni20  1  0.595467  0.797733  0.249386  1
  Ni  Ni21  1  0.202267  0.797733  0.249386  1
  Ni  Ni22  1  0.797336  0.594674  0.749683  1
  P  P23  1  0.826731  0.653462  0.250205  1
  P  P24  1  0.171962  0.828038  0.749810  1
  P  P25  1  0.656075  0.828038  0.749810  1
  P  P26  1  0.346538  0.173269  0.250205  1
  P  P27  1  0.826731  0.173269  0.250205  1
  P  P28  1  0.171962  0.343925  0.749810  1
  P  P29  1  0.333333  0.666667  0.438062  1
