# generated using pymatgen
data_LaTi3(BiO4)3
_symmetry_space_group_name_H-M   'P 1'
_cell_length_a   5.47130500
_cell_length_b   5.49294324
_cell_length_c   17.04518786
_cell_angle_alpha   80.92805004
_cell_angle_beta   90.00000000
_cell_angle_gamma   90.00000000
_symmetry_Int_Tables_number   1
_chemical_formula_structural   LaTi3(BiO4)3
_chemical_formula_sum   'La2 Ti6 Bi6 O24'
_cell_volume   505.86080020
_cell_formula_units_Z   2
loop_
 _symmetry_equiv_pos_site_id
 _symmetry_equiv_pos_as_xyz
  1  'x, y, z'
loop_
 _atom_site_type_symbol
 _atom_site_label
 _atom_site_symmetry_multiplicity
 _atom_site_fract_x
 _atom_site_fract_y
 _atom_site_fract_z
 _atom_site_occupancy
  La  La0  1  0.251451  0.112471  0.868629  1
  La  La1  1  0.748549  0.612471  0.868629  1
  Ti  Ti2  1  0.753740  0.056275  0.994741  1
  Ti  Ti3  1  0.246260  0.556275  0.994741  1
  Ti  Ti4  1  0.750551  0.186000  0.743526  1
  Ti  Ti5  1  0.249449  0.686000  0.743526  1
  Ti  Ti6  1  0.752349  0.928485  0.255079  1
  Ti  Ti7  1  0.247651  0.428485  0.255079  1
  Bi  Bi8  1  0.276227  0.194108  0.578460  1
  Bi  Bi9  1  0.723773  0.694108  0.578460  1
  Bi  Bi10  1  0.256694  0.940794  0.132770  1
  Bi  Bi11  1  0.743306  0.440794  0.132770  1
  Bi  Bi12  1  0.226773  0.776490  0.425071  1
  Bi  Bi13  1  0.773227  0.276490  0.425071  1
  O  O14  1  0.464506  0.311400  0.975077  1
  O  O15  1  0.535494  0.811400  0.975077  1
  O  O16  1  0.508367  0.009316  0.498540  1
  O  O17  1  0.491633  0.509316  0.498540  1
  O  O18  1  0.813553  0.145093  0.881799  1
  O  O19  1  0.186447  0.645093  0.881799  1
  O  O20  1  0.684530  0.252088  0.638660  1
  O  O21  1  0.315470  0.752088  0.638660  1
  O  O22  1  0.487470  0.419349  0.778536  1
  O  O23  1  0.512530  0.919349  0.778536  1
  O  O24  1  0.986054  0.453766  0.753077  1
  O  O25  1  0.013946  0.953766  0.753077  1
  O  O26  1  0.954635  0.373888  0.009298  1
  O  O27  1  0.045365  0.873888  0.009298  1
  O  O28  1  0.991122  0.509055  0.501301  1
  O  O29  1  0.008878  0.009055  0.501301  1
  O  O30  1  0.680198  0.044161  0.110899  1
  O  O31  1  0.319802  0.544161  0.110899  1
  O  O32  1  0.809720  0.883460  0.358241  1
  O  O33  1  0.190280  0.383460  0.358241  1
  O  O34  1  0.019517  0.194368  0.218443  1
  O  O35  1  0.980483  0.694368  0.218443  1
  O  O36  1  0.537791  0.237833  0.243653  1
  O  O37  1  0.462209  0.737833  0.243653  1
