# generated using pymatgen
data_Lu6Ga7Co7Ru9
_symmetry_space_group_name_H-M   'P 1'
_cell_length_a   8.70651090
_cell_length_b   8.73084695
_cell_length_c   8.73084500
_cell_angle_alpha   59.99999601
_cell_angle_beta   59.90748987
_cell_angle_gamma   59.90749519
_symmetry_Int_Tables_number   1
_chemical_formula_structural   Lu6Ga7Co7Ru9
_chemical_formula_sum   'Lu6 Ga7 Co7 Ru9'
_cell_volume   468.63327382
_cell_formula_units_Z   1
loop_
 _symmetry_equiv_pos_site_id
 _symmetry_equiv_pos_as_xyz
  1  'x, y, z'
loop_
 _atom_site_type_symbol
 _atom_site_label
 _atom_site_symmetry_multiplicity
 _atom_site_fract_x
 _atom_site_fract_y
 _atom_site_fract_z
 _atom_site_occupancy
  Lu  Lu0  1  0.719488  0.280832  0.280832  1
  Lu  Lu1  1  0.719488  0.280832  0.718850  1
  Lu  Lu2  1  0.719488  0.718850  0.280832  1
  Lu  Lu3  1  0.282206  0.718581  0.718581  1
  Lu  Lu4  1  0.282206  0.718581  0.280631  1
  Lu  Lu5  1  0.282206  0.280631  0.718581  1
  Ga  Ga6  1  0.999229  0.000257  0.000257  1
  Ga  Ga7  1  0.499072  0.000850  0.000850  1
  Ga  Ga8  1  0.499072  0.000850  0.499228  1
  Ga  Ga9  1  0.499072  0.499228  0.000850  1
  Ga  Ga10  1  0.000853  0.503222  0.503222  1
  Ga  Ga11  1  0.000853  0.503222  0.992703  1
  Ga  Ga12  1  0.000853  0.992703  0.503222  1
  Co  Co13  1  0.322473  0.035632  0.320948  1
  Co  Co14  1  0.322473  0.320948  0.035632  1
  Co  Co15  1  0.322473  0.320948  0.320948  1
  Co  Co16  1  0.962192  0.679269  0.679269  1
  Co  Co17  1  0.678999  0.960342  0.680329  1
  Co  Co18  1  0.678999  0.680329  0.960342  1
  Co  Co19  1  0.678999  0.680329  0.680329  1
  Ru  Ru20  1  0.620700  0.126434  0.126434  1
  Ru  Ru21  1  0.126765  0.624628  0.124305  1
  Ru  Ru22  1  0.126765  0.124305  0.624628  1
  Ru  Ru23  1  0.126765  0.124305  0.124305  1
  Ru  Ru24  1  0.382448  0.872517  0.872517  1
  Ru  Ru25  1  0.871615  0.380449  0.873967  1
  Ru  Ru26  1  0.871615  0.873967  0.380449  1
  Ru  Ru27  1  0.871615  0.873967  0.873967  1
  Ru  Ru28  1  0.031021  0.322993  0.322993  1
