# generated using pymatgen
data_Er4Ga4IrAu3
_symmetry_space_group_name_H-M   'P 1'
_cell_length_a   4.44280200
_cell_length_b   7.02062846
_cell_length_c   7.78067660
_cell_angle_alpha   89.62102061
_cell_angle_beta   90.00000000
_cell_angle_gamma   90.00000000
_symmetry_Int_Tables_number   1
_chemical_formula_structural   Er4Ga4IrAu3
_chemical_formula_sum   'Er4 Ga4 Ir1 Au3'
_cell_volume   242.68381474
_cell_formula_units_Z   1
loop_
 _symmetry_equiv_pos_site_id
 _symmetry_equiv_pos_as_xyz
  1  'x, y, z'
loop_
 _atom_site_type_symbol
 _atom_site_label
 _atom_site_symmetry_multiplicity
 _atom_site_fract_x
 _atom_site_fract_y
 _atom_site_fract_z
 _atom_site_occupancy
  Er  Er0  1  0.250000  0.003746  0.297182  1
  Er  Er1  1  0.250000  0.486182  0.211828  1
  Er  Er2  1  0.750000  0.018397  0.693050  1
  Er  Er3  1  0.750000  0.504957  0.793094  1
  Ga  Ga4  1  0.250000  0.312982  0.573480  1
  Ga  Ga5  1  0.250000  0.814916  0.920176  1
  Ga  Ga6  1  0.750000  0.669363  0.422324  1
  Ga  Ga7  1  0.750000  0.194442  0.087487  1
  Ir  Ir8  1  0.750000  0.276458  0.407947  1
  Au  Au9  1  0.250000  0.216533  0.906029  1
  Au  Au10  1  0.250000  0.722813  0.592700  1
  Au  Au11  1  0.750000  0.779212  0.094704  1
