# generated using pymatgen
data_Li4YbTh3Si8
_symmetry_space_group_name_H-M   'P 1'
_cell_length_a   3.86976600
_cell_length_b   7.73931813
_cell_length_c   10.46011684
_cell_angle_alpha   89.82170589
_cell_angle_beta   90.00000000
_cell_angle_gamma   90.00000000
_symmetry_Int_Tables_number   1
_chemical_formula_structural   Li4YbTh3Si8
_chemical_formula_sum   'Li4 Yb1 Th3 Si8'
_cell_volume   313.27218544
_cell_formula_units_Z   1
loop_
 _symmetry_equiv_pos_site_id
 _symmetry_equiv_pos_as_xyz
  1  'x, y, z'
loop_
 _atom_site_type_symbol
 _atom_site_label
 _atom_site_symmetry_multiplicity
 _atom_site_fract_x
 _atom_site_fract_y
 _atom_site_fract_z
 _atom_site_occupancy
  Li  Li0  1  0.250000  0.999638  0.393973  1
  Li  Li1  1  0.750000  0.010660  0.606247  1
  Li  Li2  1  0.250000  0.487496  0.110402  1
  Li  Li3  1  0.750000  0.507898  0.896025  1
  Yb  Yb4  1  0.750000  0.363147  0.364552  1
  Th  Th5  1  0.250000  0.134919  0.863102  1
  Th  Th6  1  0.750000  0.860809  0.133409  1
  Th  Th7  1  0.250000  0.637064  0.634349  1
  Si  Si8  1  0.750000  0.262878  0.068497  1
  Si  Si9  1  0.250000  0.728305  0.929387  1
  Si  Si10  1  0.750000  0.773258  0.428965  1
  Si  Si11  1  0.250000  0.238861  0.571051  1
  Si  Si12  1  0.750000  0.834637  0.814807  1
  Si  Si13  1  0.250000  0.159782  0.179321  1
  Si  Si14  1  0.750000  0.336269  0.685105  1
  Si  Si15  1  0.250000  0.664380  0.320809  1
