# generated using pymatgen
data_Tb4Y(In2Pd)2
_symmetry_space_group_name_H-M   'P 1'
_cell_length_a   3.63166900
_cell_length_b   8.20719800
_cell_length_c   18.36745300
_cell_angle_alpha   90.00000000
_cell_angle_beta   90.00000000
_cell_angle_gamma   90.00000000
_symmetry_Int_Tables_number   1
_chemical_formula_structural   Tb4Y(In2Pd)2
_chemical_formula_sum   'Tb8 Y2 In8 Pd4'
_cell_volume   547.45711835
_cell_formula_units_Z   2
loop_
 _symmetry_equiv_pos_site_id
 _symmetry_equiv_pos_as_xyz
  1  'x, y, z'
loop_
 _atom_site_type_symbol
 _atom_site_label
 _atom_site_symmetry_multiplicity
 _atom_site_fract_x
 _atom_site_fract_y
 _atom_site_fract_z
 _atom_site_occupancy
  Tb  Tb0  1  0.000000  0.739088  0.280751  1
  Tb  Tb1  1  0.000000  0.260912  0.719249  1
  Tb  Tb2  1  0.000000  0.760912  0.780751  1
  Tb  Tb3  1  0.000000  0.239088  0.219249  1
  Tb  Tb4  1  0.000000  0.617549  0.083099  1
  Tb  Tb5  1  0.000000  0.382451  0.916901  1
  Tb  Tb6  1  0.000000  0.882451  0.583099  1
  Tb  Tb7  1  0.000000  0.117549  0.416901  1
  Y  Y8  1  0.000000  0.500000  0.500000  1
  Y  Y9  1  0.000000  0.000000  0.000000  1
  In  In10  1  0.500000  0.709055  0.932196  1
  In  In11  1  0.500000  0.290945  0.067804  1
  In  In12  1  0.500000  0.790945  0.432196  1
  In  In13  1  0.500000  0.209055  0.567804  1
  In  In14  1  0.500000  0.580592  0.650164  1
  In  In15  1  0.500000  0.419408  0.349836  1
  In  In16  1  0.500000  0.919408  0.150164  1
  In  In17  1  0.500000  0.080592  0.849836  1
  Pd  Pd18  1  0.500000  0.522867  0.196109  1
  Pd  Pd19  1  0.500000  0.477133  0.803891  1
  Pd  Pd20  1  0.500000  0.977133  0.696109  1
  Pd  Pd21  1  0.500000  0.022867  0.303891  1
