# generated using pymatgen
data_Y3Er2Sn3
_symmetry_space_group_name_H-M   'P 1'
_cell_length_a   8.94016600
_cell_length_b   8.94016611
_cell_length_c   6.51258900
_cell_angle_alpha   90.00000000
_cell_angle_beta   90.00000000
_cell_angle_gamma   119.99999958
_symmetry_Int_Tables_number   1
_chemical_formula_structural   Y3Er2Sn3
_chemical_formula_sum   'Y6 Er4 Sn6'
_cell_volume   450.79124821
_cell_formula_units_Z   2
loop_
 _symmetry_equiv_pos_site_id
 _symmetry_equiv_pos_as_xyz
  1  'x, y, z'
loop_
 _atom_site_type_symbol
 _atom_site_label
 _atom_site_symmetry_multiplicity
 _atom_site_fract_x
 _atom_site_fract_y
 _atom_site_fract_z
 _atom_site_occupancy
  Y  Y0  1  0.000000  0.760615  0.750000  1
  Y  Y1  1  0.000000  0.239385  0.250000  1
  Y  Y2  1  0.760615  0.760615  0.250000  1
  Y  Y3  1  0.760615  0.000000  0.750000  1
  Y  Y4  1  0.239385  0.239385  0.750000  1
  Y  Y5  1  0.239385  0.000000  0.250000  1
  Er  Er6  1  0.333333  0.666667  0.500000  1
  Er  Er7  1  0.666667  0.333333  0.000000  1
  Er  Er8  1  0.666667  0.333333  0.500000  1
  Er  Er9  1  0.333333  0.666667  0.000000  1
  Sn  Sn10  1  0.395858  0.000000  0.750000  1
  Sn  Sn11  1  0.395858  0.395858  0.250000  1
  Sn  Sn12  1  0.000000  0.604142  0.250000  1
  Sn  Sn13  1  0.000000  0.395858  0.750000  1
  Sn  Sn14  1  0.604142  0.604142  0.750000  1
  Sn  Sn15  1  0.604142  0.000000  0.250000  1
