# generated using pymatgen
data_Yb2LuSc2Re2C7
_symmetry_space_group_name_H-M   'P 1'
_cell_length_a   8.05391946
_cell_length_b   8.43276358
_cell_length_c   3.28711100
_cell_angle_alpha   90.00000000
_cell_angle_beta   90.00000000
_cell_angle_gamma   124.13108632
_symmetry_Int_Tables_number   1
_chemical_formula_structural   Yb2LuSc2Re2C7
_chemical_formula_sum   'Yb2 Lu1 Sc2 Re2 C7'
_cell_volume   184.79658090
_cell_formula_units_Z   1
loop_
 _symmetry_equiv_pos_site_id
 _symmetry_equiv_pos_as_xyz
  1  'x, y, z'
loop_
 _atom_site_type_symbol
 _atom_site_label
 _atom_site_symmetry_multiplicity
 _atom_site_fract_x
 _atom_site_fract_y
 _atom_site_fract_z
 _atom_site_occupancy
  Yb  Yb0  1  0.292367  0.059106  0.500000  1
  Yb  Yb1  1  0.707633  0.940894  0.500000  1
  Lu  Lu2  1  0.500000  0.500000  0.000000  1
  Sc  Sc3  1  0.076301  0.353434  0.500000  1
  Sc  Sc4  1  0.923699  0.646566  0.500000  1
  Re  Re5  1  0.298875  0.717542  0.000000  1
  Re  Re6  1  0.701125  0.282458  0.000000  1
  C  C7  1  0.139826  0.188487  0.000000  1
  C  C8  1  0.860174  0.811513  0.000000  1
  C  C9  1  0.000000  0.000000  0.000000  1
  C  C10  1  0.384685  0.627799  0.500000  1
  C  C11  1  0.615315  0.372201  0.500000  1
  C  C12  1  0.500000  0.000000  0.000000  1
  C  C13  1  0.000000  0.500000  0.000000  1
