# generated using pymatgen
data_BaTa6VS12
_symmetry_space_group_name_H-M   'P 1'
_cell_length_a   5.79777600
_cell_length_b   5.79777574
_cell_length_c   14.12617700
_cell_angle_alpha   90.00000000
_cell_angle_beta   90.00000000
_cell_angle_gamma   120.00000149
_symmetry_Int_Tables_number   1
_chemical_formula_structural   BaTa6VS12
_chemical_formula_sum   'Ba1 Ta6 V1 S12'
_cell_volume   411.22367843
_cell_formula_units_Z   1
loop_
 _symmetry_equiv_pos_site_id
 _symmetry_equiv_pos_as_xyz
  1  'x, y, z'
loop_
 _atom_site_type_symbol
 _atom_site_label
 _atom_site_symmetry_multiplicity
 _atom_site_fract_x
 _atom_site_fract_y
 _atom_site_fract_z
 _atom_site_occupancy
  Ba  Ba0  1  0.333333  0.666667  0.250000  1
  Ta  Ta1  1  0.000000  0.000000  0.535653  1
  Ta  Ta2  1  0.000000  0.000000  0.964347  1
  Ta  Ta3  1  0.333333  0.666667  0.965349  1
  Ta  Ta4  1  0.666667  0.333333  0.966794  1
  Ta  Ta5  1  0.666667  0.333333  0.533206  1
  Ta  Ta6  1  0.333333  0.666667  0.534651  1
  V  V7  1  0.666667  0.333333  0.750000  1
  S  S8  1  0.330835  0.329327  0.423128  1
  S  S9  1  0.670673  0.001508  0.423128  1
  S  S10  1  0.998492  0.669165  0.423128  1
  S  S11  1  0.334551  0.333515  0.645143  1
  S  S12  1  0.998964  0.665449  0.645143  1
  S  S13  1  0.666485  0.001036  0.645143  1
  S  S14  1  0.666485  0.665449  0.854857  1
  S  S15  1  0.334551  0.001036  0.854857  1
  S  S16  1  0.998964  0.333515  0.854857  1
  S  S17  1  0.670673  0.669165  0.076872  1
  S  S18  1  0.998492  0.329327  0.076872  1
  S  S19  1  0.330835  0.001508  0.076872  1
