# generated using pymatgen
data_Tb10Er2Co6Sn
_symmetry_space_group_name_H-M   'P 1'
_cell_length_a   8.37455738
_cell_length_b   8.37455776
_cell_length_c   8.37992231
_cell_angle_alpha   109.47721177
_cell_angle_beta   109.54294232
_cell_angle_gamma   109.36755527
_symmetry_Int_Tables_number   1
_chemical_formula_structural   Tb10Er2Co6Sn
_chemical_formula_sum   'Tb10 Er2 Co6 Sn1'
_cell_volume   452.56408856
_cell_formula_units_Z   1
loop_
 _symmetry_equiv_pos_site_id
 _symmetry_equiv_pos_as_xyz
  1  'x, y, z'
loop_
 _atom_site_type_symbol
 _atom_site_label
 _atom_site_symmetry_multiplicity
 _atom_site_fract_x
 _atom_site_fract_y
 _atom_site_fract_z
 _atom_site_occupancy
  Tb  Tb0  1  0.193959  0.696522  0.890482  1
  Tb  Tb1  1  0.806041  0.303478  0.109518  1
  Tb  Tb2  1  0.696319  0.502530  0.805342  1
  Tb  Tb3  1  0.303681  0.497470  0.194658  1
  Tb  Tb4  1  0.697186  0.890977  0.194658  1
  Tb  Tb5  1  0.302814  0.109023  0.805342  1
  Tb  Tb6  1  0.502481  0.805258  0.696520  1
  Tb  Tb7  1  0.497519  0.194742  0.303480  1
  Tb  Tb8  1  0.108737  0.805961  0.303480  1
  Tb  Tb9  1  0.891263  0.194039  0.696520  1
  Er  Er10  1  0.805911  0.696165  0.502077  1
  Er  Er11  1  0.194089  0.303835  0.497923  1
  Co  Co12  1  0.887251  0.387251  0.500000  1
  Co  Co13  1  0.112749  0.612749  0.500000  1
  Co  Co14  1  0.386779  0.499784  0.886563  1
  Co  Co15  1  0.613221  0.500216  0.113437  1
  Co  Co16  1  0.500174  0.887006  0.387180  1
  Co  Co17  1  0.499826  0.112994  0.612820  1
  Sn  Sn18  1  0.000000  0.000000  0.000000  1
