# generated using pymatgen
data_Dy5In4NiPd
_symmetry_space_group_name_H-M   'P 1'
_cell_length_a   3.59673800
_cell_length_b   8.10697300
_cell_length_c   18.15293600
_cell_angle_alpha   90.00000000
_cell_angle_beta   90.00000000
_cell_angle_gamma   90.00000000
_symmetry_Int_Tables_number   1
_chemical_formula_structural   Dy5In4NiPd
_chemical_formula_sum   'Dy10 In8 Ni2 Pd2'
_cell_volume   529.31524987
_cell_formula_units_Z   2
loop_
 _symmetry_equiv_pos_site_id
 _symmetry_equiv_pos_as_xyz
  1  'x, y, z'
loop_
 _atom_site_type_symbol
 _atom_site_label
 _atom_site_symmetry_multiplicity
 _atom_site_fract_x
 _atom_site_fract_y
 _atom_site_fract_z
 _atom_site_occupancy
  Dy  Dy0  1  0.500000  0.382482  0.587557  1
  Dy  Dy1  1  0.500000  0.880176  0.916810  1
  Dy  Dy2  1  0.500000  0.117518  0.087557  1
  Dy  Dy3  1  0.500000  0.747205  0.718956  1
  Dy  Dy4  1  0.500000  0.263187  0.777612  1
  Dy  Dy5  1  0.500000  0.500072  0.000277  1
  Dy  Dy6  1  0.500000  0.752795  0.218956  1
  Dy  Dy7  1  0.500000  0.236813  0.277612  1
  Dy  Dy8  1  0.500000  0.999928  0.500277  1
  Dy  Dy9  1  0.500000  0.619824  0.416810  1
  In  In10  1  0.000000  0.794395  0.069071  1
  In  In11  1  0.000000  0.925830  0.348098  1
  In  In12  1  0.000000  0.074296  0.650225  1
  In  In13  1  0.000000  0.574170  0.848098  1
  In  In14  1  0.000000  0.705605  0.569071  1
  In  In15  1  0.000000  0.207621  0.931945  1
  In  In16  1  0.000000  0.292379  0.431945  1
  In  In17  1  0.000000  0.425704  0.150225  1
  Ni  Ni18  1  0.000000  0.475381  0.695592  1
  Ni  Ni19  1  0.000000  0.024619  0.195592  1
  Pd  Pd20  1  0.000000  0.973473  0.803856  1
  Pd  Pd21  1  0.000000  0.526527  0.303856  1
