# generated using pymatgen
data_La2GaCu18Si7
_symmetry_space_group_name_H-M   'P 1'
_cell_length_a   8.19467192
_cell_length_b   8.19467105
_cell_length_c   8.18348464
_cell_angle_alpha   120.35511608
_cell_angle_beta   120.35511183
_cell_angle_gamma   89.20860575
_symmetry_Int_Tables_number   1
_chemical_formula_structural   La2GaCu18Si7
_chemical_formula_sum   'La2 Ga1 Cu18 Si7'
_cell_volume   387.06326204
_cell_formula_units_Z   1
loop_
 _symmetry_equiv_pos_site_id
 _symmetry_equiv_pos_as_xyz
  1  'x, y, z'
loop_
 _atom_site_type_symbol
 _atom_site_label
 _atom_site_symmetry_multiplicity
 _atom_site_fract_x
 _atom_site_fract_y
 _atom_site_fract_z
 _atom_site_occupancy
  La  La0  1  0.748618  0.749872  0.999829  1
  La  La1  1  0.249872  0.248618  0.999829  1
  Ga  Ga2  1  0.055892  0.555892  0.855875  1
  Cu  Cu3  1  0.063287  0.203164  0.265446  1
  Cu  Cu4  1  0.935967  0.800519  0.732201  1
  Cu  Cu5  1  0.563541  0.295835  0.862625  1
  Cu  Cu6  1  0.440374  0.704635  0.140565  1
  Cu  Cu7  1  0.795835  0.063541  0.862625  1
  Cu  Cu8  1  0.204635  0.940374  0.140565  1
  Cu  Cu9  1  0.703164  0.563287  0.265446  1
  Cu  Cu10  1  0.300519  0.435967  0.732201  1
  Cu  Cu11  1  0.441634  0.941634  0.750692  1
  Cu  Cu12  1  0.201331  0.701331  0.266104  1
  Cu  Cu13  1  0.941383  0.190805  0.496511  1
  Cu  Cu14  1  0.690805  0.441383  0.496511  1
  Cu  Cu15  1  0.558079  0.058079  0.250195  1
  Cu  Cu16  1  0.796986  0.296986  0.738990  1
  Cu  Cu17  1  0.057178  0.808039  0.500237  1
  Cu  Cu18  1  0.308039  0.557178  0.500237  1
  Cu  Cu19  1  0.999781  0.499781  0.496926  1
  Cu  Cu20  1  0.499035  0.999035  0.499843  1
  Si  Si21  1  0.707570  0.207570  0.150178  1
  Si  Si22  1  0.558758  0.707325  0.500461  1
  Si  Si23  1  0.207325  0.058758  0.500461  1
  Si  Si24  1  0.944073  0.444073  0.146076  1
  Si  Si25  1  0.290917  0.790917  0.850085  1
  Si  Si26  1  0.442881  0.292523  0.499644  1
  Si  Si27  1  0.792523  0.942881  0.499644  1
