# generated using pymatgen
data_K4Mn9PtO20
_symmetry_space_group_name_H-M   'P 1'
_cell_length_a   7.90196797
_cell_length_b   5.16529842
_cell_length_c   12.98721500
_cell_angle_alpha   86.73828040
_cell_angle_beta   83.46505847
_cell_angle_gamma   69.60016950
_symmetry_Int_Tables_number   1
_chemical_formula_structural   K4Mn9PtO20
_chemical_formula_sum   'K4 Mn9 Pt1 O20'
_cell_volume   493.52841002
_cell_formula_units_Z   1
loop_
 _symmetry_equiv_pos_site_id
 _symmetry_equiv_pos_as_xyz
  1  'x, y, z'
loop_
 _atom_site_type_symbol
 _atom_site_label
 _atom_site_symmetry_multiplicity
 _atom_site_fract_x
 _atom_site_fract_y
 _atom_site_fract_z
 _atom_site_occupancy
  K  K0  1  0.056267  0.718334  0.502210  1
  K  K1  1  0.555981  0.468471  0.498070  1
  K  K2  1  0.558452  0.216477  0.999927  1
  K  K3  1  0.053050  0.972052  0.996968  1
  Mn  Mn4  1  0.049563  0.350734  0.749541  1
  Mn  Mn5  1  0.350531  0.446006  0.254588  1
  Mn  Mn6  1  0.255574  0.750157  0.746067  1
  Mn  Mn7  1  0.451106  0.154069  0.745036  1
  Mn  Mn8  1  0.551665  0.847071  0.249006  1
  Mn  Mn9  1  0.749563  0.250283  0.245699  1
  Mn  Mn10  1  0.646315  0.550765  0.754636  1
  Mn  Mn11  1  0.947561  0.652887  0.245352  1
  Mn  Mn12  1  0.848479  0.950452  0.754215  1
  Pt  Pt13  1  0.145787  0.047964  0.253633  1
  O  O14  1  0.055834  0.014305  0.673735  1
  O  O15  1  0.134135  0.388079  0.329815  1
  O  O16  1  0.168754  0.706850  0.173438  1
  O  O17  1  0.042311  0.687433  0.826065  1
  O  O18  1  0.237845  0.082039  0.820312  1
  O  O19  1  0.366427  0.120523  0.174610  1
  O  O20  1  0.280559  0.437573  0.665838  1
  O  O21  1  0.325754  0.752317  0.339404  1
  O  O22  1  0.540501  0.185081  0.326963  1
  O  O23  1  0.433196  0.517426  0.831918  1
  O  O24  1  0.554046  0.513362  0.172931  1
  O  O25  1  0.469868  0.788833  0.668082  1
  O  O26  1  0.669710  0.224083  0.676631  1
  O  O27  1  0.735925  0.578955  0.321172  1
  O  O28  1  0.777326  0.937508  0.164808  1
  O  O29  1  0.635707  0.878712  0.826656  1
  O  O30  1  0.956578  0.302297  0.164183  1
  O  O31  1  0.816711  0.267064  0.836041  1
  O  O32  1  0.858496  0.621295  0.677935  1
  O  O33  1  0.919624  0.012575  0.334234  1
