# generated using pymatgen
data_K2LiScAs2
_symmetry_space_group_name_H-M   'P 1'
_cell_length_a   8.83342569
_cell_length_b   8.83342643
_cell_length_c   8.83342656
_cell_angle_alpha   135.30151881
_cell_angle_beta   135.81099512
_cell_angle_gamma   64.66801445
_symmetry_Int_Tables_number   1
_chemical_formula_structural   K2LiScAs2
_chemical_formula_sum   'K4 Li2 Sc2 As4'
_cell_volume   333.18884380
_cell_formula_units_Z   2
loop_
 _symmetry_equiv_pos_site_id
 _symmetry_equiv_pos_as_xyz
  1  'x, y, z'
loop_
 _atom_site_type_symbol
 _atom_site_label
 _atom_site_symmetry_multiplicity
 _atom_site_fract_x
 _atom_site_fract_y
 _atom_site_fract_z
 _atom_site_occupancy
  K  K0  1  0.105579  0.820501  0.285078  1
  K  K1  1  0.894421  0.179499  0.714922  1
  K  K2  1  0.464578  0.679499  0.785078  1
  K  K3  1  0.535422  0.320501  0.214922  1
  Li  Li4  1  0.500000  0.250000  0.750000  1
  Li  Li5  1  0.500000  0.750000  0.250000  1
  Sc  Sc6  1  0.000000  0.250000  0.250000  1
  Sc  Sc7  1  0.000000  0.750000  0.750000  1
  As  As8  1  0.672648  0.908900  0.763747  1
  As  As9  1  0.145153  0.408900  0.736253  1
  As  As10  1  0.854847  0.591100  0.263747  1
  As  As11  1  0.327352  0.091100  0.236253  1
