# generated using pymatgen
data_Yb2HoTm(SiPt2)4
_symmetry_space_group_name_H-M   'P 1'
_cell_length_a   5.52461745
_cell_length_b   6.95545700
_cell_length_c   7.28788200
_cell_angle_alpha   90.00000000
_cell_angle_beta   89.97549001
_cell_angle_gamma   90.00000000
_symmetry_Int_Tables_number   1
_chemical_formula_structural   Yb2HoTm(SiPt2)4
_chemical_formula_sum   'Yb2 Ho1 Tm1 Si4 Pt8'
_cell_volume   280.04587101
_cell_formula_units_Z   1
loop_
 _symmetry_equiv_pos_site_id
 _symmetry_equiv_pos_as_xyz
  1  'x, y, z'
loop_
 _atom_site_type_symbol
 _atom_site_label
 _atom_site_symmetry_multiplicity
 _atom_site_fract_x
 _atom_site_fract_y
 _atom_site_fract_z
 _atom_site_occupancy
  Yb  Yb0  1  0.365167  0.750000  0.023119  1
  Yb  Yb1  1  0.634686  0.250000  0.976339  1
  Ho  Ho2  1  0.135725  0.750000  0.524403  1
  Tm  Tm3  1  0.862803  0.250000  0.475842  1
  Si  Si4  1  0.633675  0.750000  0.376958  1
  Si  Si5  1  0.866647  0.750000  0.880850  1
  Si  Si6  1  0.365365  0.250000  0.622593  1
  Si  Si7  1  0.133340  0.250000  0.120082  1
  Pt  Pt8  1  0.909561  0.550173  0.182187  1
  Pt  Pt9  1  0.598034  0.948488  0.676260  1
  Pt  Pt10  1  0.090035  0.050947  0.818131  1
  Pt  Pt11  1  0.403665  0.447837  0.323329  1
  Pt  Pt12  1  0.090035  0.449053  0.818131  1
  Pt  Pt13  1  0.403665  0.052163  0.323329  1
  Pt  Pt14  1  0.909561  0.949827  0.182187  1
  Pt  Pt15  1  0.598034  0.551512  0.676260  1
