# generated using pymatgen
data_YbDy(Ni5Sn)2
_symmetry_space_group_name_H-M   'P 1'
_cell_length_a   4.84334100
_cell_length_b   8.02446400
_cell_length_c   10.24362400
_cell_angle_alpha   90.00000000
_cell_angle_beta   90.00000000
_cell_angle_gamma   90.00000000
_symmetry_Int_Tables_number   1
_chemical_formula_structural   YbDy(Ni5Sn)2
_chemical_formula_sum   'Yb2 Dy2 Ni20 Sn4'
_cell_volume   398.12065420
_cell_formula_units_Z   2
loop_
 _symmetry_equiv_pos_site_id
 _symmetry_equiv_pos_as_xyz
  1  'x, y, z'
loop_
 _atom_site_type_symbol
 _atom_site_label
 _atom_site_symmetry_multiplicity
 _atom_site_fract_x
 _atom_site_fract_y
 _atom_site_fract_z
 _atom_site_occupancy
  Yb  Yb0  1  0.750000  0.746176  0.940386  1
  Yb  Yb1  1  0.250000  0.753824  0.440386  1
  Dy  Dy2  1  0.750000  0.247383  0.559942  1
  Dy  Dy3  1  0.250000  0.252617  0.059942  1
  Ni  Ni4  1  0.750000  0.912510  0.482549  1
  Ni  Ni5  1  0.250000  0.587490  0.982549  1
  Ni  Ni6  1  0.750000  0.415508  0.016297  1
  Ni  Ni7  1  0.250000  0.084492  0.516297  1
  Ni  Ni8  1  0.250000  0.188735  0.742749  1
  Ni  Ni9  1  0.750000  0.311265  0.242749  1
  Ni  Ni10  1  0.250000  0.688683  0.757565  1
  Ni  Ni11  1  0.750000  0.811317  0.257565  1
  Ni  Ni12  1  0.750000  0.547460  0.399864  1
  Ni  Ni13  1  0.250000  0.952540  0.899864  1
  Ni  Ni14  1  0.750000  0.047089  0.100215  1
  Ni  Ni15  1  0.250000  0.452911  0.600215  1
  Ni  Ni16  1  0.498507  0.065431  0.309615  1
  Ni  Ni17  1  0.501493  0.434569  0.809615  1
  Ni  Ni18  1  0.001165  0.566074  0.190413  1
  Ni  Ni19  1  0.998835  0.933926  0.690413  1
  Ni  Ni20  1  0.501165  0.933926  0.690413  1
  Ni  Ni21  1  0.498835  0.566074  0.190413  1
  Ni  Ni22  1  0.998507  0.434569  0.809615  1
  Ni  Ni23  1  0.001493  0.065431  0.309615  1
  Sn  Sn24  1  0.750000  0.640841  0.639073  1
  Sn  Sn25  1  0.250000  0.859159  0.139073  1
  Sn  Sn26  1  0.750000  0.137766  0.861303  1
  Sn  Sn27  1  0.250000  0.362234  0.361303  1
