# generated using pymatgen
data_MnPt2PbO7
_symmetry_space_group_name_H-M   'P 1'
_cell_length_a   7.21489833
_cell_length_b   7.29537730
_cell_length_c   7.21489810
_cell_angle_alpha   59.63032826
_cell_angle_beta   59.32063898
_cell_angle_gamma   59.63032022
_symmetry_Int_Tables_number   1
_chemical_formula_structural   MnPt2PbO7
_chemical_formula_sum   'Mn2 Pt4 Pb2 O14'
_cell_volume   265.63739144
_cell_formula_units_Z   2
loop_
 _symmetry_equiv_pos_site_id
 _symmetry_equiv_pos_as_xyz
  1  'x, y, z'
loop_
 _atom_site_type_symbol
 _atom_site_label
 _atom_site_symmetry_multiplicity
 _atom_site_fract_x
 _atom_site_fract_y
 _atom_site_fract_z
 _atom_site_occupancy
  Mn  Mn0  1  0.125000  0.125000  0.625000  1
  Mn  Mn1  1  0.625000  0.125000  0.125000  1
  Pt  Pt2  1  0.625000  0.625000  0.125000  1
  Pt  Pt3  1  0.625000  0.125000  0.625000  1
  Pt  Pt4  1  0.125000  0.625000  0.625000  1
  Pt  Pt5  1  0.625000  0.625000  0.625000  1
  Pb  Pb6  1  0.125000  0.625000  0.125000  1
  Pb  Pb7  1  0.125000  0.125000  0.125000  1
  O  O8  1  0.252850  0.247150  0.252850  1
  O  O9  1  0.997150  0.002850  0.997150  1
  O  O10  1  0.534321  0.965679  0.534321  1
  O  O11  1  0.288018  0.711982  0.288018  1
  O  O12  1  0.538771  0.534028  0.964636  1
  O  O13  1  0.964636  0.534028  0.538771  1
  O  O14  1  0.538771  0.962565  0.964636  1
  O  O15  1  0.964636  0.962565  0.538771  1
  O  O16  1  0.961982  0.538018  0.961982  1
  O  O17  1  0.711229  0.287435  0.285364  1
  O  O18  1  0.285364  0.715972  0.711229  1
  O  O19  1  0.715679  0.284321  0.715679  1
  O  O20  1  0.285364  0.287435  0.711229  1
  O  O21  1  0.711229  0.715972  0.285364  1
