# generated using pymatgen
data_Ho5Er3Tc(B8Ru)3
_symmetry_space_group_name_H-M   'P 1'
_cell_length_a   3.65021500
_cell_length_b   9.11039744
_cell_length_c   11.49529200
_cell_angle_alpha   89.91393920
_cell_angle_beta   90.00000000
_cell_angle_gamma   90.00000000
_symmetry_Int_Tables_number   1
_chemical_formula_structural   Ho5Er3Tc(B8Ru)3
_chemical_formula_sum   'Ho5 Er3 Tc1 B24 Ru3'
_cell_volume   382.27446267
_cell_formula_units_Z   1
loop_
 _symmetry_equiv_pos_site_id
 _symmetry_equiv_pos_as_xyz
  1  'x, y, z'
loop_
 _atom_site_type_symbol
 _atom_site_label
 _atom_site_symmetry_multiplicity
 _atom_site_fract_x
 _atom_site_fract_y
 _atom_site_fract_z
 _atom_site_occupancy
  Ho  Ho0  1  0.000000  0.323952  0.413314  1
  Ho  Ho1  1  0.000000  0.677391  0.583438  1
  Ho  Ho2  1  0.000000  0.819818  0.087976  1
  Ho  Ho3  1  0.000000  0.177449  0.915060  1
  Ho  Ho4  1  0.000000  0.943093  0.372281  1
  Er  Er5  1  0.000000  0.057520  0.628499  1
  Er  Er6  1  0.000000  0.443848  0.128174  1
  Er  Er7  1  0.000000  0.557015  0.871326  1
  Tc  Tc8  1  0.000000  0.637274  0.320964  1
  B  B9  1  0.500000  0.552840  0.433194  1
  B  B10  1  0.500000  0.446506  0.567339  1
  B  B11  1  0.500000  0.053489  0.067042  1
  B  B12  1  0.500000  0.946105  0.933293  1
  B  B13  1  0.500000  0.748207  0.419415  1
  B  B14  1  0.500000  0.252034  0.580590  1
  B  B15  1  0.500000  0.248169  0.080255  1
  B  B16  1  0.500000  0.751542  0.919558  1
  B  B17  1  0.500000  0.791089  0.265784  1
  B  B18  1  0.500000  0.209318  0.734194  1
  B  B19  1  0.500000  0.290704  0.233333  1
  B  B20  1  0.500000  0.709725  0.765819  1
  B  B21  1  0.500000  0.630796  0.185315  1
  B  B22  1  0.500000  0.368819  0.815006  1
  B  B23  1  0.500000  0.131306  0.314372  1
  B  B24  1  0.500000  0.869472  0.685158  1
  B  B25  1  0.500000  0.982674  0.212510  1
  B  B26  1  0.500000  0.017390  0.787828  1
  B  B27  1  0.500000  0.481745  0.287277  1
  B  B28  1  0.500000  0.517234  0.712605  1
  B  B29  1  0.500000  0.606048  0.028776  1
  B  B30  1  0.500000  0.393263  0.970149  1
  B  B31  1  0.500000  0.107366  0.470917  1
  B  B32  1  0.500000  0.894570  0.530115  1
  Ru  Ru33  1  0.000000  0.362133  0.679658  1
  Ru  Ru34  1  0.000000  0.137511  0.178374  1
  Ru  Ru35  1  0.000000  0.862585  0.821091  1
