# generated using pymatgen
data_Lu2ZrPt9
_symmetry_space_group_name_H-M   'P 1'
_cell_length_a   4.07223200
_cell_length_b   4.07223200
_cell_length_c   12.21164700
_cell_angle_alpha   90.00000000
_cell_angle_beta   90.00000000
_cell_angle_gamma   90.00000000
_symmetry_Int_Tables_number   1
_chemical_formula_structural   Lu2ZrPt9
_chemical_formula_sum   'Lu2 Zr1 Pt9'
_cell_volume   202.50663929
_cell_formula_units_Z   1
loop_
 _symmetry_equiv_pos_site_id
 _symmetry_equiv_pos_as_xyz
  1  'x, y, z'
loop_
 _atom_site_type_symbol
 _atom_site_label
 _atom_site_symmetry_multiplicity
 _atom_site_fract_x
 _atom_site_fract_y
 _atom_site_fract_z
 _atom_site_occupancy
  Lu  Lu0  1  0.000000  0.000000  0.333455  1
  Lu  Lu1  1  0.000000  0.000000  0.666545  1
  Zr  Zr2  1  0.000000  0.000000  0.000000  1
  Pt  Pt3  1  0.500000  0.500000  0.000000  1
  Pt  Pt4  1  0.500000  0.500000  0.330616  1
  Pt  Pt5  1  0.500000  0.500000  0.669384  1
  Pt  Pt6  1  0.500000  0.000000  0.162240  1
  Pt  Pt7  1  0.500000  0.000000  0.500000  1
  Pt  Pt8  1  0.500000  0.000000  0.837760  1
  Pt  Pt9  1  0.000000  0.500000  0.162240  1
  Pt  Pt10  1  0.000000  0.500000  0.500000  1
  Pt  Pt11  1  0.000000  0.500000  0.837760  1
