# generated using pymatgen
data_Nb4Cu4Si4W
_symmetry_space_group_name_H-M   'P 1'
_cell_length_a   7.40039539
_cell_length_b   7.40039577
_cell_length_c   7.40039553
_cell_angle_alpha   93.42092232
_cell_angle_beta   93.42091365
_cell_angle_gamma   151.72188940
_symmetry_Int_Tables_number   1
_chemical_formula_structural   Nb4Cu4Si4W
_chemical_formula_sum   'Nb4 Cu4 Si4 W1'
_cell_volume   186.18968817
_cell_formula_units_Z   1
loop_
 _symmetry_equiv_pos_site_id
 _symmetry_equiv_pos_as_xyz
  1  'x, y, z'
loop_
 _atom_site_type_symbol
 _atom_site_label
 _atom_site_symmetry_multiplicity
 _atom_site_fract_x
 _atom_site_fract_y
 _atom_site_fract_z
 _atom_site_occupancy
  Nb  Nb0  1  0.126723  0.805614  0.932337  1
  Nb  Nb1  1  0.194386  0.126723  0.321109  1
  Nb  Nb2  1  0.805614  0.873277  0.678891  1
  Nb  Nb3  1  0.873277  0.194386  0.067663  1
  Cu  Cu4  1  0.395834  0.917325  0.313159  1
  Cu  Cu5  1  0.604166  0.082675  0.686841  1
  Cu  Cu6  1  0.917325  0.604166  0.521491  1
  Cu  Cu7  1  0.082675  0.395834  0.478509  1
  Si  Si8  1  0.249141  0.559582  0.808723  1
  Si  Si9  1  0.440418  0.249141  0.689560  1
  Si  Si10  1  0.559582  0.750859  0.310440  1
  Si  Si11  1  0.750859  0.440418  0.191277  1
  W  W12  1  0.500000  0.500000  0.000000  1
