# generated using pymatgen
data_Li3Ca4Y4Si12Ag
_symmetry_space_group_name_H-M   'P 1'
_cell_length_a   4.29232700
_cell_length_b   10.50817470
_cell_length_c   11.02337041
_cell_angle_alpha   89.88912124
_cell_angle_beta   90.00000000
_cell_angle_gamma   90.00000000
_symmetry_Int_Tables_number   1
_chemical_formula_structural   Li3Ca4Y4Si12Ag
_chemical_formula_sum   'Li3 Ca4 Y4 Si12 Ag1'
_cell_volume   497.20292159
_cell_formula_units_Z   1
loop_
 _symmetry_equiv_pos_site_id
 _symmetry_equiv_pos_as_xyz
  1  'x, y, z'
loop_
 _atom_site_type_symbol
 _atom_site_label
 _atom_site_symmetry_multiplicity
 _atom_site_fract_x
 _atom_site_fract_y
 _atom_site_fract_z
 _atom_site_occupancy
  Li  Li0  1  0.500000  0.139292  0.716993  1
  Li  Li1  1  0.000000  0.360583  0.217306  1
  Li  Li2  1  0.000000  0.639815  0.783836  1
  Ca  Ca3  1  0.500000  0.823001  0.575573  1
  Ca  Ca4  1  0.500000  0.177694  0.424279  1
  Ca  Ca5  1  0.000000  0.322775  0.924853  1
  Ca  Ca6  1  0.000000  0.677825  0.077290  1
  Y  Y7  1  0.500000  0.551976  0.348857  1
  Y  Y8  1  0.500000  0.447345  0.648489  1
  Y  Y9  1  0.000000  0.053398  0.150841  1
  Y  Y10  1  0.000000  0.946674  0.852850  1
  Si  Si11  1  0.500000  0.894503  0.044004  1
  Si  Si12  1  0.500000  0.106358  0.957774  1
  Si  Si13  1  0.000000  0.394437  0.456359  1
  Si  Si14  1  0.000000  0.607536  0.542581  1
  Si  Si15  1  0.000000  0.969696  0.398742  1
  Si  Si16  1  0.000000  0.031871  0.601339  1
  Si  Si17  1  0.500000  0.467052  0.100462  1
  Si  Si18  1  0.500000  0.532121  0.898681  1
  Si  Si19  1  0.000000  0.257810  0.635978  1
  Si  Si20  1  0.000000  0.741096  0.362820  1
  Si  Si21  1  0.500000  0.757600  0.866679  1
  Si  Si22  1  0.500000  0.243072  0.135902  1
  Ag  Ag23  1  0.500000  0.856467  0.277510  1
