# generated using pymatgen
data_YHoB4IrOs3
_symmetry_space_group_name_H-M   'P 1'
_cell_length_a   6.70450312
_cell_length_b   5.96333546
_cell_length_c   5.57149305
_cell_angle_alpha   70.98290760
_cell_angle_beta   57.23603983
_cell_angle_gamma   51.93807770
_symmetry_Int_Tables_number   1
_chemical_formula_structural   YHoB4IrOs3
_chemical_formula_sum   'Y1 Ho1 B4 Ir1 Os3'
_cell_volume   147.47229130
_cell_formula_units_Z   1
loop_
 _symmetry_equiv_pos_site_id
 _symmetry_equiv_pos_as_xyz
  1  'x, y, z'
loop_
 _atom_site_type_symbol
 _atom_site_label
 _atom_site_symmetry_multiplicity
 _atom_site_fract_x
 _atom_site_fract_y
 _atom_site_fract_z
 _atom_site_occupancy
  Y  Y0  1  0.499174  0.499174  0.500826  1
  Ho  Ho1  1  0.746805  0.746805  0.753195  1
  B  B2  1  0.064604  0.441701  0.051979  1
  B  B3  1  0.814093  0.183616  0.814902  1
  B  B4  1  0.441701  0.064604  0.441716  1
  B  B5  1  0.183616  0.814093  0.187390  1
  Ir  Ir6  1  0.113101  0.113101  0.386899  1
  Os  Os7  1  0.387223  0.387223  0.112777  1
  Os  Os8  1  0.137676  0.137676  0.862324  1
  Os  Os9  1  0.862006  0.862006  0.137994  1
