# generated using pymatgen
data_Cs5Sb2Au
_symmetry_space_group_name_H-M   'P 1'
_cell_length_a   10.91035097
_cell_length_b   10.91035187
_cell_length_c   10.91035142
_cell_angle_alpha   34.83570408
_cell_angle_beta   34.83569591
_cell_angle_gamma   34.83569803
_symmetry_Int_Tables_number   1
_chemical_formula_structural   Cs5Sb2Au
_chemical_formula_sum   'Cs5 Sb2 Au1'
_cell_volume   378.27055611
_cell_formula_units_Z   1
loop_
 _symmetry_equiv_pos_site_id
 _symmetry_equiv_pos_as_xyz
  1  'x, y, z'
loop_
 _atom_site_type_symbol
 _atom_site_label
 _atom_site_symmetry_multiplicity
 _atom_site_fract_x
 _atom_site_fract_y
 _atom_site_fract_z
 _atom_site_occupancy
  Cs  Cs0  1  0.216851  0.216851  0.216851  1
  Cs  Cs1  1  0.363091  0.363091  0.363091  1
  Cs  Cs2  1  0.500000  0.500000  0.500000  1
  Cs  Cs3  1  0.636909  0.636909  0.636909  1
  Cs  Cs4  1  0.783148  0.783148  0.783148  1
  Sb  Sb5  1  0.088064  0.088064  0.088064  1
  Sb  Sb6  1  0.911936  0.911936  0.911936  1
  Au  Au7  1  0.000000  0.000000  0.000000  1
