# generated using pymatgen
data_LaPr7Zn7InRh8
_symmetry_space_group_name_H-M   'P 1'
_cell_length_a   4.05648600
_cell_length_b   7.45822593
_cell_length_c   16.71758276
_cell_angle_alpha   90.19560776
_cell_angle_beta   90.00000000
_cell_angle_gamma   90.00000000
_symmetry_Int_Tables_number   1
_chemical_formula_structural   LaPr7Zn7InRh8
_chemical_formula_sum   'La1 Pr7 Zn7 In1 Rh8'
_cell_volume   505.77396178
_cell_formula_units_Z   1
loop_
 _symmetry_equiv_pos_site_id
 _symmetry_equiv_pos_as_xyz
  1  'x, y, z'
loop_
 _atom_site_type_symbol
 _atom_site_label
 _atom_site_symmetry_multiplicity
 _atom_site_fract_x
 _atom_site_fract_y
 _atom_site_fract_z
 _atom_site_occupancy
  La  La0  1  0.750000  0.945059  0.289200  1
  Pr  Pr1  1  0.750000  0.330170  0.442162  1
  Pr  Pr2  1  0.250000  0.047533  0.716740  1
  Pr  Pr3  1  0.250000  0.547391  0.781393  1
  Pr  Pr4  1  0.250000  0.670581  0.560979  1
  Pr  Pr5  1  0.750000  0.821434  0.056803  1
  Pr  Pr6  1  0.250000  0.170687  0.937294  1
  Pr  Pr7  1  0.750000  0.458336  0.218981  1
  Zn  Zn8  1  0.250000  0.000528  0.443617  1
  Zn  Zn9  1  0.750000  0.874116  0.849032  1
  Zn  Zn10  1  0.750000  0.001176  0.560569  1
  Zn  Zn11  1  0.250000  0.501357  0.058521  1
  Zn  Zn12  1  0.750000  0.373156  0.650077  1
  Zn  Zn13  1  0.750000  0.501892  0.936180  1
  Zn  Zn14  1  0.250000  0.620814  0.353041  1
  In  In15  1  0.250000  0.122131  0.150149  1
  Rh  Rh16  1  0.750000  0.254842  0.812628  1
  Rh  Rh17  1  0.250000  0.243278  0.315500  1
  Rh  Rh18  1  0.250000  0.741735  0.932026  1
  Rh  Rh19  1  0.250000  0.243872  0.566336  1
  Rh  Rh20  1  0.250000  0.744572  0.186368  1
  Rh  Rh21  1  0.750000  0.758317  0.435433  1
  Rh  Rh22  1  0.750000  0.270863  0.061294  1
  Rh  Rh23  1  0.750000  0.756161  0.685675  1
