# generated using pymatgen
data_TmLuSc2(B6Ir)2
_symmetry_space_group_name_H-M   'P 1'
_cell_length_a   3.52451100
_cell_length_b   8.97706104
_cell_length_c   11.32428105
_cell_angle_alpha   90.01053253
_cell_angle_beta   90.00000000
_cell_angle_gamma   90.00000000
_symmetry_Int_Tables_number   1
_chemical_formula_structural   TmLuSc2(B6Ir)2
_chemical_formula_sum   'Tm2 Lu2 Sc4 B24 Ir4'
_cell_volume   358.29741949
_cell_formula_units_Z   2
loop_
 _symmetry_equiv_pos_site_id
 _symmetry_equiv_pos_as_xyz
  1  'x, y, z'
loop_
 _atom_site_type_symbol
 _atom_site_label
 _atom_site_symmetry_multiplicity
 _atom_site_fract_x
 _atom_site_fract_y
 _atom_site_fract_z
 _atom_site_occupancy
  Tm  Tm0  1  0.500000  0.319626  0.413922  1
  Tm  Tm1  1  0.500000  0.680374  0.586078  1
  Lu  Lu2  1  0.500000  0.180569  0.913937  1
  Lu  Lu3  1  0.500000  0.819431  0.086063  1
  Sc  Sc4  1  0.500000  0.445043  0.124115  1
  Sc  Sc5  1  0.500000  0.554957  0.875885  1
  Sc  Sc6  1  0.500000  0.054988  0.624205  1
  Sc  Sc7  1  0.500000  0.945012  0.375795  1
  B  B8  1  0.000000  0.101129  0.472492  1
  B  B9  1  0.000000  0.898871  0.527508  1
  B  B10  1  0.000000  0.398446  0.972365  1
  B  B11  1  0.000000  0.601554  0.027635  1
  B  B12  1  0.000000  0.130268  0.318392  1
  B  B13  1  0.000000  0.869732  0.681608  1
  B  B14  1  0.000000  0.369433  0.818613  1
  B  B15  1  0.000000  0.630567  0.181387  1
  B  B16  1  0.000000  0.054413  0.064602  1
  B  B17  1  0.000000  0.945587  0.935398  1
  B  B18  1  0.000000  0.445489  0.564905  1
  B  B19  1  0.000000  0.554511  0.435095  1
  B  B20  1  0.000000  0.481237  0.285627  1
  B  B21  1  0.000000  0.518763  0.714373  1
  B  B22  1  0.000000  0.019038  0.785847  1
  B  B23  1  0.000000  0.980962  0.214153  1
  B  B24  1  0.000000  0.253325  0.079020  1
  B  B25  1  0.000000  0.746675  0.920980  1
  B  B26  1  0.000000  0.246526  0.579365  1
  B  B27  1  0.000000  0.753474  0.420635  1
  B  B28  1  0.000000  0.295838  0.235798  1
  B  B29  1  0.000000  0.704162  0.764202  1
  B  B30  1  0.000000  0.204038  0.736166  1
  B  B31  1  0.000000  0.795962  0.263834  1
  Ir  Ir32  1  0.500000  0.140741  0.180590  1
  Ir  Ir33  1  0.500000  0.859259  0.819410  1
  Ir  Ir34  1  0.500000  0.358744  0.681139  1
  Ir  Ir35  1  0.500000  0.641256  0.318861  1
