# generated using pymatgen
data_Tb5Dy15Co3Bi8Os
_symmetry_space_group_name_H-M   'P 1'
_cell_length_a   8.02514152
_cell_length_b   8.94921700
_cell_length_c   12.46751329
_cell_angle_alpha   90.00000000
_cell_angle_beta   90.29774940
_cell_angle_gamma   90.00000000
_symmetry_Int_Tables_number   1
_chemical_formula_structural   Tb5Dy15Co3Bi8Os
_chemical_formula_sum   'Tb5 Dy15 Co3 Bi8 Os1'
_cell_volume   895.38891636
_cell_formula_units_Z   1
loop_
 _symmetry_equiv_pos_site_id
 _symmetry_equiv_pos_as_xyz
  1  'x, y, z'
loop_
 _atom_site_type_symbol
 _atom_site_label
 _atom_site_symmetry_multiplicity
 _atom_site_fract_x
 _atom_site_fract_y
 _atom_site_fract_z
 _atom_site_occupancy
  Tb  Tb0  1  0.846001  0.750000  0.799975  1
  Tb  Tb1  1  0.153124  0.250000  0.198541  1
  Tb  Tb2  1  0.347378  0.250000  0.699316  1
  Tb  Tb3  1  0.619972  0.250000  0.310070  1
  Tb  Tb4  1  0.879787  0.250000  0.811093  1
  Dy  Dy5  1  0.654957  0.750000  0.294729  1
  Dy  Dy6  1  0.377487  0.750000  0.694207  1
  Dy  Dy7  1  0.119129  0.750000  0.187127  1
  Dy  Dy8  1  0.945045  0.750000  0.503710  1
  Dy  Dy9  1  0.050822  0.250000  0.496438  1
  Dy  Dy10  1  0.451781  0.250000  0.997363  1
  Dy  Dy11  1  0.547642  0.750000  0.002469  1
  Dy  Dy12  1  0.676829  0.040924  0.565047  1
  Dy  Dy13  1  0.324305  0.963709  0.436474  1
  Dy  Dy14  1  0.175512  0.965330  0.937072  1
  Dy  Dy15  1  0.324305  0.536291  0.436474  1
  Dy  Dy16  1  0.823959  0.035296  0.063101  1
  Dy  Dy17  1  0.676829  0.459076  0.565047  1
  Dy  Dy18  1  0.823959  0.464704  0.063101  1
  Dy  Dy19  1  0.175512  0.534670  0.937072  1
  Co  Co20  1  0.433018  0.250000  0.490665  1
  Co  Co21  1  0.060637  0.250000  0.992019  1
  Co  Co22  1  0.938124  0.750000  0.007491  1
  Bi  Bi23  1  0.570437  0.491989  0.827676  1
  Bi  Bi24  1  0.428890  0.507724  0.173017  1
  Bi  Bi25  1  0.070870  0.507520  0.673841  1
  Bi  Bi26  1  0.428890  0.992276  0.173017  1
  Bi  Bi27  1  0.931323  0.492803  0.325979  1
  Bi  Bi28  1  0.570437  0.008011  0.827676  1
  Bi  Bi29  1  0.931323  0.007197  0.325979  1
  Bi  Bi30  1  0.070870  0.992480  0.673841  1
  Os  Os31  1  0.570846  0.750000  0.510375  1
