# generated using pymatgen
data_EuAg(SeO3)2
_symmetry_space_group_name_H-M   'P 1'
_cell_length_a   4.73620839
_cell_length_b   4.73651970
_cell_length_c   15.33103018
_cell_angle_alpha   92.83289046
_cell_angle_beta   92.83783390
_cell_angle_gamma   69.31292168
_symmetry_Int_Tables_number   1
_chemical_formula_structural   EuAg(SeO3)2
_chemical_formula_sum   'Eu2 Ag2 Se4 O12'
_cell_volume   321.16602775
_cell_formula_units_Z   2
loop_
 _symmetry_equiv_pos_site_id
 _symmetry_equiv_pos_as_xyz
  1  'x, y, z'
loop_
 _atom_site_type_symbol
 _atom_site_label
 _atom_site_symmetry_multiplicity
 _atom_site_fract_x
 _atom_site_fract_y
 _atom_site_fract_z
 _atom_site_occupancy
  Eu  Eu0  1  0.931918  0.067514  0.250008  1
  Eu  Eu1  1  0.068081  0.932485  0.749992  1
  Ag  Ag2  1  0.000000  0.000000  0.000000  1
  Ag  Ag3  1  0.000000  0.000000  0.500001  1
  Se  Se4  1  0.350485  0.352323  0.106768  1
  Se  Se5  1  0.647613  0.649261  0.393376  1
  Se  Se6  1  0.352389  0.350741  0.606623  1
  Se  Se7  1  0.649516  0.647678  0.893232  1
  O  O8  1  0.723333  0.334496  0.104652  1
  O  O9  1  0.149734  0.732661  0.124403  1
  O  O10  1  0.367506  0.209019  0.208561  1
  O  O11  1  0.790599  0.632053  0.291534  1
  O  O12  1  0.267209  0.849984  0.375766  1
  O  O13  1  0.665228  0.276502  0.395600  1
  O  O14  1  0.334771  0.723497  0.604399  1
  O  O15  1  0.732791  0.150017  0.624234  1
  O  O16  1  0.209402  0.367948  0.708466  1
  O  O17  1  0.632495  0.790982  0.791439  1
  O  O18  1  0.850268  0.267340  0.875597  1
  O  O19  1  0.276668  0.665504  0.895348  1
