# generated using pymatgen
data_Er8Sc12Si15Pb
_symmetry_space_group_name_H-M   'P 1'
_cell_length_a   7.10397058
_cell_length_b   7.38963460
_cell_length_c   14.03901997
_cell_angle_alpha   90.00391329
_cell_angle_beta   89.27429800
_cell_angle_gamma   90.03666949
_symmetry_Int_Tables_number   1
_chemical_formula_structural   Er8Sc12Si15Pb
_chemical_formula_sum   'Er8 Sc12 Si15 Pb1'
_cell_volume   736.92957051
_cell_formula_units_Z   1
loop_
 _symmetry_equiv_pos_site_id
 _symmetry_equiv_pos_as_xyz
  1  'x, y, z'
loop_
 _atom_site_type_symbol
 _atom_site_label
 _atom_site_symmetry_multiplicity
 _atom_site_fract_x
 _atom_site_fract_y
 _atom_site_fract_z
 _atom_site_occupancy
  Er  Er0  1  0.010987  0.176220  0.096479  1
  Er  Er1  1  0.988451  0.824541  0.904574  1
  Er  Er2  1  0.489426  0.676841  0.904472  1
  Er  Er3  1  0.991748  0.831563  0.598820  1
  Er  Er4  1  0.510584  0.323086  0.096890  1
  Er  Er5  1  0.001832  0.169432  0.398300  1
  Er  Er6  1  0.513145  0.317594  0.397749  1
  Er  Er7  1  0.505898  0.687851  0.600809  1
  Sc  Sc8  1  0.164404  0.502866  0.756358  1
  Sc  Sc9  1  0.834581  0.497295  0.249328  1
  Sc  Sc10  1  0.334392  0.002922  0.249754  1
  Sc  Sc11  1  0.667427  0.997036  0.751361  1
  Sc  Sc12  1  0.347875  0.158299  0.631803  1
  Sc  Sc13  1  0.660284  0.826303  0.372146  1
  Sc  Sc14  1  0.159626  0.683166  0.368396  1
  Sc  Sc15  1  0.666479  0.822910  0.123810  1
  Sc  Sc16  1  0.824114  0.324775  0.626969  1
  Sc  Sc17  1  0.331067  0.175663  0.876098  1
  Sc  Sc18  1  0.832157  0.323125  0.875623  1
  Sc  Sc19  1  0.167622  0.676949  0.125043  1
  Si  Si20  1  0.037201  0.118305  0.751536  1
  Si  Si21  1  0.961104  0.885967  0.246115  1
  Si  Si22  1  0.463688  0.613834  0.247913  1
  Si  Si23  1  0.533506  0.387246  0.752729  1
  Si  Si24  1  0.288412  0.868614  0.753252  1
  Si  Si25  1  0.710789  0.127463  0.246539  1
  Si  Si26  1  0.210123  0.371232  0.248767  1
  Si  Si27  1  0.791822  0.629484  0.752092  1
  Si  Si28  1  0.823854  0.540284  0.458303  1
  Si  Si29  1  0.333466  0.963653  0.459827  1
  Si  Si30  1  0.842111  0.534389  0.039382  1
  Si  Si31  1  0.667610  0.037973  0.537925  1
  Si  Si32  1  0.156488  0.465159  0.961790  1
  Si  Si33  1  0.657429  0.035320  0.960850  1
  Si  Si34  1  0.340760  0.965391  0.039841  1
  Pb  Pb35  1  0.179535  0.457252  0.538358  1
