# generated using pymatgen
data_PrNp7Se12
_symmetry_space_group_name_H-M   'P 1'
_cell_length_a   7.76986079
_cell_length_b   4.12362800
_cell_length_c   15.87945850
_cell_angle_alpha   90.00000000
_cell_angle_beta   89.59943677
_cell_angle_gamma   90.00000000
_symmetry_Int_Tables_number   1
_chemical_formula_structural   PrNp7Se12
_chemical_formula_sum   'Pr1 Np7 Se12'
_cell_volume   508.76566347
_cell_formula_units_Z   1
loop_
 _symmetry_equiv_pos_site_id
 _symmetry_equiv_pos_as_xyz
  1  'x, y, z'
loop_
 _atom_site_type_symbol
 _atom_site_label
 _atom_site_symmetry_multiplicity
 _atom_site_fract_x
 _atom_site_fract_y
 _atom_site_fract_z
 _atom_site_occupancy
  Pr  Pr0  1  0.262393  0.000000  0.957490  1
  Np  Np1  1  0.736978  0.499999  0.043252  1
  Np  Np2  1  0.133796  0.000000  0.212272  1
  Np  Np3  1  0.634155  0.000000  0.292488  1
  Np  Np4  1  0.238622  0.499999  0.458485  1
  Np  Np5  1  0.762083  0.000000  0.540914  1
  Np  Np6  1  0.365278  0.499999  0.706545  1
  Np  Np7  1  0.863484  0.499999  0.789438  1
  Se  Se8  1  0.121390  0.499999  0.072713  1
  Se  Se9  1  0.510185  0.000000  0.111917  1
  Se  Se10  1  0.850665  0.499999  0.221751  1
  Se  Se11  1  0.352918  0.499999  0.281588  1
  Se  Se12  1  0.007318  0.000000  0.393010  1
  Se  Se13  1  0.628332  0.499999  0.430527  1
  Se  Se14  1  0.373773  0.000000  0.568729  1
  Se  Se15  1  0.992505  0.499999  0.606116  1
  Se  Se16  1  0.647380  0.000000  0.718133  1
  Se  Se17  1  0.145505  0.000000  0.775500  1
  Se  Se18  1  0.502962  0.499999  0.888611  1
  Se  Se19  1  0.870270  0.000000  0.930522  1
