# generated using pymatgen
data_HfZrSc2(Co5P3)4
_symmetry_space_group_name_H-M   'P 1'
_cell_length_a   3.58517900
_cell_length_b   10.13542614
_cell_length_c   11.59949930
_cell_angle_alpha   89.94573422
_cell_angle_beta   90.00000000
_cell_angle_gamma   90.00000000
_symmetry_Int_Tables_number   1
_chemical_formula_structural   HfZrSc2(Co5P3)4
_chemical_formula_sum   'Hf1 Zr1 Sc2 Co20 P12'
_cell_volume   421.49449339
_cell_formula_units_Z   1
loop_
 _symmetry_equiv_pos_site_id
 _symmetry_equiv_pos_as_xyz
  1  'x, y, z'
loop_
 _atom_site_type_symbol
 _atom_site_label
 _atom_site_symmetry_multiplicity
 _atom_site_fract_x
 _atom_site_fract_y
 _atom_site_fract_z
 _atom_site_occupancy
  Hf  Hf0  1  0.250000  0.581209  0.702299  1
  Zr  Zr1  1  0.250000  0.918433  0.202593  1
  Sc  Sc2  1  0.750000  0.418200  0.297528  1
  Sc  Sc3  1  0.750000  0.081891  0.797395  1
  Co  Co4  1  0.250000  0.719514  0.992478  1
  Co  Co5  1  0.250000  0.780125  0.492579  1
  Co  Co6  1  0.750000  0.281178  0.006590  1
  Co  Co7  1  0.750000  0.219218  0.507010  1
  Co  Co8  1  0.250000  0.409596  0.486694  1
  Co  Co9  1  0.250000  0.090748  0.986554  1
  Co  Co10  1  0.750000  0.592145  0.515701  1
  Co  Co11  1  0.750000  0.908027  0.013532  1
  Co  Co12  1  0.250000  0.222251  0.177659  1
  Co  Co13  1  0.250000  0.278099  0.677965  1
  Co  Co14  1  0.750000  0.775811  0.821725  1
  Co  Co15  1  0.750000  0.722979  0.322569  1
  Co  Co16  1  0.250000  0.882516  0.700312  1
  Co  Co17  1  0.250000  0.616742  0.200024  1
  Co  Co18  1  0.750000  0.116026  0.299653  1
  Co  Co19  1  0.750000  0.385484  0.799008  1
  Co  Co20  1  0.250000  0.466772  0.929913  1
  Co  Co21  1  0.250000  0.033616  0.430905  1
  Co  Co22  1  0.750000  0.532396  0.069262  1
  Co  Co23  1  0.750000  0.967053  0.570018  1
  P  P24  1  0.250000  0.418779  0.114822  1
  P  P25  1  0.250000  0.081348  0.615222  1
  P  P26  1  0.750000  0.580764  0.885774  1
  P  P27  1  0.750000  0.918993  0.386695  1
  P  P28  1  0.250000  0.265298  0.869449  1
  P  P29  1  0.250000  0.234853  0.369274  1
  P  P30  1  0.750000  0.732649  0.130079  1
  P  P31  1  0.750000  0.766504  0.630555  1
  P  P32  1  0.250000  0.598514  0.388900  1
  P  P33  1  0.250000  0.901616  0.889035  1
  P  P34  1  0.750000  0.400852  0.610266  1
  P  P35  1  0.750000  0.099798  0.109966  1
