# generated using pymatgen
data_Nb3Ga2PtC
_symmetry_space_group_name_H-M   'P 1'
_cell_length_a   8.39263788
_cell_length_b   8.39263834
_cell_length_c   8.39263700
_cell_angle_alpha   59.99999345
_cell_angle_beta   59.99999165
_cell_angle_gamma   59.99999396
_symmetry_Int_Tables_number   1
_chemical_formula_structural   Nb3Ga2PtC
_chemical_formula_sum   'Nb12 Ga8 Pt4 C4'
_cell_volume   418.00393135
_cell_formula_units_Z   4
loop_
 _symmetry_equiv_pos_site_id
 _symmetry_equiv_pos_as_xyz
  1  'x, y, z'
loop_
 _atom_site_type_symbol
 _atom_site_label
 _atom_site_symmetry_multiplicity
 _atom_site_fract_x
 _atom_site_fract_y
 _atom_site_fract_z
 _atom_site_occupancy
  Nb  Nb0  1  0.816313  0.183687  0.816313  1
  Nb  Nb1  1  0.066313  0.433687  0.433687  1
  Nb  Nb2  1  0.433687  0.066313  0.066313  1
  Nb  Nb3  1  0.066313  0.433687  0.066313  1
  Nb  Nb4  1  0.433687  0.433687  0.066313  1
  Nb  Nb5  1  0.066313  0.066313  0.433687  1
  Nb  Nb6  1  0.816313  0.816313  0.183687  1
  Nb  Nb7  1  0.183687  0.816313  0.816313  1
  Nb  Nb8  1  0.816313  0.183687  0.183687  1
  Nb  Nb9  1  0.183687  0.183687  0.816313  1
  Nb  Nb10  1  0.433687  0.066313  0.433687  1
  Nb  Nb11  1  0.183687  0.816313  0.183687  1
  Ga  Ga12  1  0.413125  0.413125  0.413125  1
  Ga  Ga13  1  0.489376  0.836875  0.836875  1
  Ga  Ga14  1  0.836875  0.489376  0.836875  1
  Ga  Ga15  1  0.836875  0.836875  0.489376  1
  Ga  Ga16  1  0.413125  0.760624  0.413125  1
  Ga  Ga17  1  0.413125  0.413125  0.760624  1
  Ga  Ga18  1  0.760624  0.413125  0.413125  1
  Ga  Ga19  1  0.836875  0.836875  0.836875  1
  Pt  Pt20  1  0.625000  0.625000  0.625000  1
  Pt  Pt21  1  0.125000  0.625000  0.625000  1
  Pt  Pt22  1  0.625000  0.125000  0.625000  1
  Pt  Pt23  1  0.625000  0.625000  0.125000  1
  C  C24  1  0.125000  0.125000  0.125000  1
  C  C25  1  0.625000  0.125000  0.125000  1
  C  C26  1  0.125000  0.625000  0.125000  1
  C  C27  1  0.125000  0.125000  0.625000  1
