# generated using pymatgen
data_CaYbHoUN4
_symmetry_space_group_name_H-M   'P 1'
_cell_length_a   6.89442241
_cell_length_b   9.16937330
_cell_length_c   6.04519285
_cell_angle_alpha   29.11300926
_cell_angle_beta   55.23303874
_cell_angle_gamma   41.24505848
_symmetry_Int_Tables_number   1
_chemical_formula_structural   CaYbHoUN4
_chemical_formula_sum   'Ca1 Yb1 Ho1 U1 N4'
_cell_volume   118.02440356
_cell_formula_units_Z   1
loop_
 _symmetry_equiv_pos_site_id
 _symmetry_equiv_pos_as_xyz
  1  'x, y, z'
loop_
 _atom_site_type_symbol
 _atom_site_label
 _atom_site_symmetry_multiplicity
 _atom_site_fract_x
 _atom_site_fract_y
 _atom_site_fract_z
 _atom_site_occupancy
  Ca  Ca0  1  0.500000  0.000000  0.000000  1
  Yb  Yb1  1  0.750000  0.500000  0.000000  1
  Ho  Ho2  1  0.250000  0.500000  0.000000  1
  U  U3  1  0.000000  0.000000  0.000000  1
  N  N4  1  0.491320  0.500000  0.517360  1
  N  N5  1  0.214126  0.000000  0.571747  1
  N  N6  1  0.008680  0.500000  0.482640  1
  N  N7  1  0.785874  0.000000  0.428253  1
