# generated using pymatgen
data_Ce2Sm5U(Nb3Si4)4
_symmetry_space_group_name_H-M   'P 1'
_cell_length_a   7.11831415
_cell_length_b   7.12064126
_cell_length_c   13.21777556
_cell_angle_alpha   89.94236448
_cell_angle_beta   89.98929859
_cell_angle_gamma   90.08396039
_symmetry_Int_Tables_number   1
_chemical_formula_structural   Ce2Sm5U(Nb3Si4)4
_chemical_formula_sum   'Ce2 Sm5 U1 Nb12 Si16'
_cell_volume   669.96780978
_cell_formula_units_Z   1
loop_
 _symmetry_equiv_pos_site_id
 _symmetry_equiv_pos_as_xyz
  1  'x, y, z'
loop_
 _atom_site_type_symbol
 _atom_site_label
 _atom_site_symmetry_multiplicity
 _atom_site_fract_x
 _atom_site_fract_y
 _atom_site_fract_z
 _atom_site_occupancy
  Ce  Ce0  1  0.992419  0.334546  0.218173  1
  Ce  Ce1  1  0.003814  0.661104  0.715874  1
  Sm  Sm2  1  0.160343  0.498862  0.466110  1
  Sm  Sm3  1  0.501852  0.839665  0.033309  1
  Sm  Sm4  1  0.840332  0.502212  0.967422  1
  Sm  Sm5  1  0.496994  0.159831  0.532696  1
  Sm  Sm6  1  0.337873  0.995304  0.782887  1
  U  U7  1  0.663049  0.003336  0.283102  1
  Nb  Nb8  1  0.169905  0.170736  0.001584  1
  Nb  Nb9  1  0.827874  0.831563  0.497940  1
  Nb  Nb10  1  0.332709  0.673252  0.250511  1
  Nb  Nb11  1  0.672095  0.330850  0.749369  1
  Nb  Nb12  1  0.153864  0.993238  0.373462  1
  Nb  Nb13  1  0.844923  0.006905  0.874823  1
  Nb  Nb14  1  0.507008  0.654994  0.624320  1
  Nb  Nb15  1  0.343404  0.492394  0.875192  1
  Nb  Nb16  1  0.497525  0.341410  0.127729  1
  Nb  Nb17  1  0.656030  0.503691  0.373508  1
  Nb  Nb18  1  0.990589  0.156353  0.625345  1
  Nb  Nb19  1  0.006090  0.849795  0.127391  1
  Si  Si20  1  0.296800  0.043342  0.186687  1
  Si  Si21  1  0.707745  0.955036  0.686753  1
  Si  Si22  1  0.459245  0.794444  0.434278  1
  Si  Si23  1  0.209148  0.543260  0.065076  1
  Si  Si24  1  0.543648  0.208860  0.936407  1
  Si  Si25  1  0.791582  0.456998  0.562181  1
  Si  Si26  1  0.043781  0.292140  0.813969  1
  Si  Si27  1  0.953513  0.709402  0.313345  1
  Si  Si28  1  0.372197  0.292083  0.315414  1
  Si  Si29  1  0.631022  0.701351  0.814594  1
  Si  Si30  1  0.202370  0.870552  0.563754  1
  Si  Si31  1  0.128999  0.796955  0.935951  1
  Si  Si32  1  0.794069  0.129085  0.066036  1
  Si  Si33  1  0.867368  0.202501  0.433741  1
  Si  Si34  1  0.296453  0.369623  0.685099  1
  Si  Si35  1  0.703368  0.634325  0.185965  1
