# generated using pymatgen
data_TbYbDy2(Pt2O7)2
_symmetry_space_group_name_H-M   'P 1'
_cell_length_a   7.27479091
_cell_length_b   7.26817275
_cell_length_c   7.27906955
_cell_angle_alpha   59.98354103
_cell_angle_beta   60.01944685
_cell_angle_gamma   59.96988268
_symmetry_Int_Tables_number   1
_chemical_formula_structural   TbYbDy2(Pt2O7)2
_chemical_formula_sum   'Tb1 Yb1 Dy2 Pt4 O14'
_cell_volume   272.09301708
_cell_formula_units_Z   1
loop_
 _symmetry_equiv_pos_site_id
 _symmetry_equiv_pos_as_xyz
  1  'x, y, z'
loop_
 _atom_site_type_symbol
 _atom_site_label
 _atom_site_symmetry_multiplicity
 _atom_site_fract_x
 _atom_site_fract_y
 _atom_site_fract_z
 _atom_site_occupancy
  Tb  Tb0  1  0.125000  0.125000  0.625000  1
  Yb  Yb1  1  0.125000  0.625000  0.125000  1
  Dy  Dy2  1  0.625000  0.125000  0.125000  1
  Dy  Dy3  1  0.125000  0.125000  0.125000  1
  Pt  Pt4  1  0.625000  0.625000  0.625000  1
  Pt  Pt5  1  0.125000  0.625000  0.625000  1
  Pt  Pt6  1  0.625000  0.125000  0.625000  1
  Pt  Pt7  1  0.625000  0.625000  0.125000  1
  O  O8  1  0.288595  0.715629  0.707180  1
  O  O9  1  0.535463  0.965008  0.964066  1
  O  O10  1  0.714060  0.285246  0.714584  1
  O  O11  1  0.286109  0.285246  0.714584  1
  O  O12  1  0.707121  0.716091  0.288444  1
  O  O13  1  0.997587  0.005850  0.998977  1
  O  O14  1  0.288344  0.716091  0.288444  1
  O  O15  1  0.961656  0.533909  0.961556  1
  O  O16  1  0.963891  0.964754  0.535416  1
  O  O17  1  0.542879  0.533909  0.961556  1
  O  O18  1  0.252413  0.244150  0.251023  1
  O  O19  1  0.535940  0.964754  0.535416  1
  O  O20  1  0.714537  0.284992  0.285934  1
  O  O21  1  0.961405  0.534371  0.542820  1
