# generated using pymatgen
data_Gd3Y2W2C7
_symmetry_space_group_name_H-M   'P 1'
_cell_length_a   8.50926273
_cell_length_b   8.48905350
_cell_length_c   3.44778300
_cell_angle_alpha   90.00000000
_cell_angle_beta   90.00000000
_cell_angle_gamma   123.26023678
_symmetry_Int_Tables_number   1
_chemical_formula_structural   Gd3Y2W2C7
_chemical_formula_sum   'Gd3 Y2 W2 C7'
_cell_volume   208.25486348
_cell_formula_units_Z   1
loop_
 _symmetry_equiv_pos_site_id
 _symmetry_equiv_pos_as_xyz
  1  'x, y, z'
loop_
 _atom_site_type_symbol
 _atom_site_label
 _atom_site_symmetry_multiplicity
 _atom_site_fract_x
 _atom_site_fract_y
 _atom_site_fract_z
 _atom_site_occupancy
  Gd  Gd0  1  0.071170  0.327723  0.500000  1
  Gd  Gd1  1  0.928157  0.671678  0.500000  1
  Gd  Gd2  1  0.670059  0.929109  0.500000  1
  Y  Y3  1  0.498950  0.499487  0.000000  1
  Y  Y4  1  0.332294  0.073148  0.500000  1
  W  W5  1  0.711307  0.288469  0.000000  1
  W  W6  1  0.287121  0.711729  0.000000  1
  C  C7  1  0.626502  0.375261  0.500000  1
  C  C8  1  0.373111  0.625992  0.500000  1
  C  C9  1  0.001212  0.999035  0.000000  1
  C  C10  1  0.170279  0.165602  0.000000  1
  C  C11  1  0.832011  0.833086  0.000000  1
  C  C12  1  0.999357  0.499597  0.000000  1
  C  C13  1  0.498470  0.000084  0.000000  1
