# generated using pymatgen
data_Rb(VTe)3
_symmetry_space_group_name_H-M   'P 1'
_cell_length_a   10.01526800
_cell_length_b   10.01526719
_cell_length_c   4.55276900
_cell_angle_alpha   90.00000000
_cell_angle_beta   90.00000000
_cell_angle_gamma   119.99999784
_symmetry_Int_Tables_number   1
_chemical_formula_structural   Rb(VTe)3
_chemical_formula_sum   'Rb2 V6 Te6'
_cell_volume   395.48623441
_cell_formula_units_Z   2
loop_
 _symmetry_equiv_pos_site_id
 _symmetry_equiv_pos_as_xyz
  1  'x, y, z'
loop_
 _atom_site_type_symbol
 _atom_site_label
 _atom_site_symmetry_multiplicity
 _atom_site_fract_x
 _atom_site_fract_y
 _atom_site_fract_z
 _atom_site_occupancy
  Rb  Rb0  1  0.333333  0.666667  0.250000  1
  Rb  Rb1  1  0.666667  0.333333  0.750000  1
  V  V2  1  0.841279  0.976123  0.250000  1
  V  V3  1  0.134845  0.158721  0.250000  1
  V  V4  1  0.023877  0.865155  0.250000  1
  V  V5  1  0.158721  0.023877  0.750000  1
  V  V6  1  0.976123  0.134845  0.750000  1
  V  V7  1  0.865155  0.841279  0.750000  1
  Te  Te8  1  0.339428  0.049808  0.250000  1
  Te  Te9  1  0.950192  0.289621  0.250000  1
  Te  Te10  1  0.710379  0.660572  0.250000  1
  Te  Te11  1  0.660572  0.950192  0.750000  1
  Te  Te12  1  0.289621  0.339428  0.750000  1
  Te  Te13  1  0.049808  0.710379  0.750000  1
