# generated using pymatgen
data_Nd3Y3Ni18P13Pt2
_symmetry_space_group_name_H-M   'P 1'
_cell_length_a   12.84634439
_cell_length_b   12.86293891
_cell_length_c   3.81978100
_cell_angle_alpha   90.00000000
_cell_angle_beta   90.00000000
_cell_angle_gamma   119.76376354
_symmetry_Int_Tables_number   1
_chemical_formula_structural   Nd3Y3Ni18P13Pt2
_chemical_formula_sum   'Nd3 Y3 Ni18 P13 Pt2'
_cell_volume   547.92078622
_cell_formula_units_Z   1
loop_
 _symmetry_equiv_pos_site_id
 _symmetry_equiv_pos_as_xyz
  1  'x, y, z'
loop_
 _atom_site_type_symbol
 _atom_site_label
 _atom_site_symmetry_multiplicity
 _atom_site_fract_x
 _atom_site_fract_y
 _atom_site_fract_z
 _atom_site_occupancy
  Nd  Nd0  1  0.463598  0.182127  0.000000  1
  Nd  Nd1  1  0.719041  0.535918  0.000000  1
  Nd  Nd2  1  0.536274  0.816568  0.500000  1
  Y  Y3  1  0.818560  0.281590  0.000000  1
  Y  Y4  1  0.280190  0.463710  0.500000  1
  Y  Y5  1  0.183072  0.719037  0.500000  1
  Ni  Ni6  1  0.191696  0.090468  0.000000  1
  Ni  Ni7  1  0.898429  0.808095  0.000000  1
  Ni  Ni8  1  0.911237  0.104748  0.000000  1
  Ni  Ni9  1  0.853629  0.930356  0.500000  1
  Ni  Ni10  1  0.075187  0.147212  0.500000  1
  Ni  Ni11  1  0.069741  0.924914  0.500000  1
  Ni  Ni12  1  0.434641  0.413267  0.000000  1
  Ni  Ni13  1  0.978570  0.563368  0.000000  1
  Ni  Ni14  1  0.588262  0.023647  0.000000  1
  Ni  Ni15  1  0.567003  0.591463  0.500000  1
  Ni  Ni16  1  0.023993  0.431639  0.500000  1
  Ni  Ni17  1  0.405893  0.974243  0.500000  1
  Ni  Ni18  1  0.077612  0.317105  0.000000  1
  Ni  Ni19  1  0.236696  0.921394  0.000000  1
  Ni  Ni20  1  0.684799  0.760415  0.000000  1
  Ni  Ni21  1  0.933456  0.689130  0.500000  1
  Ni  Ni22  1  0.759388  0.070865  0.500000  1
  Ni  Ni23  1  0.309531  0.243320  0.500000  1
  P  P24  1  0.233930  0.281239  0.000000  1
  P  P25  1  0.046182  0.764455  0.000000  1
  P  P26  1  0.723184  0.955613  0.000000  1
  P  P27  1  0.770904  0.728348  0.500000  1
  P  P28  1  0.955572  0.230942  0.500000  1
  P  P29  1  0.271178  0.042953  0.500000  1
  P  P30  1  0.483833  0.610740  0.000000  1
  P  P31  1  0.127562  0.514425  0.000000  1
  P  P32  1  0.385570  0.872292  0.000000  1
  P  P33  1  0.514470  0.388368  0.500000  1
  P  P34  1  0.875167  0.483744  0.500000  1
  P  P35  1  0.612646  0.125315  0.500000  1
  P  P36  1  0.999521  0.000156  0.000000  1
  Pt  Pt37  1  0.330435  0.664843  0.000000  1
  Pt  Pt38  1  0.669351  0.331969  0.500000  1
