# generated using pymatgen
data_Mn4CuGe(B2Rh5)2
_symmetry_space_group_name_H-M   'P 1'
_cell_length_a   9.31646900
_cell_length_b   9.31646900
_cell_length_c   2.93580900
_cell_angle_alpha   90.00000000
_cell_angle_beta   90.00000000
_cell_angle_gamma   90.00000000
_symmetry_Int_Tables_number   1
_chemical_formula_structural   Mn4CuGe(B2Rh5)2
_chemical_formula_sum   'Mn4 Cu1 Ge1 B4 Rh10'
_cell_volume   254.81822368
_cell_formula_units_Z   1
loop_
 _symmetry_equiv_pos_site_id
 _symmetry_equiv_pos_as_xyz
  1  'x, y, z'
loop_
 _atom_site_type_symbol
 _atom_site_label
 _atom_site_symmetry_multiplicity
 _atom_site_fract_x
 _atom_site_fract_y
 _atom_site_fract_z
 _atom_site_occupancy
  Mn  Mn0  1  0.826359  0.320698  0.000000  1
  Mn  Mn1  1  0.320698  0.173641  0.000000  1
  Mn  Mn2  1  0.679302  0.826359  0.000000  1
  Mn  Mn3  1  0.173641  0.679302  0.000000  1
  Cu  Cu4  1  0.000000  0.000000  0.000000  1
  Ge  Ge5  1  0.500000  0.500000  0.000000  1
  B  B6  1  0.631035  0.123926  0.000000  1
  B  B7  1  0.123926  0.368965  0.000000  1
  B  B8  1  0.876074  0.631035  0.000000  1
  B  B9  1  0.368965  0.876074  0.000000  1
  Rh  Rh10  1  0.072273  0.214464  0.500000  1
  Rh  Rh11  1  0.214464  0.927727  0.500000  1
  Rh  Rh12  1  0.785536  0.072273  0.500000  1
  Rh  Rh13  1  0.927727  0.785536  0.500000  1
  Rh  Rh14  1  0.430466  0.713490  0.500000  1
  Rh  Rh15  1  0.569534  0.286510  0.500000  1
  Rh  Rh16  1  0.713490  0.569534  0.500000  1
  Rh  Rh17  1  0.286510  0.430466  0.500000  1
  Rh  Rh18  1  0.500000  0.000000  0.500000  1
  Rh  Rh19  1  0.000000  0.500000  0.500000  1
