# generated using pymatgen
data_U(Sb3Ru)4
_symmetry_space_group_name_H-M   'P 1'
_cell_length_a   8.10833531
_cell_length_b   8.10833644
_cell_length_c   8.10833500
_cell_angle_alpha   109.47121453
_cell_angle_beta   109.47121735
_cell_angle_gamma   109.47122816
_symmetry_Int_Tables_number   1
_chemical_formula_structural   U(Sb3Ru)4
_chemical_formula_sum   'U1 Sb12 Ru4'
_cell_volume   410.36778837
_cell_formula_units_Z   1
loop_
 _symmetry_equiv_pos_site_id
 _symmetry_equiv_pos_as_xyz
  1  'x, y, z'
loop_
 _atom_site_type_symbol
 _atom_site_label
 _atom_site_symmetry_multiplicity
 _atom_site_fract_x
 _atom_site_fract_y
 _atom_site_fract_z
 _atom_site_occupancy
  U  U0  1  0.000000  0.000000  0.000000  1
  Sb  Sb1  1  0.337601  0.180093  0.842491  1
  Sb  Sb2  1  0.662398  0.819907  0.157509  1
  Sb  Sb3  1  0.662398  0.504890  0.842491  1
  Sb  Sb4  1  0.337602  0.495110  0.157509  1
  Sb  Sb5  1  0.180093  0.842491  0.337602  1
  Sb  Sb6  1  0.819907  0.157509  0.662399  1
  Sb  Sb7  1  0.504890  0.842491  0.662399  1
  Sb  Sb8  1  0.495110  0.157509  0.337602  1
  Sb  Sb9  1  0.842491  0.337601  0.180093  1
  Sb  Sb10  1  0.157509  0.662398  0.819907  1
  Sb  Sb11  1  0.842491  0.662398  0.504890  1
  Sb  Sb12  1  0.157509  0.337602  0.495110  1
  Ru  Ru13  1  0.000000  0.000000  0.500000  1
  Ru  Ru14  1  0.500000  0.000000  0.000000  1
  Ru  Ru15  1  0.000000  0.500000  0.000000  1
  Ru  Ru16  1  0.500000  0.500000  0.500000  1
