# generated using pymatgen
data_Nd5SnBi2N
_symmetry_space_group_name_H-M   'P 1'
_cell_length_a   9.36918014
_cell_length_b   9.36917949
_cell_length_c   6.60582500
_cell_angle_alpha   90.00000000
_cell_angle_beta   90.00000000
_cell_angle_gamma   119.87997407
_symmetry_Int_Tables_number   1
_chemical_formula_structural   Nd5SnBi2N
_chemical_formula_sum   'Nd10 Sn2 Bi4 N2'
_cell_volume   502.78792228
_cell_formula_units_Z   2
loop_
 _symmetry_equiv_pos_site_id
 _symmetry_equiv_pos_as_xyz
  1  'x, y, z'
loop_
 _atom_site_type_symbol
 _atom_site_label
 _atom_site_symmetry_multiplicity
 _atom_site_fract_x
 _atom_site_fract_y
 _atom_site_fract_z
 _atom_site_occupancy
  Nd  Nd0  1  0.667606  0.330622  0.002750  1
  Nd  Nd1  1  0.330622  0.667606  0.002750  1
  Nd  Nd2  1  0.330622  0.667606  0.497250  1
  Nd  Nd3  1  0.667606  0.330622  0.497250  1
  Nd  Nd4  1  0.788365  0.788365  0.750000  1
  Nd  Nd5  1  0.215964  0.000407  0.750000  1
  Nd  Nd6  1  0.000407  0.215964  0.750000  1
  Nd  Nd7  1  0.211426  0.211426  0.250000  1
  Nd  Nd8  1  0.786632  0.004117  0.250000  1
  Nd  Nd9  1  0.004117  0.786632  0.250000  1
  Sn  Sn10  1  0.401349  0.000662  0.250000  1
  Sn  Sn11  1  0.000662  0.401349  0.250000  1
  Bi  Bi12  1  0.399730  0.399730  0.750000  1
  Bi  Bi13  1  0.598730  0.999003  0.750000  1
  Bi  Bi14  1  0.999003  0.598730  0.750000  1
  Bi  Bi15  1  0.599823  0.599823  0.250000  1
  N  N16  1  0.998667  0.998667  0.999459  1
  N  N17  1  0.998667  0.998667  0.500541  1
