# generated using pymatgen
data_DyEr3AlNi
_symmetry_space_group_name_H-M   'P 1'
_cell_length_a   9.39149782
_cell_length_b   9.39149802
_cell_length_c   9.38579400
_cell_angle_alpha   60.02008223
_cell_angle_beta   60.02008153
_cell_angle_gamma   59.95982801
_symmetry_Int_Tables_number   1
_chemical_formula_structural   DyEr3AlNi
_chemical_formula_sum   'Dy4 Er12 Al4 Ni4'
_cell_volume   585.36318701
_cell_formula_units_Z   4
loop_
 _symmetry_equiv_pos_site_id
 _symmetry_equiv_pos_as_xyz
  1  'x, y, z'
loop_
 _atom_site_type_symbol
 _atom_site_label
 _atom_site_symmetry_multiplicity
 _atom_site_fract_x
 _atom_site_fract_y
 _atom_site_fract_z
 _atom_site_occupancy
  Dy  Dy0  1  0.186405  0.813595  0.813595  1
  Dy  Dy1  1  0.813595  0.186405  0.186405  1
  Dy  Dy2  1  0.813595  0.186405  0.813595  1
  Dy  Dy3  1  0.186405  0.813595  0.186405  1
  Er  Er4  1  0.812857  0.812857  0.187143  1
  Er  Er5  1  0.187143  0.187143  0.812857  1
  Er  Er6  1  0.600841  0.600841  0.599986  1
  Er  Er7  1  0.600841  0.600841  0.198333  1
  Er  Er8  1  0.599986  0.198333  0.600841  1
  Er  Er9  1  0.198333  0.599986  0.600841  1
  Er  Er10  1  0.059391  0.440609  0.440609  1
  Er  Er11  1  0.440609  0.059391  0.059391  1
  Er  Er12  1  0.440609  0.059391  0.440609  1
  Er  Er13  1  0.059391  0.440609  0.059391  1
  Er  Er14  1  0.440536  0.440536  0.059464  1
  Er  Er15  1  0.059464  0.059464  0.440536  1
  Al  Al16  1  0.827144  0.827144  0.827291  1
  Al  Al17  1  0.827144  0.827144  0.518418  1
  Al  Al18  1  0.827291  0.518418  0.827144  1
  Al  Al19  1  0.518418  0.827291  0.827144  1
  Ni  Ni20  1  0.392580  0.392580  0.393058  1
  Ni  Ni21  1  0.392580  0.392580  0.821780  1
  Ni  Ni22  1  0.393058  0.821780  0.392580  1
  Ni  Ni23  1  0.821780  0.393058  0.392580  1
