# generated using pymatgen
data_Dy2Y3Ge6P6Ir19
_symmetry_space_group_name_H-M   'P 1'
_cell_length_a   12.96339103
_cell_length_b   12.96335108
_cell_length_c   3.98263400
_cell_angle_alpha   90.00000000
_cell_angle_beta   90.00000000
_cell_angle_gamma   120.00835631
_symmetry_Int_Tables_number   1
_chemical_formula_structural   Dy2Y3Ge6P6Ir19
_chemical_formula_sum   'Dy2 Y3 Ge6 P6 Ir19'
_cell_volume   579.56260763
_cell_formula_units_Z   1
loop_
 _symmetry_equiv_pos_site_id
 _symmetry_equiv_pos_as_xyz
  1  'x, y, z'
loop_
 _atom_site_type_symbol
 _atom_site_label
 _atom_site_symmetry_multiplicity
 _atom_site_fract_x
 _atom_site_fract_y
 _atom_site_fract_z
 _atom_site_occupancy
  Dy  Dy0  1  0.666646  0.333289  0.500000  1
  Dy  Dy1  1  0.817646  0.998368  0.000000  1
  Y  Y2  1  0.333356  0.666695  0.500000  1
  Y  Y3  1  0.001525  0.819036  0.000000  1
  Y  Y4  1  0.180965  0.182461  0.000000  1
  Ge  Ge5  1  0.998748  0.639105  0.500000  1
  Ge  Ge6  1  0.360890  0.359584  0.500000  1
  Ge  Ge7  1  0.640638  0.001362  0.500000  1
  Ge  Ge8  1  0.518761  0.678266  0.000000  1
  Ge  Ge9  1  0.321749  0.840579  0.000000  1
  Ge  Ge10  1  0.159517  0.481243  0.000000  1
  P  P11  1  0.483810  0.178202  0.000000  1
  P  P12  1  0.694414  0.516190  0.000000  1
  P  P13  1  0.821794  0.305586  0.000000  1
  P  P14  1  0.994781  0.175325  0.500000  1
  P  P15  1  0.824567  0.819630  0.500000  1
  P  P16  1  0.180429  0.005064  0.500000  1
  Ir  Ir17  1  0.520951  0.870603  0.000000  1
  Ir  Ir18  1  0.129422  0.650235  0.000000  1
  Ir  Ir19  1  0.349703  0.479126  0.000000  1
  Ir  Ir20  1  0.499900  0.368641  0.000000  1
  Ir  Ir21  1  0.868693  0.500091  0.000000  1
  Ir  Ir22  1  0.631416  0.131289  0.000000  1
  Ir  Ir23  1  0.007440  0.453765  0.500000  1
  Ir  Ir24  1  0.546166  0.553763  0.500000  1
  Ir  Ir25  1  0.446423  0.992404  0.500000  1
  Ir  Ir26  1  0.989606  0.270983  0.000000  1
  Ir  Ir27  1  0.728900  0.718718  0.000000  1
  Ir  Ir28  1  0.281213  0.010265  0.000000  1
  Ir  Ir29  1  0.638793  0.808861  0.500000  1
  Ir  Ir30  1  0.191372  0.829951  0.500000  1
  Ir  Ir31  1  0.170009  0.361384  0.500000  1
  Ir  Ir32  1  0.386305  0.179834  0.500000  1
  Ir  Ir33  1  0.793505  0.613719  0.500000  1
  Ir  Ir34  1  0.820198  0.206393  0.500000  1
  Ir  Ir35  1  0.999750  0.999992  0.500000  1
