# generated using pymatgen
data_DyTm4Lu7Co5Bi
_symmetry_space_group_name_H-M   'P 1'
_cell_length_a   8.16016933
_cell_length_b   8.16016885
_cell_length_c   8.15130369
_cell_angle_alpha   110.97205928
_cell_angle_beta   110.97951091
_cell_angle_gamma   106.54875459
_symmetry_Int_Tables_number   1
_chemical_formula_structural   DyTm4Lu7Co5Bi
_chemical_formula_sum   'Dy1 Tm4 Lu7 Co5 Bi1'
_cell_volume   416.77102131
_cell_formula_units_Z   1
loop_
 _symmetry_equiv_pos_site_id
 _symmetry_equiv_pos_as_xyz
  1  'x, y, z'
loop_
 _atom_site_type_symbol
 _atom_site_label
 _atom_site_symmetry_multiplicity
 _atom_site_fract_x
 _atom_site_fract_y
 _atom_site_fract_z
 _atom_site_occupancy
  Dy  Dy0  1  0.286341  0.183895  0.470236  1
  Tm  Tm1  1  0.209875  0.406624  0.194960  1
  Tm  Tm2  1  0.791020  0.595314  0.805281  1
  Tm  Tm3  1  0.209968  0.014261  0.805281  1
  Tm  Tm4  1  0.788335  0.985085  0.194960  1
  Lu  Lu5  1  0.714288  0.817314  0.531602  1
  Lu  Lu6  1  0.286289  0.815910  0.102199  1
  Lu  Lu7  1  0.714471  0.182929  0.897401  1
  Lu  Lu8  1  0.621567  0.311986  0.308975  1
  Lu  Lu9  1  0.379251  0.689502  0.691002  1
  Lu  Lu10  1  0.001500  0.311751  0.691002  1
  Lu  Lu11  1  0.996989  0.687409  0.308975  1
  Co  Co12  1  0.998869  0.374710  0.373579  1
  Co  Co13  1  0.000138  0.625542  0.625680  1
  Co  Co14  1  0.388780  0.886593  0.499932  1
  Co  Co15  1  0.613338  0.111152  0.499932  1
  Co  Co16  1  0.999010  0.000123  0.999133  1
  Bi  Bi17  1  0.499971  0.499900  0.999871  1
