# generated using pymatgen
data_Nb8V3Si10Tc
_symmetry_space_group_name_H-M   'P 1'
_cell_length_a   5.00752888
_cell_length_b   7.91122187
_cell_length_c   9.49068771
_cell_angle_alpha   114.57002974
_cell_angle_beta   105.20414406
_cell_angle_gamma   90.21358193
_symmetry_Int_Tables_number   1
_chemical_formula_structural   Nb8V3Si10Tc
_chemical_formula_sum   'Nb8 V3 Si10 Tc1'
_cell_volume   327.23207337
_cell_formula_units_Z   1
loop_
 _symmetry_equiv_pos_site_id
 _symmetry_equiv_pos_as_xyz
  1  'x, y, z'
loop_
 _atom_site_type_symbol
 _atom_site_label
 _atom_site_symmetry_multiplicity
 _atom_site_fract_x
 _atom_site_fract_y
 _atom_site_fract_z
 _atom_site_occupancy
  Nb  Nb0  1  0.644170  0.027313  0.286064  1
  Nb  Nb1  1  0.353788  0.970399  0.712327  1
  Nb  Nb2  1  0.858538  0.741927  0.712327  1
  Nb  Nb3  1  0.141895  0.258751  0.286064  1
  Nb  Nb4  1  0.939563  0.191145  0.873391  1
  Nb  Nb5  1  0.063266  0.808451  0.128259  1
  Nb  Nb6  1  0.564993  0.319807  0.128259  1
  Nb  Nb7  1  0.433827  0.682246  0.873391  1
  V  V8  1  0.941077  0.691077  0.382155  1
  V  V9  1  0.442053  0.692053  0.384107  1
  V  V10  1  0.057484  0.307484  0.614967  1
  Si  Si11  1  0.783114  0.987273  0.566615  1
  Si  Si12  1  0.215968  0.009894  0.432873  1
  Si  Si13  1  0.716906  0.422979  0.432873  1
  Si  Si14  1  0.283500  0.579341  0.566615  1
  Si  Si15  1  0.566806  0.652220  0.135606  1
  Si  Si16  1  0.429131  0.350310  0.865863  1
  Si  Si17  1  0.936732  0.515554  0.865863  1
  Si  Si18  1  0.068800  0.483385  0.135606  1
  Si  Si19  1  0.250525  0.000525  0.001050  1
  Si  Si20  1  0.750166  0.000166  0.000332  1
  Tc  Tc21  1  0.557697  0.307697  0.615394  1
