# generated using pymatgen
data_HfSc2NbRu4
_symmetry_space_group_name_H-M   'P 1'
_cell_length_a   6.39010200
_cell_length_b   4.54317600
_cell_length_c   9.10156200
_cell_angle_alpha   90.00000000
_cell_angle_beta   90.00065014
_cell_angle_gamma   90.00000000
_symmetry_Int_Tables_number   1
_chemical_formula_structural   HfSc2NbRu4
_chemical_formula_sum   'Hf2 Sc4 Nb2 Ru8'
_cell_volume   264.23070517
_cell_formula_units_Z   2
loop_
 _symmetry_equiv_pos_site_id
 _symmetry_equiv_pos_as_xyz
  1  'x, y, z'
loop_
 _atom_site_type_symbol
 _atom_site_label
 _atom_site_symmetry_multiplicity
 _atom_site_fract_x
 _atom_site_fract_y
 _atom_site_fract_z
 _atom_site_occupancy
  Hf  Hf0  1  0.250034  0.250001  0.124891  1
  Hf  Hf1  1  0.750022  0.750000  0.375111  1
  Sc  Sc2  1  0.750059  0.250001  0.124702  1
  Sc  Sc3  1  0.250027  0.750000  0.375296  1
  Sc  Sc4  1  0.749986  0.250001  0.625216  1
  Sc  Sc5  1  0.249930  0.750000  0.874796  1
  Nb  Nb6  1  0.249982  0.250001  0.624892  1
  Nb  Nb7  1  0.749960  0.750000  0.875105  1
  Ru  Ru8  1  0.502920  0.750000  0.121306  1
  Ru  Ru9  1  0.997103  0.750000  0.121312  1
  Ru  Ru10  1  0.497108  0.250001  0.378688  1
  Ru  Ru11  1  0.002925  0.250001  0.378688  1
  Ru  Ru12  1  0.002389  0.750000  0.628381  1
  Ru  Ru13  1  0.497587  0.750000  0.628393  1
  Ru  Ru14  1  0.997589  0.250001  0.871611  1
  Ru  Ru15  1  0.502376  0.250001  0.871615  1
