# generated using pymatgen
data_Na4CaOsO6
_symmetry_space_group_name_H-M   'P 1'
_cell_length_a   5.71822865
_cell_length_b   5.71845427
_cell_length_c   5.75116822
_cell_angle_alpha   99.64676507
_cell_angle_beta   99.66159713
_cell_angle_gamma   120.01780628
_symmetry_Int_Tables_number   1
_chemical_formula_structural   Na4CaOsO6
_chemical_formula_sum   'Na4 Ca1 Os1 O6'
_cell_volume   153.39796391
_cell_formula_units_Z   1
loop_
 _symmetry_equiv_pos_site_id
 _symmetry_equiv_pos_as_xyz
  1  'x, y, z'
loop_
 _atom_site_type_symbol
 _atom_site_label
 _atom_site_symmetry_multiplicity
 _atom_site_fract_x
 _atom_site_fract_y
 _atom_site_fract_z
 _atom_site_occupancy
  Na  Na0  1  0.501267  0.498668  0.999997  1
  Na  Na1  1  0.993358  0.006590  0.499990  1
  Na  Na2  1  0.664273  0.335711  0.499988  1
  Na  Na3  1  0.339386  0.660670  0.499991  1
  Ca  Ca4  1  0.165869  0.834193  0.999983  1
  Os  Os5  1  0.833154  0.166937  0.000039  1
  O  O6  1  0.616876  0.956930  0.204595  1
  O  O7  1  0.911550  0.522872  0.214265  1
  O  O8  1  0.183566  0.229437  0.214092  1
  O  O9  1  0.770517  0.816355  0.785889  1
  O  O10  1  0.477136  0.088515  0.785752  1
  O  O11  1  0.043053  0.383132  0.795423  1
