# generated using pymatgen
data_Tm12AlTc3Ag
_symmetry_space_group_name_H-M   'P 1'
_cell_length_a   8.30631143
_cell_length_b   8.30631004
_cell_length_c   8.30631000
_cell_angle_alpha   111.98047611
_cell_angle_beta   107.61022938
_cell_angle_gamma   108.85469623
_symmetry_Int_Tables_number   1
_chemical_formula_structural   Tm12AlTc3Ag
_chemical_formula_sum   'Tm12 Al1 Tc3 Ag1'
_cell_volume   440.47928024
_cell_formula_units_Z   1
loop_
 _symmetry_equiv_pos_site_id
 _symmetry_equiv_pos_as_xyz
  1  'x, y, z'
loop_
 _atom_site_type_symbol
 _atom_site_label
 _atom_site_symmetry_multiplicity
 _atom_site_fract_x
 _atom_site_fract_y
 _atom_site_fract_z
 _atom_site_occupancy
  Tm  Tm0  1  0.187871  0.443893  0.256021  1
  Tm  Tm1  1  0.812129  0.556107  0.743979  1
  Tm  Tm2  1  0.187871  0.931851  0.743979  1
  Tm  Tm3  1  0.942759  0.181914  0.760843  1
  Tm  Tm4  1  0.812129  0.068149  0.256021  1
  Tm  Tm5  1  0.057241  0.818086  0.239157  1
  Tm  Tm6  1  0.421071  0.181914  0.239157  1
  Tm  Tm7  1  0.578929  0.818086  0.760843  1
  Tm  Tm8  1  0.322553  0.317164  0.639718  1
  Tm  Tm9  1  0.677447  0.682836  0.360282  1
  Tm  Tm10  1  0.677447  0.317164  0.994612  1
  Tm  Tm11  1  0.322553  0.682836  0.005388  1
  Al  Al12  1  0.500000  0.000000  0.500000  1
  Tc  Tc13  1  0.335963  0.335963  0.000000  1
  Tc  Tc14  1  0.664037  0.664037  0.000000  1
  Tc  Tc15  1  0.000000  0.000000  0.000000  1
  Ag  Ag16  1  0.000000  0.500000  0.500000  1
