# generated using pymatgen
data_Ca4Er2TaRuO12
_symmetry_space_group_name_H-M   'P 1'
_cell_length_a   5.80727720
_cell_length_b   5.60415259
_cell_length_c   9.79116794
_cell_angle_alpha   55.43782133
_cell_angle_beta   89.58821544
_cell_angle_gamma   89.94775687
_symmetry_Int_Tables_number   1
_chemical_formula_structural   Ca4Er2TaRuO12
_chemical_formula_sum   'Ca4 Er2 Ta1 Ru1 O12'
_cell_volume   262.40493753
_cell_formula_units_Z   1
loop_
 _symmetry_equiv_pos_site_id
 _symmetry_equiv_pos_as_xyz
  1  'x, y, z'
loop_
 _atom_site_type_symbol
 _atom_site_label
 _atom_site_symmetry_multiplicity
 _atom_site_fract_x
 _atom_site_fract_y
 _atom_site_fract_z
 _atom_site_occupancy
  Ca  Ca0  1  0.551391  0.737831  0.744998  1
  Ca  Ca1  1  0.055740  0.266516  0.745990  1
  Ca  Ca2  1  0.944260  0.733484  0.254010  1
  Ca  Ca3  1  0.448609  0.262169  0.255002  1
  Er  Er4  1  0.000000  0.000000  0.500000  1
  Er  Er5  1  0.500000  0.000000  0.000000  1
  Ta  Ta6  1  0.000000  0.500000  0.000000  1
  Ru  Ru7  1  0.500000  0.500000  0.500000  1
  O  O8  1  0.542076  0.841531  0.266547  1
  O  O9  1  0.042217  0.154979  0.235861  1
  O  O10  1  0.457924  0.158469  0.733453  1
  O  O11  1  0.957783  0.845021  0.764139  1
  O  O12  1  0.783860  0.623337  0.558875  1
  O  O13  1  0.288559  0.382037  0.937444  1
  O  O14  1  0.216140  0.376663  0.441125  1
  O  O15  1  0.711441  0.617963  0.062556  1
  O  O16  1  0.185639  0.733644  0.056106  1
  O  O17  1  0.688367  0.268663  0.445801  1
  O  O18  1  0.814361  0.266356  0.943894  1
  O  O19  1  0.311633  0.731337  0.554199  1
