# generated using pymatgen
data_CsKTcP2
_symmetry_space_group_name_H-M   'P 1'
_cell_length_a   8.49848612
_cell_length_b   8.19425172
_cell_length_c   8.19425273
_cell_angle_alpha   137.01063499
_cell_angle_beta   125.94184775
_cell_angle_gamma   70.84913355
_symmetry_Int_Tables_number   1
_chemical_formula_structural   CsKTcP2
_chemical_formula_sum   'Cs2 K2 Tc2 P4'
_cell_volume   309.66886202
_cell_formula_units_Z   2
loop_
 _symmetry_equiv_pos_site_id
 _symmetry_equiv_pos_as_xyz
  1  'x, y, z'
loop_
 _atom_site_type_symbol
 _atom_site_label
 _atom_site_symmetry_multiplicity
 _atom_site_fract_x
 _atom_site_fract_y
 _atom_site_fract_z
 _atom_site_occupancy
  Cs  Cs0  1  0.711813  0.336812  0.375000  1
  Cs  Cs1  1  0.288187  0.663188  0.625000  1
  K  K2  1  0.957667  0.146988  0.810679  1
  K  K3  1  0.042333  0.853012  0.189321  1
  Tc  Tc4  1  0.500000  0.742848  0.242848  1
  Tc  Tc5  1  0.500000  0.257152  0.757152  1
  P  P6  1  0.735345  0.607927  0.127418  1
  P  P7  1  0.609712  0.923042  0.686670  1
  P  P8  1  0.390288  0.076958  0.313330  1
  P  P9  1  0.264655  0.392073  0.872582  1
