# generated using pymatgen
data_Ho4CuAs5Ir7
_symmetry_space_group_name_H-M   'P 1'
_cell_length_a   7.27407458
_cell_length_b   7.27427755
_cell_length_c   7.27427900
_cell_angle_alpha   107.90430131
_cell_angle_beta   110.25984597
_cell_angle_gamma   110.25985803
_symmetry_Int_Tables_number   1
_chemical_formula_structural   Ho4CuAs5Ir7
_chemical_formula_sum   'Ho4 Cu1 As5 Ir7'
_cell_volume   296.14054348
_cell_formula_units_Z   1
loop_
 _symmetry_equiv_pos_site_id
 _symmetry_equiv_pos_as_xyz
  1  'x, y, z'
loop_
 _atom_site_type_symbol
 _atom_site_label
 _atom_site_symmetry_multiplicity
 _atom_site_fract_x
 _atom_site_fract_y
 _atom_site_fract_z
 _atom_site_occupancy
  Ho  Ho0  1  0.000047  0.989125  0.502220  1
  Ho  Ho1  1  0.000047  0.502220  0.989125  1
  Ho  Ho2  1  0.486907  0.989106  0.989106  1
  Ho  Ho3  1  0.513107  0.502218  0.502218  1
  Cu  Cu4  1  0.999521  0.696178  0.696178  1
  As  As5  1  0.684536  0.682927  0.998418  1
  As  As6  1  0.315547  0.998377  0.313870  1
  As  As7  1  0.999990  0.330734  0.330734  1
  As  As8  1  0.315547  0.313870  0.998377  1
  As  As9  1  0.684536  0.998418  0.682927  1
  Ir  Ir10  1  0.749114  0.244897  0.495818  1
  Ir  Ir11  1  0.749114  0.495818  0.244897  1
  Ir  Ir12  1  0.500015  0.246239  0.746244  1
  Ir  Ir13  1  0.250927  0.495881  0.746737  1
  Ir  Ir14  1  0.250927  0.746737  0.495881  1
  Ir  Ir15  1  0.500015  0.746244  0.246239  1
  Ir  Ir16  1  0.000102  0.021010  0.021010  1
