# generated using pymatgen
data_Nd4P4IrRh3
_symmetry_space_group_name_H-M   'P 1'
_cell_length_a   6.26245268
_cell_length_b   6.26245325
_cell_length_c   6.26245210
_cell_angle_alpha   90.03389356
_cell_angle_beta   90.03389645
_cell_angle_gamma   90.03388597
_symmetry_Int_Tables_number   1
_chemical_formula_structural   Nd4P4IrRh3
_chemical_formula_sum   'Nd4 P4 Ir1 Rh3'
_cell_volume   245.60270355
_cell_formula_units_Z   1
loop_
 _symmetry_equiv_pos_site_id
 _symmetry_equiv_pos_as_xyz
  1  'x, y, z'
loop_
 _atom_site_type_symbol
 _atom_site_label
 _atom_site_symmetry_multiplicity
 _atom_site_fract_x
 _atom_site_fract_y
 _atom_site_fract_z
 _atom_site_occupancy
  Nd  Nd0  1  0.411379  0.909809  0.589286  1
  Nd  Nd1  1  0.909809  0.589286  0.411379  1
  Nd  Nd2  1  0.589286  0.411379  0.909809  1
  Nd  Nd3  1  0.090064  0.090064  0.090064  1
  P  P4  1  0.681308  0.181644  0.317841  1
  P  P5  1  0.181644  0.317841  0.681308  1
  P  P6  1  0.317841  0.681308  0.181644  1
  P  P7  1  0.818768  0.818768  0.818768  1
  Ir  Ir8  1  0.420787  0.420787  0.420787  1
  Rh  Rh9  1  0.079854  0.579858  0.919403  1
  Rh  Rh10  1  0.579858  0.919403  0.079854  1
  Rh  Rh11  1  0.919403  0.079854  0.579858  1
