# generated using pymatgen
data_Hf8Ti12Si15As
_symmetry_space_group_name_H-M   'P 1'
_cell_length_a   6.82011256
_cell_length_b   6.81519810
_cell_length_c   12.47085174
_cell_angle_alpha   90.01229675
_cell_angle_beta   89.86952287
_cell_angle_gamma   90.00031281
_symmetry_Int_Tables_number   1
_chemical_formula_structural   Hf8Ti12Si15As
_chemical_formula_sum   'Hf8 Ti12 Si15 As1'
_cell_volume   579.64888744
_cell_formula_units_Z   1
loop_
 _symmetry_equiv_pos_site_id
 _symmetry_equiv_pos_as_xyz
  1  'x, y, z'
loop_
 _atom_site_type_symbol
 _atom_site_label
 _atom_site_symmetry_multiplicity
 _atom_site_fract_x
 _atom_site_fract_y
 _atom_site_fract_z
 _atom_site_occupancy
  Hf  Hf0  1  0.344107  0.997717  0.466510  1
  Hf  Hf1  1  0.502221  0.842702  0.718947  1
  Hf  Hf2  1  0.499024  0.156151  0.217861  1
  Hf  Hf3  1  0.843311  0.500253  0.282183  1
  Hf  Hf4  1  0.156853  0.500409  0.782288  1
  Hf  Hf5  1  0.658405  0.998587  0.969054  1
  Hf  Hf6  1  0.994754  0.346581  0.529836  1
  Hf  Hf7  1  0.001012  0.656900  0.032130  1
  Ti  Ti8  1  0.328650  0.329378  0.000012  1
  Ti  Ti9  1  0.170838  0.829557  0.249889  1
  Ti  Ti10  1  0.827394  0.170909  0.750044  1
  Ti  Ti11  1  0.670517  0.670341  0.499953  1
  Ti  Ti12  1  0.153935  0.004781  0.873122  1
  Ti  Ti13  1  0.496529  0.652442  0.122802  1
  Ti  Ti14  1  0.503934  0.346959  0.623962  1
  Ti  Ti15  1  0.653831  0.498608  0.877612  1
  Ti  Ti16  1  0.346663  0.503522  0.377008  1
  Ti  Ti17  1  0.847006  0.996971  0.373039  1
  Ti  Ti18  1  0.003626  0.152240  0.126926  1
  Ti  Ti19  1  0.994153  0.844218  0.625930  1
  Si  Si20  1  0.364116  0.706051  0.927334  1
  Si  Si21  1  0.634226  0.294566  0.427388  1
  Si  Si22  1  0.705864  0.364130  0.073104  1
  Si  Si23  1  0.295240  0.635862  0.572321  1
  Si  Si24  1  0.794765  0.863985  0.177672  1
  Si  Si25  1  0.135480  0.205505  0.322588  1
  Si  Si26  1  0.865626  0.795054  0.822601  1
  Si  Si27  1  0.294855  0.955420  0.064206  1
  Si  Si28  1  0.545257  0.793378  0.313690  1
  Si  Si29  1  0.462214  0.206403  0.818416  1
  Si  Si30  1  0.793893  0.544753  0.686152  1
  Si  Si31  1  0.205345  0.455204  0.185900  1
  Si  Si32  1  0.704870  0.044387  0.563813  1
  Si  Si33  1  0.955323  0.294434  0.936052  1
  Si  Si34  1  0.044536  0.706353  0.435153  1
  As  As35  1  0.201627  0.135292  0.674502  1
