# generated using pymatgen
data_DyTm4Tl2Sb
_symmetry_space_group_name_H-M   'P 1'
_cell_length_a   8.85933300
_cell_length_b   8.89866189
_cell_length_c   6.51522400
_cell_angle_alpha   90.00000000
_cell_angle_beta   90.00000000
_cell_angle_gamma   119.87455845
_symmetry_Int_Tables_number   1
_chemical_formula_structural   DyTm4Tl2Sb
_chemical_formula_sum   'Dy2 Tm8 Tl4 Sb2'
_cell_volume   445.38264572
_cell_formula_units_Z   2
loop_
 _symmetry_equiv_pos_site_id
 _symmetry_equiv_pos_as_xyz
  1  'x, y, z'
loop_
 _atom_site_type_symbol
 _atom_site_label
 _atom_site_symmetry_multiplicity
 _atom_site_fract_x
 _atom_site_fract_y
 _atom_site_fract_z
 _atom_site_occupancy
  Dy  Dy0  1  0.763989  0.999770  0.750000  1
  Dy  Dy1  1  0.240543  0.234711  0.750000  1
  Tm  Tm2  1  0.331427  0.665706  0.004222  1
  Tm  Tm3  1  0.665113  0.333869  0.496031  1
  Tm  Tm4  1  0.665113  0.333869  0.003969  1
  Tm  Tm5  1  0.331427  0.665706  0.495778  1
  Tm  Tm6  1  0.234571  0.999986  0.250000  1
  Tm  Tm7  1  0.998927  0.236776  0.250000  1
  Tm  Tm8  1  0.764139  0.765295  0.250000  1
  Tm  Tm9  1  0.005065  0.765558  0.750000  1
  Tl  Tl10  1  0.600387  0.999761  0.250000  1
  Tl  Tl11  1  0.402476  0.998308  0.750000  1
  Tl  Tl12  1  0.997573  0.604045  0.250000  1
  Tl  Tl13  1  0.394431  0.396106  0.250000  1
  Sb  Sb14  1  0.605630  0.605180  0.750000  1
  Sb  Sb15  1  0.999191  0.395356  0.750000  1
