# generated using pymatgen
data_Y3Ho(IrRh)2
_symmetry_space_group_name_H-M   'P 1'
_cell_length_a   6.87576300
_cell_length_b   4.85426500
_cell_length_c   9.72282200
_cell_angle_alpha   90.00002359
_cell_angle_beta   90.00018595
_cell_angle_gamma   90.00008888
_symmetry_Int_Tables_number   1
_chemical_formula_structural   Y3Ho(IrRh)2
_chemical_formula_sum   'Y6 Ho2 Ir4 Rh4'
_cell_volume   324.51644886
_cell_formula_units_Z   2
loop_
 _symmetry_equiv_pos_site_id
 _symmetry_equiv_pos_as_xyz
  1  'x, y, z'
loop_
 _atom_site_type_symbol
 _atom_site_label
 _atom_site_symmetry_multiplicity
 _atom_site_fract_x
 _atom_site_fract_y
 _atom_site_fract_z
 _atom_site_occupancy
  Y  Y0  1  0.999771  0.249998  0.374514  1
  Y  Y1  1  0.499775  0.249999  0.374520  1
  Y  Y2  1  0.500159  0.750000  0.624988  1
  Y  Y3  1  0.000316  0.750001  0.624996  1
  Y  Y4  1  0.500233  0.249999  0.875481  1
  Y  Y5  1  0.000225  0.250000  0.875494  1
  Ho  Ho6  1  0.999723  0.750000  0.124998  1
  Ho  Ho7  1  0.499782  0.750000  0.125006  1
  Ir  Ir8  1  0.749883  0.249999  0.125008  1
  Ir  Ir9  1  0.249864  0.749990  0.373023  1
  Ir  Ir10  1  0.750127  0.250004  0.624996  1
  Ir  Ir11  1  0.250127  0.749997  0.876980  1
  Rh  Rh12  1  0.249865  0.250001  0.125008  1
  Rh  Rh13  1  0.749862  0.750013  0.373010  1
  Rh  Rh14  1  0.250143  0.249997  0.625006  1
  Rh  Rh15  1  0.750144  0.749995  0.876972  1
