# generated using pymatgen
data_HgBi2Pt4PbO14
_symmetry_space_group_name_H-M   'P 1'
_cell_length_a   7.40180288
_cell_length_b   7.30775086
_cell_length_c   7.47413125
_cell_angle_alpha   59.75275404
_cell_angle_beta   60.31960677
_cell_angle_gamma   59.57333423
_symmetry_Int_Tables_number   1
_chemical_formula_structural   HgBi2Pt4PbO14
_chemical_formula_sum   'Hg1 Bi2 Pt4 Pb1 O14'
_cell_volume   285.07636879
_cell_formula_units_Z   1
loop_
 _symmetry_equiv_pos_site_id
 _symmetry_equiv_pos_as_xyz
  1  'x, y, z'
loop_
 _atom_site_type_symbol
 _atom_site_label
 _atom_site_symmetry_multiplicity
 _atom_site_fract_x
 _atom_site_fract_y
 _atom_site_fract_z
 _atom_site_occupancy
  Hg  Hg0  1  0.125000  0.625000  0.125000  1
  Bi  Bi1  1  0.125000  0.125000  0.125000  1
  Bi  Bi2  1  0.625000  0.125000  0.125000  1
  Pt  Pt3  1  0.625000  0.625000  0.125000  1
  Pt  Pt4  1  0.625000  0.625000  0.625000  1
  Pt  Pt5  1  0.625000  0.125000  0.625000  1
  Pt  Pt6  1  0.125000  0.625000  0.625000  1
  Pb  Pb7  1  0.125000  0.125000  0.625000  1
  O  O8  1  0.709505  0.287360  0.293631  1
  O  O9  1  0.711078  0.289063  0.707572  1
  O  O10  1  0.007437  0.005656  0.979469  1
  O  O11  1  0.292015  0.711172  0.294182  1
  O  O12  1  0.702631  0.711172  0.294182  1
  O  O13  1  0.956546  0.537091  0.549816  1
  O  O14  1  0.293454  0.712909  0.700184  1
  O  O15  1  0.242563  0.244344  0.270531  1
  O  O16  1  0.957985  0.538828  0.955818  1
  O  O17  1  0.538922  0.960937  0.542428  1
  O  O18  1  0.547369  0.538828  0.955818  1
  O  O19  1  0.957712  0.960937  0.542428  1
  O  O20  1  0.540495  0.962640  0.956369  1
  O  O21  1  0.292288  0.289063  0.707572  1
