# generated using pymatgen
data_Tb6Ni13B4Rh
_symmetry_space_group_name_H-M   'P 1'
_cell_length_a   5.09610024
_cell_length_b   5.09651493
_cell_length_c   14.50714900
_cell_angle_alpha   90.00029746
_cell_angle_beta   89.99804226
_cell_angle_gamma   119.99294586
_symmetry_Int_Tables_number   1
_chemical_formula_structural   Tb6Ni13B4Rh
_chemical_formula_sum   'Tb6 Ni13 B4 Rh1'
_cell_volume   326.32836986
_cell_formula_units_Z   1
loop_
 _symmetry_equiv_pos_site_id
 _symmetry_equiv_pos_as_xyz
  1  'x, y, z'
loop_
 _atom_site_type_symbol
 _atom_site_label
 _atom_site_symmetry_multiplicity
 _atom_site_fract_x
 _atom_site_fract_y
 _atom_site_fract_z
 _atom_site_occupancy
  Tb  Tb0  1  0.666673  0.333271  0.032327  1
  Tb  Tb1  1  0.333327  0.666729  0.967673  1
  Tb  Tb2  1  0.333369  0.666647  0.531995  1
  Tb  Tb3  1  0.666631  0.333353  0.468005  1
  Tb  Tb4  1  0.666649  0.333375  0.249010  1
  Tb  Tb5  1  0.333351  0.666625  0.750990  1
  Ni  Ni6  1  0.834292  0.668564  0.653901  1
  Ni  Ni7  1  0.834271  0.165732  0.653901  1
  Ni  Ni8  1  0.331445  0.165726  0.653893  1
  Ni  Ni9  1  0.165708  0.331436  0.346099  1
  Ni  Ni10  1  0.165729  0.834268  0.346099  1
  Ni  Ni11  1  0.668555  0.834274  0.346107  1
  Ni  Ni12  1  0.165448  0.330918  0.148481  1
  Ni  Ni13  1  0.165465  0.834525  0.148466  1
  Ni  Ni14  1  0.669083  0.834560  0.148465  1
  Ni  Ni15  1  0.834552  0.669082  0.851519  1
  Ni  Ni16  1  0.834535  0.165475  0.851534  1
  Ni  Ni17  1  0.330917  0.165440  0.851535  1
  Ni  Ni18  1  0.000000  0.000000  0.000000  1
  B  B19  1  0.666646  0.333315  0.752616  1
  B  B20  1  0.333354  0.666685  0.247384  1
  B  B21  1  0.000001  0.000038  0.752200  1
  B  B22  1  0.999999  0.999962  0.247800  1
  Rh  Rh23  1  0.000000  0.000000  0.500000  1
