# generated using pymatgen
data_CaNd(Ge2Rh3)2
_symmetry_space_group_name_H-M   'P 1'
_cell_length_a   6.81095505
_cell_length_b   6.81095391
_cell_length_c   6.81095508
_cell_angle_alpha   130.34628784
_cell_angle_beta   113.78797105
_cell_angle_gamma   87.09047423
_symmetry_Int_Tables_number   1
_chemical_formula_structural   CaNd(Ge2Rh3)2
_chemical_formula_sum   'Ca1 Nd1 Ge4 Rh6'
_cell_volume   210.08102205
_cell_formula_units_Z   1
loop_
 _symmetry_equiv_pos_site_id
 _symmetry_equiv_pos_as_xyz
  1  'x, y, z'
loop_
 _atom_site_type_symbol
 _atom_site_label
 _atom_site_symmetry_multiplicity
 _atom_site_fract_x
 _atom_site_fract_y
 _atom_site_fract_z
 _atom_site_occupancy
  Ca  Ca0  1  0.750000  0.037337  0.287337  1
  Nd  Nd1  1  0.250000  0.955029  0.705029  1
  Ge  Ge2  1  0.584152  0.379692  0.795540  1
  Ge  Ge3  1  0.915848  0.711386  0.795540  1
  Ge  Ge4  1  0.422903  0.624914  0.202011  1
  Ge  Ge5  1  0.077097  0.279107  0.202011  1
  Rh  Rh6  1  0.219175  0.501733  0.720270  1
  Rh  Rh7  1  0.781463  0.501733  0.282559  1
  Rh  Rh8  1  0.495498  0.503439  0.498937  1
  Rh  Rh9  1  0.004502  0.503439  0.007942  1
  Rh  Rh10  1  0.718537  0.001095  0.720270  1
  Rh  Rh11  1  0.280825  0.001095  0.282559  1
