# generated using pymatgen
data_Dy4Co5P12Ir11Ru4
_symmetry_space_group_name_H-M   'P 1'
_cell_length_a   3.88814700
_cell_length_b   10.74435101
_cell_length_c   12.25541300
_cell_angle_alpha   89.88819201
_cell_angle_beta   90.00000000
_cell_angle_gamma   90.00000000
_symmetry_Int_Tables_number   1
_chemical_formula_structural   Dy4Co5P12Ir11Ru4
_chemical_formula_sum   'Dy4 Co5 P12 Ir11 Ru4'
_cell_volume   511.97645466
_cell_formula_units_Z   1
loop_
 _symmetry_equiv_pos_site_id
 _symmetry_equiv_pos_as_xyz
  1  'x, y, z'
loop_
 _atom_site_type_symbol
 _atom_site_label
 _atom_site_symmetry_multiplicity
 _atom_site_fract_x
 _atom_site_fract_y
 _atom_site_fract_z
 _atom_site_occupancy
  Dy  Dy0  1  0.250000  0.583571  0.709655  1
  Dy  Dy1  1  0.250000  0.914315  0.208046  1
  Dy  Dy2  1  0.750000  0.414624  0.291101  1
  Dy  Dy3  1  0.750000  0.088947  0.792353  1
  Co  Co4  1  0.750000  0.385667  0.800818  1
  Co  Co5  1  0.250000  0.461980  0.929265  1
  Co  Co6  1  0.250000  0.039844  0.433855  1
  Co  Co7  1  0.750000  0.539773  0.064920  1
  Co  Co8  1  0.750000  0.961236  0.568065  1
  P  P9  1  0.250000  0.425706  0.102474  1
  P  P10  1  0.250000  0.078026  0.606381  1
  P  P11  1  0.750000  0.565732  0.888517  1
  P  P12  1  0.750000  0.924939  0.395571  1
  P  P13  1  0.250000  0.274069  0.872696  1
  P  P14  1  0.250000  0.230201  0.374206  1
  P  P15  1  0.750000  0.729265  0.124821  1
  P  P16  1  0.750000  0.769705  0.626029  1
  P  P17  1  0.250000  0.596624  0.389060  1
  P  P18  1  0.250000  0.902572  0.888631  1
  P  P19  1  0.750000  0.400372  0.620369  1
  P  P20  1  0.750000  0.099042  0.110648  1
  Ir  Ir21  1  0.250000  0.406935  0.483271  1
  Ir  Ir22  1  0.250000  0.093442  0.982822  1
  Ir  Ir23  1  0.750000  0.589779  0.518391  1
  Ir  Ir24  1  0.750000  0.907838  0.015426  1
  Ir  Ir25  1  0.250000  0.233432  0.179674  1
  Ir  Ir26  1  0.250000  0.273645  0.682427  1
  Ir  Ir27  1  0.750000  0.764594  0.819279  1
  Ir  Ir28  1  0.750000  0.732164  0.319667  1
  Ir  Ir29  1  0.250000  0.890783  0.701321  1
  Ir  Ir30  1  0.250000  0.610566  0.200248  1
  Ir  Ir31  1  0.750000  0.111030  0.299691  1
  Ru  Ru32  1  0.250000  0.719754  0.987722  1
  Ru  Ru33  1  0.250000  0.778975  0.488703  1
  Ru  Ru34  1  0.750000  0.280975  0.009417  1
  Ru  Ru35  1  0.750000  0.219877  0.514458  1
