# generated using pymatgen
data_Ce4Cd3SnRu4
_symmetry_space_group_name_H-M   'P 1'
_cell_length_a   6.38992252
_cell_length_b   6.38992292
_cell_length_c   9.84803200
_cell_angle_alpha   75.80472894
_cell_angle_beta   75.80472803
_cell_angle_gamma   45.17143764
_symmetry_Int_Tables_number   1
_chemical_formula_structural   Ce4Cd3SnRu4
_chemical_formula_sum   'Ce4 Cd3 Sn1 Ru4'
_cell_volume   274.93889782
_cell_formula_units_Z   1
loop_
 _symmetry_equiv_pos_site_id
 _symmetry_equiv_pos_as_xyz
  1  'x, y, z'
loop_
 _atom_site_type_symbol
 _atom_site_label
 _atom_site_symmetry_multiplicity
 _atom_site_fract_x
 _atom_site_fract_y
 _atom_site_fract_z
 _atom_site_occupancy
  Ce  Ce0  1  0.135522  0.135522  0.581312  1
  Ce  Ce1  1  0.866051  0.866051  0.417519  1
  Ce  Ce2  1  0.862123  0.862123  0.915224  1
  Ce  Ce3  1  0.134100  0.134100  0.083226  1
  Cd  Cd4  1  0.422895  0.422895  0.646481  1
  Cd  Cd5  1  0.573483  0.573483  0.848913  1
  Cd  Cd6  1  0.578668  0.578668  0.352627  1
  Sn  Sn7  1  0.422321  0.422321  0.151297  1
  Ru  Ru8  1  0.809268  0.809268  0.163417  1
  Ru  Ru9  1  0.198045  0.198045  0.337935  1
  Ru  Ru10  1  0.198704  0.198704  0.841509  1
  Ru  Ru11  1  0.798818  0.798818  0.660539  1
