# generated using pymatgen
data_Ca4Sn4Ir3Pt
_symmetry_space_group_name_H-M   'P 1'
_cell_length_a   4.58496400
_cell_length_b   7.39193351
_cell_length_c   7.95572722
_cell_angle_alpha   89.70258036
_cell_angle_beta   90.00000000
_cell_angle_gamma   90.00000000
_symmetry_Int_Tables_number   1
_chemical_formula_structural   Ca4Sn4Ir3Pt
_chemical_formula_sum   'Ca4 Sn4 Ir3 Pt1'
_cell_volume   269.62987748
_cell_formula_units_Z   1
loop_
 _symmetry_equiv_pos_site_id
 _symmetry_equiv_pos_as_xyz
  1  'x, y, z'
loop_
 _atom_site_type_symbol
 _atom_site_label
 _atom_site_symmetry_multiplicity
 _atom_site_fract_x
 _atom_site_fract_y
 _atom_site_fract_z
 _atom_site_occupancy
  Ca  Ca0  1  0.250000  0.981356  0.316493  1
  Ca  Ca1  1  0.250000  0.480972  0.182584  1
  Ca  Ca2  1  0.750000  0.018434  0.682960  1
  Ca  Ca3  1  0.750000  0.520214  0.819212  1
  Sn  Sn4  1  0.250000  0.336664  0.579852  1
  Sn  Sn5  1  0.250000  0.836936  0.922263  1
  Sn  Sn6  1  0.750000  0.668521  0.424962  1
  Sn  Sn7  1  0.750000  0.161841  0.071140  1
  Ir  Ir8  1  0.250000  0.207861  0.894972  1
  Ir  Ir9  1  0.250000  0.706240  0.605248  1
  Ir  Ir10  1  0.750000  0.791281  0.106680  1
  Pt  Pt11  1  0.750000  0.289681  0.393634  1
