# generated using pymatgen
data_Tb3Th5(Ta3Si4)4
_symmetry_space_group_name_H-M   'P 1'
_cell_length_a   7.11962604
_cell_length_b   7.12132532
_cell_length_c   13.26884800
_cell_angle_alpha   90.07381093
_cell_angle_beta   89.88222354
_cell_angle_gamma   89.92955117
_symmetry_Int_Tables_number   1
_chemical_formula_structural   Tb3Th5(Ta3Si4)4
_chemical_formula_sum   'Tb3 Th5 Ta12 Si16'
_cell_volume   672.74366990
_cell_formula_units_Z   1
loop_
 _symmetry_equiv_pos_site_id
 _symmetry_equiv_pos_as_xyz
  1  'x, y, z'
loop_
 _atom_site_type_symbol
 _atom_site_label
 _atom_site_symmetry_multiplicity
 _atom_site_fract_x
 _atom_site_fract_y
 _atom_site_fract_z
 _atom_site_occupancy
  Tb  Tb0  1  0.001373  0.338441  0.218571  1
  Tb  Tb1  1  0.998934  0.661270  0.716788  1
  Tb  Tb2  1  0.160763  0.500732  0.467525  1
  Th  Th3  1  0.501627  0.836624  0.032242  1
  Th  Th4  1  0.836953  0.502198  0.967813  1
  Th  Th5  1  0.498383  0.163355  0.531943  1
  Th  Th6  1  0.335873  0.998811  0.780856  1
  Th  Th7  1  0.663123  0.001799  0.283173  1
  Ta  Ta8  1  0.168585  0.169678  0.999462  1
  Ta  Ta9  1  0.830411  0.831505  0.499128  1
  Ta  Ta10  1  0.332218  0.669824  0.250785  1
  Ta  Ta11  1  0.667647  0.330480  0.749264  1
  Ta  Ta12  1  0.157621  0.991180  0.375029  1
  Ta  Ta13  1  0.842053  0.007838  0.874323  1
  Ta  Ta14  1  0.507863  0.658034  0.623926  1
  Ta  Ta15  1  0.340984  0.495203  0.875376  1
  Ta  Ta16  1  0.493717  0.341140  0.125539  1
  Ta  Ta17  1  0.658191  0.504675  0.376241  1
  Ta  Ta18  1  0.995378  0.158202  0.625026  1
  Ta  Ta19  1  0.005779  0.840226  0.126646  1
  Si  Si20  1  0.286163  0.043883  0.187034  1
  Si  Si21  1  0.713914  0.957133  0.685557  1
  Si  Si22  1  0.455812  0.786323  0.436758  1
  Si  Si23  1  0.207759  0.537194  0.066393  1
  Si  Si24  1  0.539629  0.210621  0.935794  1
  Si  Si25  1  0.797496  0.462270  0.563784  1
  Si  Si26  1  0.039198  0.295785  0.811277  1
  Si  Si27  1  0.962402  0.702516  0.314535  1
  Si  Si28  1  0.367025  0.300962  0.315995  1
  Si  Si29  1  0.629734  0.702420  0.812510  1
  Si  Si30  1  0.199082  0.866165  0.565316  1
  Si  Si31  1  0.124459  0.797847  0.934005  1
  Si  Si32  1  0.801373  0.128392  0.067528  1
  Si  Si33  1  0.878871  0.206430  0.434202  1
  Si  Si34  1  0.293716  0.379286  0.683359  1
  Si  Si35  1  0.705891  0.621555  0.186293  1
