# generated using pymatgen
data_Li8Ac7SmSi7P
_symmetry_space_group_name_H-M   'P 1'
_cell_length_a   9.20275600
_cell_length_b   9.20275558
_cell_length_c   7.92061700
_cell_angle_alpha   90.00000000
_cell_angle_beta   90.00000000
_cell_angle_gamma   120.00000150
_symmetry_Int_Tables_number   1
_chemical_formula_structural   Li8Ac7SmSi7P
_chemical_formula_sum   'Li8 Ac7 Sm1 Si7 P1'
_cell_volume   580.93217932
_cell_formula_units_Z   1
loop_
 _symmetry_equiv_pos_site_id
 _symmetry_equiv_pos_as_xyz
  1  'x, y, z'
loop_
 _atom_site_type_symbol
 _atom_site_label
 _atom_site_symmetry_multiplicity
 _atom_site_fract_x
 _atom_site_fract_y
 _atom_site_fract_z
 _atom_site_occupancy
  Li  Li0  1  0.834965  0.165035  0.730189  1
  Li  Li1  1  0.834965  0.669930  0.730189  1
  Li  Li2  1  0.330070  0.165035  0.730189  1
  Li  Li3  1  0.166662  0.833338  0.206939  1
  Li  Li4  1  0.166662  0.333323  0.206939  1
  Li  Li5  1  0.666677  0.833338  0.206939  1
  Li  Li6  1  0.666667  0.333333  0.315116  1
  Li  Li7  1  0.333333  0.666667  0.822064  1
  Ac  Ac8  1  0.490050  0.509950  0.503509  1
  Ac  Ac9  1  0.490050  0.980099  0.503509  1
  Ac  Ac10  1  0.019901  0.509950  0.503509  1
  Ac  Ac11  1  0.512136  0.487864  0.002396  1
  Ac  Ac12  1  0.512136  0.024271  0.002396  1
  Ac  Ac13  1  0.975729  0.487864  0.002396  1
  Ac  Ac14  1  0.000000  0.000000  0.496496  1
  Sm  Sm15  1  0.000000  0.000000  0.993972  1
  Si  Si16  1  0.835186  0.164814  0.264931  1
  Si  Si17  1  0.835186  0.670373  0.264931  1
  Si  Si18  1  0.329627  0.164814  0.264931  1
  Si  Si19  1  0.163817  0.836183  0.781725  1
  Si  Si20  1  0.163817  0.327637  0.781725  1
  Si  Si21  1  0.672363  0.836183  0.781725  1
  Si  Si22  1  0.666667  0.333333  0.724892  1
  P  P23  1  0.333333  0.666667  0.236412  1
