# generated using pymatgen
data_CeTm3(Ni2Hg)2
_symmetry_space_group_name_H-M   'P 1'
_cell_length_a   7.33320125
_cell_length_b   7.33320125
_cell_length_c   3.60328600
_cell_angle_alpha   90.00000000
_cell_angle_beta   90.00000000
_cell_angle_gamma   88.50358873
_symmetry_Int_Tables_number   1
_chemical_formula_structural   CeTm3(Ni2Hg)2
_chemical_formula_sum   'Ce1 Tm3 Ni4 Hg2'
_cell_volume   193.70365078
_cell_formula_units_Z   1
loop_
 _symmetry_equiv_pos_site_id
 _symmetry_equiv_pos_as_xyz
  1  'x, y, z'
loop_
 _atom_site_type_symbol
 _atom_site_label
 _atom_site_symmetry_multiplicity
 _atom_site_fract_x
 _atom_site_fract_y
 _atom_site_fract_z
 _atom_site_occupancy
  Ce  Ce0  1  0.324138  0.175861  0.499999  1
  Tm  Tm1  1  0.823616  0.327280  0.499999  1
  Tm  Tm2  1  0.172719  0.676384  0.499999  1
  Tm  Tm3  1  0.676914  0.823086  0.499999  1
  Ni  Ni4  1  0.614847  0.121143  0.000000  1
  Ni  Ni5  1  0.127313  0.372688  0.000000  1
  Ni  Ni6  1  0.884854  0.615146  0.000000  1
  Ni  Ni7  1  0.378858  0.885153  0.000000  1
  Hg  Hg8  1  0.993105  0.996364  0.000000  1
  Hg  Hg9  1  0.503636  0.506895  0.000000  1
