# generated using pymatgen
data_NdV4Bi7O20
_symmetry_space_group_name_H-M   'P 1'
_cell_length_a   3.97257300
_cell_length_b   11.28189714
_cell_length_c   11.19703711
_cell_angle_alpha   89.98299761
_cell_angle_beta   90.00000000
_cell_angle_gamma   90.00000000
_symmetry_Int_Tables_number   1
_chemical_formula_structural   NdV4Bi7O20
_chemical_formula_sum   'Nd1 V4 Bi7 O20'
_cell_volume   501.83057818
_cell_formula_units_Z   1
loop_
 _symmetry_equiv_pos_site_id
 _symmetry_equiv_pos_as_xyz
  1  'x, y, z'
loop_
 _atom_site_type_symbol
 _atom_site_label
 _atom_site_symmetry_multiplicity
 _atom_site_fract_x
 _atom_site_fract_y
 _atom_site_fract_z
 _atom_site_occupancy
  Nd  Nd0  1  0.750000  0.134939  0.066375  1
  V  V1  1  0.250000  0.301574  0.877808  1
  V  V2  1  0.750000  0.698188  0.128055  1
  V  V3  1  0.250000  0.801363  0.628521  1
  V  V4  1  0.750000  0.200386  0.366093  1
  Bi  Bi5  1  0.750000  0.101699  0.731303  1
  Bi  Bi6  1  0.250000  0.897521  0.276485  1
  Bi  Bi7  1  0.750000  0.600082  0.778737  1
  Bi  Bi8  1  0.250000  0.401428  0.219612  1
  Bi  Bi9  1  0.250000  0.362128  0.552723  1
  Bi  Bi10  1  0.750000  0.634902  0.448349  1
  Bi  Bi11  1  0.250000  0.866278  0.945560  1
  O  O12  1  0.250000  0.448556  0.837481  1
  O  O13  1  0.750000  0.550645  0.166267  1
  O  O14  1  0.250000  0.948546  0.663615  1
  O  O15  1  0.750000  0.058966  0.306059  1
  O  O16  1  0.250000  0.201730  0.739192  1
  O  O17  1  0.750000  0.799655  0.264564  1
  O  O18  1  0.250000  0.701681  0.766653  1
  O  O19  1  0.750000  0.298916  0.228633  1
  O  O20  1  0.750000  0.252150  0.878429  1
  O  O21  1  0.250000  0.748386  0.126398  1
  O  O22  1  0.750000  0.750924  0.624919  1
  O  O23  1  0.250000  0.246500  0.370354  1
  O  O24  1  0.250000  0.995386  0.103257  1
  O  O25  1  0.750000  0.002368  0.900636  1
  O  O26  1  0.250000  0.489587  0.398904  1
  O  O27  1  0.750000  0.506312  0.602840  1
  O  O28  1  0.250000  0.250109  0.040462  1
  O  O29  1  0.750000  0.750668  0.968113  1
  O  O30  1  0.250000  0.746840  0.467362  1
  O  O31  1  0.750000  0.251587  0.526241  1
