# generated using pymatgen
data_Cs4NbCrCl12
_symmetry_space_group_name_H-M   'P 1'
_cell_length_a   10.46987068
_cell_length_b   10.50452372
_cell_length_c   12.69382900
_cell_angle_alpha   114.43710171
_cell_angle_beta   114.34737097
_cell_angle_gamma   90.00129564
_symmetry_Int_Tables_number   1
_chemical_formula_structural   Cs4NbCrCl12
_chemical_formula_sum   'Cs8 Nb2 Cr2 Cl24'
_cell_volume   1133.22221137
_cell_formula_units_Z   2
loop_
 _symmetry_equiv_pos_site_id
 _symmetry_equiv_pos_as_xyz
  1  'x, y, z'
loop_
 _atom_site_type_symbol
 _atom_site_label
 _atom_site_symmetry_multiplicity
 _atom_site_fract_x
 _atom_site_fract_y
 _atom_site_fract_z
 _atom_site_occupancy
  Cs  Cs0  1  0.218475  0.000071  0.000051  1
  Cs  Cs1  1  0.781525  0.999929  0.999949  1
  Cs  Cs2  1  0.218522  0.499973  0.000053  1
  Cs  Cs3  1  0.781478  0.500027  0.999947  1
  Cs  Cs4  1  0.000037  0.281871  0.500005  1
  Cs  Cs5  1  0.999963  0.718128  0.499993  1
  Cs  Cs6  1  0.500026  0.282079  0.500028  1
  Cs  Cs7  1  0.499974  0.717920  0.499970  1
  Nb  Nb8  1  0.625004  0.874986  0.250009  1
  Nb  Nb9  1  0.374996  0.125014  0.749992  1
  Cr  Cr10  1  0.124790  0.374986  0.249920  1
  Cr  Cr11  1  0.875210  0.625014  0.750081  1
  Cl  Cl12  1  0.009608  0.259840  0.019739  1
  Cl  Cl13  1  0.509300  0.759263  0.018836  1
  Cl  Cl14  1  0.348788  0.372753  0.245291  1
  Cl  Cl15  1  0.895854  0.372689  0.245263  1
  Cl  Cl16  1  0.623763  0.101303  0.247457  1
  Cl  Cl17  1  0.623599  0.646013  0.247247  1
  Cl  Cl18  1  0.398012  0.876222  0.252563  1
  Cl  Cl19  1  0.854571  0.876341  0.252622  1
  Cl  Cl20  1  0.127067  0.151618  0.254634  1
  Cl  Cl21  1  0.127174  0.603239  0.254777  1
  Cl  Cl22  1  0.740656  0.990734  0.481159  1
  Cl  Cl23  1  0.239950  0.490247  0.480206  1
  Cl  Cl24  1  0.760050  0.509753  0.519794  1
  Cl  Cl25  1  0.259345  0.009267  0.518841  1
  Cl  Cl26  1  0.872826  0.396761  0.745222  1
  Cl  Cl27  1  0.872933  0.848381  0.745365  1
  Cl  Cl28  1  0.145429  0.123659  0.747379  1
  Cl  Cl29  1  0.601988  0.123778  0.747438  1
  Cl  Cl30  1  0.376401  0.353986  0.752752  1
  Cl  Cl31  1  0.376237  0.898697  0.752542  1
  Cl  Cl32  1  0.104147  0.627311  0.754737  1
  Cl  Cl33  1  0.651212  0.627247  0.754709  1
  Cl  Cl34  1  0.490700  0.240737  0.981163  1
  Cl  Cl35  1  0.990392  0.740160  0.980261  1
