# generated using pymatgen
data_Li8Nd7Sm(SnSb3)2
_symmetry_space_group_name_H-M   'P 1'
_cell_length_a   9.58052700
_cell_length_b   9.58052745
_cell_length_c   7.39683000
_cell_angle_alpha   90.00000000
_cell_angle_beta   90.00000000
_cell_angle_gamma   120.00000188
_symmetry_Int_Tables_number   1
_chemical_formula_structural   Li8Nd7Sm(SnSb3)2
_chemical_formula_sum   'Li8 Nd7 Sm1 Sn2 Sb6'
_cell_volume   587.96988119
_cell_formula_units_Z   1
loop_
 _symmetry_equiv_pos_site_id
 _symmetry_equiv_pos_as_xyz
  1  'x, y, z'
loop_
 _atom_site_type_symbol
 _atom_site_label
 _atom_site_symmetry_multiplicity
 _atom_site_fract_x
 _atom_site_fract_y
 _atom_site_fract_z
 _atom_site_occupancy
  Li  Li0  1  0.832873  0.167127  0.721398  1
  Li  Li1  1  0.832873  0.665747  0.721398  1
  Li  Li2  1  0.334253  0.167127  0.721398  1
  Li  Li3  1  0.167039  0.832961  0.220805  1
  Li  Li4  1  0.167039  0.334076  0.220805  1
  Li  Li5  1  0.665924  0.832961  0.220805  1
  Li  Li6  1  0.666667  0.333333  0.316145  1
  Li  Li7  1  0.333333  0.666667  0.816332  1
  Nd  Nd8  1  0.490985  0.509015  0.506886  1
  Nd  Nd9  1  0.490985  0.981971  0.506886  1
  Nd  Nd10  1  0.018029  0.509015  0.506886  1
  Nd  Nd11  1  0.509035  0.490965  0.006872  1
  Nd  Nd12  1  0.509035  0.018070  0.006872  1
  Nd  Nd13  1  0.981930  0.490965  0.006872  1
  Nd  Nd14  1  0.000000  0.000000  0.497960  1
  Sm  Sm15  1  0.000000  0.000000  0.997652  1
  Sn  Sn16  1  0.666667  0.333333  0.740581  1
  Sn  Sn17  1  0.333333  0.666667  0.240956  1
  Sb  Sb18  1  0.834039  0.165961  0.262270  1
  Sb  Sb19  1  0.834039  0.668077  0.262270  1
  Sb  Sb20  1  0.331923  0.165961  0.262270  1
  Sb  Sb21  1  0.165690  0.834310  0.764566  1
  Sb  Sb22  1  0.165690  0.331381  0.764566  1
  Sb  Sb23  1  0.668619  0.834310  0.764566  1
