# generated using pymatgen
data_ZrRe(Ir2Rh)2
_symmetry_space_group_name_H-M   'P 1'
_cell_length_a   5.59815399
_cell_length_b   5.59815390
_cell_length_c   4.46947500
_cell_angle_alpha   90.00000000
_cell_angle_beta   90.00000000
_cell_angle_gamma   120.30621787
_symmetry_Int_Tables_number   1
_chemical_formula_structural   ZrRe(Ir2Rh)2
_chemical_formula_sum   'Zr1 Re1 Ir4 Rh2'
_cell_volume   120.92843929
_cell_formula_units_Z   1
loop_
 _symmetry_equiv_pos_site_id
 _symmetry_equiv_pos_as_xyz
  1  'x, y, z'
loop_
 _atom_site_type_symbol
 _atom_site_label
 _atom_site_symmetry_multiplicity
 _atom_site_fract_x
 _atom_site_fract_y
 _atom_site_fract_z
 _atom_site_occupancy
  Zr  Zr0  1  0.333949  0.666051  0.750000  1
  Re  Re1  1  0.667731  0.332269  0.250000  1
  Ir  Ir2  1  0.158920  0.841080  0.250000  1
  Ir  Ir3  1  0.832096  0.662825  0.750000  1
  Ir  Ir4  1  0.337175  0.167904  0.750000  1
  Ir  Ir5  1  0.830917  0.169083  0.750000  1
  Rh  Rh6  1  0.160731  0.321519  0.250000  1
  Rh  Rh7  1  0.678481  0.839269  0.250000  1
