# generated using pymatgen
data_Tm6NpFe22
_symmetry_space_group_name_H-M   'P 1'
_cell_length_a   8.46269000
_cell_length_b   8.46268866
_cell_length_c   8.46269000
_cell_angle_alpha   119.99999743
_cell_angle_beta   90.00000000
_cell_angle_gamma   119.99999743
_symmetry_Int_Tables_number   1
_chemical_formula_structural   Tm6NpFe22
_chemical_formula_sum   'Tm6 Np1 Fe22'
_cell_volume   428.55864869
_cell_formula_units_Z   1
loop_
 _symmetry_equiv_pos_site_id
 _symmetry_equiv_pos_as_xyz
  1  'x, y, z'
loop_
 _atom_site_type_symbol
 _atom_site_label
 _atom_site_symmetry_multiplicity
 _atom_site_fract_x
 _atom_site_fract_y
 _atom_site_fract_z
 _atom_site_occupancy
  Tm  Tm0  1  0.706165  0.000000  0.293834  1
  Tm  Tm1  1  0.293835  0.000000  0.293835  1
  Tm  Tm2  1  0.293835  0.587670  0.293835  1
  Tm  Tm3  1  0.293834  0.000000  0.706165  1
  Tm  Tm4  1  0.706165  0.000000  0.706165  1
  Tm  Tm5  1  0.706165  0.412331  0.706165  1
  Np  Np6  1  0.000000  0.000000  0.000000  1
  Fe  Fe7  1  0.500001  0.000000  0.000000  1
  Fe  Fe8  1  0.000000  0.500001  0.000000  1
  Fe  Fe9  1  0.500001  0.500001  0.000000  1
  Fe  Fe10  1  0.674580  0.349162  0.023744  1
  Fe  Fe11  1  0.877734  0.755468  0.122266  1
  Fe  Fe12  1  0.366797  0.244531  0.122266  1
  Fe  Fe13  1  0.877734  0.244531  0.122266  1
  Fe  Fe14  1  0.674580  0.349162  0.325419  1
  Fe  Fe15  1  0.674580  0.650838  0.325419  1
  Fe  Fe16  1  0.976256  0.650838  0.325419  1
  Fe  Fe17  1  0.122266  0.244531  0.366797  1
  Fe  Fe18  1  0.000000  0.000000  0.500001  1
  Fe  Fe19  1  0.000000  0.500001  0.500001  1
  Fe  Fe20  1  0.500001  0.500001  0.500001  1
  Fe  Fe21  1  0.877734  0.755468  0.633202  1
  Fe  Fe22  1  0.023744  0.349162  0.674580  1
  Fe  Fe23  1  0.325419  0.349162  0.674580  1
  Fe  Fe24  1  0.325419  0.650838  0.674580  1
  Fe  Fe25  1  0.122266  0.244531  0.877734  1
  Fe  Fe26  1  0.122266  0.755468  0.877734  1
  Fe  Fe27  1  0.633202  0.755468  0.877734  1
  Fe  Fe28  1  0.325419  0.650838  0.976256  1
