# generated using pymatgen
data_Rb6TaBrO5
_symmetry_space_group_name_H-M   'P 1'
_cell_length_a   8.15494702
_cell_length_b   8.15494766
_cell_length_c   8.15494700
_cell_angle_alpha   59.99999864
_cell_angle_beta   59.99999601
_cell_angle_gamma   60.00000231
_symmetry_Int_Tables_number   1
_chemical_formula_structural   Rb6TaBrO5
_chemical_formula_sum   'Rb6 Ta1 Br1 O5'
_cell_volume   383.48506698
_cell_formula_units_Z   1
loop_
 _symmetry_equiv_pos_site_id
 _symmetry_equiv_pos_as_xyz
  1  'x, y, z'
loop_
 _atom_site_type_symbol
 _atom_site_label
 _atom_site_symmetry_multiplicity
 _atom_site_fract_x
 _atom_site_fract_y
 _atom_site_fract_z
 _atom_site_occupancy
  Rb  Rb0  1  0.488539  0.011462  0.011462  1
  Rb  Rb1  1  0.011462  0.488539  0.011462  1
  Rb  Rb2  1  0.488539  0.488539  0.011462  1
  Rb  Rb3  1  0.011462  0.011462  0.488539  1
  Rb  Rb4  1  0.488539  0.011462  0.488539  1
  Rb  Rb5  1  0.011462  0.488539  0.488539  1
  Ta  Ta6  1  0.500000  0.500000  0.500000  1
  Br  Br7  1  0.000000  0.000000  0.000000  1
  O  O8  1  0.250000  0.250000  0.250000  1
  O  O9  1  0.594014  0.594014  0.217959  1
  O  O10  1  0.594014  0.217959  0.594014  1
  O  O11  1  0.217959  0.594014  0.594014  1
  O  O12  1  0.594014  0.594014  0.594014  1
