# generated using pymatgen
data_Dy2Y14In4Ru3Rh
_symmetry_space_group_name_H-M   'P 1'
_cell_length_a   9.72512589
_cell_length_b   9.67331288
_cell_length_c   9.68915812
_cell_angle_alpha   59.86812748
_cell_angle_beta   59.89511745
_cell_angle_gamma   59.93757951
_symmetry_Int_Tables_number   1
_chemical_formula_structural   Dy2Y14In4Ru3Rh
_chemical_formula_sum   'Dy2 Y14 In4 Ru3 Rh1'
_cell_volume   643.06890670
_cell_formula_units_Z   1
loop_
 _symmetry_equiv_pos_site_id
 _symmetry_equiv_pos_as_xyz
  1  'x, y, z'
loop_
 _atom_site_type_symbol
 _atom_site_label
 _atom_site_symmetry_multiplicity
 _atom_site_fract_x
 _atom_site_fract_y
 _atom_site_fract_z
 _atom_site_occupancy
  Dy  Dy0  1  0.692339  0.311419  0.692055  1
  Dy  Dy1  1  0.543295  0.152609  0.151051  1
  Y  Y2  1  0.691702  0.309022  0.307829  1
  Y  Y3  1  0.694994  0.691698  0.309552  1
  Y  Y4  1  0.307905  0.690848  0.308548  1
  Y  Y5  1  0.937117  0.941682  0.561799  1
  Y  Y6  1  0.150092  0.151386  0.545169  1
  Y  Y7  1  0.559254  0.943915  0.558743  1
  Y  Y8  1  0.149042  0.153547  0.149934  1
  Y  Y9  1  0.307519  0.308959  0.691650  1
  Y  Y10  1  0.942363  0.558042  0.557940  1
  Y  Y11  1  0.557586  0.557338  0.942925  1
  Y  Y12  1  0.560736  0.942735  0.938447  1
  Y  Y13  1  0.939168  0.562207  0.939982  1
  Y  Y14  1  0.152134  0.541553  0.151776  1
  Y  Y15  1  0.309627  0.691353  0.694586  1
  In  In16  1  0.917343  0.916839  0.248647  1
  In  In17  1  0.249271  0.916469  0.917127  1
  In  In18  1  0.917213  0.248767  0.917333  1
  In  In19  1  0.919134  0.917778  0.918299  1
  Ru  Ru20  1  0.362232  0.357300  0.359888  1
  Ru  Ru21  1  0.916449  0.357585  0.362354  1
  Ru  Ru22  1  0.363972  0.355339  0.917916  1
  Rh  Rh23  1  0.359510  0.921608  0.356454  1
