# generated using pymatgen
data_Nd2PaCo2
_symmetry_space_group_name_H-M   'P 1'
_cell_length_a   6.14655385
_cell_length_b   6.14655408
_cell_length_c   6.14655439
_cell_angle_alpha   145.81181046
_cell_angle_beta   119.45463197
_cell_angle_gamma   71.40173635
_symmetry_Int_Tables_number   1
_chemical_formula_structural   Nd2PaCo2
_chemical_formula_sum   'Nd2 Pa1 Co2'
_cell_volume   111.77453971
_cell_formula_units_Z   1
loop_
 _symmetry_equiv_pos_site_id
 _symmetry_equiv_pos_as_xyz
  1  'x, y, z'
loop_
 _atom_site_type_symbol
 _atom_site_label
 _atom_site_symmetry_multiplicity
 _atom_site_fract_x
 _atom_site_fract_y
 _atom_site_fract_z
 _atom_site_occupancy
  Nd  Nd0  1  0.307371  0.807371  0.500000  1
  Nd  Nd1  1  0.692629  0.192629  0.500000  1
  Pa  Pa2  1  0.000000  0.000000  0.000000  1
  Co  Co3  1  0.277345  0.500000  0.777345  1
  Co  Co4  1  0.722655  0.500000  0.222655  1
