# generated using pymatgen
data_Ce8Be3Si12Rh
_symmetry_space_group_name_H-M   'P 1'
_cell_length_a   7.99765400
_cell_length_b   7.99765390
_cell_length_c   8.39611900
_cell_angle_alpha   90.00000000
_cell_angle_beta   90.00000000
_cell_angle_gamma   119.99999213
_symmetry_Int_Tables_number   1
_chemical_formula_structural   Ce8Be3Si12Rh
_chemical_formula_sum   'Ce8 Be3 Si12 Rh1'
_cell_volume   465.08728776
_cell_formula_units_Z   1
loop_
 _symmetry_equiv_pos_site_id
 _symmetry_equiv_pos_as_xyz
  1  'x, y, z'
loop_
 _atom_site_type_symbol
 _atom_site_label
 _atom_site_symmetry_multiplicity
 _atom_site_fract_x
 _atom_site_fract_y
 _atom_site_fract_z
 _atom_site_occupancy
  Ce  Ce0  1  0.000000  0.000000  0.250591  1
  Ce  Ce1  1  0.000000  0.000000  0.749366  1
  Ce  Ce2  1  0.498821  0.501179  0.248487  1
  Ce  Ce3  1  0.498821  0.997642  0.248487  1
  Ce  Ce4  1  0.002358  0.501179  0.248487  1
  Ce  Ce5  1  0.498772  0.501228  0.751538  1
  Ce  Ce6  1  0.498772  0.997544  0.751538  1
  Ce  Ce7  1  0.002456  0.501228  0.751538  1
  Be  Be8  1  0.333333  0.666667  0.498569  1
  Be  Be9  1  0.666667  0.333333  0.501049  1
  Be  Be10  1  0.666667  0.333333  0.999845  1
  Si  Si11  1  0.172176  0.827824  0.499293  1
  Si  Si12  1  0.172176  0.344352  0.499293  1
  Si  Si13  1  0.655648  0.827824  0.499293  1
  Si  Si14  1  0.826990  0.173010  0.499775  1
  Si  Si15  1  0.826990  0.653978  0.499775  1
  Si  Si16  1  0.346022  0.173010  0.499775  1
  Si  Si17  1  0.827115  0.172885  0.000276  1
  Si  Si18  1  0.827115  0.654229  0.000276  1
  Si  Si19  1  0.345771  0.172885  0.000276  1
  Si  Si20  1  0.164217  0.835783  0.000333  1
  Si  Si21  1  0.164217  0.328435  0.000333  1
  Si  Si22  1  0.671565  0.835783  0.000333  1
  Rh  Rh23  1  0.333333  0.666667  0.001475  1
