# generated using pymatgen
data_Sc4CuB4SbRh10
_symmetry_space_group_name_H-M   'P 1'
_cell_length_a   9.31777400
_cell_length_b   3.17666900
_cell_length_c   9.31777400
_cell_angle_alpha   90.00000000
_cell_angle_beta   90.00000000
_cell_angle_gamma   90.00000000
_symmetry_Int_Tables_number   1
_chemical_formula_structural   Sc4CuB4SbRh10
_chemical_formula_sum   'Sc4 Cu1 B4 Sb1 Rh10'
_cell_volume   275.80130070
_cell_formula_units_Z   1
loop_
 _symmetry_equiv_pos_site_id
 _symmetry_equiv_pos_as_xyz
  1  'x, y, z'
loop_
 _atom_site_type_symbol
 _atom_site_label
 _atom_site_symmetry_multiplicity
 _atom_site_fract_x
 _atom_site_fract_y
 _atom_site_fract_z
 _atom_site_occupancy
  Sc  Sc0  1  0.670378  0.000000  0.178977  1
  Sc  Sc1  1  0.178977  0.000000  0.329622  1
  Sc  Sc2  1  0.821023  0.000000  0.670378  1
  Sc  Sc3  1  0.329622  0.000000  0.821023  1
  Cu  Cu4  1  0.500001  0.000000  0.500001  1
  B  B5  1  0.382435  0.000000  0.130304  1
  B  B6  1  0.869697  0.000000  0.382435  1
  B  B7  1  0.130304  0.000000  0.617565  1
  B  B8  1  0.617565  0.000000  0.869697  1
  Sb  Sb9  1  0.000000  0.000000  0.000000  1
  Rh  Rh10  1  0.500001  0.499999  0.000000  1
  Rh  Rh11  1  0.221759  0.499999  0.074980  1
  Rh  Rh12  1  0.925020  0.499999  0.221759  1
  Rh  Rh13  1  0.430038  0.499999  0.284912  1
  Rh  Rh14  1  0.715088  0.499999  0.430038  1
  Rh  Rh15  1  0.000000  0.499999  0.500001  1
  Rh  Rh16  1  0.284912  0.499999  0.569963  1
  Rh  Rh17  1  0.569963  0.499999  0.715088  1
  Rh  Rh18  1  0.074980  0.499999  0.778241  1
  Rh  Rh19  1  0.778241  0.499999  0.925020  1
