# generated using pymatgen
data_Hf6Ti3Al13Ir7
_symmetry_space_group_name_H-M   'P 1'
_cell_length_a   8.75100503
_cell_length_b   8.75100435
_cell_length_c   8.75100576
_cell_angle_alpha   59.90193155
_cell_angle_beta   59.90194226
_cell_angle_gamma   59.90194200
_symmetry_Int_Tables_number   1
_chemical_formula_structural   Hf6Ti3Al13Ir7
_chemical_formula_sum   'Hf6 Ti3 Al13 Ir7'
_cell_volume   472.81535181
_cell_formula_units_Z   1
loop_
 _symmetry_equiv_pos_site_id
 _symmetry_equiv_pos_as_xyz
  1  'x, y, z'
loop_
 _atom_site_type_symbol
 _atom_site_label
 _atom_site_symmetry_multiplicity
 _atom_site_fract_x
 _atom_site_fract_y
 _atom_site_fract_z
 _atom_site_occupancy
  Hf  Hf0  1  0.687381  0.687381  0.310363  1
  Hf  Hf1  1  0.314174  0.683778  0.314174  1
  Hf  Hf2  1  0.683778  0.314174  0.314174  1
  Hf  Hf3  1  0.314174  0.314174  0.683778  1
  Hf  Hf4  1  0.687381  0.310363  0.687381  1
  Hf  Hf5  1  0.310363  0.687381  0.687381  1
  Ti  Ti6  1  0.879259  0.879259  0.360921  1
  Ti  Ti7  1  0.879259  0.360921  0.879259  1
  Ti  Ti8  1  0.360921  0.879259  0.879259  1
  Al  Al9  1  0.881671  0.881671  0.881671  1
  Al  Al10  1  0.119150  0.119150  0.641387  1
  Al  Al11  1  0.119150  0.641387  0.119150  1
  Al  Al12  1  0.641387  0.119150  0.119150  1
  Al  Al13  1  0.120882  0.120882  0.120882  1
  Al  Al14  1  0.664718  0.664718  0.009596  1
  Al  Al15  1  0.664718  0.009596  0.664718  1
  Al  Al16  1  0.009596  0.664718  0.664718  1
  Al  Al17  1  0.661367  0.661367  0.661367  1
  Al  Al18  1  0.336954  0.336954  0.989671  1
  Al  Al19  1  0.336954  0.989671  0.336954  1
  Al  Al20  1  0.989671  0.336954  0.336954  1
  Al  Al21  1  0.336241  0.336241  0.336241  1
  Ir  Ir22  1  0.002138  0.002138  0.002138  1
  Ir  Ir23  1  0.999114  0.999114  0.498646  1
  Ir  Ir24  1  0.501727  0.998382  0.501727  1
  Ir  Ir25  1  0.998382  0.501727  0.501727  1
  Ir  Ir26  1  0.501727  0.501727  0.998382  1
  Ir  Ir27  1  0.999114  0.498646  0.999114  1
  Ir  Ir28  1  0.498646  0.999114  0.999114  1
