# generated using pymatgen
data_ZrSeBr8
_symmetry_space_group_name_H-M   'P 1'
_cell_length_a   7.15996945
_cell_length_b   8.35706600
_cell_length_c   6.74384181
_cell_angle_alpha   90.00000000
_cell_angle_beta   107.83698484
_cell_angle_gamma   90.00000000
_symmetry_Int_Tables_number   1
_chemical_formula_structural   ZrSeBr8
_chemical_formula_sum   'Zr1 Se1 Br8'
_cell_volume   384.13001298
_cell_formula_units_Z   1
loop_
 _symmetry_equiv_pos_site_id
 _symmetry_equiv_pos_as_xyz
  1  'x, y, z'
loop_
 _atom_site_type_symbol
 _atom_site_label
 _atom_site_symmetry_multiplicity
 _atom_site_fract_x
 _atom_site_fract_y
 _atom_site_fract_z
 _atom_site_occupancy
  Zr  Zr0  1  0.000000  0.152543  0.750000  1
  Se  Se1  1  0.000000  0.850652  0.250000  1
  Br  Br2  1  0.773079  0.101691  0.989179  1
  Br  Br3  1  0.777785  0.658631  0.039440  1
  Br  Br4  1  0.222214  0.658631  0.460559  1
  Br  Br5  1  0.226922  0.101691  0.510820  1
  Br  Br6  1  0.786673  0.891885  0.505260  1
  Br  Br7  1  0.756149  0.346193  0.527729  1
  Br  Br8  1  0.243851  0.346193  0.972272  1
  Br  Br9  1  0.213328  0.891885  0.994740  1
