# generated using pymatgen
data_Tb2Dy3Bi3O14
_symmetry_space_group_name_H-M   'P 1'
_cell_length_a   6.59900480
_cell_length_b   6.61737910
_cell_length_c   7.75593019
_cell_angle_alpha   106.78354648
_cell_angle_beta   89.65475336
_cell_angle_gamma   98.66607856
_symmetry_Int_Tables_number   1
_chemical_formula_structural   Tb2Dy3Bi3O14
_chemical_formula_sum   'Tb2 Dy3 Bi3 O14'
_cell_volume   320.30617185
_cell_formula_units_Z   1
loop_
 _symmetry_equiv_pos_site_id
 _symmetry_equiv_pos_as_xyz
  1  'x, y, z'
loop_
 _atom_site_type_symbol
 _atom_site_label
 _atom_site_symmetry_multiplicity
 _atom_site_fract_x
 _atom_site_fract_y
 _atom_site_fract_z
 _atom_site_occupancy
  Tb  Tb0  1  0.737216  0.460721  0.112973  1
  Tb  Tb1  1  0.741782  0.478443  0.618270  1
  Dy  Dy2  1  0.461093  0.007007  0.253472  1
  Dy  Dy3  1  0.537719  0.998588  0.750549  1
  Dy  Dy4  1  0.271814  0.535308  0.882398  1
  Bi  Bi5  1  0.994244  0.000206  0.500934  1
  Bi  Bi6  1  0.999626  0.996285  0.997543  1
  Bi  Bi7  1  0.280957  0.531992  0.388337  1
  O  O8  1  0.451632  0.652655  0.165454  1
  O  O9  1  0.554850  0.352819  0.834675  1
  O  O10  1  0.302585  0.919578  0.950649  1
  O  O11  1  0.698465  0.076819  0.050544  1
  O  O12  1  0.297945  0.931744  0.517005  1
  O  O13  1  0.697935  0.084653  0.491685  1
  O  O14  1  0.549737  0.361783  0.343827  1
  O  O15  1  0.459646  0.640079  0.658159  1
  O  O16  1  0.927776  0.661705  0.951370  1
  O  O17  1  0.070853  0.325587  0.027438  1
  O  O18  1  0.067338  0.341755  0.629232  1
  O  O19  1  0.905003  0.664269  0.380308  1
  O  O20  1  0.870509  0.899728  0.725588  1
  O  O21  1  0.121273  0.078276  0.269591  1
