# generated using pymatgen
data_Tb2Ho2FeRu7
_symmetry_space_group_name_H-M   'P 1'
_cell_length_a   5.32255902
_cell_length_b   5.19699533
_cell_length_c   8.92402514
_cell_angle_alpha   89.94618965
_cell_angle_beta   90.00888337
_cell_angle_gamma   120.66766432
_symmetry_Int_Tables_number   1
_chemical_formula_structural   Tb2Ho2FeRu7
_chemical_formula_sum   'Tb2 Ho2 Fe1 Ru7'
_cell_volume   212.32574396
_cell_formula_units_Z   1
loop_
 _symmetry_equiv_pos_site_id
 _symmetry_equiv_pos_as_xyz
  1  'x, y, z'
loop_
 _atom_site_type_symbol
 _atom_site_label
 _atom_site_symmetry_multiplicity
 _atom_site_fract_x
 _atom_site_fract_y
 _atom_site_fract_z
 _atom_site_occupancy
  Tb  Tb0  1  0.668405  0.336549  0.567379  1
  Tb  Tb1  1  0.331634  0.663874  0.434302  1
  Ho  Ho2  1  0.331456  0.663464  0.065473  1
  Ho  Ho3  1  0.668550  0.336853  0.932901  1
  Fe  Fe4  1  0.162948  0.325856  0.750979  1
  Ru  Ru5  1  0.002330  0.005347  0.501631  1
  Ru  Ru6  1  0.002450  0.005649  0.998381  1
  Ru  Ru7  1  0.174189  0.827341  0.751212  1
  Ru  Ru8  1  0.653668  0.827756  0.751175  1
  Ru  Ru9  1  0.832588  0.665572  0.248902  1
  Ru  Ru10  1  0.827423  0.170493  0.248862  1
  Ru  Ru11  1  0.344359  0.171245  0.248801  1
