# generated using pymatgen
data_La4As2S9
_symmetry_space_group_name_H-M   'P 1'
_cell_length_a   7.07638700
_cell_length_b   7.14005500
_cell_length_c   29.49246200
_cell_angle_alpha   90.00000000
_cell_angle_beta   90.00000000
_cell_angle_gamma   90.00000000
_symmetry_Int_Tables_number   1
_chemical_formula_structural   La4As2S9
_chemical_formula_sum   'La16 As8 S36'
_cell_volume   1490.13001182
_cell_formula_units_Z   4
loop_
 _symmetry_equiv_pos_site_id
 _symmetry_equiv_pos_as_xyz
  1  'x, y, z'
loop_
 _atom_site_type_symbol
 _atom_site_label
 _atom_site_symmetry_multiplicity
 _atom_site_fract_x
 _atom_site_fract_y
 _atom_site_fract_z
 _atom_site_occupancy
  La  La0  1  0.703814  0.545095  0.443279  1
  La  La1  1  0.796186  0.045095  0.056721  1
  La  La2  1  0.796186  0.454905  0.943279  1
  La  La3  1  0.703814  0.954905  0.556721  1
  La  La4  1  0.296186  0.454905  0.556721  1
  La  La5  1  0.203814  0.954905  0.943279  1
  La  La6  1  0.203814  0.545095  0.056721  1
  La  La7  1  0.296186  0.045095  0.443279  1
  La  La8  1  0.795522  0.821602  0.292996  1
  La  La9  1  0.704478  0.321602  0.207004  1
  La  La10  1  0.704478  0.178398  0.792996  1
  La  La11  1  0.795522  0.678398  0.707004  1
  La  La12  1  0.204478  0.178398  0.707004  1
  La  La13  1  0.295522  0.678398  0.792996  1
  La  La14  1  0.295522  0.821602  0.207004  1
  La  La15  1  0.204478  0.321602  0.292996  1
  As  As16  1  0.694178  0.574444  0.095608  1
  As  As17  1  0.805822  0.074444  0.404392  1
  As  As18  1  0.805822  0.425556  0.595608  1
  As  As19  1  0.694178  0.925556  0.904392  1
  As  As20  1  0.305822  0.425556  0.904392  1
  As  As21  1  0.194178  0.925556  0.595608  1
  As  As22  1  0.194178  0.574444  0.404392  1
  As  As23  1  0.305822  0.074444  0.095608  1
  S  S24  1  0.937483  0.750000  0.000000  1
  S  S25  1  0.562517  0.250000  0.500000  1
  S  S26  1  0.062517  0.250000  0.000000  1
  S  S27  1  0.437483  0.750000  0.500000  1
  S  S28  1  0.999578  0.073044  0.235570  1
  S  S29  1  0.500422  0.573044  0.264430  1
  S  S30  1  0.500422  0.926956  0.735570  1
  S  S31  1  0.999578  0.426956  0.764430  1
  S  S32  1  0.000422  0.926956  0.764430  1
  S  S33  1  0.499578  0.426956  0.735570  1
  S  S34  1  0.499578  0.073044  0.264430  1
  S  S35  1  0.000422  0.573044  0.235570  1
  S  S36  1  0.918247  0.884064  0.459318  1
  S  S37  1  0.581753  0.384064  0.040682  1
  S  S38  1  0.581753  0.115936  0.959318  1
  S  S39  1  0.918247  0.615936  0.540682  1
  S  S40  1  0.081753  0.115936  0.540682  1
  S  S41  1  0.418247  0.615936  0.959318  1
  S  S42  1  0.418247  0.884064  0.040682  1
  S  S43  1  0.081753  0.384064  0.459318  1
  S  S44  1  0.945835  0.521488  0.356399  1
  S  S45  1  0.554165  0.021488  0.143601  1
  S  S46  1  0.554165  0.478512  0.856399  1
  S  S47  1  0.945835  0.978512  0.643601  1
  S  S48  1  0.054165  0.478512  0.643601  1
  S  S49  1  0.445835  0.978512  0.856399  1
  S  S50  1  0.445835  0.521488  0.143601  1
  S  S51  1  0.054165  0.021488  0.356399  1
  S  S52  1  0.574586  0.870513  0.380128  1
  S  S53  1  0.925414  0.370513  0.119872  1
  S  S54  1  0.925414  0.129487  0.880128  1
  S  S55  1  0.574586  0.629487  0.619872  1
  S  S56  1  0.425414  0.129487  0.619872  1
  S  S57  1  0.074586  0.629487  0.880128  1
  S  S58  1  0.074586  0.870513  0.119872  1
  S  S59  1  0.425414  0.370513  0.380128  1
