# generated using pymatgen
data_Hf6Ti4Ir5Rh
_symmetry_space_group_name_H-M   'P 1'
_cell_length_a   7.90522700
_cell_length_b   7.88978724
_cell_length_c   5.24376900
_cell_angle_alpha   90.00000000
_cell_angle_beta   90.00000000
_cell_angle_gamma   120.06476005
_symmetry_Int_Tables_number   1
_chemical_formula_structural   Hf6Ti4Ir5Rh
_chemical_formula_sum   'Hf6 Ti4 Ir5 Rh1'
_cell_volume   283.05448805
_cell_formula_units_Z   1
loop_
 _symmetry_equiv_pos_site_id
 _symmetry_equiv_pos_as_xyz
  1  'x, y, z'
loop_
 _atom_site_type_symbol
 _atom_site_label
 _atom_site_symmetry_multiplicity
 _atom_site_fract_x
 _atom_site_fract_y
 _atom_site_fract_z
 _atom_site_occupancy
  Hf  Hf0  1  0.244878  0.000000  0.250000  1
  Hf  Hf1  1  0.755623  0.000000  0.750000  1
  Hf  Hf2  1  0.001584  0.245334  0.250000  1
  Hf  Hf3  1  0.999911  0.755245  0.750000  1
  Hf  Hf4  1  0.756250  0.754666  0.250000  1
  Hf  Hf5  1  0.244666  0.244755  0.750000  1
  Ti  Ti6  1  0.332553  0.665861  0.998900  1
  Ti  Ti7  1  0.666693  0.334139  0.998900  1
  Ti  Ti8  1  0.666693  0.334139  0.501100  1
  Ti  Ti9  1  0.332553  0.665861  0.501100  1
  Ir  Ir10  1  0.403407  0.000000  0.750000  1
  Ir  Ir11  1  0.999944  0.596807  0.250000  1
  Ir  Ir12  1  0.998918  0.401873  0.750000  1
  Ir  Ir13  1  0.403137  0.403193  0.250000  1
  Ir  Ir14  1  0.597044  0.598127  0.750000  1
  Rh  Rh15  1  0.596148  0.000000  0.250000  1
