# generated using pymatgen
data_Hf16FeCo3Os4
_symmetry_space_group_name_H-M   'P 1'
_cell_length_a   8.58378927
_cell_length_b   8.58378953
_cell_length_c   8.58378856
_cell_angle_alpha   60.03204359
_cell_angle_beta   60.03205099
_cell_angle_gamma   60.03204240
_symmetry_Int_Tables_number   1
_chemical_formula_structural   Hf16FeCo3Os4
_chemical_formula_sum   'Hf16 Fe1 Co3 Os4'
_cell_volume   447.54579526
_cell_formula_units_Z   1
loop_
 _symmetry_equiv_pos_site_id
 _symmetry_equiv_pos_as_xyz
  1  'x, y, z'
loop_
 _atom_site_type_symbol
 _atom_site_label
 _atom_site_symmetry_multiplicity
 _atom_site_fract_x
 _atom_site_fract_y
 _atom_site_fract_z
 _atom_site_occupancy
  Hf  Hf0  1  0.198326  0.600313  0.600313  1
  Hf  Hf1  1  0.600313  0.198326  0.600313  1
  Hf  Hf2  1  0.600313  0.600313  0.198326  1
  Hf  Hf3  1  0.601521  0.601521  0.601521  1
  Hf  Hf4  1  0.814613  0.814613  0.185890  1
  Hf  Hf5  1  0.185533  0.185533  0.814128  1
  Hf  Hf6  1  0.814613  0.185890  0.814613  1
  Hf  Hf7  1  0.185533  0.814128  0.185533  1
  Hf  Hf8  1  0.185890  0.814613  0.814613  1
  Hf  Hf9  1  0.814128  0.185533  0.185533  1
  Hf  Hf10  1  0.451685  0.451685  0.049848  1
  Hf  Hf11  1  0.044354  0.044354  0.455446  1
  Hf  Hf12  1  0.451685  0.049848  0.451685  1
  Hf  Hf13  1  0.044354  0.455446  0.044354  1
  Hf  Hf14  1  0.049848  0.451685  0.451685  1
  Hf  Hf15  1  0.455446  0.044354  0.044354  1
  Fe  Fe16  1  0.390381  0.390381  0.390381  1
  Co  Co17  1  0.831997  0.389887  0.389887  1
  Co  Co18  1  0.389887  0.831997  0.389887  1
  Co  Co19  1  0.389887  0.389887  0.831997  1
  Os  Os20  1  0.500875  0.832873  0.832873  1
  Os  Os21  1  0.832873  0.500875  0.832873  1
  Os  Os22  1  0.832873  0.832873  0.500875  1
  Os  Os23  1  0.833070  0.833070  0.833070  1
