# generated using pymatgen
data_DyHo2AuO7
_symmetry_space_group_name_H-M   'P 1'
_cell_length_a   6.48535474
_cell_length_b   6.48535556
_cell_length_c   7.42735400
_cell_angle_alpha   90.00000000
_cell_angle_beta   90.00000000
_cell_angle_gamma   108.77229236
_symmetry_Int_Tables_number   1
_chemical_formula_structural   DyHo2AuO7
_chemical_formula_sum   'Dy2 Ho4 Au2 O14'
_cell_volume   295.77549570
_cell_formula_units_Z   2
loop_
 _symmetry_equiv_pos_site_id
 _symmetry_equiv_pos_as_xyz
  1  'x, y, z'
loop_
 _atom_site_type_symbol
 _atom_site_label
 _atom_site_symmetry_multiplicity
 _atom_site_fract_x
 _atom_site_fract_y
 _atom_site_fract_z
 _atom_site_occupancy
  Dy  Dy0  1  0.507613  0.507613  0.500000  1
  Dy  Dy1  1  0.492387  0.492387  0.000000  1
  Ho  Ho2  1  0.002162  0.471227  0.747923  1
  Ho  Ho3  1  0.997838  0.528773  0.247923  1
  Ho  Ho4  1  0.528773  0.997838  0.752077  1
  Ho  Ho5  1  0.471227  0.002162  0.252077  1
  Au  Au6  1  0.998759  0.998759  0.500000  1
  Au  Au7  1  0.001241  0.001241  0.000000  1
  O  O8  1  0.639625  0.360375  0.750000  1
  O  O9  1  0.360375  0.639625  0.250000  1
  O  O10  1  0.919304  0.080696  0.750000  1
  O  O11  1  0.080696  0.919304  0.250000  1
  O  O12  1  0.915524  0.667177  0.523047  1
  O  O13  1  0.084476  0.332823  0.023047  1
  O  O14  1  0.332823  0.084476  0.976953  1
  O  O15  1  0.667177  0.915524  0.476953  1
  O  O16  1  0.367422  0.632578  0.750000  1
  O  O17  1  0.632578  0.367422  0.250000  1
  O  O18  1  0.922418  0.671679  0.973501  1
  O  O19  1  0.077582  0.328321  0.473501  1
  O  O20  1  0.328321  0.077582  0.526499  1
  O  O21  1  0.671679  0.922418  0.026499  1
