# generated using pymatgen
data_YbSm4Sc3(B6Ru)4
_symmetry_space_group_name_H-M   'P 1'
_cell_length_a   3.62356200
_cell_length_b   9.05115903
_cell_length_c   11.46728403
_cell_angle_alpha   90.00861515
_cell_angle_beta   90.00000000
_cell_angle_gamma   90.00000000
_symmetry_Int_Tables_number   1
_chemical_formula_structural   YbSm4Sc3(B6Ru)4
_chemical_formula_sum   'Yb1 Sm4 Sc3 B24 Ru4'
_cell_volume   376.09750876
_cell_formula_units_Z   1
loop_
 _symmetry_equiv_pos_site_id
 _symmetry_equiv_pos_as_xyz
  1  'x, y, z'
loop_
 _atom_site_type_symbol
 _atom_site_label
 _atom_site_symmetry_multiplicity
 _atom_site_fract_x
 _atom_site_fract_y
 _atom_site_fract_z
 _atom_site_occupancy
  Yb  Yb0  1  0.000000  0.556491  0.871935  1
  Sm  Sm1  1  0.000000  0.320445  0.415070  1
  Sm  Sm2  1  0.000000  0.678850  0.586037  1
  Sm  Sm3  1  0.000000  0.820826  0.084674  1
  Sm  Sm4  1  0.000000  0.179545  0.914159  1
  Sc  Sc5  1  0.000000  0.943841  0.372863  1
  Sc  Sc6  1  0.000000  0.055920  0.626633  1
  Sc  Sc7  1  0.000000  0.443605  0.128717  1
  B  B8  1  0.500000  0.555618  0.431272  1
  B  B9  1  0.500000  0.443478  0.568437  1
  B  B10  1  0.500000  0.056574  0.069415  1
  B  B11  1  0.500000  0.946202  0.930652  1
  B  B12  1  0.500000  0.752934  0.417590  1
  B  B13  1  0.500000  0.245970  0.581888  1
  B  B14  1  0.500000  0.252946  0.083346  1
  B  B15  1  0.500000  0.751400  0.916405  1
  B  B16  1  0.500000  0.792217  0.265961  1
  B  B17  1  0.500000  0.206868  0.733012  1
  B  B18  1  0.500000  0.292267  0.234770  1
  B  B19  1  0.500000  0.710543  0.765201  1
  B  B20  1  0.500000  0.627973  0.183560  1
  B  B21  1  0.500000  0.369740  0.814495  1
  B  B22  1  0.500000  0.127338  0.317078  1
  B  B23  1  0.500000  0.873055  0.682994  1
  B  B24  1  0.500000  0.982107  0.215253  1
  B  B25  1  0.500000  0.018764  0.784536  1
  B  B26  1  0.500000  0.482729  0.285475  1
  B  B27  1  0.500000  0.515156  0.712947  1
  B  B28  1  0.500000  0.597461  0.030188  1
  B  B29  1  0.500000  0.399484  0.976697  1
  B  B30  1  0.500000  0.097362  0.473166  1
  B  B31  1  0.500000  0.902266  0.526045  1
  Ru  Ru32  1  0.000000  0.640008  0.319304  1
  Ru  Ru33  1  0.000000  0.356990  0.679728  1
  Ru  Ru34  1  0.000000  0.139319  0.183686  1
  Ru  Ru35  1  0.000000  0.863709  0.816810  1
