# generated using pymatgen
data_Tb16In4Os2RuRh
_symmetry_space_group_name_H-M   'P 1'
_cell_length_a   9.69804481
_cell_length_b   9.73515851
_cell_length_c   9.69976926
_cell_angle_alpha   59.87924451
_cell_angle_beta   59.71435621
_cell_angle_gamma   59.87332664
_symmetry_Int_Tables_number   1
_chemical_formula_structural   Tb16In4Os2RuRh
_chemical_formula_sum   'Tb16 In4 Os2 Ru1 Rh1'
_cell_volume   644.93532702
_cell_formula_units_Z   1
loop_
 _symmetry_equiv_pos_site_id
 _symmetry_equiv_pos_as_xyz
  1  'x, y, z'
loop_
 _atom_site_type_symbol
 _atom_site_label
 _atom_site_symmetry_multiplicity
 _atom_site_fract_x
 _atom_site_fract_y
 _atom_site_fract_z
 _atom_site_occupancy
  Tb  Tb0  1  0.810605  0.805216  0.192498  1
  Tb  Tb1  1  0.808789  0.191642  0.807927  1
  Tb  Tb2  1  0.191106  0.193467  0.809834  1
  Tb  Tb3  1  0.651903  0.046097  0.649949  1
  Tb  Tb4  1  0.058738  0.055926  0.444929  1
  Tb  Tb5  1  0.445669  0.437095  0.059369  1
  Tb  Tb6  1  0.651903  0.652052  0.649949  1
  Tb  Tb7  1  0.810605  0.191681  0.192498  1
  Tb  Tb8  1  0.191106  0.805593  0.809834  1
  Tb  Tb9  1  0.040736  0.653406  0.652451  1
  Tb  Tb10  1  0.445669  0.057867  0.059369  1
  Tb  Tb11  1  0.441368  0.060725  0.437182  1
  Tb  Tb12  1  0.056299  0.444091  0.055519  1
  Tb  Tb13  1  0.652017  0.652333  0.043315  1
  Tb  Tb14  1  0.191430  0.806649  0.195273  1
  Tb  Tb15  1  0.058738  0.440407  0.444929  1
  In  In16  1  0.418422  0.416964  0.418727  1
  In  In17  1  0.417526  0.417743  0.746986  1
  In  In18  1  0.418422  0.745887  0.418727  1
  In  In19  1  0.748465  0.417050  0.417432  1
  Os  Os20  1  0.857187  0.419074  0.859711  1
  Os  Os21  1  0.857187  0.864029  0.859711  1
  Ru  Ru22  1  0.857994  0.863018  0.415972  1
  Rh  Rh23  1  0.418115  0.861989  0.857910  1
