# generated using pymatgen
data_TaGa2Ni7Pt2
_symmetry_space_group_name_H-M   'P 1'
_cell_length_a   3.74758700
_cell_length_b   3.68697900
_cell_length_c   11.00434700
_cell_angle_alpha   90.00000000
_cell_angle_beta   90.00000000
_cell_angle_gamma   90.00000000
_symmetry_Int_Tables_number   1
_chemical_formula_structural   TaGa2Ni7Pt2
_chemical_formula_sum   'Ta1 Ga2 Ni7 Pt2'
_cell_volume   152.05008396
_cell_formula_units_Z   1
loop_
 _symmetry_equiv_pos_site_id
 _symmetry_equiv_pos_as_xyz
  1  'x, y, z'
loop_
 _atom_site_type_symbol
 _atom_site_label
 _atom_site_symmetry_multiplicity
 _atom_site_fract_x
 _atom_site_fract_y
 _atom_site_fract_z
 _atom_site_occupancy
  Ta  Ta0  1  0.000000  0.000000  0.000000  1
  Ga  Ga1  1  0.000000  0.000000  0.348618  1
  Ga  Ga2  1  0.000000  0.000000  0.651382  1
  Ni  Ni3  1  0.500000  0.500000  0.000000  1
  Ni  Ni4  1  0.500000  0.500000  0.344435  1
  Ni  Ni5  1  0.500000  0.500000  0.655565  1
  Ni  Ni6  1  0.500000  0.000000  0.500000  1
  Ni  Ni7  1  0.000000  0.500000  0.171282  1
  Ni  Ni8  1  0.000000  0.500000  0.500000  1
  Ni  Ni9  1  0.000000  0.500000  0.828718  1
  Pt  Pt10  1  0.500000  0.000000  0.175051  1
  Pt  Pt11  1  0.500000  0.000000  0.824949  1
