# generated using pymatgen
data_Dy9Bi4PbO5
_symmetry_space_group_name_H-M   'P 1'
_cell_length_a   10.00075014
_cell_length_b   10.00324517
_cell_length_c   8.99602228
_cell_angle_alpha   90.02095032
_cell_angle_beta   89.98095087
_cell_angle_gamma   89.99835195
_symmetry_Int_Tables_number   1
_chemical_formula_structural   Dy9Bi4PbO5
_chemical_formula_sum   'Dy18 Bi8 Pb2 O10'
_cell_volume   899.96155783
_cell_formula_units_Z   2
loop_
 _symmetry_equiv_pos_site_id
 _symmetry_equiv_pos_as_xyz
  1  'x, y, z'
loop_
 _atom_site_type_symbol
 _atom_site_label
 _atom_site_symmetry_multiplicity
 _atom_site_fract_x
 _atom_site_fract_y
 _atom_site_fract_z
 _atom_site_occupancy
  Dy  Dy0  1  0.501158  0.995235  0.680956  1
  Dy  Dy1  1  0.794483  0.105149  0.334065  1
  Dy  Dy2  1  0.275094  0.082075  0.000968  1
  Dy  Dy3  1  0.582634  0.225403  0.001060  1
  Dy  Dy4  1  0.205929  0.895050  0.334431  1
  Dy  Dy5  1  0.605230  0.705752  0.338989  1
  Dy  Dy6  1  0.293712  0.604967  0.666225  1
  Dy  Dy7  1  0.419017  0.772823  0.999378  1
  Dy  Dy8  1  0.223736  0.416124  0.994565  1
  Dy  Dy9  1  0.891707  0.789044  0.666215  1
  Dy  Dy10  1  0.000030  0.499900  0.324130  1
  Dy  Dy11  1  0.083951  0.723883  0.995534  1
  Dy  Dy12  1  0.916000  0.276606  0.994827  1
  Dy  Dy13  1  0.773119  0.584911  0.992971  1
  Dy  Dy14  1  0.725107  0.916669  0.000013  1
  Dy  Dy15  1  0.394844  0.294414  0.334657  1
  Dy  Dy16  1  0.708378  0.399671  0.665928  1
  Dy  Dy17  1  0.104345  0.210125  0.665934  1
  Bi  Bi18  1  0.905127  0.806369  0.303386  1
  Bi  Bi19  1  0.694132  0.404305  0.302309  1
  Bi  Bi20  1  0.305558  0.595414  0.302665  1
  Bi  Bi21  1  0.805731  0.095374  0.694946  1
  Bi  Bi22  1  0.406542  0.304537  0.695675  1
  Bi  Bi23  1  0.192421  0.905507  0.695345  1
  Bi  Bi24  1  0.095528  0.193932  0.304343  1
  Bi  Bi25  1  0.499797  0.000871  0.320587  1
  Pb  Pb26  1  0.594206  0.694511  0.697401  1
  Pb  Pb27  1  0.001556  0.500324  0.683082  1
  O  O28  1  0.226448  0.878773  0.083677  1
  O  O29  1  0.276082  0.619498  0.916832  1
  O  O30  1  0.119923  0.222650  0.917217  1
  O  O31  1  0.881310  0.777586  0.917941  1
  O  O32  1  0.723580  0.379312  0.916619  1
  O  O33  1  0.498552  0.002279  0.937617  1
  O  O34  1  0.774073  0.120757  0.083240  1
  O  O35  1  0.000808  0.499003  0.065185  1
  O  O36  1  0.378928  0.274609  0.084098  1
  O  O37  1  0.621221  0.726585  0.086991  1
