# generated using pymatgen
data_Zr4Co20Si11P
_symmetry_space_group_name_H-M   'P 1'
_cell_length_a   3.64903300
_cell_length_b   10.32048629
_cell_length_c   11.76115333
_cell_angle_alpha   89.97269822
_cell_angle_beta   90.00000000
_cell_angle_gamma   90.00000000
_symmetry_Int_Tables_number   1
_chemical_formula_structural   Zr4Co20Si11P
_chemical_formula_sum   'Zr4 Co20 Si11 P1'
_cell_volume   442.92257392
_cell_formula_units_Z   1
loop_
 _symmetry_equiv_pos_site_id
 _symmetry_equiv_pos_as_xyz
  1  'x, y, z'
loop_
 _atom_site_type_symbol
 _atom_site_label
 _atom_site_symmetry_multiplicity
 _atom_site_fract_x
 _atom_site_fract_y
 _atom_site_fract_z
 _atom_site_occupancy
  Zr  Zr0  1  0.250000  0.582830  0.702876  1
  Zr  Zr1  1  0.250000  0.918284  0.201557  1
  Zr  Zr2  1  0.750000  0.418053  0.297897  1
  Zr  Zr3  1  0.750000  0.083082  0.795931  1
  Co  Co4  1  0.250000  0.713623  0.992702  1
  Co  Co5  1  0.250000  0.788869  0.492228  1
  Co  Co6  1  0.750000  0.281824  0.009812  1
  Co  Co7  1  0.750000  0.212310  0.505950  1
  Co  Co8  1  0.250000  0.407555  0.489402  1
  Co  Co9  1  0.250000  0.091986  0.992149  1
  Co  Co10  1  0.750000  0.592570  0.510898  1
  Co  Co11  1  0.750000  0.912038  0.012700  1
  Co  Co12  1  0.250000  0.214017  0.175235  1
  Co  Co13  1  0.250000  0.283596  0.676196  1
  Co  Co14  1  0.750000  0.784963  0.825266  1
  Co  Co15  1  0.750000  0.716112  0.323741  1
  Co  Co16  1  0.250000  0.884519  0.698685  1
  Co  Co17  1  0.250000  0.616373  0.198651  1
  Co  Co18  1  0.750000  0.114721  0.297191  1
  Co  Co19  1  0.750000  0.383097  0.802130  1
  Co  Co20  1  0.250000  0.469985  0.929658  1
  Co  Co21  1  0.250000  0.029816  0.427809  1
  Co  Co22  1  0.750000  0.529139  0.071061  1
  Co  Co23  1  0.750000  0.970111  0.569661  1
  Si  Si24  1  0.250000  0.414334  0.112479  1
  Si  Si25  1  0.250000  0.085390  0.610926  1
  Si  Si26  1  0.750000  0.585126  0.888425  1
  Si  Si27  1  0.750000  0.914637  0.387184  1
  Si  Si28  1  0.250000  0.267951  0.871759  1
  Si  Si29  1  0.250000  0.231664  0.370220  1
  Si  Si30  1  0.750000  0.731453  0.128332  1
  Si  Si31  1  0.750000  0.768809  0.629773  1
  Si  Si32  1  0.250000  0.600036  0.390683  1
  Si  Si33  1  0.250000  0.901156  0.890681  1
  Si  Si34  1  0.750000  0.400058  0.609932  1
  P  P35  1  0.750000  0.099912  0.110217  1
