# generated using pymatgen
data_Pr4Mn3Fe(Co4P3)4
_symmetry_space_group_name_H-M   'P 1'
_cell_length_a   3.70735500
_cell_length_b   10.45610315
_cell_length_c   11.94463130
_cell_angle_alpha   89.94632340
_cell_angle_beta   90.00000000
_cell_angle_gamma   90.00000000
_symmetry_Int_Tables_number   1
_chemical_formula_structural   Pr4Mn3Fe(Co4P3)4
_chemical_formula_sum   'Pr4 Mn3 Fe1 Co16 P12'
_cell_volume   463.02729340
_cell_formula_units_Z   1
loop_
 _symmetry_equiv_pos_site_id
 _symmetry_equiv_pos_as_xyz
  1  'x, y, z'
loop_
 _atom_site_type_symbol
 _atom_site_label
 _atom_site_symmetry_multiplicity
 _atom_site_fract_x
 _atom_site_fract_y
 _atom_site_fract_z
 _atom_site_occupancy
  Pr  Pr0  1  0.250000  0.581861  0.702570  1
  Pr  Pr1  1  0.250000  0.917301  0.202540  1
  Pr  Pr2  1  0.750000  0.417296  0.297369  1
  Pr  Pr3  1  0.750000  0.080995  0.797553  1
  Mn  Mn4  1  0.250000  0.794732  0.489534  1
  Mn  Mn5  1  0.750000  0.294130  0.010868  1
  Mn  Mn6  1  0.750000  0.208064  0.511671  1
  Fe  Fe7  1  0.250000  0.707021  0.987858  1
  Co  Co8  1  0.250000  0.404864  0.489844  1
  Co  Co9  1  0.250000  0.095175  0.990582  1
  Co  Co10  1  0.750000  0.594354  0.509265  1
  Co  Co11  1  0.750000  0.904984  0.010401  1
  Co  Co12  1  0.250000  0.222099  0.175577  1
  Co  Co13  1  0.250000  0.278676  0.674569  1
  Co  Co14  1  0.750000  0.778198  0.825680  1
  Co  Co15  1  0.750000  0.721373  0.324332  1
  Co  Co16  1  0.250000  0.882091  0.698155  1
  Co  Co17  1  0.250000  0.618057  0.196989  1
  Co  Co18  1  0.750000  0.117695  0.302100  1
  Co  Co19  1  0.750000  0.382547  0.802404  1
  Co  Co20  1  0.250000  0.467544  0.933605  1
  Co  Co21  1  0.250000  0.032911  0.432943  1
  Co  Co22  1  0.750000  0.533110  0.066392  1
  Co  Co23  1  0.750000  0.967140  0.566435  1
  P  P24  1  0.250000  0.419990  0.110733  1
  P  P25  1  0.250000  0.081047  0.609952  1
  P  P26  1  0.750000  0.581361  0.890044  1
  P  P27  1  0.750000  0.920106  0.389111  1
  P  P28  1  0.250000  0.275673  0.866285  1
  P  P29  1  0.250000  0.224797  0.368327  1
  P  P30  1  0.750000  0.725017  0.131457  1
  P  P31  1  0.750000  0.775668  0.634513  1
  P  P32  1  0.250000  0.603528  0.392382  1
  P  P33  1  0.250000  0.892683  0.895554  1
  P  P34  1  0.750000  0.394434  0.605630  1
  P  P35  1  0.750000  0.103477  0.106777  1
