# generated using pymatgen
data_Er3Tm2Fe3(P3Ru4)4
_symmetry_space_group_name_H-M   'P 1'
_cell_length_a   12.47887700
_cell_length_b   12.47887819
_cell_length_c   3.88658700
_cell_angle_alpha   90.00000000
_cell_angle_beta   90.00000000
_cell_angle_gamma   120.00000480
_symmetry_Int_Tables_number   1
_chemical_formula_structural   Er3Tm2Fe3(P3Ru4)4
_chemical_formula_sum   'Er3 Tm2 Fe3 P12 Ru16'
_cell_volume   524.14331832
_cell_formula_units_Z   1
loop_
 _symmetry_equiv_pos_site_id
 _symmetry_equiv_pos_as_xyz
  1  'x, y, z'
loop_
 _atom_site_type_symbol
 _atom_site_label
 _atom_site_symmetry_multiplicity
 _atom_site_fract_x
 _atom_site_fract_y
 _atom_site_fract_z
 _atom_site_occupancy
  Er  Er0  1  0.181422  0.181422  0.500000  1
  Er  Er1  1  0.818578  0.000000  0.500000  1
  Er  Er2  1  0.000000  0.818578  0.500000  1
  Tm  Tm3  1  0.333333  0.666667  0.000000  1
  Tm  Tm4  1  0.666667  0.333333  0.000000  1
  Fe  Fe5  1  0.717059  0.717059  0.500000  1
  Fe  Fe6  1  0.282941  0.000000  0.500000  1
  Fe  Fe7  1  0.000000  0.282941  0.500000  1
  P  P8  1  0.813908  0.813908  0.000000  1
  P  P9  1  0.186092  0.000000  0.000000  1
  P  P10  1  0.000000  0.186092  0.000000  1
  P  P11  1  0.163189  0.473066  0.500000  1
  P  P12  1  0.526934  0.690123  0.500000  1
  P  P13  1  0.309877  0.836811  0.500000  1
  P  P14  1  0.690123  0.526934  0.500000  1
  P  P15  1  0.836811  0.309877  0.500000  1
  P  P16  1  0.473066  0.163189  0.500000  1
  P  P17  1  0.372786  0.372786  0.000000  1
  P  P18  1  0.627214  0.000000  0.000000  1
  P  P19  1  0.000000  0.627214  0.000000  1
  Ru  Ru20  1  0.557812  0.557812  0.000000  1
  Ru  Ru21  1  0.442188  0.000000  0.000000  1
  Ru  Ru22  1  0.000000  0.442188  0.000000  1
  Ru  Ru23  1  0.181751  0.374654  0.000000  1
  Ru  Ru24  1  0.625346  0.807097  0.000000  1
  Ru  Ru25  1  0.192903  0.818249  0.000000  1
  Ru  Ru26  1  0.807097  0.625346  0.000000  1
  Ru  Ru27  1  0.818249  0.192903  0.000000  1
  Ru  Ru28  1  0.374654  0.181751  0.000000  1
  Ru  Ru29  1  0.363201  0.490298  0.500000  1
  Ru  Ru30  1  0.509702  0.872901  0.500000  1
  Ru  Ru31  1  0.127099  0.636799  0.500000  1
  Ru  Ru32  1  0.872901  0.509702  0.500000  1
  Ru  Ru33  1  0.636799  0.127099  0.500000  1
  Ru  Ru34  1  0.490298  0.363201  0.500000  1
  Ru  Ru35  1  0.000000  0.000000  0.000000  1
