# generated using pymatgen
data_Rb3Li2TiAs3
_symmetry_space_group_name_H-M   'P 1'
_cell_length_a   10.00602200
_cell_length_b   10.00602267
_cell_length_c   17.06032600
_cell_angle_alpha   90.00000000
_cell_angle_beta   90.00000000
_cell_angle_gamma   142.41483869
_symmetry_Int_Tables_number   1
_chemical_formula_structural   Rb3Li2TiAs3
_chemical_formula_sum   'Rb12 Li8 Ti4 As12'
_cell_volume   1041.83116296
_cell_formula_units_Z   4
loop_
 _symmetry_equiv_pos_site_id
 _symmetry_equiv_pos_as_xyz
  1  'x, y, z'
loop_
 _atom_site_type_symbol
 _atom_site_label
 _atom_site_symmetry_multiplicity
 _atom_site_fract_x
 _atom_site_fract_y
 _atom_site_fract_z
 _atom_site_occupancy
  Rb  Rb0  1  0.944750  0.601968  0.835766  1
  Rb  Rb1  1  0.555250  0.898032  0.335766  1
  Rb  Rb2  1  0.398032  0.055250  0.164234  1
  Rb  Rb3  1  0.055250  0.398032  0.164234  1
  Rb  Rb4  1  0.898032  0.555250  0.335766  1
  Rb  Rb5  1  0.444750  0.101968  0.664234  1
  Rb  Rb6  1  0.601968  0.944750  0.835766  1
  Rb  Rb7  1  0.280070  0.280070  0.325863  1
  Rb  Rb8  1  0.780070  0.780070  0.174137  1
  Rb  Rb9  1  0.219930  0.219930  0.825863  1
  Rb  Rb10  1  0.719930  0.719930  0.674137  1
  Rb  Rb11  1  0.101968  0.444750  0.664234  1
  Li  Li12  1  0.919164  0.080836  0.000000  1
  Li  Li13  1  0.580836  0.419164  0.500000  1
  Li  Li14  1  0.080836  0.919164  0.000000  1
  Li  Li15  1  0.419164  0.580836  0.500000  1
  Li  Li16  1  0.751487  0.248513  0.000000  1
  Li  Li17  1  0.748513  0.251487  0.500000  1
  Li  Li18  1  0.248513  0.751487  0.000000  1
  Li  Li19  1  0.251487  0.748513  0.500000  1
  Ti  Ti20  1  0.586706  0.413294  0.000000  1
  Ti  Ti21  1  0.913294  0.086706  0.500000  1
  Ti  Ti22  1  0.413294  0.586706  0.000000  1
  Ti  Ti23  1  0.086706  0.913294  0.500000  1
  As  As24  1  0.887585  0.567109  0.082609  1
  As  As25  1  0.432891  0.112415  0.917391  1
  As  As26  1  0.612415  0.932891  0.582609  1
  As  As27  1  0.932891  0.612415  0.582609  1
  As  As28  1  0.112415  0.432891  0.917391  1
  As  As29  1  0.567109  0.887585  0.082609  1
  As  As30  1  0.387585  0.067109  0.417391  1
  As  As31  1  0.216328  0.216328  0.580009  1
  As  As32  1  0.716328  0.716328  0.919991  1
  As  As33  1  0.283672  0.283672  0.080009  1
  As  As34  1  0.067109  0.387585  0.417391  1
  As  As35  1  0.783672  0.783672  0.419991  1
