# generated using pymatgen
data_Pr3Ho(Lu4Bi3)4
_symmetry_space_group_name_H-M   'P 1'
_cell_length_a   8.22967501
_cell_length_b   9.41657200
_cell_length_c   11.98151800
_cell_angle_alpha   90.00025555
_cell_angle_beta   90.00274481
_cell_angle_gamma   90.00307281
_symmetry_Int_Tables_number   1
_chemical_formula_structural   Pr3Ho(Lu4Bi3)4
_chemical_formula_sum   'Pr3 Ho1 Lu16 Bi12'
_cell_volume   928.51165625
_cell_formula_units_Z   1
loop_
 _symmetry_equiv_pos_site_id
 _symmetry_equiv_pos_as_xyz
  1  'x, y, z'
loop_
 _atom_site_type_symbol
 _atom_site_label
 _atom_site_symmetry_multiplicity
 _atom_site_fract_x
 _atom_site_fract_y
 _atom_site_fract_z
 _atom_site_occupancy
  Pr  Pr0  1  0.318541  0.249985  0.218473  1
  Pr  Pr1  1  0.817466  0.250012  0.281013  1
  Pr  Pr2  1  0.682476  0.749997  0.781807  1
  Ho  Ho3  1  0.184668  0.749970  0.716727  1
  Lu  Lu4  1  0.351670  0.749976  0.219476  1
  Lu  Lu5  1  0.852543  0.749926  0.281069  1
  Lu  Lu6  1  0.646245  0.250170  0.778848  1
  Lu  Lu7  1  0.148243  0.250094  0.720174  1
  Lu  Lu8  1  0.688961  0.568020  0.062120  1
  Lu  Lu9  1  0.191110  0.932684  0.438371  1
  Lu  Lu10  1  0.310544  0.067422  0.937417  1
  Lu  Lu11  1  0.808527  0.433007  0.562233  1
  Lu  Lu12  1  0.310567  0.432574  0.937420  1
  Lu  Lu13  1  0.808476  0.066976  0.562229  1
  Lu  Lu14  1  0.688977  0.931977  0.062117  1
  Lu  Lu15  1  0.191069  0.567299  0.438367  1
  Lu  Lu16  1  0.478432  0.250000  0.490142  1
  Lu  Lu17  1  0.980582  0.249986  0.009952  1
  Lu  Lu18  1  0.520702  0.749972  0.512752  1
  Lu  Lu19  1  0.019673  0.749993  0.988491  1
  Bi  Bi20  1  0.396354  0.750004  0.963099  1
  Bi  Bi21  1  0.904432  0.750006  0.538451  1
  Bi  Bi22  1  0.601741  0.249985  0.034181  1
  Bi  Bi23  1  0.099179  0.249975  0.465473  1
  Bi  Bi24  1  0.566163  0.989212  0.329971  1
  Bi  Bi25  1  0.065720  0.510303  0.170950  1
  Bi  Bi26  1  0.429283  0.492524  0.672005  1
  Bi  Bi27  1  0.938258  0.007675  0.826847  1
  Bi  Bi28  1  0.429295  0.007499  0.672021  1
  Bi  Bi29  1  0.938251  0.492348  0.826867  1
  Bi  Bi30  1  0.566153  0.510765  0.329971  1
  Bi  Bi31  1  0.065700  0.989666  0.170967  1
