# generated using pymatgen
data_Dy3Er3(TmPt2)2
_symmetry_space_group_name_H-M   'P 1'
_cell_length_a   4.74829900
_cell_length_b   7.10526304
_cell_length_c   8.72609700
_cell_angle_alpha   89.96763118
_cell_angle_beta   90.00000000
_cell_angle_gamma   90.00000000
_symmetry_Int_Tables_number   1
_chemical_formula_structural   Dy3Er3(TmPt2)2
_chemical_formula_sum   'Dy3 Er3 Tm2 Pt4'
_cell_volume   294.40025779
_cell_formula_units_Z   1
loop_
 _symmetry_equiv_pos_site_id
 _symmetry_equiv_pos_as_xyz
  1  'x, y, z'
loop_
 _atom_site_type_symbol
 _atom_site_label
 _atom_site_symmetry_multiplicity
 _atom_site_fract_x
 _atom_site_fract_y
 _atom_site_fract_z
 _atom_site_occupancy
  Dy  Dy0  1  0.250000  0.510486  0.170392  1
  Dy  Dy1  1  0.750000  0.989423  0.669476  1
  Dy  Dy2  1  0.750000  0.489595  0.830071  1
  Er  Er3  1  0.250000  0.144034  0.921310  1
  Er  Er4  1  0.250000  0.644500  0.578678  1
  Er  Er5  1  0.250000  0.010716  0.331123  1
  Tm  Tm6  1  0.750000  0.855988  0.080004  1
  Tm  Tm7  1  0.750000  0.355132  0.420796  1
  Pt  Pt8  1  0.250000  0.242641  0.591700  1
  Pt  Pt9  1  0.250000  0.742880  0.906928  1
  Pt  Pt10  1  0.750000  0.757972  0.405837  1
  Pt  Pt11  1  0.750000  0.256633  0.093685  1
