# generated using pymatgen
data_Ac4Ir5Cl2
_symmetry_space_group_name_H-M   'P 1'
_cell_length_a   11.80937834
_cell_length_b   11.80937578
_cell_length_c   4.36704200
_cell_angle_alpha   90.00000000
_cell_angle_beta   90.00000000
_cell_angle_gamma   93.32189539
_symmetry_Int_Tables_number   1
_chemical_formula_structural   Ac4Ir5Cl2
_chemical_formula_sum   'Ac8 Ir10 Cl4'
_cell_volume   608.01040123
_cell_formula_units_Z   2
loop_
 _symmetry_equiv_pos_site_id
 _symmetry_equiv_pos_as_xyz
  1  'x, y, z'
loop_
 _atom_site_type_symbol
 _atom_site_label
 _atom_site_symmetry_multiplicity
 _atom_site_fract_x
 _atom_site_fract_y
 _atom_site_fract_z
 _atom_site_occupancy
  Ac  Ac0  1  0.729680  0.729680  0.000000  1
  Ac  Ac1  1  0.036655  0.662564  0.500000  1
  Ac  Ac2  1  0.375492  0.624508  0.000000  1
  Ac  Ac3  1  0.963345  0.337436  0.500000  1
  Ac  Ac4  1  0.270320  0.270320  0.000000  1
  Ac  Ac5  1  0.624508  0.375492  0.000000  1
  Ac  Ac6  1  0.662564  0.036655  0.500000  1
  Ac  Ac7  1  0.337436  0.963345  0.500000  1
  Ir  Ir8  1  0.576126  0.576126  0.500000  1
  Ir  Ir9  1  0.423874  0.423874  0.500000  1
  Ir  Ir10  1  0.218258  0.468126  0.500000  1
  Ir  Ir11  1  0.781742  0.531874  0.500000  1
  Ir  Ir12  1  0.517891  0.889171  0.000000  1
  Ir  Ir13  1  0.531874  0.781742  0.500000  1
  Ir  Ir14  1  0.482109  0.110829  0.000000  1
  Ir  Ir15  1  0.110829  0.482109  0.000000  1
  Ir  Ir16  1  0.468126  0.218258  0.500000  1
  Ir  Ir17  1  0.889171  0.517891  0.000000  1
  Cl  Cl18  1  0.876547  0.876547  0.500000  1
  Cl  Cl19  1  0.170730  0.829270  0.000000  1
  Cl  Cl20  1  0.123453  0.123453  0.500000  1
  Cl  Cl21  1  0.829270  0.170730  0.000000  1
