# generated using pymatgen
data_Sc8Ta3Ti4Si16W5
_symmetry_space_group_name_H-M   'P 1'
_cell_length_a   6.60524861
_cell_length_b   6.80156670
_cell_length_c   12.94515280
_cell_angle_alpha   89.96512389
_cell_angle_beta   90.03930340
_cell_angle_gamma   89.95273089
_symmetry_Int_Tables_number   1
_chemical_formula_structural   Sc8Ta3Ti4Si16W5
_chemical_formula_sum   'Sc8 Ta3 Ti4 Si16 W5'
_cell_volume   581.57399682
_cell_formula_units_Z   1
loop_
 _symmetry_equiv_pos_site_id
 _symmetry_equiv_pos_as_xyz
  1  'x, y, z'
loop_
 _atom_site_type_symbol
 _atom_site_label
 _atom_site_symmetry_multiplicity
 _atom_site_fract_x
 _atom_site_fract_y
 _atom_site_fract_z
 _atom_site_occupancy
  Sc  Sc0  1  0.497645  0.672931  0.593785  1
  Sc  Sc1  1  0.998728  0.827014  0.905564  1
  Sc  Sc2  1  0.501341  0.326324  0.094280  1
  Sc  Sc3  1  0.001229  0.173757  0.406951  1
  Sc  Sc4  1  0.501087  0.325068  0.406310  1
  Sc  Sc5  1  0.999655  0.174026  0.093598  1
  Sc  Sc6  1  0.499334  0.673777  0.906127  1
  Sc  Sc7  1  0.000308  0.824386  0.593138  1
  Ta  Ta8  1  0.332415  0.829835  0.375526  1
  Ta  Ta9  1  0.833849  0.670273  0.126215  1
  Ta  Ta10  1  0.666584  0.170861  0.872672  1
  Ti  Ti11  1  0.664952  0.170611  0.625096  1
  Ti  Ti12  1  0.166868  0.329113  0.873321  1
  Ti  Ti13  1  0.333025  0.829093  0.125914  1
  Ti  Ti14  1  0.834479  0.669130  0.374880  1
  Si  Si15  1  0.670780  0.964393  0.459917  1
  Si  Si16  1  0.171035  0.534894  0.039969  1
  Si  Si17  1  0.329089  0.035438  0.959848  1
  Si  Si18  1  0.832884  0.463719  0.541434  1
  Si  Si19  1  0.330960  0.038884  0.542426  1
  Si  Si20  1  0.833575  0.465040  0.958843  1
  Si  Si21  1  0.666078  0.965484  0.040966  1
  Si  Si22  1  0.167918  0.534263  0.460706  1
  Si  Si23  1  0.463417  0.388091  0.748748  1
  Si  Si24  1  0.967327  0.114094  0.747626  1
  Si  Si25  1  0.534444  0.612040  0.250391  1
  Si  Si26  1  0.034206  0.888572  0.250691  1
  Si  Si27  1  0.704489  0.857614  0.748235  1
  Si  Si28  1  0.202224  0.641527  0.750869  1
  Si  Si29  1  0.295895  0.142091  0.249286  1
  Si  Si30  1  0.796256  0.356999  0.251165  1
  W  W31  1  0.168416  0.332330  0.625900  1
  W  W32  1  0.839309  0.491832  0.748617  1
  W  W33  1  0.340616  0.007635  0.749707  1
  W  W34  1  0.159859  0.506777  0.250474  1
  W  W35  1  0.659730  0.992085  0.250803  1
