# generated using pymatgen
data_TbHo2Mg(AlPt)4
_symmetry_space_group_name_H-M   'P 1'
_cell_length_a   4.34282900
_cell_length_b   6.83737966
_cell_length_c   7.73391583
_cell_angle_alpha   92.58136877
_cell_angle_beta   90.00000000
_cell_angle_gamma   90.00000000
_symmetry_Int_Tables_number   1
_chemical_formula_structural   TbHo2Mg(AlPt)4
_chemical_formula_sum   'Tb1 Ho2 Mg1 Al4 Pt4'
_cell_volume   229.41454568
_cell_formula_units_Z   1
loop_
 _symmetry_equiv_pos_site_id
 _symmetry_equiv_pos_as_xyz
  1  'x, y, z'
loop_
 _atom_site_type_symbol
 _atom_site_label
 _atom_site_symmetry_multiplicity
 _atom_site_fract_x
 _atom_site_fract_y
 _atom_site_fract_z
 _atom_site_occupancy
  Tb  Tb0  1  0.250000  0.528170  0.817283  1
  Ho  Ho1  1  0.750000  0.974351  0.330268  1
  Ho  Ho2  1  0.750000  0.468933  0.179822  1
  Mg  Mg3  1  0.250000  0.028082  0.676857  1
  Al  Al4  1  0.250000  0.137844  0.054827  1
  Al  Al5  1  0.250000  0.648640  0.440155  1
  Al  Al6  1  0.750000  0.860085  0.937084  1
  Al  Al7  1  0.750000  0.355707  0.563273  1
  Pt  Pt8  1  0.250000  0.272622  0.382133  1
  Pt  Pt9  1  0.250000  0.773702  0.126338  1
  Pt  Pt10  1  0.750000  0.731180  0.619606  1
  Pt  Pt11  1  0.750000  0.220684  0.872356  1
