# generated using pymatgen
data_TbDy3(Zn4Ru)2
_symmetry_space_group_name_H-M   'P 1'
_cell_length_a   6.97669100
_cell_length_b   6.97669100
_cell_length_c   5.32331500
_cell_angle_alpha   90.00000000
_cell_angle_beta   90.00000000
_cell_angle_gamma   90.00000000
_symmetry_Int_Tables_number   1
_chemical_formula_structural   TbDy3(Zn4Ru)2
_chemical_formula_sum   'Tb1 Dy3 Zn8 Ru2'
_cell_volume   259.10819112
_cell_formula_units_Z   1
loop_
 _symmetry_equiv_pos_site_id
 _symmetry_equiv_pos_as_xyz
  1  'x, y, z'
loop_
 _atom_site_type_symbol
 _atom_site_label
 _atom_site_symmetry_multiplicity
 _atom_site_fract_x
 _atom_site_fract_y
 _atom_site_fract_z
 _atom_site_occupancy
  Tb  Tb0  1  0.000000  0.500000  0.767517  1
  Dy  Dy1  1  0.000000  0.000000  0.000038  1
  Dy  Dy2  1  0.500000  0.000000  0.232652  1
  Dy  Dy3  1  0.500000  0.500000  0.000038  1
  Zn  Zn4  1  0.187395  0.687395  0.290891  1
  Zn  Zn5  1  0.812605  0.687395  0.290891  1
  Zn  Zn6  1  0.812605  0.312605  0.290891  1
  Zn  Zn7  1  0.312758  0.187242  0.709046  1
  Zn  Zn8  1  0.187395  0.312605  0.290891  1
  Zn  Zn9  1  0.687242  0.187242  0.709046  1
  Zn  Zn10  1  0.687242  0.812758  0.709046  1
  Zn  Zn11  1  0.312758  0.812758  0.709046  1
  Ru  Ru12  1  0.500000  0.500000  0.500003  1
  Ru  Ru13  1  0.000000  0.000000  0.500003  1
