# generated using pymatgen
data_K2CoP2Os
_symmetry_space_group_name_H-M   'P 1'
_cell_length_a   3.87843200
_cell_length_b   3.87843200
_cell_length_c   10.96398800
_cell_angle_alpha   90.00000000
_cell_angle_beta   90.00000000
_cell_angle_gamma   90.00000000
_symmetry_Int_Tables_number   1
_chemical_formula_structural   K2CoP2Os
_chemical_formula_sum   'K2 Co1 P2 Os1'
_cell_volume   164.92288161
_cell_formula_units_Z   1
loop_
 _symmetry_equiv_pos_site_id
 _symmetry_equiv_pos_as_xyz
  1  'x, y, z'
loop_
 _atom_site_type_symbol
 _atom_site_label
 _atom_site_symmetry_multiplicity
 _atom_site_fract_x
 _atom_site_fract_y
 _atom_site_fract_z
 _atom_site_occupancy
  K  K0  1  0.000000  0.500000  0.283106  1
  K  K1  1  0.500000  0.000000  0.716894  1
  Co  Co2  1  0.500000  0.500000  0.000000  1
  P  P3  1  0.000000  0.500000  0.888154  1
  P  P4  1  0.500000  0.000000  0.111846  1
  Os  Os5  1  0.000000  0.000000  0.000000  1
