# generated using pymatgen
data_Ho3Zn3CuGe2
_symmetry_space_group_name_H-M   'P 1'
_cell_length_a   6.83578600
_cell_length_b   6.83578571
_cell_length_c   4.26569200
_cell_angle_alpha   90.00000000
_cell_angle_beta   90.00000000
_cell_angle_gamma   120.00000139
_symmetry_Int_Tables_number   1
_chemical_formula_structural   Ho3Zn3CuGe2
_chemical_formula_sum   'Ho3 Zn3 Cu1 Ge2'
_cell_volume   172.62234757
_cell_formula_units_Z   1
loop_
 _symmetry_equiv_pos_site_id
 _symmetry_equiv_pos_as_xyz
  1  'x, y, z'
loop_
 _atom_site_type_symbol
 _atom_site_label
 _atom_site_symmetry_multiplicity
 _atom_site_fract_x
 _atom_site_fract_y
 _atom_site_fract_z
 _atom_site_occupancy
  Ho  Ho0  1  0.413973  0.000000  0.000000  1
  Ho  Ho1  1  0.000000  0.413974  0.000000  1
  Ho  Ho2  1  0.586027  0.586027  0.000000  1
  Zn  Zn3  1  0.767357  0.000000  0.499999  1
  Zn  Zn4  1  0.232644  0.232643  0.499999  1
  Zn  Zn5  1  0.000000  0.767358  0.499999  1
  Cu  Cu6  1  0.000000  0.000000  0.000000  1
  Ge  Ge7  1  0.666667  0.333334  0.499999  1
  Ge  Ge8  1  0.333334  0.666667  0.499999  1
