# generated using pymatgen
data_TbYLu6In3Co
_symmetry_space_group_name_H-M   'P 1'
_cell_length_a   10.17437000
_cell_length_b   10.17008287
_cell_length_c   6.96449302
_cell_angle_alpha   90.00825647
_cell_angle_beta   90.00000000
_cell_angle_gamma   120.01395854
_symmetry_Int_Tables_number   1
_chemical_formula_structural   TbYLu6In3Co
_chemical_formula_sum   'Tb2 Y2 Lu12 In6 Co2'
_cell_volume   624.00928097
_cell_formula_units_Z   2
loop_
 _symmetry_equiv_pos_site_id
 _symmetry_equiv_pos_as_xyz
  1  'x, y, z'
loop_
 _atom_site_type_symbol
 _atom_site_label
 _atom_site_symmetry_multiplicity
 _atom_site_fract_x
 _atom_site_fract_y
 _atom_site_fract_z
 _atom_site_occupancy
  Tb  Tb0  1  0.465931  0.534520  0.482698  1
  Tb  Tb1  1  0.068590  0.534520  0.482698  1
  Y  Y2  1  0.000046  0.000092  0.495678  1
  Y  Y3  1  0.000073  0.000147  0.995070  1
  Lu  Lu4  1  0.465107  0.930212  0.481826  1
  Lu  Lu5  1  0.535661  0.464396  0.982275  1
  Lu  Lu6  1  0.928734  0.464396  0.982275  1
  Lu  Lu7  1  0.535314  0.070629  0.982113  1
  Lu  Lu8  1  0.819199  0.179223  0.276184  1
  Lu  Lu9  1  0.360024  0.179223  0.276184  1
  Lu  Lu10  1  0.820197  0.640394  0.275600  1
  Lu  Lu11  1  0.180521  0.820816  0.777899  1
  Lu  Lu12  1  0.640295  0.820816  0.777899  1
  Lu  Lu13  1  0.179465  0.358930  0.778733  1
  Lu  Lu14  1  0.333748  0.667496  0.089290  1
  Lu  Lu15  1  0.666236  0.332471  0.590611  1
  In  In16  1  0.163648  0.837559  0.233382  1
  In  In17  1  0.673910  0.837559  0.233382  1
  In  In18  1  0.162638  0.325277  0.232831  1
  In  In19  1  0.836626  0.163253  0.734053  1
  In  In20  1  0.326629  0.163253  0.734053  1
  In  In21  1  0.836610  0.673219  0.734720  1
  Co  Co22  1  0.334116  0.668232  0.708123  1
  Co  Co23  1  0.666684  0.333367  0.206974  1
