# generated using pymatgen
data_Tb2Ho4PtI10
_symmetry_space_group_name_H-M   'P 1'
_cell_length_a   7.72584815
_cell_length_b   9.73109604
_cell_length_c   9.78977037
_cell_angle_alpha   107.24134986
_cell_angle_beta   96.90279446
_cell_angle_gamma   104.75883622
_symmetry_Int_Tables_number   1
_chemical_formula_structural   Tb2Ho4PtI10
_chemical_formula_sum   'Tb2 Ho4 Pt1 I10'
_cell_volume   664.30513846
_cell_formula_units_Z   1
loop_
 _symmetry_equiv_pos_site_id
 _symmetry_equiv_pos_as_xyz
  1  'x, y, z'
loop_
 _atom_site_type_symbol
 _atom_site_label
 _atom_site_symmetry_multiplicity
 _atom_site_fract_x
 _atom_site_fract_y
 _atom_site_fract_z
 _atom_site_occupancy
  Tb  Tb0  1  0.884447  0.959142  0.241983  1
  Tb  Tb1  1  0.115553  0.040858  0.758017  1
  Ho  Ho2  1  0.347041  0.125080  0.165043  1
  Ho  Ho3  1  0.652959  0.874920  0.834957  1
  Ho  Ho4  1  0.971495  0.285640  0.086401  1
  Ho  Ho5  1  0.028505  0.714360  0.913599  1
  Pt  Pt6  1  0.000000  0.000000  0.000000  1
  I  I7  1  0.354877  0.452649  0.272221  1
  I  I8  1  0.645123  0.547351  0.727779  1
  I  I9  1  0.915034  0.625858  0.177890  1
  I  I10  1  0.084966  0.374142  0.822110  1
  I  I11  1  0.452458  0.817173  0.090842  1
  I  I12  1  0.547542  0.182827  0.909158  1
  I  I13  1  0.261440  0.088155  0.462114  1
  I  I14  1  0.738560  0.911845  0.537886  1
  I  I15  1  0.778689  0.260008  0.346224  1
  I  I16  1  0.221311  0.739992  0.653776  1
