# generated using pymatgen
data_Zr8Nb11Si16Au
_symmetry_space_group_name_H-M   'P 1'
_cell_length_a   6.90952166
_cell_length_b   6.90952166
_cell_length_c   12.74936188
_cell_angle_alpha   89.69647333
_cell_angle_beta   90.30352667
_cell_angle_gamma   90.04652129
_symmetry_Int_Tables_number   1
_chemical_formula_structural   Zr8Nb11Si16Au
_chemical_formula_sum   'Zr8 Nb11 Si16 Au1'
_cell_volume   608.65625903
_cell_formula_units_Z   1
loop_
 _symmetry_equiv_pos_site_id
 _symmetry_equiv_pos_as_xyz
  1  'x, y, z'
loop_
 _atom_site_type_symbol
 _atom_site_label
 _atom_site_symmetry_multiplicity
 _atom_site_fract_x
 _atom_site_fract_y
 _atom_site_fract_z
 _atom_site_occupancy
  Zr  Zr0  1  0.000999  0.657332  0.031800  1
  Zr  Zr1  1  0.999652  0.340724  0.532900  1
  Zr  Zr2  1  0.657332  0.000999  0.968200  1
  Zr  Zr3  1  0.158429  0.501469  0.781449  1
  Zr  Zr4  1  0.844581  0.494530  0.281495  1
  Zr  Zr5  1  0.501469  0.158429  0.218551  1
  Zr  Zr6  1  0.494530  0.844581  0.718505  1
  Zr  Zr7  1  0.340724  0.999652  0.467100  1
  Nb  Nb8  1  0.344482  0.501812  0.375913  1
  Nb  Nb9  1  0.849115  0.999904  0.372356  1
  Nb  Nb10  1  0.004016  0.152528  0.127287  1
  Nb  Nb11  1  0.999904  0.849115  0.627644  1
  Nb  Nb12  1  0.650754  0.496597  0.877045  1
  Nb  Nb13  1  0.501812  0.344482  0.624087  1
  Nb  Nb14  1  0.496597  0.650754  0.122955  1
  Nb  Nb15  1  0.152528  0.004016  0.872713  1
  Nb  Nb16  1  0.830394  0.171781  0.749518  1
  Nb  Nb17  1  0.171781  0.830394  0.250482  1
  Nb  Nb18  1  0.329150  0.329150  0.000000  1
  Si  Si19  1  0.054278  0.708887  0.437799  1
  Si  Si20  1  0.954148  0.297134  0.936852  1
  Si  Si21  1  0.708887  0.054278  0.562201  1
  Si  Si22  1  0.203618  0.454303  0.187327  1
  Si  Si23  1  0.796587  0.546182  0.687603  1
  Si  Si24  1  0.454303  0.203618  0.812673  1
  Si  Si25  1  0.546182  0.796587  0.312397  1
  Si  Si26  1  0.297134  0.954148  0.063148  1
  Si  Si27  1  0.862464  0.791657  0.822093  1
  Si  Si28  1  0.136278  0.207944  0.323301  1
  Si  Si29  1  0.791657  0.862464  0.177907  1
  Si  Si30  1  0.284335  0.629123  0.574044  1
  Si  Si31  1  0.708417  0.363640  0.073096  1
  Si  Si32  1  0.629123  0.284335  0.425956  1
  Si  Si33  1  0.363640  0.708417  0.926904  1
  Si  Si34  1  0.207944  0.136278  0.676699  1
  Au  Au35  1  0.672755  0.672755  0.500000  1
