# generated using pymatgen
data_Cu2SbRh3S8
_symmetry_space_group_name_H-M   'P 1'
_cell_length_a   7.13286103
_cell_length_b   7.13286117
_cell_length_c   7.13286071
_cell_angle_alpha   59.82483421
_cell_angle_beta   59.82482786
_cell_angle_gamma   59.82483643
_symmetry_Int_Tables_number   1
_chemical_formula_structural   Cu2SbRh3S8
_chemical_formula_sum   'Cu2 Sb1 Rh3 S8'
_cell_volume   255.59135256
_cell_formula_units_Z   1
loop_
 _symmetry_equiv_pos_site_id
 _symmetry_equiv_pos_as_xyz
  1  'x, y, z'
loop_
 _atom_site_type_symbol
 _atom_site_label
 _atom_site_symmetry_multiplicity
 _atom_site_fract_x
 _atom_site_fract_y
 _atom_site_fract_z
 _atom_site_occupancy
  Cu  Cu0  1  0.370661  0.370661  0.370661  1
  Cu  Cu1  1  0.629339  0.629339  0.629339  1
  Sb  Sb2  1  0.000000  0.000000  0.000000  1
  Rh  Rh3  1  0.500000  0.000000  0.000000  1
  Rh  Rh4  1  0.000000  0.000000  0.500000  1
  Rh  Rh5  1  0.000000  0.500000  0.000000  1
  S  S6  1  0.238892  0.238892  0.238892  1
  S  S7  1  0.773678  0.251794  0.251794  1
  S  S8  1  0.251794  0.251794  0.773678  1
  S  S9  1  0.251794  0.773678  0.251794  1
  S  S10  1  0.761108  0.761108  0.761108  1
  S  S11  1  0.226322  0.748206  0.748206  1
  S  S12  1  0.748206  0.748206  0.226322  1
  S  S13  1  0.748206  0.226322  0.748206  1
