# generated using pymatgen
data_Li3Dy2HoSi2Sb
_symmetry_space_group_name_H-M   'P 1'
_cell_length_a   7.07723785
_cell_length_b   7.07723625
_cell_length_c   4.31817300
_cell_angle_alpha   90.00000000
_cell_angle_beta   90.00000000
_cell_angle_gamma   119.68893403
_symmetry_Int_Tables_number   1
_chemical_formula_structural   Li3Dy2HoSi2Sb
_chemical_formula_sum   'Li3 Dy2 Ho1 Si2 Sb1'
_cell_volume   187.89314542
_cell_formula_units_Z   1
loop_
 _symmetry_equiv_pos_site_id
 _symmetry_equiv_pos_as_xyz
  1  'x, y, z'
loop_
 _atom_site_type_symbol
 _atom_site_label
 _atom_site_symmetry_multiplicity
 _atom_site_fract_x
 _atom_site_fract_y
 _atom_site_fract_z
 _atom_site_occupancy
  Li  Li0  1  0.241516  0.000175  0.500000  1
  Li  Li1  1  0.759446  0.759446  0.500000  1
  Li  Li2  1  0.000175  0.241516  0.500000  1
  Dy  Dy3  1  0.998479  0.551095  0.000000  1
  Dy  Dy4  1  0.551095  0.998479  0.000000  1
  Ho  Ho5  1  0.446963  0.446963  0.000000  1
  Si  Si6  1  0.332654  0.665774  0.500000  1
  Si  Si7  1  0.665774  0.332654  0.500000  1
  Sb  Sb8  1  0.003900  0.003900  0.000000  1
