# generated using pymatgen
data_Tb16MgTl(AgIr2)2
_symmetry_space_group_name_H-M   'P 1'
_cell_length_a   9.65927072
_cell_length_b   9.66259058
_cell_length_c   9.64680499
_cell_angle_alpha   59.94585517
_cell_angle_beta   60.04722908
_cell_angle_gamma   59.98864067
_symmetry_Int_Tables_number   1
_chemical_formula_structural   Tb16MgTl(AgIr2)2
_chemical_formula_sum   'Tb16 Mg1 Tl1 Ag2 Ir4'
_cell_volume   636.56937913
_cell_formula_units_Z   1
loop_
 _symmetry_equiv_pos_site_id
 _symmetry_equiv_pos_as_xyz
  1  'x, y, z'
loop_
 _atom_site_type_symbol
 _atom_site_label
 _atom_site_symmetry_multiplicity
 _atom_site_fract_x
 _atom_site_fract_y
 _atom_site_fract_z
 _atom_site_occupancy
  Tb  Tb0  1  0.191736  0.808410  0.809513  1
  Tb  Tb1  1  0.814152  0.187414  0.186965  1
  Tb  Tb2  1  0.061481  0.437395  0.063728  1
  Tb  Tb3  1  0.054781  0.648737  0.647746  1
  Tb  Tb4  1  0.651412  0.652384  0.651573  1
  Tb  Tb5  1  0.063463  0.060154  0.439636  1
  Tb  Tb6  1  0.190789  0.810224  0.188762  1
  Tb  Tb7  1  0.814152  0.811470  0.186965  1
  Tb  Tb8  1  0.810705  0.188970  0.811356  1
  Tb  Tb9  1  0.438091  0.061173  0.439563  1
  Tb  Tb10  1  0.438483  0.436442  0.067291  1
  Tb  Tb11  1  0.438483  0.057785  0.067291  1
  Tb  Tb12  1  0.063463  0.436746  0.439636  1
  Tb  Tb13  1  0.191736  0.190340  0.809513  1
  Tb  Tb14  1  0.650143  0.652290  0.045279  1
  Tb  Tb15  1  0.651412  0.044633  0.651573  1
  Mg  Mg16  1  0.717252  0.429387  0.423977  1
  Tl  Tl17  1  0.416453  0.416679  0.750190  1
  Ag  Ag18  1  0.418113  0.753268  0.412722  1
  Ag  Ag19  1  0.418113  0.415898  0.412722  1
  Ir  Ir20  1  0.860084  0.857437  0.425044  1
  Ir  Ir21  1  0.860188  0.425308  0.856246  1
  Ir  Ir22  1  0.860188  0.858260  0.856246  1
  Ir  Ir23  1  0.425134  0.859201  0.856466  1
