# generated using pymatgen
data_La6In9Br
_symmetry_space_group_name_H-M   'P 1'
_cell_length_a   8.69684322
_cell_length_b   8.69684274
_cell_length_c   8.69684280
_cell_angle_alpha   119.42988842
_cell_angle_beta   119.42989274
_cell_angle_gamma   90.99033133
_symmetry_Int_Tables_number   1
_chemical_formula_structural   La6In9Br
_chemical_formula_sum   'La6 In9 Br1'
_cell_volume   469.05742631
_cell_formula_units_Z   1
loop_
 _symmetry_equiv_pos_site_id
 _symmetry_equiv_pos_as_xyz
  1  'x, y, z'
loop_
 _atom_site_type_symbol
 _atom_site_label
 _atom_site_symmetry_multiplicity
 _atom_site_fract_x
 _atom_site_fract_y
 _atom_site_fract_z
 _atom_site_occupancy
  La  La0  1  0.759364  0.759364  0.000000  1
  La  La1  1  0.240636  0.240636  0.000000  1
  La  La2  1  0.338786  0.842068  0.180853  1
  La  La3  1  0.661214  0.157932  0.819147  1
  La  La4  1  0.842068  0.661214  0.503282  1
  La  La5  1  0.157932  0.338786  0.496718  1
  In  In6  1  0.965274  0.455031  0.790107  1
  In  In7  1  0.664924  0.175167  0.209893  1
  In  In8  1  0.455031  0.664924  0.489757  1
  In  In9  1  0.175167  0.965274  0.510243  1
  In  In10  1  0.034726  0.544969  0.209893  1
  In  In11  1  0.335076  0.824833  0.790107  1
  In  In12  1  0.544969  0.335076  0.510243  1
  In  In13  1  0.824833  0.034726  0.489757  1
  In  In14  1  0.500000  0.500000  0.000000  1
  Br  Br15  1  0.000000  0.000000  0.000000  1
