# generated using pymatgen
data_YbTmRu4
_symmetry_space_group_name_H-M   'P 1'
_cell_length_a   5.24215956
_cell_length_b   5.24215956
_cell_length_c   8.82697200
_cell_angle_alpha   90.00127222
_cell_angle_beta   89.99872978
_cell_angle_gamma   119.99687954
_symmetry_Int_Tables_number   1
_chemical_formula_structural   YbTmRu4
_chemical_formula_sum   'Yb2 Tm2 Ru8'
_cell_volume   210.07603278
_cell_formula_units_Z   2
loop_
 _symmetry_equiv_pos_site_id
 _symmetry_equiv_pos_as_xyz
  1  'x, y, z'
loop_
 _atom_site_type_symbol
 _atom_site_label
 _atom_site_symmetry_multiplicity
 _atom_site_fract_x
 _atom_site_fract_y
 _atom_site_fract_z
 _atom_site_occupancy
  Yb  Yb0  1  0.333328  0.666672  0.060961  1
  Yb  Yb1  1  0.666672  0.333328  0.939039  1
  Tm  Tm2  1  0.666671  0.333329  0.571584  1
  Tm  Tm3  1  0.333329  0.666671  0.428416  1
  Ru  Ru4  1  0.000000  0.000000  0.500000  1
  Ru  Ru5  1  0.000000  0.000000  0.000000  1
  Ru  Ru6  1  0.171698  0.343400  0.747832  1
  Ru  Ru7  1  0.171701  0.828299  0.747834  1
  Ru  Ru8  1  0.656600  0.828302  0.747832  1
  Ru  Ru9  1  0.828302  0.656600  0.252168  1
  Ru  Ru10  1  0.828299  0.171701  0.252166  1
  Ru  Ru11  1  0.343400  0.171698  0.252168  1
