# generated using pymatgen
data_Rb3GdV2O8
_symmetry_space_group_name_H-M   'P 1'
_cell_length_a   6.12215200
_cell_length_b   6.12215050
_cell_length_c   8.00560000
_cell_angle_alpha   90.00000000
_cell_angle_beta   90.00000000
_cell_angle_gamma   119.99999731
_symmetry_Int_Tables_number   1
_chemical_formula_structural   Rb3GdV2O8
_chemical_formula_sum   'Rb3 Gd1 V2 O8'
_cell_volume   259.85593456
_cell_formula_units_Z   1
loop_
 _symmetry_equiv_pos_site_id
 _symmetry_equiv_pos_as_xyz
  1  'x, y, z'
loop_
 _atom_site_type_symbol
 _atom_site_label
 _atom_site_symmetry_multiplicity
 _atom_site_fract_x
 _atom_site_fract_y
 _atom_site_fract_z
 _atom_site_occupancy
  Rb  Rb0  1  0.333333  0.666667  0.701497  1
  Rb  Rb1  1  0.666667  0.333333  0.298503  1
  Rb  Rb2  1  0.000000  0.000000  0.000000  1
  Gd  Gd3  1  0.000000  0.000000  0.500000  1
  V  V4  1  0.333333  0.666667  0.255508  1
  V  V5  1  0.666667  0.333333  0.744492  1
  O  O6  1  0.333333  0.666667  0.045328  1
  O  O7  1  0.666667  0.333333  0.954672  1
  O  O8  1  0.176268  0.823732  0.330184  1
  O  O9  1  0.823732  0.176268  0.669816  1
  O  O10  1  0.176268  0.352535  0.330184  1
  O  O11  1  0.823732  0.647465  0.669816  1
  O  O12  1  0.647465  0.823732  0.330184  1
  O  O13  1  0.352535  0.176268  0.669816  1
