# generated using pymatgen
data_TbSm5PtBr10
_symmetry_space_group_name_H-M   'P 1'
_cell_length_a   7.49941816
_cell_length_b   9.44059876
_cell_length_c   9.46756169
_cell_angle_alpha   108.56853056
_cell_angle_beta   96.75914976
_cell_angle_gamma   105.66446739
_symmetry_Int_Tables_number   1
_chemical_formula_structural   TbSm5PtBr10
_chemical_formula_sum   'Tb1 Sm5 Pt1 Br10'
_cell_volume   596.37464599
_cell_formula_units_Z   1
loop_
 _symmetry_equiv_pos_site_id
 _symmetry_equiv_pos_as_xyz
  1  'x, y, z'
loop_
 _atom_site_type_symbol
 _atom_site_label
 _atom_site_symmetry_multiplicity
 _atom_site_fract_x
 _atom_site_fract_y
 _atom_site_fract_z
 _atom_site_occupancy
  Tb  Tb0  1  0.637819  0.863874  0.820616  1
  Sm  Sm1  1  0.125611  0.044096  0.749151  1
  Sm  Sm2  1  0.871433  0.954250  0.249894  1
  Sm  Sm3  1  0.971895  0.303356  0.096560  1
  Sm  Sm4  1  0.026092  0.695981  0.902016  1
  Sm  Sm5  1  0.366661  0.138649  0.182347  1
  Pt  Pt6  1  0.999556  0.999729  0.000134  1
  Br  Br7  1  0.549018  0.173473  0.914274  1
  Br  Br8  1  0.452069  0.822314  0.080241  1
  Br  Br9  1  0.357806  0.456694  0.270870  1
  Br  Br10  1  0.638515  0.548498  0.728178  1
  Br  Br11  1  0.252934  0.082566  0.456094  1
  Br  Br12  1  0.741785  0.914297  0.546056  1
  Br  Br13  1  0.790677  0.259845  0.351088  1
  Br  Br14  1  0.218917  0.743230  0.653680  1
  Br  Br15  1  0.085381  0.366291  0.826256  1
  Br  Br16  1  0.913833  0.632855  0.172547  1
