# generated using pymatgen
data_Pr3Zn2AgPt3
_symmetry_space_group_name_H-M   'P 1'
_cell_length_a   7.50583692
_cell_length_b   7.50583689
_cell_length_c   4.02483700
_cell_angle_alpha   90.00000000
_cell_angle_beta   90.00000000
_cell_angle_gamma   118.70745954
_symmetry_Int_Tables_number   1
_chemical_formula_structural   Pr3Zn2AgPt3
_chemical_formula_sum   'Pr3 Zn2 Ag1 Pt3'
_cell_volume   198.87836939
_cell_formula_units_Z   1
loop_
 _symmetry_equiv_pos_site_id
 _symmetry_equiv_pos_as_xyz
  1  'x, y, z'
loop_
 _atom_site_type_symbol
 _atom_site_label
 _atom_site_symmetry_multiplicity
 _atom_site_fract_x
 _atom_site_fract_y
 _atom_site_fract_z
 _atom_site_occupancy
  Pr  Pr0  1  0.595329  0.998480  0.500000  1
  Pr  Pr1  1  0.403776  0.403776  0.500000  1
  Pr  Pr2  1  0.998480  0.595329  0.500000  1
  Zn  Zn3  1  0.998225  0.244550  0.000000  1
  Zn  Zn4  1  0.244550  0.998225  0.000000  1
  Ag  Ag5  1  0.753872  0.753872  0.000000  1
  Pt  Pt6  1  0.021154  0.021154  0.500000  1
  Pt  Pt7  1  0.321570  0.663045  0.000000  1
  Pt  Pt8  1  0.663045  0.321570  0.000000  1
