# generated using pymatgen
data_YErB5
_symmetry_space_group_name_H-M   'P 1'
_cell_length_a   7.08110700
_cell_length_b   7.07008534
_cell_length_c   7.10203201
_cell_angle_alpha   76.30524670
_cell_angle_beta   90.00000000
_cell_angle_gamma   90.00000000
_symmetry_Int_Tables_number   1
_chemical_formula_structural   YErB5
_chemical_formula_sum   'Y4 Er4 B20'
_cell_volume   345.44816826
_cell_formula_units_Z   4
loop_
 _symmetry_equiv_pos_site_id
 _symmetry_equiv_pos_as_xyz
  1  'x, y, z'
loop_
 _atom_site_type_symbol
 _atom_site_label
 _atom_site_symmetry_multiplicity
 _atom_site_fract_x
 _atom_site_fract_y
 _atom_site_fract_z
 _atom_site_occupancy
  Y  Y0  1  0.692425  0.771533  0.624224  1
  Y  Y1  1  0.192425  0.228467  0.875776  1
  Y  Y2  1  0.307575  0.228467  0.375776  1
  Y  Y3  1  0.807575  0.771533  0.124224  1
  Er  Er4  1  0.314819  0.754920  0.251963  1
  Er  Er5  1  0.814819  0.245080  0.248037  1
  Er  Er6  1  0.685181  0.245080  0.748037  1
  Er  Er7  1  0.185181  0.754920  0.751963  1
  B  B8  1  0.503189  0.313085  0.042365  1
  B  B9  1  0.003189  0.686915  0.457635  1
  B  B10  1  0.496811  0.686915  0.957635  1
  B  B11  1  0.996811  0.313085  0.542365  1
  B  B12  1  0.487156  0.927882  0.922771  1
  B  B13  1  0.987156  0.072118  0.577229  1
  B  B14  1  0.512844  0.072118  0.077229  1
  B  B15  1  0.012844  0.927882  0.422771  1
  B  B16  1  0.325999  0.496065  0.039851  1
  B  B17  1  0.825999  0.503935  0.460149  1
  B  B18  1  0.674001  0.503935  0.960149  1
  B  B19  1  0.174001  0.496065  0.539851  1
  B  B20  1  0.911132  0.498773  0.911172  1
  B  B21  1  0.411132  0.501227  0.588828  1
  B  B22  1  0.088868  0.501227  0.088828  1
  B  B23  1  0.588868  0.498773  0.411172  1
  B  B24  1  0.961889  0.496350  0.674610  1
  B  B25  1  0.461889  0.503650  0.825390  1
  B  B26  1  0.038111  0.503650  0.325390  1
  B  B27  1  0.538111  0.496350  0.174610  1
