# generated using pymatgen
data_Tb3Gd3MoO12
_symmetry_space_group_name_H-M   'P 1'
_cell_length_a   6.54457128
_cell_length_b   6.54386651
_cell_length_c   6.54417371
_cell_angle_alpha   98.56204376
_cell_angle_beta   98.55960365
_cell_angle_gamma   98.55118118
_symmetry_Int_Tables_number   1
_chemical_formula_structural   Tb3Gd3MoO12
_chemical_formula_sum   'Tb3 Gd3 Mo1 O12'
_cell_volume   269.83993386
_cell_formula_units_Z   1
loop_
 _symmetry_equiv_pos_site_id
 _symmetry_equiv_pos_as_xyz
  1  'x, y, z'
loop_
 _atom_site_type_symbol
 _atom_site_label
 _atom_site_symmetry_multiplicity
 _atom_site_fract_x
 _atom_site_fract_y
 _atom_site_fract_z
 _atom_site_occupancy
  Tb  Tb0  1  0.855557  0.386929  0.686088  1
  Tb  Tb1  1  0.612023  0.312810  0.143761  1
  Tb  Tb2  1  0.314817  0.144844  0.612645  1
  Gd  Gd3  1  0.687785  0.857075  0.389627  1
  Gd  Gd4  1  0.389100  0.686009  0.856092  1
  Gd  Gd5  1  0.143262  0.609941  0.312990  1
  Mo  Mo6  1  0.000839  0.000437  0.000336  1
  O  O7  1  0.927981  0.036511  0.705295  1
  O  O8  1  0.963381  0.294727  0.072375  1
  O  O9  1  0.590144  0.178420  0.434450  1
  O  O10  1  0.821684  0.563538  0.409519  1
  O  O11  1  0.295085  0.075838  0.966377  1
  O  O12  1  0.566540  0.405804  0.822882  1
  O  O13  1  0.435071  0.588238  0.177557  1
  O  O14  1  0.706119  0.927787  0.033557  1
  O  O15  1  0.176346  0.432130  0.591993  1
  O  O16  1  0.407657  0.823826  0.565968  1
  O  O17  1  0.030514  0.705766  0.924265  1
  O  O18  1  0.076094  0.969371  0.294224  1
