# generated using pymatgen
data_MgZnGa4(TeO3)8
_symmetry_space_group_name_H-M   'P 1'
_cell_length_a   9.35274429
_cell_length_b   9.35274448
_cell_length_c   9.35274418
_cell_angle_alpha   109.86918268
_cell_angle_beta   109.86918444
_cell_angle_gamma   108.67819547
_symmetry_Int_Tables_number   1
_chemical_formula_structural   MgZnGa4(TeO3)8
_chemical_formula_sum   'Mg1 Zn1 Ga4 Te8 O24'
_cell_volume   629.69897322
_cell_formula_units_Z   1
loop_
 _symmetry_equiv_pos_site_id
 _symmetry_equiv_pos_as_xyz
  1  'x, y, z'
loop_
 _atom_site_type_symbol
 _atom_site_label
 _atom_site_symmetry_multiplicity
 _atom_site_fract_x
 _atom_site_fract_y
 _atom_site_fract_z
 _atom_site_occupancy
  Mg  Mg0  1  0.500000  0.500000  0.000000  1
  Zn  Zn1  1  0.250000  0.750000  0.500000  1
  Ga  Ga2  1  0.993899  0.624617  0.868812  1
  Ga  Ga3  1  0.755805  0.125087  0.131188  1
  Ga  Ga4  1  0.874913  0.006101  0.630718  1
  Ga  Ga5  1  0.375383  0.244195  0.369282  1
  Te  Te6  1  0.906709  0.873738  0.260849  1
  Te  Te7  1  0.845526  0.605138  0.467498  1
  Te  Te8  1  0.137641  0.378028  0.532502  1
  Te  Te9  1  0.612888  0.645860  0.739151  1
  Te  Te10  1  0.394862  0.862359  0.240388  1
  Te  Te11  1  0.354140  0.093291  0.967029  1
  Te  Te12  1  0.621972  0.154474  0.759612  1
  Te  Te13  1  0.126262  0.387112  0.032971  1
  O  O14  1  0.715648  0.682866  0.220114  1
  O  O15  1  0.036285  0.759675  0.468845  1
  O  O16  1  0.290830  0.567439  0.531155  1
  O  O17  1  0.462752  0.495534  0.779886  1
  O  O18  1  0.208584  0.828595  0.037810  1
  O  O19  1  0.541627  0.078984  0.121274  1
  O  O20  1  0.790785  0.170774  0.962190  1
  O  O21  1  0.957709  0.420351  0.878726  1
  O  O22  1  0.929973  0.331856  0.339885  1
  O  O23  1  0.991971  0.590087  0.660115  1
  O  O24  1  0.820543  0.660683  0.901462  1
  O  O25  1  0.759221  0.919081  0.098538  1
  O  O26  1  0.080919  0.179457  0.840139  1
  O  O27  1  0.339317  0.240779  0.159861  1
  O  O28  1  0.409913  0.070027  0.401884  1
  O  O29  1  0.668144  0.008029  0.598116  1
  O  O30  1  0.579649  0.458373  0.537358  1
  O  O31  1  0.829226  0.791416  0.620010  1
  O  O32  1  0.921016  0.042291  0.462642  1
  O  O33  1  0.171405  0.209215  0.379990  1
  O  O34  1  0.432561  0.963715  0.723391  1
  O  O35  1  0.504466  0.284352  0.967218  1
  O  O36  1  0.317134  0.537248  0.032782  1
  O  O37  1  0.240325  0.709170  0.276609  1
