# generated using pymatgen
data_NaCdNiF6
_symmetry_space_group_name_H-M   'P 1'
_cell_length_a   3.86960200
_cell_length_b   10.09874000
_cell_length_c   12.63815300
_cell_angle_alpha   90.00000000
_cell_angle_beta   90.00000000
_cell_angle_gamma   90.00000000
_symmetry_Int_Tables_number   1
_chemical_formula_structural   NaCdNiF6
_chemical_formula_sum   'Na4 Cd4 Ni4 F24'
_cell_volume   493.87506364
_cell_formula_units_Z   4
loop_
 _symmetry_equiv_pos_site_id
 _symmetry_equiv_pos_as_xyz
  1  'x, y, z'
loop_
 _atom_site_type_symbol
 _atom_site_label
 _atom_site_symmetry_multiplicity
 _atom_site_fract_x
 _atom_site_fract_y
 _atom_site_fract_z
 _atom_site_occupancy
  Na  Na0  1  0.250000  0.178650  0.915035  1
  Na  Na1  1  0.250000  0.321350  0.415035  1
  Na  Na2  1  0.750000  0.821350  0.084965  1
  Na  Na3  1  0.750000  0.678650  0.584965  1
  Cd  Cd4  1  0.750000  0.997502  0.381337  1
  Cd  Cd5  1  0.750000  0.502498  0.881337  1
  Cd  Cd6  1  0.250000  0.002498  0.618663  1
  Cd  Cd7  1  0.250000  0.497502  0.118663  1
  Ni  Ni8  1  0.250000  0.819403  0.836737  1
  Ni  Ni9  1  0.750000  0.180597  0.163263  1
  Ni  Ni10  1  0.250000  0.680597  0.336737  1
  Ni  Ni11  1  0.750000  0.319403  0.663263  1
  F  F12  1  0.750000  0.132066  0.644054  1
  F  F13  1  0.250000  0.096391  0.457274  1
  F  F14  1  0.750000  0.367934  0.144054  1
  F  F15  1  0.750000  0.141504  0.019837  1
  F  F16  1  0.750000  0.997426  0.200870  1
  F  F17  1  0.750000  0.288335  0.814136  1
  F  F18  1  0.250000  0.867934  0.355946  1
  F  F19  1  0.750000  0.903609  0.542726  1
  F  F20  1  0.250000  0.632066  0.855946  1
  F  F21  1  0.750000  0.807024  0.836798  1
  F  F22  1  0.750000  0.358496  0.519837  1
  F  F23  1  0.750000  0.692976  0.336798  1
  F  F24  1  0.250000  0.192976  0.163202  1
  F  F25  1  0.250000  0.788335  0.685864  1
  F  F26  1  0.250000  0.641504  0.480163  1
  F  F27  1  0.750000  0.596391  0.042726  1
  F  F28  1  0.250000  0.403609  0.957274  1
  F  F29  1  0.250000  0.002574  0.799130  1
  F  F30  1  0.250000  0.711665  0.185864  1
  F  F31  1  0.750000  0.502574  0.700870  1
  F  F32  1  0.250000  0.307024  0.663202  1
  F  F33  1  0.250000  0.497426  0.299130  1
  F  F34  1  0.250000  0.858496  0.980163  1
  F  F35  1  0.750000  0.211665  0.314136  1
