# generated using pymatgen
data_Ho2ZnIn2Ni3
_symmetry_space_group_name_H-M   'P 1'
_cell_length_a   5.10505807
_cell_length_b   4.07911600
_cell_length_c   7.13089110
_cell_angle_alpha   90.00000000
_cell_angle_beta   90.58707188
_cell_angle_gamma   90.00000000
_symmetry_Int_Tables_number   1
_chemical_formula_structural   Ho2ZnIn2Ni3
_chemical_formula_sum   'Ho2 Zn1 In2 Ni3'
_cell_volume   148.48676577
_cell_formula_units_Z   1
loop_
 _symmetry_equiv_pos_site_id
 _symmetry_equiv_pos_as_xyz
  1  'x, y, z'
loop_
 _atom_site_type_symbol
 _atom_site_label
 _atom_site_symmetry_multiplicity
 _atom_site_fract_x
 _atom_site_fract_y
 _atom_site_fract_z
 _atom_site_occupancy
  Ho  Ho0  1  0.743384  0.000000  0.270647  1
  Ho  Ho1  1  0.256614  0.000000  0.729354  1
  Zn  Zn2  1  0.000000  0.499999  0.000000  1
  In  In3  1  0.254576  0.499999  0.361368  1
  In  In4  1  0.745422  0.499999  0.638633  1
  Ni  Ni5  1  0.500000  0.499999  0.000000  1
  Ni  Ni6  1  0.248710  0.000000  0.114375  1
  Ni  Ni7  1  0.751288  0.000000  0.885626  1
