# generated using pymatgen
data_Ga(FeI4)3
_symmetry_space_group_name_H-M   'P 1'
_cell_length_a   8.12261972
_cell_length_b   8.63144560
_cell_length_c   12.21194715
_cell_angle_alpha   81.55268488
_cell_angle_beta   90.48451096
_cell_angle_gamma   89.81642955
_symmetry_Int_Tables_number   1
_chemical_formula_structural   Ga(FeI4)3
_chemical_formula_sum   'Ga1 Fe3 I12'
_cell_volume   846.85179387
_cell_formula_units_Z   1
loop_
 _symmetry_equiv_pos_site_id
 _symmetry_equiv_pos_as_xyz
  1  'x, y, z'
loop_
 _atom_site_type_symbol
 _atom_site_label
 _atom_site_symmetry_multiplicity
 _atom_site_fract_x
 _atom_site_fract_y
 _atom_site_fract_z
 _atom_site_occupancy
  Ga  Ga0  1  0.412472  0.188030  0.948405  1
  Fe  Fe1  1  0.084277  0.182783  0.450753  1
  Fe  Fe2  1  0.585519  0.816222  0.049649  1
  Fe  Fe3  1  0.915454  0.817882  0.549261  1
  I  I4  1  0.922940  0.394943  0.336621  1
  I  I5  1  0.425070  0.606477  0.163428  1
  I  I6  1  0.076301  0.605707  0.663816  1
  I  I7  1  0.584962  0.393425  0.834664  1
  I  I8  1  0.376250  0.250557  0.485409  1
  I  I9  1  0.876771  0.747766  0.016000  1
  I  I10  1  0.623295  0.749581  0.514905  1
  I  I11  1  0.116699  0.247208  0.987631  1
  I  I12  1  0.068435  0.919203  0.359076  1
  I  I13  1  0.570630  0.079937  0.140395  1
  I  I14  1  0.930847  0.081227  0.640844  1
  I  I15  1  0.430080  0.919052  0.859141  1
