# generated using pymatgen
data_Tm8Lu2CuGePb6
_symmetry_space_group_name_H-M   'P 1'
_cell_length_a   9.08610900
_cell_length_b   9.08610820
_cell_length_c   6.65252800
_cell_angle_alpha   90.00000000
_cell_angle_beta   90.00000000
_cell_angle_gamma   120.00000656
_symmetry_Int_Tables_number   1
_chemical_formula_structural   Tm8Lu2CuGePb6
_chemical_formula_sum   'Tm8 Lu2 Cu1 Ge1 Pb6'
_cell_volume   475.63429427
_cell_formula_units_Z   1
loop_
 _symmetry_equiv_pos_site_id
 _symmetry_equiv_pos_as_xyz
  1  'x, y, z'
loop_
 _atom_site_type_symbol
 _atom_site_label
 _atom_site_symmetry_multiplicity
 _atom_site_fract_x
 _atom_site_fract_y
 _atom_site_fract_z
 _atom_site_occupancy
  Tm  Tm0  1  0.249524  0.000000  0.742841  1
  Tm  Tm1  1  0.750476  0.000000  0.257159  1
  Tm  Tm2  1  0.000000  0.249524  0.742841  1
  Tm  Tm3  1  0.000000  0.750476  0.257159  1
  Tm  Tm4  1  0.750476  0.750476  0.742841  1
  Tm  Tm5  1  0.249524  0.249524  0.257159  1
  Tm  Tm6  1  0.333333  0.666667  0.500000  1
  Tm  Tm7  1  0.666667  0.333333  0.500000  1
  Lu  Lu8  1  0.666667  0.333333  0.000000  1
  Lu  Lu9  1  0.333333  0.666667  0.000000  1
  Cu  Cu10  1  0.000000  0.000000  0.000000  1
  Ge  Ge11  1  0.000000  0.000000  0.500000  1
  Pb  Pb12  1  0.605717  0.000000  0.749358  1
  Pb  Pb13  1  0.394283  0.000000  0.250642  1
  Pb  Pb14  1  0.000000  0.605717  0.749358  1
  Pb  Pb15  1  0.000000  0.394283  0.250642  1
  Pb  Pb16  1  0.394283  0.394283  0.749358  1
  Pb  Pb17  1  0.605717  0.605717  0.250642  1
