# generated using pymatgen
data_Li3Ac8Mg4Si16Hg
_symmetry_space_group_name_H-M   'P 1'
_cell_length_a   4.46789800
_cell_length_b   11.33648912
_cell_length_c   14.37991160
_cell_angle_alpha   89.82785805
_cell_angle_beta   90.00000000
_cell_angle_gamma   90.00000000
_symmetry_Int_Tables_number   1
_chemical_formula_structural   Li3Ac8Mg4Si16Hg
_chemical_formula_sum   'Li3 Ac8 Mg4 Si16 Hg1'
_cell_volume   728.34321973
_cell_formula_units_Z   1
loop_
 _symmetry_equiv_pos_site_id
 _symmetry_equiv_pos_as_xyz
  1  'x, y, z'
loop_
 _atom_site_type_symbol
 _atom_site_label
 _atom_site_symmetry_multiplicity
 _atom_site_fract_x
 _atom_site_fract_y
 _atom_site_fract_z
 _atom_site_occupancy
  Li  Li0  1  0.750000  0.555436  0.557150  1
  Li  Li1  1  0.750000  0.943282  0.060776  1
  Li  Li2  1  0.750000  0.324805  0.314091  1
  Ac  Ac3  1  0.250000  0.524679  0.197069  1
  Ac  Ac4  1  0.250000  0.739074  0.941464  1
  Ac  Ac5  1  0.750000  0.258721  0.059035  1
  Ac  Ac6  1  0.750000  0.244825  0.555728  1
  Ac  Ac7  1  0.250000  0.760652  0.442852  1
  Ac  Ac8  1  0.250000  0.971970  0.694130  1
  Ac  Ac9  1  0.750000  0.033317  0.303138  1
  Ac  Ac10  1  0.750000  0.471778  0.803950  1
  Mg  Mg11  1  0.250000  0.052873  0.944104  1
  Mg  Mg12  1  0.250000  0.674160  0.686894  1
  Mg  Mg13  1  0.750000  0.171451  0.810903  1
  Mg  Mg14  1  0.250000  0.826876  0.186028  1
  Si  Si15  1  0.750000  0.945909  0.872502  1
  Si  Si16  1  0.250000  0.450187  0.633278  1
  Si  Si17  1  0.750000  0.548672  0.367045  1
  Si  Si18  1  0.250000  0.037132  0.476743  1
  Si  Si19  1  0.250000  0.051964  0.131986  1
  Si  Si20  1  0.250000  0.268230  0.721166  1
  Si  Si21  1  0.750000  0.729537  0.277719  1
  Si  Si22  1  0.750000  0.768669  0.776699  1
  Si  Si23  1  0.250000  0.215383  0.388702  1
  Si  Si24  1  0.750000  0.968566  0.522837  1
  Si  Si25  1  0.750000  0.533758  0.023728  1
  Si  Si26  1  0.250000  0.464752  0.978698  1
  Si  Si27  1  0.250000  0.285469  0.892184  1
  Si  Si28  1  0.750000  0.783814  0.605501  1
  Si  Si29  1  0.750000  0.716051  0.107056  1
  Si  Si30  1  0.250000  0.230183  0.222479  1
  Hg  Hg31  1  0.250000  0.447824  0.444362  1
