# generated using pymatgen
data_Ba6LuIn(Ir2O9)2
_symmetry_space_group_name_H-M   'P 1'
_cell_length_a   5.90850200
_cell_length_b   5.90845734
_cell_length_c   14.57042300
_cell_angle_alpha   89.99982400
_cell_angle_beta   90.00026553
_cell_angle_gamma   119.99960533
_symmetry_Int_Tables_number   1
_chemical_formula_structural   Ba6LuIn(Ir2O9)2
_chemical_formula_sum   'Ba6 Lu1 In1 Ir4 O18'
_cell_volume   440.51024143
_cell_formula_units_Z   1
loop_
 _symmetry_equiv_pos_site_id
 _symmetry_equiv_pos_as_xyz
  1  'x, y, z'
loop_
 _atom_site_type_symbol
 _atom_site_label
 _atom_site_symmetry_multiplicity
 _atom_site_fract_x
 _atom_site_fract_y
 _atom_site_fract_z
 _atom_site_occupancy
  Ba  Ba0  1  0.666658  0.333325  0.087327  1
  Ba  Ba1  1  0.000007  0.000008  0.247707  1
  Ba  Ba2  1  0.666663  0.333327  0.410099  1
  Ba  Ba3  1  0.333335  0.666664  0.589913  1
  Ba  Ba4  1  0.000001  0.000000  0.752347  1
  Ba  Ba5  1  0.333335  0.666670  0.912663  1
  Lu  Lu6  1  0.999996  0.999993  0.500091  1
  In  In7  1  0.999999  0.999996  0.999994  1
  Ir  Ir8  1  0.333335  0.666657  0.163382  1
  Ir  Ir9  1  0.333333  0.666660  0.337185  1
  Ir  Ir10  1  0.666664  0.333331  0.662850  1
  Ir  Ir11  1  0.666664  0.333333  0.836528  1
  O  O12  1  0.173391  0.346791  0.084380  1
  O  O13  1  0.173380  0.826597  0.084382  1
  O  O14  1  0.653212  0.826597  0.084376  1
  O  O15  1  0.018723  0.509373  0.249829  1
  O  O16  1  0.490652  0.509356  0.249830  1
  O  O17  1  0.490625  0.981251  0.249828  1
  O  O18  1  0.174544  0.825456  0.415467  1
  O  O19  1  0.650906  0.825452  0.415473  1
  O  O20  1  0.174556  0.349106  0.415473  1
  O  O21  1  0.825435  0.650875  0.584590  1
  O  O22  1  0.349140  0.174563  0.584584  1
  O  O23  1  0.825420  0.174565  0.584587  1
  O  O24  1  0.509428  0.018853  0.750164  1
  O  O25  1  0.509479  0.490601  0.750161  1
  O  O26  1  0.981121  0.490598  0.750163  1
  O  O27  1  0.346845  0.173407  0.915544  1
  O  O28  1  0.826559  0.173422  0.915547  1
  O  O29  1  0.826592  0.653177  0.915536  1
