# generated using pymatgen
data_LiHf2Zr5(Co4P3)4
_symmetry_space_group_name_H-M   'P 1'
_cell_length_a   12.06920102
_cell_length_b   12.06920127
_cell_length_c   3.65825700
_cell_angle_alpha   90.00000000
_cell_angle_beta   90.00000000
_cell_angle_gamma   120.35320273
_symmetry_Int_Tables_number   1
_chemical_formula_structural   LiHf2Zr5(Co4P3)4
_chemical_formula_sum   'Li1 Hf2 Zr5 Co16 P12'
_cell_volume   459.83832694
_cell_formula_units_Z   1
loop_
 _symmetry_equiv_pos_site_id
 _symmetry_equiv_pos_as_xyz
  1  'x, y, z'
loop_
 _atom_site_type_symbol
 _atom_site_label
 _atom_site_symmetry_multiplicity
 _atom_site_fract_x
 _atom_site_fract_y
 _atom_site_fract_z
 _atom_site_occupancy
  Li  Li0  1  0.442551  0.442551  0.000000  1
  Hf  Hf1  1  0.554990  0.998239  0.000000  1
  Hf  Hf2  1  0.998239  0.554990  0.000000  1
  Zr  Zr3  1  0.664627  0.332160  0.000000  1
  Zr  Zr4  1  0.332160  0.664627  0.000000  1
  Zr  Zr5  1  0.815114  0.815114  0.500000  1
  Zr  Zr6  1  0.177326  0.999879  0.500000  1
  Zr  Zr7  1  0.999879  0.177326  0.500000  1
  Co  Co8  1  0.201459  0.376991  0.000000  1
  Co  Co9  1  0.178165  0.806954  0.000000  1
  Co  Co10  1  0.820266  0.628248  0.000000  1
  Co  Co11  1  0.806954  0.178165  0.000000  1
  Co  Co12  1  0.376991  0.201459  0.000000  1
  Co  Co13  1  0.126704  0.478057  0.500000  1
  Co  Co14  1  0.355173  0.873604  0.500000  1
  Co  Co15  1  0.517863  0.644160  0.500000  1
  Co  Co16  1  0.644160  0.517863  0.500000  1
  Co  Co17  1  0.873604  0.355173  0.500000  1
  Co  Co18  1  0.478057  0.126704  0.500000  1
  Co  Co19  1  0.002159  0.002159  0.000000  1
  Co  Co20  1  0.721593  0.000606  0.500000  1
  Co  Co21  1  0.000606  0.721593  0.500000  1
  Co  Co22  1  0.628248  0.820266  0.000000  1
  Co  Co23  1  0.284041  0.284041  0.500000  1
  P  P24  1  0.636927  0.636927  0.000000  1
  P  P25  1  0.348260  0.005453  0.000000  1
  P  P26  1  0.005453  0.348260  0.000000  1
  P  P27  1  0.482577  0.316903  0.500000  1
  P  P28  1  0.689969  0.173167  0.500000  1
  P  P29  1  0.825226  0.518134  0.500000  1
  P  P30  1  0.518134  0.825226  0.500000  1
  P  P31  1  0.173167  0.689969  0.500000  1
  P  P32  1  0.824826  0.997954  0.000000  1
  P  P33  1  0.997954  0.824826  0.000000  1
  P  P34  1  0.316903  0.482577  0.500000  1
  P  P35  1  0.179674  0.179674  0.000000  1
