# generated using pymatgen
data_Nd9Y(RuRh)2
_symmetry_space_group_name_H-M   'P 1'
_cell_length_a   6.60021310
_cell_length_b   7.34342900
_cell_length_c   8.94468797
_cell_angle_alpha   96.39150355
_cell_angle_beta   111.65062651
_cell_angle_gamma   89.99999799
_symmetry_Int_Tables_number   1
_chemical_formula_structural   Nd9Y(RuRh)2
_chemical_formula_sum   'Nd9 Y1 Ru2 Rh2'
_cell_volume   400.04689966
_cell_formula_units_Z   1
loop_
 _symmetry_equiv_pos_site_id
 _symmetry_equiv_pos_as_xyz
  1  'x, y, z'
loop_
 _atom_site_type_symbol
 _atom_site_label
 _atom_site_symmetry_multiplicity
 _atom_site_fract_x
 _atom_site_fract_y
 _atom_site_fract_z
 _atom_site_occupancy
  Nd  Nd0  1  0.985330  0.920287  0.186827  1
  Nd  Nd1  1  0.798503  0.579713  0.813173  1
  Nd  Nd2  1  0.020017  0.085737  0.816301  1
  Nd  Nd3  1  0.203716  0.414263  0.183699  1
  Nd  Nd4  1  0.641570  0.815301  0.430134  1
  Nd  Nd5  1  0.211436  0.684699  0.569866  1
  Nd  Nd6  1  0.354119  0.187880  0.566481  1
  Nd  Nd7  1  0.787639  0.312120  0.433519  1
  Nd  Nd8  1  0.426945  0.750000  0.000000  1
  Y  Y9  1  0.571475  0.250000  0.000000  1
  Ru  Ru10  1  0.180778  0.425450  0.779222  1
  Ru  Ru11  1  0.401556  0.074550  0.220778  1
  Rh  Rh12  1  0.818892  0.573558  0.220868  1
  Rh  Rh13  1  0.598023  0.926442  0.779132  1
