# generated using pymatgen
data_Zr6Zn22GaPd
_symmetry_space_group_name_H-M   'P 1'
_cell_length_a   8.79843319
_cell_length_b   8.79843271
_cell_length_c   8.79843400
_cell_angle_alpha   60.00000267
_cell_angle_beta   60.00000448
_cell_angle_gamma   59.99999467
_symmetry_Int_Tables_number   1
_chemical_formula_structural   Zr6Zn22GaPd
_chemical_formula_sum   'Zr6 Zn22 Ga1 Pd1'
_cell_volume   481.61615513
_cell_formula_units_Z   1
loop_
 _symmetry_equiv_pos_site_id
 _symmetry_equiv_pos_as_xyz
  1  'x, y, z'
loop_
 _atom_site_type_symbol
 _atom_site_label
 _atom_site_symmetry_multiplicity
 _atom_site_fract_x
 _atom_site_fract_y
 _atom_site_fract_z
 _atom_site_occupancy
  Zr  Zr0  1  0.716728  0.283272  0.283272  1
  Zr  Zr1  1  0.283272  0.716728  0.716728  1
  Zr  Zr2  1  0.283272  0.716728  0.283272  1
  Zr  Zr3  1  0.716728  0.283272  0.716728  1
  Zr  Zr4  1  0.283272  0.283272  0.716728  1
  Zr  Zr5  1  0.716728  0.716728  0.283272  1
  Zn  Zn6  1  0.123223  0.123223  0.123223  1
  Zn  Zn7  1  0.876777  0.876777  0.876777  1
  Zn  Zn8  1  0.123223  0.123223  0.630329  1
  Zn  Zn9  1  0.123223  0.630329  0.123223  1
  Zn  Zn10  1  0.876777  0.876777  0.369671  1
  Zn  Zn11  1  0.876777  0.369671  0.876777  1
  Zn  Zn12  1  0.630329  0.123223  0.123223  1
  Zn  Zn13  1  0.369671  0.876777  0.876777  1
  Zn  Zn14  1  0.500000  0.000000  0.000000  1
  Zn  Zn15  1  0.000000  0.500000  0.500000  1
  Zn  Zn16  1  0.000000  0.500000  0.000000  1
  Zn  Zn17  1  0.500000  0.000000  0.500000  1
  Zn  Zn18  1  0.000000  0.000000  0.500000  1
  Zn  Zn19  1  0.500000  0.500000  0.000000  1
  Zn  Zn20  1  0.340413  0.340413  0.340413  1
  Zn  Zn21  1  0.659587  0.659587  0.659587  1
  Zn  Zn22  1  0.340413  0.340413  0.978760  1
  Zn  Zn23  1  0.340413  0.978760  0.340413  1
  Zn  Zn24  1  0.659587  0.659587  0.021240  1
  Zn  Zn25  1  0.659587  0.021240  0.659587  1
  Zn  Zn26  1  0.978760  0.340413  0.340413  1
  Zn  Zn27  1  0.021240  0.659587  0.659587  1
  Ga  Ga28  1  0.500000  0.500000  0.500000  1
  Pd  Pd29  1  0.000000  0.000000  0.000000  1
