# generated using pymatgen
data_Al3V(SiRu2)4
_symmetry_space_group_name_H-M   'P 1'
_cell_length_a   5.89222100
_cell_length_b   5.89222100
_cell_length_c   5.89222100
_cell_angle_alpha   90.00000000
_cell_angle_beta   90.00000000
_cell_angle_gamma   90.00000000
_symmetry_Int_Tables_number   1
_chemical_formula_structural   Al3V(SiRu2)4
_chemical_formula_sum   'Al3 V1 Si4 Ru8'
_cell_volume   204.56770964
_cell_formula_units_Z   1
loop_
 _symmetry_equiv_pos_site_id
 _symmetry_equiv_pos_as_xyz
  1  'x, y, z'
loop_
 _atom_site_type_symbol
 _atom_site_label
 _atom_site_symmetry_multiplicity
 _atom_site_fract_x
 _atom_site_fract_y
 _atom_site_fract_z
 _atom_site_occupancy
  Al  Al0  1  0.500000  0.000000  0.000000  1
  Al  Al1  1  0.000000  0.000000  0.500000  1
  Al  Al2  1  0.000000  0.500000  0.000000  1
  V  V3  1  0.500000  0.500000  0.500000  1
  Si  Si4  1  0.000000  0.500000  0.500000  1
  Si  Si5  1  0.500000  0.000000  0.500000  1
  Si  Si6  1  0.500000  0.500000  0.000000  1
  Si  Si7  1  0.000000  0.000000  0.000000  1
  Ru  Ru8  1  0.249968  0.750032  0.750032  1
  Ru  Ru9  1  0.750032  0.249968  0.750032  1
  Ru  Ru10  1  0.750032  0.750032  0.750032  1
  Ru  Ru11  1  0.750032  0.750032  0.249968  1
  Ru  Ru12  1  0.750032  0.249968  0.249968  1
  Ru  Ru13  1  0.249968  0.249968  0.750032  1
  Ru  Ru14  1  0.249968  0.750032  0.249968  1
  Ru  Ru15  1  0.249968  0.249968  0.249968  1
