# generated using pymatgen
data_La3NdPBr6
_symmetry_space_group_name_H-M   'P 1'
_cell_length_a   4.19564900
_cell_length_b   13.60176018
_cell_length_c   14.44577700
_cell_angle_alpha   90.29573144
_cell_angle_beta   90.00000000
_cell_angle_gamma   90.00000000
_symmetry_Int_Tables_number   1
_chemical_formula_structural   La3NdPBr6
_chemical_formula_sum   'La6 Nd2 P2 Br12'
_cell_volume   824.38367587
_cell_formula_units_Z   2
loop_
 _symmetry_equiv_pos_site_id
 _symmetry_equiv_pos_as_xyz
  1  'x, y, z'
loop_
 _atom_site_type_symbol
 _atom_site_label
 _atom_site_symmetry_multiplicity
 _atom_site_fract_x
 _atom_site_fract_y
 _atom_site_fract_z
 _atom_site_occupancy
  La  La0  1  0.500000  0.120323  0.338848  1
  La  La1  1  0.500000  0.879677  0.661152  1
  La  La2  1  0.500000  0.619311  0.160028  1
  La  La3  1  0.500000  0.380689  0.839972  1
  La  La4  1  0.000000  0.117881  0.578080  1
  La  La5  1  0.000000  0.882119  0.421920  1
  Nd  Nd6  1  0.000000  0.614054  0.924685  1
  Nd  Nd7  1  0.000000  0.385946  0.075315  1
  P  P8  1  0.500000  0.000000  0.500000  1
  P  P9  1  0.500000  0.500000  0.000000  1
  Br  Br10  1  0.500000  0.246204  0.159330  1
  Br  Br11  1  0.500000  0.753796  0.840670  1
  Br  Br12  1  0.500000  0.740444  0.338775  1
  Br  Br13  1  0.500000  0.259556  0.661225  1
  Br  Br14  1  0.000000  0.260884  0.412862  1
  Br  Br15  1  0.000000  0.739116  0.587138  1
  Br  Br16  1  0.000000  0.758851  0.085564  1
  Br  Br17  1  0.000000  0.241149  0.914436  1
  Br  Br18  1  0.000000  0.998661  0.238800  1
  Br  Br19  1  0.000000  0.001339  0.761200  1
  Br  Br20  1  0.000000  0.497066  0.258010  1
  Br  Br21  1  0.000000  0.502934  0.741990  1
