# generated using pymatgen
data_Tb8Lu12Ga13Si3
_symmetry_space_group_name_H-M   'P 1'
_cell_length_a   7.40505908
_cell_length_b   7.72955853
_cell_length_c   14.87733300
_cell_angle_alpha   90.00000000
_cell_angle_beta   90.00000000
_cell_angle_gamma   90.11970439
_symmetry_Int_Tables_number   1
_chemical_formula_structural   Tb8Lu12Ga13Si3
_chemical_formula_sum   'Tb8 Lu12 Ga13 Si3'
_cell_volume   851.54451132
_cell_formula_units_Z   1
loop_
 _symmetry_equiv_pos_site_id
 _symmetry_equiv_pos_as_xyz
  1  'x, y, z'
loop_
 _atom_site_type_symbol
 _atom_site_label
 _atom_site_symmetry_multiplicity
 _atom_site_fract_x
 _atom_site_fract_y
 _atom_site_fract_z
 _atom_site_occupancy
  Tb  Tb0  1  0.015630  0.181210  0.096975  1
  Tb  Tb1  1  0.983894  0.818564  0.905197  1
  Tb  Tb2  1  0.484339  0.680119  0.904960  1
  Tb  Tb3  1  0.983894  0.818564  0.594803  1
  Tb  Tb4  1  0.515509  0.318543  0.096470  1
  Tb  Tb5  1  0.015630  0.181210  0.403025  1
  Tb  Tb6  1  0.515509  0.318543  0.403530  1
  Tb  Tb7  1  0.484339  0.680119  0.595040  1
  Lu  Lu8  1  0.160133  0.509085  0.750000  1
  Lu  Lu9  1  0.839794  0.489557  0.250000  1
  Lu  Lu10  1  0.340287  0.010380  0.250000  1
  Lu  Lu11  1  0.663549  0.988444  0.750000  1
  Lu  Lu12  1  0.328110  0.175890  0.620900  1
  Lu  Lu13  1  0.673019  0.825638  0.378894  1
  Lu  Lu14  1  0.173483  0.673392  0.378306  1
  Lu  Lu15  1  0.673019  0.825638  0.121106  1
  Lu  Lu16  1  0.825362  0.327499  0.621470  1
  Lu  Lu17  1  0.328110  0.175890  0.879100  1
  Lu  Lu18  1  0.825362  0.327499  0.878530  1
  Lu  Lu19  1  0.173483  0.673392  0.121694  1
  Ga  Ga20  1  0.033070  0.114364  0.750000  1
  Ga  Ga21  1  0.967461  0.893817  0.250000  1
  Ga  Ga22  1  0.468012  0.605790  0.250000  1
  Ga  Ga23  1  0.532205  0.393674  0.750000  1
  Ga  Ga24  1  0.277223  0.872981  0.750000  1
  Ga  Ga25  1  0.157443  0.468935  0.540426  1
  Ga  Ga26  1  0.841272  0.529298  0.457718  1
  Ga  Ga27  1  0.341185  0.969422  0.457731  1
  Ga  Ga28  1  0.841272  0.529298  0.042282  1
  Ga  Ga29  1  0.659541  0.030967  0.540570  1
  Ga  Ga30  1  0.157443  0.468935  0.959574  1
  Ga  Ga31  1  0.659541  0.030967  0.959430  1
  Ga  Ga32  1  0.341185  0.969422  0.042269  1
  Si  Si33  1  0.721109  0.124347  0.250000  1
  Si  Si34  1  0.220918  0.374490  0.250000  1
  Si  Si35  1  0.778665  0.624115  0.750000  1
