# generated using pymatgen
data_Dy10AlCd2Co
_symmetry_space_group_name_H-M   'P 1'
_cell_length_a   9.56193504
_cell_length_b   9.60410706
_cell_length_c   9.65154300
_cell_angle_alpha   90.00000000
_cell_angle_beta   90.00000000
_cell_angle_gamma   120.14599328
_symmetry_Int_Tables_number   1
_chemical_formula_structural   Dy10AlCd2Co
_chemical_formula_sum   'Dy20 Al2 Cd4 Co2'
_cell_volume   766.45979750
_cell_formula_units_Z   2
loop_
 _symmetry_equiv_pos_site_id
 _symmetry_equiv_pos_as_xyz
  1  'x, y, z'
loop_
 _atom_site_type_symbol
 _atom_site_label
 _atom_site_symmetry_multiplicity
 _atom_site_fract_x
 _atom_site_fract_y
 _atom_site_fract_z
 _atom_site_occupancy
  Dy  Dy0  1  0.998868  0.999434  0.497755  1
  Dy  Dy1  1  0.998868  0.999434  0.002245  1
  Dy  Dy2  1  0.545905  0.458043  0.250000  1
  Dy  Dy3  1  0.545905  0.087861  0.250000  1
  Dy  Dy4  1  0.914156  0.457077  0.250000  1
  Dy  Dy5  1  0.457039  0.544744  0.750000  1
  Dy  Dy6  1  0.457039  0.912296  0.750000  1
  Dy  Dy7  1  0.086228  0.543114  0.750000  1
  Dy  Dy8  1  0.209998  0.787973  0.435798  1
  Dy  Dy9  1  0.209998  0.422027  0.435798  1
  Dy  Dy10  1  0.579657  0.789830  0.433534  1
  Dy  Dy11  1  0.788373  0.211409  0.560371  1
  Dy  Dy12  1  0.788373  0.576961  0.560371  1
  Dy  Dy13  1  0.424178  0.212088  0.564841  1
  Dy  Dy14  1  0.788373  0.211409  0.939629  1
  Dy  Dy15  1  0.788373  0.576961  0.939629  1
  Dy  Dy16  1  0.424178  0.212088  0.935159  1
  Dy  Dy17  1  0.209998  0.787973  0.064202  1
  Dy  Dy18  1  0.209998  0.422027  0.064202  1
  Dy  Dy19  1  0.579657  0.789830  0.066466  1
  Al  Al20  1  0.884493  0.111554  0.250000  1
  Al  Al21  1  0.884493  0.772939  0.250000  1
  Cd  Cd22  1  0.226319  0.113160  0.250000  1
  Cd  Cd23  1  0.113921  0.886234  0.750000  1
  Cd  Cd24  1  0.113921  0.227687  0.750000  1
  Cd  Cd25  1  0.771830  0.885915  0.750000  1
  Co  Co26  1  0.330743  0.665372  0.250000  1
  Co  Co27  1  0.669117  0.334558  0.750000  1
