# generated using pymatgen
data_DyHoNi12AsP6
_symmetry_space_group_name_H-M   'P 1'
_cell_length_a   9.13205800
_cell_length_b   9.13205731
_cell_length_c   3.67042800
_cell_angle_alpha   90.00000000
_cell_angle_beta   90.00000000
_cell_angle_gamma   119.99999525
_symmetry_Int_Tables_number   1
_chemical_formula_structural   DyHoNi12AsP6
_chemical_formula_sum   'Dy1 Ho1 Ni12 As1 P6'
_cell_volume   265.08469343
_cell_formula_units_Z   1
loop_
 _symmetry_equiv_pos_site_id
 _symmetry_equiv_pos_as_xyz
  1  'x, y, z'
loop_
 _atom_site_type_symbol
 _atom_site_label
 _atom_site_symmetry_multiplicity
 _atom_site_fract_x
 _atom_site_fract_y
 _atom_site_fract_z
 _atom_site_occupancy
  Dy  Dy0  1  0.333333  0.666667  0.000000  1
  Ho  Ho1  1  0.666667  0.333333  0.500000  1
  Ni  Ni2  1  0.618508  0.566309  0.000000  1
  Ni  Ni3  1  0.842705  0.714086  0.500000  1
  Ni  Ni4  1  0.947802  0.381492  0.000000  1
  Ni  Ni5  1  0.285914  0.128618  0.500000  1
  Ni  Ni6  1  0.135393  0.243093  0.000000  1
  Ni  Ni7  1  0.107700  0.864607  0.000000  1
  Ni  Ni8  1  0.756907  0.892300  0.000000  1
  Ni  Ni9  1  0.375260  0.437445  0.500000  1
  Ni  Ni10  1  0.562555  0.937816  0.500000  1
  Ni  Ni11  1  0.062184  0.624740  0.500000  1
  Ni  Ni12  1  0.871382  0.157295  0.500000  1
  Ni  Ni13  1  0.433691  0.052198  0.000000  1
  As  As14  1  0.000000  0.000000  0.500000  1
  P  P15  1  0.703536  0.111657  0.000000  1
  P  P16  1  0.112808  0.406167  0.500000  1
  P  P17  1  0.593833  0.706642  0.500000  1
  P  P18  1  0.293358  0.887192  0.500000  1
  P  P19  1  0.888343  0.591879  0.000000  1
  P  P20  1  0.408121  0.296464  0.000000  1
