# generated using pymatgen
data_Dy3HoGa18(Co2Pt)2
_symmetry_space_group_name_H-M   'P 1'
_cell_length_a   7.48754187
_cell_length_b   7.48750440
_cell_length_c   9.43248500
_cell_angle_alpha   90.00000000
_cell_angle_beta   90.00000000
_cell_angle_gamma   119.68202899
_symmetry_Int_Tables_number   1
_chemical_formula_structural   Dy3HoGa18(Co2Pt)2
_chemical_formula_sum   'Dy3 Ho1 Ga18 Co4 Pt2'
_cell_volume   459.42616822
_cell_formula_units_Z   1
loop_
 _symmetry_equiv_pos_site_id
 _symmetry_equiv_pos_as_xyz
  1  'x, y, z'
loop_
 _atom_site_type_symbol
 _atom_site_label
 _atom_site_symmetry_multiplicity
 _atom_site_fract_x
 _atom_site_fract_y
 _atom_site_fract_z
 _atom_site_occupancy
  Dy  Dy0  1  0.321937  0.003611  0.750000  1
  Dy  Dy1  1  0.003585  0.321998  0.750000  1
  Dy  Dy2  1  0.678158  0.996409  0.250000  1
  Ho  Ho3  1  0.996330  0.678199  0.250000  1
  Ga  Ga4  1  0.654236  0.002408  0.923698  1
  Ga  Ga5  1  0.345498  0.997326  0.423567  1
  Ga  Ga6  1  0.997565  0.345985  0.423532  1
  Ga  Ga7  1  0.345498  0.997326  0.076433  1
  Ga  Ga8  1  0.002401  0.654213  0.923905  1
  Ga  Ga9  1  0.997565  0.345985  0.076467  1
  Ga  Ga10  1  0.344299  0.344217  0.564383  1
  Ga  Ga11  1  0.344299  0.344217  0.935617  1
  Ga  Ga12  1  0.655971  0.655666  0.064521  1
  Ga  Ga13  1  0.655971  0.655666  0.435479  1
  Ga  Ga14  1  0.854554  0.854614  0.750000  1
  Ga  Ga15  1  0.145300  0.145259  0.250000  1
  Ga  Ga16  1  0.333447  0.558549  0.250000  1
  Ga  Ga17  1  0.558851  0.333952  0.250000  1
  Ga  Ga18  1  0.666357  0.441520  0.750000  1
  Ga  Ga19  1  0.441601  0.666462  0.750000  1
  Ga  Ga20  1  0.654236  0.002408  0.576303  1
  Ga  Ga21  1  0.002401  0.654213  0.576095  1
  Co  Co22  1  0.329551  0.670391  0.000118  1
  Co  Co23  1  0.670408  0.329598  0.499883  1
  Co  Co24  1  0.670408  0.329598  0.000117  1
  Co  Co25  1  0.329551  0.670391  0.499882  1
  Pt  Pt26  1  0.000010  0.999910  0.000101  1
  Pt  Pt27  1  0.000010  0.999910  0.499899  1
