# generated using pymatgen
data_La14Pt5Rh
_symmetry_space_group_name_H-M   'P 1'
_cell_length_a   6.60178899
_cell_length_b   10.33806864
_cell_length_c   10.33952400
_cell_angle_alpha   119.98871646
_cell_angle_beta   89.98258380
_cell_angle_gamma   90.00402273
_symmetry_Int_Tables_number   1
_chemical_formula_structural   La14Pt5Rh
_chemical_formula_sum   'La14 Pt5 Rh1'
_cell_volume   611.19750675
_cell_formula_units_Z   1
loop_
 _symmetry_equiv_pos_site_id
 _symmetry_equiv_pos_as_xyz
  1  'x, y, z'
loop_
 _atom_site_type_symbol
 _atom_site_label
 _atom_site_symmetry_multiplicity
 _atom_site_fract_x
 _atom_site_fract_y
 _atom_site_fract_z
 _atom_site_occupancy
  La  La0  1  0.466089  0.331618  0.663246  1
  La  La1  1  0.961048  0.666936  0.333819  1
  La  La2  1  0.247149  0.126695  0.872501  1
  La  La3  1  0.247143  0.745750  0.872470  1
  La  La4  1  0.251946  0.127137  0.254321  1
  La  La5  1  0.745926  0.878144  0.130196  1
  La  La6  1  0.746003  0.252120  0.130241  1
  La  La7  1  0.746592  0.872869  0.745719  1
  La  La8  1  0.440280  0.537204  0.461306  1
  La  La9  1  0.440158  0.924049  0.461308  1
  La  La10  1  0.441577  0.537771  0.075630  1
  La  La11  1  0.938359  0.457274  0.535852  1
  La  La12  1  0.938252  0.078614  0.535791  1
  La  La13  1  0.941251  0.462194  0.924321  1
  Pt  Pt14  1  0.191616  0.811263  0.187917  1
  Pt  Pt15  1  0.191587  0.376644  0.187937  1
  Pt  Pt16  1  0.192071  0.811686  0.623423  1
  Pt  Pt17  1  0.691694  0.188576  0.813160  1
  Pt  Pt18  1  0.691740  0.624583  0.813125  1
  Rh  Rh19  1  0.691517  0.188872  0.377717  1
