# generated using pymatgen
data_ErSn6IrRu3
_symmetry_space_group_name_H-M   'P 1'
_cell_length_a   6.96622011
_cell_length_b   6.96606455
_cell_length_c   6.96719630
_cell_angle_alpha   120.48581287
_cell_angle_beta   120.48654932
_cell_angle_gamma   89.15114399
_symmetry_Int_Tables_number   1
_chemical_formula_structural   ErSn6IrRu3
_chemical_formula_sum   'Er1 Sn6 Ir1 Ru3'
_cell_volume   237.30492999
_cell_formula_units_Z   1
loop_
 _symmetry_equiv_pos_site_id
 _symmetry_equiv_pos_as_xyz
  1  'x, y, z'
loop_
 _atom_site_type_symbol
 _atom_site_label
 _atom_site_symmetry_multiplicity
 _atom_site_fract_x
 _atom_site_fract_y
 _atom_site_fract_z
 _atom_site_occupancy
  Er  Er0  1  0.000580  0.997963  0.000000  1
  Sn  Sn1  1  0.876704  0.533362  0.000000  1
  Sn  Sn2  1  0.537074  0.881227  0.000000  1
  Sn  Sn3  1  0.120156  0.115224  0.650223  1
  Sn  Sn4  1  0.000686  0.499593  0.495249  1
  Sn  Sn5  1  0.469933  0.465001  0.349777  1
  Sn  Sn6  1  0.505437  0.004343  0.504751  1
  Ir  Ir7  1  0.242993  0.601774  0.000000  1
  Ru  Ru8  1  0.400361  0.402632  0.651361  1
  Ru  Ru9  1  0.597077  0.247610  0.000000  1
  Ru  Ru10  1  0.749000  0.751271  0.348639  1
