# generated using pymatgen
data_Y13Er3MgHg3Pd4
_symmetry_space_group_name_H-M   'P 1'
_cell_length_a   9.70307500
_cell_length_b   9.72311663
_cell_length_c   9.72311600
_cell_angle_alpha   60.00000215
_cell_angle_beta   59.93165265
_cell_angle_gamma   59.93165265
_symmetry_Int_Tables_number   1
_chemical_formula_structural   Y13Er3MgHg3Pd4
_chemical_formula_sum   'Y13 Er3 Mg1 Hg3 Pd4'
_cell_volume   647.97153807
_cell_formula_units_Z   1
loop_
 _symmetry_equiv_pos_site_id
 _symmetry_equiv_pos_as_xyz
  1  'x, y, z'
loop_
 _atom_site_type_symbol
 _atom_site_label
 _atom_site_symmetry_multiplicity
 _atom_site_fract_x
 _atom_site_fract_y
 _atom_site_fract_z
 _atom_site_occupancy
  Y  Y0  1  0.924472  0.358509  0.358509  1
  Y  Y1  1  0.808980  0.190018  0.190018  1
  Y  Y2  1  0.186445  0.812288  0.812288  1
  Y  Y3  1  0.186445  0.812288  0.188978  1
  Y  Y4  1  0.808980  0.190018  0.810984  1
  Y  Y5  1  0.186445  0.188978  0.812288  1
  Y  Y6  1  0.808980  0.810984  0.190018  1
  Y  Y7  1  0.933616  0.565954  0.565954  1
  Y  Y8  1  0.564733  0.934974  0.934974  1
  Y  Y9  1  0.564733  0.934974  0.565318  1
  Y  Y10  1  0.933616  0.565954  0.934476  1
  Y  Y11  1  0.564733  0.565318  0.934974  1
  Y  Y12  1  0.933616  0.934476  0.565954  1
  Er  Er13  1  0.356316  0.352494  0.352494  1
  Er  Er14  1  0.356316  0.352494  0.938698  1
  Er  Er15  1  0.356316  0.938698  0.352494  1
  Mg  Mg16  1  0.279853  0.573382  0.573382  1
  Hg  Hg17  1  0.582519  0.589345  0.589345  1
  Hg  Hg18  1  0.582519  0.589345  0.238790  1
  Hg  Hg19  1  0.582519  0.238790  0.589345  1
  Pd  Pd20  1  0.145224  0.146518  0.146518  1
  Pd  Pd21  1  0.145224  0.146518  0.561739  1
  Pd  Pd22  1  0.145224  0.561739  0.146518  1
  Pd  Pd23  1  0.562169  0.145943  0.145943  1
