# generated using pymatgen
data_TaSe6Br7
_symmetry_space_group_name_H-M   'P 1'
_cell_length_a   7.01154773
_cell_length_b   8.69221422
_cell_length_c   8.38728907
_cell_angle_alpha   92.46149873
_cell_angle_beta   100.27314417
_cell_angle_gamma   96.48997312
_symmetry_Int_Tables_number   1
_chemical_formula_structural   TaSe6Br7
_chemical_formula_sum   'Ta1 Se6 Br7'
_cell_volume   498.71054395
_cell_formula_units_Z   1
loop_
 _symmetry_equiv_pos_site_id
 _symmetry_equiv_pos_as_xyz
  1  'x, y, z'
loop_
 _atom_site_type_symbol
 _atom_site_label
 _atom_site_symmetry_multiplicity
 _atom_site_fract_x
 _atom_site_fract_y
 _atom_site_fract_z
 _atom_site_occupancy
  Ta  Ta0  1  0.500000  0.500000  0.500000  1
  Se  Se1  1  0.947309  0.958489  0.737926  1
  Se  Se2  1  0.018008  0.794783  0.138372  1
  Se  Se3  1  0.823298  0.186466  0.096947  1
  Se  Se4  1  0.981992  0.205217  0.861628  1
  Se  Se5  1  0.176702  0.813534  0.903053  1
  Se  Se6  1  0.052691  0.041511  0.262074  1
  Br  Br7  1  0.500000  0.000000  0.000000  1
  Br  Br8  1  0.376546  0.758167  0.549373  1
  Br  Br9  1  0.360634  0.500106  0.199660  1
  Br  Br10  1  0.623454  0.241833  0.450627  1
  Br  Br11  1  0.819370  0.645599  0.454328  1
  Br  Br12  1  0.180630  0.354401  0.545672  1
  Br  Br13  1  0.639366  0.499894  0.800340  1
