# generated using pymatgen
data_LaNd(Co5P3)2
_symmetry_space_group_name_H-M   'P 1'
_cell_length_a   6.01191820
_cell_length_b   6.01191772
_cell_length_c   11.41601300
_cell_angle_alpha   90.00000000
_cell_angle_beta   90.00000000
_cell_angle_gamma   144.88772874
_symmetry_Int_Tables_number   1
_chemical_formula_structural   LaNd(Co5P3)2
_chemical_formula_sum   'La1 Nd1 Co10 P6'
_cell_volume   237.32564696
_cell_formula_units_Z   1
loop_
 _symmetry_equiv_pos_site_id
 _symmetry_equiv_pos_as_xyz
  1  'x, y, z'
loop_
 _atom_site_type_symbol
 _atom_site_label
 _atom_site_symmetry_multiplicity
 _atom_site_fract_x
 _atom_site_fract_y
 _atom_site_fract_z
 _atom_site_occupancy
  La  La0  1  0.661966  0.338034  0.750000  1
  Nd  Nd1  1  0.339018  0.660982  0.250000  1
  Co  Co2  1  0.053646  0.946354  0.142938  1
  Co  Co3  1  0.053646  0.946354  0.357062  1
  Co  Co4  1  0.698313  0.301687  0.430338  1
  Co  Co5  1  0.301876  0.698124  0.567447  1
  Co  Co6  1  0.301876  0.698124  0.932553  1
  Co  Co7  1  0.698313  0.301687  0.069662  1
  Co  Co8  1  0.500012  0.499988  0.499186  1
  Co  Co9  1  0.500012  0.499988  0.000814  1
  Co  Co10  1  0.945560  0.054440  0.641735  1
  Co  Co11  1  0.945560  0.054440  0.858265  1
  P  P12  1  0.609457  0.390543  0.250000  1
  P  P13  1  0.391022  0.608978  0.750000  1
  P  P14  1  0.116980  0.883020  0.537272  1
  P  P15  1  0.882881  0.117119  0.461122  1
  P  P16  1  0.882881  0.117119  0.038878  1
  P  P17  1  0.116980  0.883020  0.962728  1
