# generated using pymatgen
data_Hf8Co3Si16Ni9
_symmetry_space_group_name_H-M   'P 1'
_cell_length_a   5.19247600
_cell_length_b   6.84014350
_cell_length_c   13.64410427
_cell_angle_alpha   90.24463490
_cell_angle_beta   90.00000000
_cell_angle_gamma   90.00000000
_symmetry_Int_Tables_number   1
_chemical_formula_structural   Hf8Co3Si16Ni9
_chemical_formula_sum   'Hf8 Co3 Si16 Ni9'
_cell_volume   484.59706749
_cell_formula_units_Z   1
loop_
 _symmetry_equiv_pos_site_id
 _symmetry_equiv_pos_as_xyz
  1  'x, y, z'
loop_
 _atom_site_type_symbol
 _atom_site_label
 _atom_site_symmetry_multiplicity
 _atom_site_fract_x
 _atom_site_fract_y
 _atom_site_fract_z
 _atom_site_occupancy
  Hf  Hf0  1  0.246226  0.401993  0.146004  1
  Hf  Hf1  1  0.746195  0.097013  0.146407  1
  Hf  Hf2  1  0.253709  0.097719  0.645659  1
  Hf  Hf3  1  0.753778  0.402774  0.646047  1
  Hf  Hf4  1  0.246226  0.598007  0.353996  1
  Hf  Hf5  1  0.746195  0.902987  0.353593  1
  Hf  Hf6  1  0.253709  0.902281  0.854341  1
  Hf  Hf7  1  0.753778  0.597226  0.853953  1
  Co  Co8  1  0.744919  0.500000  0.250000  1
  Co  Co9  1  0.244897  0.000000  0.250000  1
  Co  Co10  1  0.255042  0.500000  0.750000  1
  Si  Si11  1  0.245827  0.021369  0.072022  1
  Si  Si12  1  0.745790  0.523276  0.428235  1
  Si  Si13  1  0.754242  0.023851  0.568784  1
  Si  Si14  1  0.495016  0.750122  0.189242  1
  Si  Si15  1  0.006411  0.252005  0.811332  1
  Si  Si16  1  0.502868  0.250985  0.811318  1
  Si  Si17  1  0.245827  0.978631  0.427978  1
  Si  Si18  1  0.254317  0.521064  0.928808  1
  Si  Si19  1  0.995459  0.749191  0.189241  1
  Si  Si20  1  0.745790  0.476724  0.071765  1
  Si  Si21  1  0.254317  0.478936  0.571192  1
  Si  Si22  1  0.495016  0.249878  0.310758  1
  Si  Si23  1  0.006411  0.747995  0.688668  1
  Si  Si24  1  0.754242  0.976149  0.931216  1
  Si  Si25  1  0.502868  0.749015  0.688682  1
  Si  Si26  1  0.995459  0.250809  0.310759  1
  Ni  Ni27  1  0.999326  0.251703  0.980082  1
  Ni  Ni28  1  0.500750  0.249260  0.479902  1
  Ni  Ni29  1  0.755422  0.000000  0.750000  1
  Ni  Ni30  1  0.499048  0.245980  0.980093  1
  Ni  Ni31  1  0.499048  0.754020  0.519907  1
  Ni  Ni32  1  0.000898  0.254017  0.479932  1
  Ni  Ni33  1  0.000898  0.745983  0.020068  1
  Ni  Ni34  1  0.500750  0.750740  0.020098  1
  Ni  Ni35  1  0.999326  0.748297  0.519918  1
