# generated using pymatgen
data_Ta12Cr11SiN4
_symmetry_space_group_name_H-M   'P 1'
_cell_length_a   8.11444900
_cell_length_b   8.08542026
_cell_length_c   8.08542000
_cell_angle_alpha   60.00000106
_cell_angle_beta   60.11827057
_cell_angle_gamma   60.11827314
_symmetry_Int_Tables_number   1
_chemical_formula_structural   Ta12Cr11SiN4
_chemical_formula_sum   'Ta12 Cr11 Si1 N4'
_cell_volume   375.77102875
_cell_formula_units_Z   1
loop_
 _symmetry_equiv_pos_site_id
 _symmetry_equiv_pos_as_xyz
  1  'x, y, z'
loop_
 _atom_site_type_symbol
 _atom_site_label
 _atom_site_symmetry_multiplicity
 _atom_site_fract_x
 _atom_site_fract_y
 _atom_site_fract_z
 _atom_site_occupancy
  Ta  Ta0  1  0.805900  0.806858  0.193621  1
  Ta  Ta1  1  0.191963  0.193895  0.807071  1
  Ta  Ta2  1  0.805900  0.193621  0.806858  1
  Ta  Ta3  1  0.191963  0.807071  0.193895  1
  Ta  Ta4  1  0.191963  0.807071  0.807071  1
  Ta  Ta5  1  0.805900  0.193621  0.193621  1
  Ta  Ta6  1  0.442951  0.443798  0.056626  1
  Ta  Ta7  1  0.054583  0.056317  0.444550  1
  Ta  Ta8  1  0.442951  0.056626  0.443798  1
  Ta  Ta9  1  0.054583  0.444550  0.056317  1
  Ta  Ta10  1  0.054583  0.444550  0.444550  1
  Ta  Ta11  1  0.442951  0.056626  0.056626  1
  Cr  Cr12  1  0.127337  0.624221  0.624221  1
  Cr  Cr13  1  0.626981  0.117101  0.627959  1
  Cr  Cr14  1  0.626981  0.627959  0.117101  1
  Cr  Cr15  1  0.626981  0.627959  0.627959  1
  Cr  Cr16  1  0.421298  0.731926  0.423388  1
  Cr  Cr17  1  0.421298  0.423388  0.731926  1
  Cr  Cr18  1  0.421298  0.423388  0.423388  1
  Cr  Cr19  1  0.511063  0.829646  0.829646  1
  Cr  Cr20  1  0.829566  0.512371  0.829032  1
  Cr  Cr21  1  0.829566  0.829032  0.512371  1
  Cr  Cr22  1  0.829566  0.829032  0.829032  1
  Si  Si23  1  0.742025  0.419325  0.419325  1
  N  N24  1  0.624998  0.125001  0.125001  1
  N  N25  1  0.124952  0.625411  0.124818  1
  N  N26  1  0.124952  0.124818  0.625411  1
  N  N27  1  0.124952  0.124818  0.124818  1
