# generated using pymatgen
data_Tb6MnAl24Cu3Ru4
_symmetry_space_group_name_H-M   'P 1'
_cell_length_a   8.81484004
_cell_length_b   8.77933245
_cell_length_c   9.46873299
_cell_angle_alpha   90.02284532
_cell_angle_beta   90.06344308
_cell_angle_gamma   119.44310971
_symmetry_Int_Tables_number   1
_chemical_formula_structural   Tb6MnAl24Cu3Ru4
_chemical_formula_sum   'Tb6 Mn1 Al24 Cu3 Ru4'
_cell_volume   638.12791939
_cell_formula_units_Z   1
loop_
 _symmetry_equiv_pos_site_id
 _symmetry_equiv_pos_as_xyz
  1  'x, y, z'
loop_
 _atom_site_type_symbol
 _atom_site_label
 _atom_site_symmetry_multiplicity
 _atom_site_fract_x
 _atom_site_fract_y
 _atom_site_fract_z
 _atom_site_occupancy
  Tb  Tb0  1  0.382995  0.191836  0.253012  1
  Tb  Tb1  1  0.807985  0.194584  0.250945  1
  Tb  Tb2  1  0.809437  0.615838  0.247606  1
  Tb  Tb3  1  0.617005  0.808164  0.746988  1
  Tb  Tb4  1  0.192015  0.805416  0.749055  1
  Tb  Tb5  1  0.190563  0.384162  0.752394  1
  Mn  Mn6  1  0.000000  0.000000  0.000000  1
  Al  Al7  1  0.436958  0.874948  0.247225  1
  Al  Al8  1  0.124179  0.562452  0.249474  1
  Al  Al9  1  0.438538  0.562070  0.249263  1
  Al  Al10  1  0.563042  0.125052  0.752775  1
  Al  Al11  1  0.875821  0.437548  0.750526  1
  Al  Al12  1  0.561462  0.437930  0.750737  1
  Al  Al13  1  0.157384  0.832420  0.418715  1
  Al  Al14  1  0.157335  0.324989  0.422370  1
  Al  Al15  1  0.677698  0.837800  0.420229  1
  Al  Al16  1  0.842616  0.167580  0.581285  1
  Al  Al17  1  0.842665  0.675011  0.577630  1
  Al  Al18  1  0.322302  0.162200  0.579771  1
  Al  Al19  1  0.838705  0.159735  0.924187  1
  Al  Al20  1  0.845824  0.681657  0.924552  1
  Al  Al21  1  0.317363  0.152779  0.926570  1
  Al  Al22  1  0.161295  0.840265  0.075813  1
  Al  Al23  1  0.154176  0.318343  0.075448  1
  Al  Al24  1  0.682637  0.847221  0.073430  1
  Al  Al25  1  0.330080  0.664523  0.524418  1
  Al  Al26  1  0.669920  0.335477  0.475582  1
  Al  Al27  1  0.667755  0.331217  0.022427  1
  Al  Al28  1  0.332245  0.668783  0.977573  1
  Al  Al29  1  0.003415  0.000330  0.244507  1
  Al  Al30  1  0.996585  0.999670  0.755493  1
  Cu  Cu31  1  0.500000  0.000000  0.500000  1
  Cu  Cu32  1  0.500000  0.500000  0.500000  1
  Cu  Cu33  1  0.500000  0.500000  0.000000  1
  Ru  Ru34  1  0.000000  0.000000  0.500000  1
  Ru  Ru35  1  0.000000  0.500000  0.500000  1
  Ru  Ru36  1  0.500000  0.000000  0.000000  1
  Ru  Ru37  1  0.000000  0.500000  0.000000  1
