# generated using pymatgen
data_Ho7Tm(Nb3Si4)4
_symmetry_space_group_name_H-M   'P 1'
_cell_length_a   7.05730512
_cell_length_b   7.05948080
_cell_length_c   13.02136838
_cell_angle_alpha   89.98706645
_cell_angle_beta   90.01990497
_cell_angle_gamma   90.05835873
_symmetry_Int_Tables_number   1
_chemical_formula_structural   Ho7Tm(Nb3Si4)4
_chemical_formula_sum   'Ho7 Tm1 Nb12 Si16'
_cell_volume   648.73602960
_cell_formula_units_Z   1
loop_
 _symmetry_equiv_pos_site_id
 _symmetry_equiv_pos_as_xyz
  1  'x, y, z'
loop_
 _atom_site_type_symbol
 _atom_site_label
 _atom_site_symmetry_multiplicity
 _atom_site_fract_x
 _atom_site_fract_y
 _atom_site_fract_z
 _atom_site_occupancy
  Ho  Ho0  1  0.998303  0.340921  0.217829  1
  Ho  Ho1  1  0.001592  0.658658  0.717806  1
  Ho  Ho2  1  0.158669  0.498656  0.467729  1
  Ho  Ho3  1  0.501791  0.841619  0.032259  1
  Ho  Ho4  1  0.841886  0.501397  0.968015  1
  Ho  Ho5  1  0.498763  0.158573  0.532060  1
  Ho  Ho6  1  0.341417  0.998381  0.782213  1
  Tm  Tm7  1  0.658213  0.000553  0.282265  1
  Nb  Nb8  1  0.171220  0.171341  0.000112  1
  Nb  Nb9  1  0.828623  0.829139  0.499620  1
  Nb  Nb10  1  0.329013  0.671083  0.250191  1
  Nb  Nb11  1  0.671217  0.328964  0.749871  1
  Nb  Nb12  1  0.152795  0.992738  0.375760  1
  Nb  Nb13  1  0.846837  0.007176  0.875987  1
  Nb  Nb14  1  0.506663  0.653502  0.626263  1
  Nb  Nb15  1  0.346630  0.493158  0.873864  1
  Nb  Nb16  1  0.493465  0.346238  0.126712  1
  Nb  Nb17  1  0.652857  0.506732  0.373425  1
  Nb  Nb18  1  0.992599  0.153753  0.623821  1
  Nb  Nb19  1  0.006814  0.847058  0.124359  1
  Si  Si20  1  0.294736  0.044962  0.186478  1
  Si  Si21  1  0.706145  0.954593  0.686335  1
  Si  Si22  1  0.454950  0.794627  0.436183  1
  Si  Si23  1  0.206253  0.545368  0.064018  1
  Si  Si24  1  0.545349  0.206066  0.936343  1
  Si  Si25  1  0.794043  0.455276  0.563315  1
  Si  Si26  1  0.045486  0.294052  0.813539  1
  Si  Si27  1  0.954193  0.705840  0.313552  1
  Si  Si28  1  0.367141  0.294014  0.318214  1
  Si  Si29  1  0.633312  0.704532  0.818084  1
  Si  Si30  1  0.204686  0.867426  0.568062  1
  Si  Si31  1  0.133082  0.795290  0.932116  1
  Si  Si32  1  0.794888  0.132888  0.068498  1
  Si  Si33  1  0.866385  0.204824  0.431225  1
  Si  Si34  1  0.295312  0.366937  0.681908  1
  Si  Si35  1  0.704671  0.633663  0.181970  1
