# generated using pymatgen
data_HoLu3Ni2(B2O5)4
_symmetry_space_group_name_H-M   'P 1'
_cell_length_a   4.50754158
_cell_length_b   7.20568068
_cell_length_c   9.37165331
_cell_angle_alpha   89.87727768
_cell_angle_beta   91.15419889
_cell_angle_gamma   89.95789814
_symmetry_Int_Tables_number   1
_chemical_formula_structural   HoLu3Ni2(B2O5)4
_chemical_formula_sum   'Ho1 Lu3 Ni2 B8 O20'
_cell_volume   304.32786248
_cell_formula_units_Z   1
loop_
 _symmetry_equiv_pos_site_id
 _symmetry_equiv_pos_as_xyz
  1  'x, y, z'
loop_
 _atom_site_type_symbol
 _atom_site_label
 _atom_site_symmetry_multiplicity
 _atom_site_fract_x
 _atom_site_fract_y
 _atom_site_fract_z
 _atom_site_occupancy
  Ho  Ho0  1  0.002973  0.399279  0.164830  1
  Lu  Lu1  1  0.003119  0.099595  0.663701  1
  Lu  Lu2  1  0.997123  0.599767  0.835525  1
  Lu  Lu3  1  0.997718  0.900460  0.336778  1
  Ni  Ni4  1  0.000196  0.998763  0.999421  1
  Ni  Ni5  1  0.999222  0.500984  0.501018  1
  B  B6  1  0.463256  0.093649  0.162266  1
  B  B7  1  0.536459  0.597360  0.338728  1
  B  B8  1  0.537584  0.904471  0.837128  1
  B  B9  1  0.462417  0.404160  0.662517  1
  B  B10  1  0.472078  0.767467  0.584276  1
  B  B11  1  0.528254  0.266346  0.914671  1
  B  B12  1  0.527634  0.232679  0.416769  1
  B  B13  1  0.472175  0.733900  0.083646  1
  O  O14  1  0.248153  0.895282  0.538008  1
  O  O15  1  0.750298  0.395449  0.959503  1
  O  O16  1  0.753037  0.105501  0.462588  1
  O  O17  1  0.249722  0.606884  0.035702  1
  O  O18  1  0.324164  0.167034  0.296890  1
  O  O19  1  0.675883  0.669957  0.204209  1
  O  O20  1  0.677959  0.830851  0.703499  1
  O  O21  1  0.321022  0.330376  0.796002  1
  O  O22  1  0.334092  0.206429  0.038107  1
  O  O23  1  0.669579  0.709382  0.461578  1
  O  O24  1  0.670002  0.792407  0.961058  1
  O  O25  1  0.330211  0.291158  0.539317  1
  O  O26  1  0.318228  0.905158  0.143801  1
  O  O27  1  0.676897  0.406566  0.357996  1
  O  O28  1  0.681231  0.094248  0.854960  1
  O  O29  1  0.319721  0.594446  0.644078  1
  O  O30  1  0.778304  0.092661  0.168754  1
  O  O31  1  0.221293  0.599745  0.333328  1
  O  O32  1  0.222152  0.903970  0.830712  1
  O  O33  1  0.777854  0.403617  0.668645  1
