# generated using pymatgen
data_Tb5Dy6Er8Tm(CoSb2)4
_symmetry_space_group_name_H-M   'P 1'
_cell_length_a   7.85005290
_cell_length_b   8.76168103
_cell_length_c   12.18069208
_cell_angle_alpha   90.00742534
_cell_angle_beta   89.96709892
_cell_angle_gamma   89.99320007
_symmetry_Int_Tables_number   1
_chemical_formula_structural   Tb5Dy6Er8Tm(CoSb2)4
_chemical_formula_sum   'Tb5 Dy6 Er8 Tm1 Co4 Sb8'
_cell_volume   837.78370464
_cell_formula_units_Z   1
loop_
 _symmetry_equiv_pos_site_id
 _symmetry_equiv_pos_as_xyz
  1  'x, y, z'
loop_
 _atom_site_type_symbol
 _atom_site_label
 _atom_site_symmetry_multiplicity
 _atom_site_fract_x
 _atom_site_fract_y
 _atom_site_fract_z
 _atom_site_occupancy
  Tb  Tb0  1  0.546483  0.249930  0.002534  1
  Tb  Tb1  1  0.622149  0.750003  0.307329  1
  Tb  Tb2  1  0.122372  0.249954  0.192603  1
  Tb  Tb3  1  0.377431  0.249993  0.692706  1
  Tb  Tb4  1  0.877246  0.750073  0.807250  1
  Dy  Dy5  1  0.653783  0.249977  0.296759  1
  Dy  Dy6  1  0.846829  0.249983  0.797129  1
  Dy  Dy7  1  0.346503  0.750009  0.703015  1
  Dy  Dy8  1  0.452668  0.750052  0.998025  1
  Dy  Dy9  1  0.953544  0.249998  0.501791  1
  Dy  Dy10  1  0.046957  0.750007  0.497508  1
  Er  Er11  1  0.153207  0.750051  0.202463  1
  Er  Er12  1  0.322964  0.035295  0.434867  1
  Er  Er13  1  0.176961  0.465007  0.935184  1
  Er  Er14  1  0.677141  0.535114  0.565057  1
  Er  Er15  1  0.176810  0.034983  0.935245  1
  Er  Er16  1  0.677140  0.964886  0.565060  1
  Er  Er17  1  0.823223  0.536176  0.065450  1
  Er  Er18  1  0.322956  0.464704  0.434860  1
  Tm  Tm19  1  0.823626  0.963844  0.065386  1
  Co  Co20  1  0.436047  0.749998  0.491465  1
  Co  Co21  1  0.935620  0.249888  0.008811  1
  Co  Co22  1  0.564592  0.249999  0.508467  1
  Co  Co23  1  0.064247  0.750131  0.991688  1
  Sb  Sb24  1  0.930034  0.991428  0.326598  1
  Sb  Sb25  1  0.428212  0.007087  0.173281  1
  Sb  Sb26  1  0.070742  0.492135  0.672701  1
  Sb  Sb27  1  0.570819  0.508096  0.827047  1
  Sb  Sb28  1  0.070753  0.007851  0.672691  1
  Sb  Sb29  1  0.570781  0.991901  0.827048  1
  Sb  Sb30  1  0.930072  0.508568  0.326655  1
  Sb  Sb31  1  0.428091  0.492882  0.173328  1
