# generated using pymatgen
data_La3SmTa4(Bi2O11)2
_symmetry_space_group_name_H-M   'P 1'
_cell_length_a   6.72220126
_cell_length_b   7.78250473
_cell_length_c   9.97058206
_cell_angle_alpha   101.22256525
_cell_angle_beta   90.82466636
_cell_angle_gamma   90.05965407
_symmetry_Int_Tables_number   1
_chemical_formula_structural   La3SmTa4(Bi2O11)2
_chemical_formula_sum   'La3 Sm1 Ta4 Bi4 O22'
_cell_volume   511.58564476
_cell_formula_units_Z   1
loop_
 _symmetry_equiv_pos_site_id
 _symmetry_equiv_pos_as_xyz
  1  'x, y, z'
loop_
 _atom_site_type_symbol
 _atom_site_label
 _atom_site_symmetry_multiplicity
 _atom_site_fract_x
 _atom_site_fract_y
 _atom_site_fract_z
 _atom_site_occupancy
  La  La0  1  0.749863  0.368185  0.485295  1
  La  La1  1  0.247656  0.628073  0.510862  1
  La  La2  1  0.758670  0.874732  0.491071  1
  Sm  Sm3  1  0.242330  0.128729  0.516724  1
  Ta  Ta4  1  0.917190  0.701473  0.808303  1
  Ta  Ta5  1  0.083640  0.297416  0.192938  1
  Ta  Ta6  1  0.917309  0.202266  0.810214  1
  Ta  Ta7  1  0.082605  0.800007  0.191776  1
  Bi  Bi8  1  0.427190  0.954860  0.816084  1
  Bi  Bi9  1  0.565975  0.044985  0.184604  1
  Bi  Bi10  1  0.397012  0.455760  0.826273  1
  Bi  Bi11  1  0.600535  0.544620  0.173238  1
  O  O12  1  0.218295  0.726969  0.764559  1
  O  O13  1  0.782860  0.270982  0.234571  1
  O  O14  1  0.636720  0.661755  0.836041  1
  O  O15  1  0.363540  0.337885  0.160490  1
  O  O16  1  0.636607  0.253997  0.837295  1
  O  O17  1  0.364232  0.745404  0.160704  1
  O  O18  1  0.901293  0.155367  0.596491  1
  O  O19  1  0.107993  0.855052  0.404500  1
  O  O20  1  0.217876  0.154078  0.762141  1
  O  O21  1  0.784219  0.848920  0.237028  1
  O  O22  1  0.900375  0.642268  0.596580  1
  O  O23  1  0.104673  0.346431  0.402705  1
  O  O24  1  0.028150  0.552475  0.207075  1
  O  O25  1  0.976708  0.449795  0.801222  1
  O  O26  1  0.998495  0.772280  0.000305  1
  O  O27  1  0.001013  0.226813  0.999712  1
  O  O28  1  0.572719  0.597095  0.388871  1
  O  O29  1  0.422091  0.398793  0.610496  1
  O  O30  1  0.155874  0.051965  0.206681  1
  O  O31  1  0.848833  0.945773  0.784853  1
  O  O32  1  0.538712  0.101234  0.398117  1
  O  O33  1  0.448747  0.903560  0.602182  1
