# generated using pymatgen
data_Yb2Ge3PdO10
_symmetry_space_group_name_H-M   'P 1'
_cell_length_a   5.85763600
_cell_length_b   7.33369500
_cell_length_c   8.43675300
_cell_angle_alpha   90.00000000
_cell_angle_beta   90.00000000
_cell_angle_gamma   90.00000000
_symmetry_Int_Tables_number   1
_chemical_formula_structural   Yb2Ge3PdO10
_chemical_formula_sum   'Yb4 Ge6 Pd2 O20'
_cell_volume   362.42701273
_cell_formula_units_Z   2
loop_
 _symmetry_equiv_pos_site_id
 _symmetry_equiv_pos_as_xyz
  1  'x, y, z'
loop_
 _atom_site_type_symbol
 _atom_site_label
 _atom_site_symmetry_multiplicity
 _atom_site_fract_x
 _atom_site_fract_y
 _atom_site_fract_z
 _atom_site_occupancy
  Yb  Yb0  1  0.498371  0.367675  0.167396  1
  Yb  Yb1  1  0.498371  0.632325  0.832604  1
  Yb  Yb2  1  0.501629  0.867675  0.332604  1
  Yb  Yb3  1  0.501629  0.132325  0.667396  1
  Ge  Ge4  1  0.998700  0.605045  0.146408  1
  Ge  Ge5  1  0.998700  0.394955  0.853592  1
  Ge  Ge6  1  0.001300  0.105045  0.353592  1
  Ge  Ge7  1  0.001300  0.894955  0.646408  1
  Ge  Ge8  1  0.749926  0.500000  0.500000  1
  Ge  Ge9  1  0.250074  0.000000  0.000000  1
  Pd  Pd10  1  0.252621  0.500000  0.500000  1
  Pd  Pd11  1  0.747379  0.000000  0.000000  1
  O  O12  1  0.009989  0.842434  0.075897  1
  O  O13  1  0.009989  0.157566  0.924103  1
  O  O14  1  0.990011  0.342434  0.424103  1
  O  O15  1  0.990011  0.657566  0.575897  1
  O  O16  1  0.513197  0.337285  0.443059  1
  O  O17  1  0.513197  0.662715  0.556941  1
  O  O18  1  0.486803  0.837285  0.056941  1
  O  O19  1  0.486803  0.162715  0.943059  1
  O  O20  1  0.206957  0.500000  0.000000  1
  O  O21  1  0.793043  0.000000  0.500000  1
  O  O22  1  0.788320  0.500000  0.000000  1
  O  O23  1  0.211680  0.000000  0.500000  1
  O  O24  1  0.239807  0.109457  0.209316  1
  O  O25  1  0.239807  0.890543  0.790684  1
  O  O26  1  0.760193  0.609457  0.290684  1
  O  O27  1  0.760193  0.390543  0.709316  1
  O  O28  1  0.745695  0.890257  0.780389  1
  O  O29  1  0.745695  0.109743  0.219611  1
  O  O30  1  0.254305  0.390257  0.719611  1
  O  O31  1  0.254305  0.609743  0.280389  1
