# generated using pymatgen
data_Ce2URe3
_symmetry_space_group_name_H-M   'P 1'
_cell_length_a   5.80040500
_cell_length_b   5.80040468
_cell_length_c   8.30613400
_cell_angle_alpha   90.00000000
_cell_angle_beta   90.00000000
_cell_angle_gamma   119.99999613
_symmetry_Int_Tables_number   1
_chemical_formula_structural   Ce2URe3
_chemical_formula_sum   'Ce4 U2 Re6'
_cell_volume   242.01717889
_cell_formula_units_Z   2
loop_
 _symmetry_equiv_pos_site_id
 _symmetry_equiv_pos_as_xyz
  1  'x, y, z'
loop_
 _atom_site_type_symbol
 _atom_site_label
 _atom_site_symmetry_multiplicity
 _atom_site_fract_x
 _atom_site_fract_y
 _atom_site_fract_z
 _atom_site_occupancy
  Ce  Ce0  1  0.333334  0.666667  0.067456  1
  Ce  Ce1  1  0.333334  0.666667  0.432545  1
  Ce  Ce2  1  0.666667  0.333334  0.567456  1
  Ce  Ce3  1  0.666667  0.333334  0.932544  1
  U  U4  1  0.000000  0.000000  0.000000  1
  U  U5  1  0.000000  0.000000  0.500000  1
  Re  Re6  1  0.333683  0.166842  0.250000  1
  Re  Re7  1  0.833159  0.166842  0.250000  1
  Re  Re8  1  0.833158  0.666317  0.250000  1
  Re  Re9  1  0.166841  0.333682  0.750001  1
  Re  Re10  1  0.166841  0.833158  0.750001  1
  Re  Re11  1  0.666318  0.833158  0.750001  1
