# generated using pymatgen
data_Tb4Ho2Al23VOs8
_symmetry_space_group_name_H-M   'P 1'
_cell_length_a   8.84340904
_cell_length_b   8.84340909
_cell_length_c   9.54349803
_cell_angle_alpha   90.00813407
_cell_angle_beta   89.99186662
_cell_angle_gamma   120.00699606
_symmetry_Int_Tables_number   1
_chemical_formula_structural   Tb4Ho2Al23VOs8
_chemical_formula_sum   'Tb4 Ho2 Al23 V1 Os8'
_cell_volume   646.31914747
_cell_formula_units_Z   1
loop_
 _symmetry_equiv_pos_site_id
 _symmetry_equiv_pos_as_xyz
  1  'x, y, z'
loop_
 _atom_site_type_symbol
 _atom_site_label
 _atom_site_symmetry_multiplicity
 _atom_site_fract_x
 _atom_site_fract_y
 _atom_site_fract_z
 _atom_site_occupancy
  Tb  Tb0  1  0.195059  0.390420  0.246399  1
  Tb  Tb1  1  0.807496  0.614646  0.750311  1
  Tb  Tb2  1  0.609580  0.804941  0.246399  1
  Tb  Tb3  1  0.385354  0.192504  0.750311  1
  Ho  Ho4  1  0.195654  0.804346  0.246132  1
  Ho  Ho5  1  0.806887  0.193113  0.750267  1
  Al  Al6  1  0.666889  0.333111  0.977637  1
  Al  Al7  1  0.666856  0.333144  0.518933  1
  Al  Al8  1  0.333141  0.666859  0.483083  1
  Al  Al9  1  0.162001  0.324362  0.575593  1
  Al  Al10  1  0.837387  0.674468  0.424646  1
  Al  Al11  1  0.675638  0.837999  0.575593  1
  Al  Al12  1  0.835817  0.671329  0.076657  1
  Al  Al13  1  0.325532  0.162613  0.424646  1
  Al  Al14  1  0.160324  0.320998  0.925145  1
  Al  Al15  1  0.162243  0.837757  0.575346  1
  Al  Al16  1  0.328671  0.164183  0.076657  1
  Al  Al17  1  0.837177  0.162823  0.425004  1
  Al  Al18  1  0.679002  0.839676  0.925145  1
  Al  Al19  1  0.835582  0.164418  0.076382  1
  Al  Al20  1  0.160532  0.839468  0.925450  1
  Al  Al21  1  0.561875  0.124172  0.253410  1
  Al  Al22  1  0.441762  0.883056  0.751156  1
  Al  Al23  1  0.875828  0.438125  0.253410  1
  Al  Al24  1  0.116944  0.558238  0.751156  1
  Al  Al25  1  0.562289  0.437711  0.253395  1
  Al  Al26  1  0.441278  0.558722  0.751119  1
  Al  Al27  1  0.000247  0.999753  0.250335  1
  Al  Al28  1  0.999763  0.000237  0.749562  1
  V  V29  1  0.333353  0.666647  0.983094  1
  Os  Os30  1  0.495142  0.990559  0.005578  1
  Os  Os31  1  0.009441  0.504858  0.005578  1
  Os  Os32  1  0.499464  0.998792  0.503588  1
  Os  Os33  1  0.495242  0.504758  0.005580  1
  Os  Os34  1  0.001208  0.500536  0.503588  1
  Os  Os35  1  0.499354  0.500646  0.503535  1
  Os  Os36  1  0.999969  0.000031  0.000853  1
  Os  Os37  1  0.000016  0.999984  0.499325  1
