# generated using pymatgen
data_CdAuF7
_symmetry_space_group_name_H-M   'P 1'
_cell_length_a   7.34232900
_cell_length_b   8.04727900
_cell_length_c   10.38732200
_cell_angle_alpha   90.00000000
_cell_angle_beta   90.00000000
_cell_angle_gamma   90.00000000
_symmetry_Int_Tables_number   1
_chemical_formula_structural   CdAuF7
_chemical_formula_sum   'Cd4 Au4 F28'
_cell_volume   613.74291833
_cell_formula_units_Z   4
loop_
 _symmetry_equiv_pos_site_id
 _symmetry_equiv_pos_as_xyz
  1  'x, y, z'
loop_
 _atom_site_type_symbol
 _atom_site_label
 _atom_site_symmetry_multiplicity
 _atom_site_fract_x
 _atom_site_fract_y
 _atom_site_fract_z
 _atom_site_occupancy
  Cd  Cd0  1  0.750000  0.867214  0.737498  1
  Cd  Cd1  1  0.750000  0.367214  0.762502  1
  Cd  Cd2  1  0.250000  0.132786  0.262502  1
  Cd  Cd3  1  0.250000  0.632786  0.237498  1
  Au  Au4  1  0.250000  0.803404  0.557387  1
  Au  Au5  1  0.250000  0.303404  0.942613  1
  Au  Au6  1  0.750000  0.196596  0.442613  1
  Au  Au7  1  0.750000  0.696596  0.057387  1
  F  F8  1  0.750000  0.611605  0.686814  1
  F  F9  1  0.750000  0.111605  0.813186  1
  F  F10  1  0.250000  0.388395  0.313186  1
  F  F11  1  0.250000  0.888395  0.186814  1
  F  F12  1  0.750000  0.973186  0.522619  1
  F  F13  1  0.750000  0.473186  0.977381  1
  F  F14  1  0.250000  0.026814  0.477381  1
  F  F15  1  0.250000  0.526814  0.022619  1
  F  F16  1  0.930039  0.772229  0.931939  1
  F  F17  1  0.569961  0.272229  0.568061  1
  F  F18  1  0.430039  0.227771  0.068061  1
  F  F19  1  0.069961  0.727771  0.431939  1
  F  F20  1  0.069961  0.227771  0.068061  1
  F  F21  1  0.430039  0.727771  0.431939  1
  F  F22  1  0.569961  0.772229  0.931939  1
  F  F23  1  0.930039  0.272229  0.568061  1
  F  F24  1  0.433888  0.879957  0.680708  1
  F  F25  1  0.066112  0.379957  0.819292  1
  F  F26  1  0.933888  0.120043  0.319292  1
  F  F27  1  0.566112  0.620043  0.180708  1
  F  F28  1  0.566112  0.120043  0.319292  1
  F  F29  1  0.933888  0.620043  0.180708  1
  F  F30  1  0.066112  0.879957  0.680708  1
  F  F31  1  0.433888  0.379957  0.819292  1
  F  F32  1  0.250000  0.586249  0.635619  1
  F  F33  1  0.250000  0.086249  0.864381  1
  F  F34  1  0.750000  0.413751  0.364381  1
  F  F35  1  0.750000  0.913751  0.135619  1
