# generated using pymatgen
data_Li2Pr8Zn6PdRh7
_symmetry_space_group_name_H-M   'P 1'
_cell_length_a   4.08891000
_cell_length_b   7.30782288
_cell_length_c   16.61843442
_cell_angle_alpha   89.93151528
_cell_angle_beta   90.00000000
_cell_angle_gamma   90.00000000
_symmetry_Int_Tables_number   1
_chemical_formula_structural   Li2Pr8Zn6PdRh7
_chemical_formula_sum   'Li2 Pr8 Zn6 Pd1 Rh7'
_cell_volume   496.57558394
_cell_formula_units_Z   1
loop_
 _symmetry_equiv_pos_site_id
 _symmetry_equiv_pos_as_xyz
  1  'x, y, z'
loop_
 _atom_site_type_symbol
 _atom_site_label
 _atom_site_symmetry_multiplicity
 _atom_site_fract_x
 _atom_site_fract_y
 _atom_site_fract_z
 _atom_site_occupancy
  Li  Li0  1  0.750000  0.506637  0.939762  1
  Li  Li1  1  0.750000  0.006507  0.559947  1
  Pr  Pr2  1  0.750000  0.454341  0.216065  1
  Pr  Pr3  1  0.750000  0.953477  0.282142  1
  Pr  Pr4  1  0.750000  0.831055  0.060395  1
  Pr  Pr5  1  0.250000  0.041659  0.721573  1
  Pr  Pr6  1  0.250000  0.165044  0.940909  1
  Pr  Pr7  1  0.250000  0.546550  0.783701  1
  Pr  Pr8  1  0.750000  0.336046  0.435475  1
  Pr  Pr9  1  0.250000  0.669922  0.559697  1
  Zn  Zn10  1  0.250000  0.995653  0.438641  1
  Zn  Zn11  1  0.250000  0.626394  0.349761  1
  Zn  Zn12  1  0.750000  0.374445  0.652101  1
  Zn  Zn13  1  0.750000  0.870170  0.852139  1
  Zn  Zn14  1  0.250000  0.497444  0.058324  1
  Zn  Zn15  1  0.250000  0.125608  0.149000  1
  Pd  Pd16  1  0.250000  0.246214  0.565032  1
  Rh  Rh17  1  0.750000  0.255992  0.066158  1
  Rh  Rh18  1  0.250000  0.246337  0.313353  1
  Rh  Rh19  1  0.750000  0.247704  0.810500  1
  Rh  Rh20  1  0.250000  0.753135  0.935849  1
  Rh  Rh21  1  0.750000  0.748074  0.687673  1
  Rh  Rh22  1  0.750000  0.754280  0.434637  1
  Rh  Rh23  1  0.250000  0.747311  0.187167  1
