# generated using pymatgen
data_Sm2Zn2Ga7Pt3
_symmetry_space_group_name_H-M   'P 1'
_cell_length_a   7.67310000
_cell_length_b   7.70526786
_cell_length_c   9.59126600
_cell_angle_alpha   90.00000000
_cell_angle_beta   90.00000000
_cell_angle_gamma   119.35919394
_symmetry_Int_Tables_number   1
_chemical_formula_structural   Sm2Zn2Ga7Pt3
_chemical_formula_sum   'Sm4 Zn4 Ga14 Pt6'
_cell_volume   494.23491771
_cell_formula_units_Z   2
loop_
 _symmetry_equiv_pos_site_id
 _symmetry_equiv_pos_as_xyz
  1  'x, y, z'
loop_
 _atom_site_type_symbol
 _atom_site_label
 _atom_site_symmetry_multiplicity
 _atom_site_fract_x
 _atom_site_fract_y
 _atom_site_fract_z
 _atom_site_occupancy
  Sm  Sm0  1  0.996644  0.670457  0.250000  1
  Sm  Sm1  1  0.003356  0.329543  0.750000  1
  Sm  Sm2  1  0.673303  0.998717  0.250000  1
  Sm  Sm3  1  0.326697  0.001283  0.750000  1
  Zn  Zn4  1  0.139695  0.138978  0.250000  1
  Zn  Zn5  1  0.860305  0.861022  0.750000  1
  Zn  Zn6  1  0.342443  0.543247  0.250000  1
  Zn  Zn7  1  0.657557  0.456753  0.750000  1
  Ga  Ga8  1  0.009171  0.336630  0.085371  1
  Ga  Ga9  1  0.990829  0.663370  0.914629  1
  Ga  Ga10  1  0.990829  0.663370  0.585371  1
  Ga  Ga11  1  0.332682  0.001180  0.415946  1
  Ga  Ga12  1  0.009171  0.336630  0.414629  1
  Ga  Ga13  1  0.667318  0.998820  0.584054  1
  Ga  Ga14  1  0.667318  0.998820  0.915946  1
  Ga  Ga15  1  0.332682  0.001180  0.084054  1
  Ga  Ga16  1  0.336810  0.333368  0.564225  1
  Ga  Ga17  1  0.663190  0.666632  0.435775  1
  Ga  Ga18  1  0.663190  0.666632  0.064225  1
  Ga  Ga19  1  0.336810  0.333368  0.935775  1
  Ga  Ga20  1  0.536461  0.342189  0.250000  1
  Ga  Ga21  1  0.463539  0.657811  0.750000  1
  Pt  Pt22  1  0.674761  0.325790  0.003807  1
  Pt  Pt23  1  0.325239  0.674210  0.996193  1
  Pt  Pt24  1  0.325239  0.674210  0.503807  1
  Pt  Pt25  1  0.674761  0.325790  0.496193  1
  Pt  Pt26  1  0.000000  0.000000  0.000000  1
  Pt  Pt27  1  0.000000  0.000000  0.500000  1
