# generated using pymatgen
data_BaAg2(SeO4)4
_symmetry_space_group_name_H-M   'P 1'
_cell_length_a   7.11442574
_cell_length_b   7.11442633
_cell_length_c   9.50240291
_cell_angle_alpha   73.39153504
_cell_angle_beta   73.39153141
_cell_angle_gamma   87.57731452
_symmetry_Int_Tables_number   1
_chemical_formula_structural   BaAg2(SeO4)4
_chemical_formula_sum   'Ba1 Ag2 Se4 O16'
_cell_volume   441.26316279
_cell_formula_units_Z   1
loop_
 _symmetry_equiv_pos_site_id
 _symmetry_equiv_pos_as_xyz
  1  'x, y, z'
loop_
 _atom_site_type_symbol
 _atom_site_label
 _atom_site_symmetry_multiplicity
 _atom_site_fract_x
 _atom_site_fract_y
 _atom_site_fract_z
 _atom_site_occupancy
  Ba  Ba0  1  0.000000  0.000000  0.000000  1
  Ag  Ag1  1  0.000000  0.000000  0.500000  1
  Ag  Ag2  1  0.500000  0.500000  0.500000  1
  Se  Se3  1  0.088751  0.591738  0.727741  1
  Se  Se4  1  0.591738  0.088751  0.727741  1
  Se  Se5  1  0.911249  0.408262  0.272259  1
  Se  Se6  1  0.408262  0.911249  0.272259  1
  O  O7  1  0.341186  0.628957  0.661367  1
  O  O8  1  0.628957  0.341186  0.661367  1
  O  O9  1  0.658814  0.371043  0.338633  1
  O  O10  1  0.371043  0.658814  0.338633  1
  O  O11  1  0.020797  0.704221  0.861329  1
  O  O12  1  0.704221  0.020797  0.861329  1
  O  O13  1  0.979203  0.295779  0.138671  1
  O  O14  1  0.295779  0.979203  0.138671  1
  O  O15  1  0.988457  0.699726  0.579125  1
  O  O16  1  0.699726  0.988457  0.579125  1
  O  O17  1  0.011543  0.300274  0.420875  1
  O  O18  1  0.300274  0.011543  0.420875  1
  O  O19  1  0.027476  0.357747  0.773678  1
  O  O20  1  0.357747  0.027476  0.773678  1
  O  O21  1  0.972524  0.642253  0.226322  1
  O  O22  1  0.642253  0.972524  0.226322  1
