# generated using pymatgen
data_La8TbTm11Si16
_symmetry_space_group_name_H-M   'P 1'
_cell_length_a   7.77835479
_cell_length_b   7.77594361
_cell_length_c   14.41148483
_cell_angle_alpha   90.11251019
_cell_angle_beta   89.94712157
_cell_angle_gamma   90.00100464
_symmetry_Int_Tables_number   1
_chemical_formula_structural   La8TbTm11Si16
_chemical_formula_sum   'La8 Tb1 Tm11 Si16'
_cell_volume   871.66289066
_cell_formula_units_Z   1
loop_
 _symmetry_equiv_pos_site_id
 _symmetry_equiv_pos_as_xyz
  1  'x, y, z'
loop_
 _atom_site_type_symbol
 _atom_site_label
 _atom_site_symmetry_multiplicity
 _atom_site_fract_x
 _atom_site_fract_y
 _atom_site_fract_z
 _atom_site_occupancy
  La  La0  1  0.990085  0.639785  0.042934  1
  La  La1  1  0.010365  0.359827  0.541230  1
  La  La2  1  0.639664  0.989208  0.957823  1
  La  La3  1  0.139896  0.509942  0.792048  1
  La  La4  1  0.859818  0.489575  0.291861  1
  La  La5  1  0.511041  0.140507  0.208691  1
  La  La6  1  0.488986  0.860557  0.707285  1
  La  La7  1  0.359399  0.010946  0.458433  1
  Tb  Tb8  1  0.138448  0.990610  0.874995  1
  Tm  Tm9  1  0.361715  0.492303  0.374505  1
  Tm  Tm10  1  0.861853  0.007724  0.375480  1
  Tm  Tm11  1  0.992352  0.138021  0.125081  1
  Tm  Tm12  1  0.007599  0.861834  0.624125  1
  Tm  Tm13  1  0.638729  0.508949  0.875010  1
  Tm  Tm14  1  0.491999  0.362214  0.624444  1
  Tm  Tm15  1  0.508430  0.637313  0.126363  1
  Tm  Tm16  1  0.682664  0.683206  0.499737  1
  Tm  Tm17  1  0.815809  0.183944  0.749640  1
  Tm  Tm18  1  0.183302  0.817310  0.250641  1
  Tm  Tm19  1  0.317422  0.316591  0.000042  1
  Si  Si20  1  0.065449  0.713053  0.437150  1
  Si  Si21  1  0.933208  0.287692  0.937839  1
  Si  Si22  1  0.712869  0.065717  0.562455  1
  Si  Si23  1  0.213577  0.433807  0.187377  1
  Si  Si24  1  0.786310  0.565586  0.686834  1
  Si  Si25  1  0.435706  0.214851  0.811904  1
  Si  Si26  1  0.565536  0.787230  0.313110  1
  Si  Si27  1  0.288634  0.933500  0.064277  1
  Si  Si28  1  0.843753  0.797644  0.806234  1
  Si  Si29  1  0.153692  0.201635  0.308528  1
  Si  Si30  1  0.798553  0.846331  0.192454  1
  Si  Si31  1  0.298067  0.653918  0.557643  1
  Si  Si32  1  0.702290  0.345955  0.058296  1
  Si  Si33  1  0.653551  0.298522  0.441300  1
  Si  Si34  1  0.347298  0.699213  0.943917  1
  Si  Si35  1  0.201931  0.154981  0.690310  1
