# generated using pymatgen
data_Sm3Y2Bi3O14
_symmetry_space_group_name_H-M   'P 1'
_cell_length_a   6.64310951
_cell_length_b   6.68982443
_cell_length_c   7.81119700
_cell_angle_alpha   106.71689687
_cell_angle_beta   89.67708415
_cell_angle_gamma   98.58192462
_symmetry_Int_Tables_number   1
_chemical_formula_structural   Sm3Y2Bi3O14
_chemical_formula_sum   'Sm3 Y2 Bi3 O14'
_cell_volume   328.49095137
_cell_formula_units_Z   1
loop_
 _symmetry_equiv_pos_site_id
 _symmetry_equiv_pos_as_xyz
  1  'x, y, z'
loop_
 _atom_site_type_symbol
 _atom_site_label
 _atom_site_symmetry_multiplicity
 _atom_site_fract_x
 _atom_site_fract_y
 _atom_site_fract_z
 _atom_site_occupancy
  Sm  Sm0  1  0.270462  0.536224  0.882788  1
  Sm  Sm1  1  0.739559  0.458458  0.113683  1
  Sm  Sm2  1  0.746879  0.480483  0.618426  1
  Y  Y3  1  0.459838  0.008173  0.254872  1
  Y  Y4  1  0.537529  0.999680  0.749627  1
  Bi  Bi5  1  0.994123  0.999285  0.500185  1
  Bi  Bi6  1  0.999039  0.995754  0.997605  1
  Bi  Bi7  1  0.284016  0.536300  0.389056  1
  O  O8  1  0.449910  0.655975  0.171322  1
  O  O9  1  0.556517  0.350732  0.833889  1
  O  O10  1  0.301835  0.925921  0.952040  1
  O  O11  1  0.698187  0.070304  0.049865  1
  O  O12  1  0.296563  0.933132  0.516747  1
  O  O13  1  0.698488  0.080699  0.490414  1
  O  O14  1  0.545634  0.359621  0.343673  1
  O  O15  1  0.460123  0.644642  0.655329  1
  O  O16  1  0.927331  0.663337  0.947497  1
  O  O17  1  0.068457  0.321918  0.029130  1
  O  O18  1  0.068079  0.335525  0.625954  1
  O  O19  1  0.907573  0.666633  0.383262  1
  O  O20  1  0.871983  0.905521  0.726894  1
  O  O21  1  0.117876  0.071686  0.267743  1
