# generated using pymatgen
data_Sr3La(Tm3Sn4)2
_symmetry_space_group_name_H-M   'P 1'
_cell_length_a   8.10634200
_cell_length_b   8.37294801
_cell_length_c   15.80437400
_cell_angle_alpha   89.91142464
_cell_angle_beta   90.00000000
_cell_angle_gamma   90.00000000
_symmetry_Int_Tables_number   1
_chemical_formula_structural   Sr3La(Tm3Sn4)2
_chemical_formula_sum   'Sr6 La2 Tm12 Sn16'
_cell_volume   1072.70448420
_cell_formula_units_Z   2
loop_
 _symmetry_equiv_pos_site_id
 _symmetry_equiv_pos_as_xyz
  1  'x, y, z'
loop_
 _atom_site_type_symbol
 _atom_site_label
 _atom_site_symmetry_multiplicity
 _atom_site_fract_x
 _atom_site_fract_y
 _atom_site_fract_z
 _atom_site_occupancy
  Sr  Sr0  1  0.506058  0.326989  0.905269  1
  Sr  Sr1  1  0.006058  0.173011  0.594731  1
  Sr  Sr2  1  0.497874  0.675369  0.407958  1
  Sr  Sr3  1  0.997874  0.824631  0.092042  1
  Sr  Sr4  1  0.497667  0.675116  0.091313  1
  Sr  Sr5  1  0.997667  0.824884  0.408687  1
  La  La6  1  0.501615  0.324904  0.597602  1
  La  La7  1  0.001615  0.175096  0.902398  1
  Tm  Tm8  1  0.330899  0.838432  0.872513  1
  Tm  Tm9  1  0.830899  0.661568  0.627487  1
  Tm  Tm10  1  0.667285  0.162638  0.374623  1
  Tm  Tm11  1  0.167285  0.337362  0.125377  1
  Tm  Tm12  1  0.667176  0.160489  0.124704  1
  Tm  Tm13  1  0.167176  0.339511  0.375296  1
  Tm  Tm14  1  0.330226  0.838356  0.627438  1
  Tm  Tm15  1  0.830226  0.661644  0.872562  1
  Tm  Tm16  1  0.169165  0.498323  0.750753  1
  Tm  Tm17  1  0.669165  0.001677  0.749247  1
  Tm  Tm18  1  0.829467  0.502481  0.250037  1
  Tm  Tm19  1  0.329467  0.997519  0.249963  1
  Sn  Sn20  1  0.330905  0.045145  0.040145  1
  Sn  Sn21  1  0.830905  0.454855  0.459855  1
  Sn  Sn22  1  0.664300  0.962791  0.545034  1
  Sn  Sn23  1  0.164300  0.537209  0.954966  1
  Sn  Sn24  1  0.668794  0.960022  0.954533  1
  Sn  Sn25  1  0.168794  0.539978  0.545467  1
  Sn  Sn26  1  0.336826  0.048723  0.460504  1
  Sn  Sn27  1  0.836826  0.451277  0.039496  1
  Sn  Sn28  1  0.528361  0.630366  0.749294  1
  Sn  Sn29  1  0.028361  0.869634  0.750706  1
  Sn  Sn30  1  0.468839  0.369014  0.249072  1
  Sn  Sn31  1  0.968839  0.130986  0.250928  1
  Sn  Sn32  1  0.309482  0.143385  0.750889  1
  Sn  Sn33  1  0.809482  0.356615  0.749111  1
  Sn  Sn34  1  0.695058  0.863753  0.249461  1
  Sn  Sn35  1  0.195058  0.636247  0.250539  1
