# generated using pymatgen
data_Ba2MnCuO4
_symmetry_space_group_name_H-M   'P 1'
_cell_length_a   3.98192500
_cell_length_b   3.98192500
_cell_length_c   8.46687200
_cell_angle_alpha   90.00000000
_cell_angle_beta   90.00000000
_cell_angle_gamma   90.00000000
_symmetry_Int_Tables_number   1
_chemical_formula_structural   Ba2MnCuO4
_chemical_formula_sum   'Ba2 Mn1 Cu1 O4'
_cell_volume   134.24840848
_cell_formula_units_Z   1
loop_
 _symmetry_equiv_pos_site_id
 _symmetry_equiv_pos_as_xyz
  1  'x, y, z'
loop_
 _atom_site_type_symbol
 _atom_site_label
 _atom_site_symmetry_multiplicity
 _atom_site_fract_x
 _atom_site_fract_y
 _atom_site_fract_z
 _atom_site_occupancy
  Ba  Ba0  1  0.500000  0.500000  0.765881  1
  Ba  Ba1  1  0.500000  0.500000  0.234119  1
  Mn  Mn2  1  0.000000  0.000000  0.000000  1
  Cu  Cu3  1  0.000000  0.000000  0.500000  1
  O  O4  1  0.000000  0.500000  0.000000  1
  O  O5  1  0.500000  0.000000  0.000000  1
  O  O6  1  0.000000  0.000000  0.713645  1
  O  O7  1  0.000000  0.000000  0.286355  1
