# generated using pymatgen
data_Cs2Pr10As2Br17
_symmetry_space_group_name_H-M   'P 1'
_cell_length_a   9.50488792
_cell_length_b   11.24242816
_cell_length_c   11.24243785
_cell_angle_alpha   106.26695158
_cell_angle_beta   94.89003605
_cell_angle_gamma   94.89095286
_symmetry_Int_Tables_number   1
_chemical_formula_structural   Cs2Pr10As2Br17
_chemical_formula_sum   'Cs2 Pr10 As2 Br17'
_cell_volume   1141.54886572
_cell_formula_units_Z   1
loop_
 _symmetry_equiv_pos_site_id
 _symmetry_equiv_pos_as_xyz
  1  'x, y, z'
loop_
 _atom_site_type_symbol
 _atom_site_label
 _atom_site_symmetry_multiplicity
 _atom_site_fract_x
 _atom_site_fract_y
 _atom_site_fract_z
 _atom_site_occupancy
  Cs  Cs0  1  0.999407  0.817057  0.181990  1
  Cs  Cs1  1  0.999400  0.182003  0.817046  1
  Pr  Pr2  1  0.436360  0.159228  0.159241  1
  Pr  Pr3  1  0.573472  0.507815  0.193770  1
  Pr  Pr4  1  0.837714  0.288953  0.288989  1
  Pr  Pr5  1  0.300228  0.433304  0.433299  1
  Pr  Pr6  1  0.426571  0.806298  0.492393  1
  Pr  Pr7  1  0.573396  0.193774  0.507771  1
  Pr  Pr8  1  0.699943  0.566728  0.566713  1
  Pr  Pr9  1  0.162246  0.711033  0.711069  1
  Pr  Pr10  1  0.426632  0.492444  0.806298  1
  Pr  Pr11  1  0.563809  0.840974  0.840987  1
  As  As12  1  0.570734  0.360669  0.360650  1
  As  As13  1  0.429467  0.639519  0.639473  1
  Br  Br14  1  0.585494  0.692295  0.026548  1
  Br  Br15  1  0.713236  0.068099  0.068122  1
  Br  Br16  1  0.858588  0.451963  0.118665  1
  Br  Br17  1  0.136225  0.209723  0.209720  1
  Br  Br18  1  0.288060  0.603011  0.259316  1
  Br  Br19  1  0.414793  0.973597  0.307785  1
  Br  Br20  1  0.712031  0.740865  0.397207  1
  Br  Br21  1  0.858500  0.118652  0.451997  1
  Br  Br22  1  0.000018  0.499950  0.499953  1
  Br  Br23  1  0.141199  0.881093  0.547833  1
  Br  Br24  1  0.288061  0.259360  0.603059  1
  Br  Br25  1  0.585401  0.026516  0.692260  1
  Br  Br26  1  0.712027  0.397157  0.740805  1
  Br  Br27  1  0.863997  0.790491  0.790425  1
  Br  Br28  1  0.141237  0.547777  0.881085  1
  Br  Br29  1  0.286903  0.931826  0.931889  1
  Br  Br30  1  0.414856  0.307824  0.973643  1
