# generated using pymatgen
data_Ho2Er6SnPd24
_symmetry_space_group_name_H-M   'P 1'
_cell_length_a   8.37094700
_cell_length_b   8.37094700
_cell_length_c   8.37094700
_cell_angle_alpha   90.00097193
_cell_angle_beta   90.00097193
_cell_angle_gamma   90.00097193
_symmetry_Int_Tables_number   1
_chemical_formula_structural   Ho2Er6SnPd24
_chemical_formula_sum   'Ho2 Er6 Sn1 Pd24'
_cell_volume   586.57530705
_cell_formula_units_Z   1
loop_
 _symmetry_equiv_pos_site_id
 _symmetry_equiv_pos_as_xyz
  1  'x, y, z'
loop_
 _atom_site_type_symbol
 _atom_site_label
 _atom_site_symmetry_multiplicity
 _atom_site_fract_x
 _atom_site_fract_y
 _atom_site_fract_z
 _atom_site_occupancy
  Ho  Ho0  1  0.252621  0.252621  0.252621  1
  Ho  Ho1  1  0.747379  0.747379  0.747379  1
  Er  Er2  1  0.747366  0.747366  0.252633  1
  Er  Er3  1  0.747366  0.252633  0.747366  1
  Er  Er4  1  0.252634  0.252634  0.747367  1
  Er  Er5  1  0.252634  0.747367  0.252634  1
  Er  Er6  1  0.252633  0.747366  0.747366  1
  Er  Er7  1  0.747367  0.252634  0.252634  1
  Sn  Sn8  1  0.000000  0.000000  0.000000  1
  Pd  Pd9  1  0.265303  0.500030  0.999970  1
  Pd  Pd10  1  0.734697  0.499970  0.000030  1
  Pd  Pd11  1  0.999970  0.265303  0.500030  1
  Pd  Pd12  1  0.500030  0.265303  0.999970  1
  Pd  Pd13  1  0.000030  0.734697  0.499970  1
  Pd  Pd14  1  0.499970  0.734697  0.000030  1
  Pd  Pd15  1  0.500030  0.999970  0.265303  1
  Pd  Pd16  1  0.265303  0.999970  0.500030  1
  Pd  Pd17  1  0.499970  0.000030  0.734697  1
  Pd  Pd18  1  0.734697  0.000030  0.499970  1
  Pd  Pd19  1  0.999970  0.500030  0.265303  1
  Pd  Pd20  1  0.000030  0.499970  0.734697  1
  Pd  Pd21  1  0.255167  0.500031  0.500031  1
  Pd  Pd22  1  0.744833  0.499969  0.499969  1
  Pd  Pd23  1  0.500031  0.255167  0.500031  1
  Pd  Pd24  1  0.499969  0.744833  0.499969  1
  Pd  Pd25  1  0.500031  0.500031  0.255167  1
  Pd  Pd26  1  0.499969  0.499969  0.744833  1
  Pd  Pd27  1  0.307775  0.999972  0.999972  1
  Pd  Pd28  1  0.692225  0.000028  0.000028  1
  Pd  Pd29  1  0.999972  0.307775  0.999972  1
  Pd  Pd30  1  0.000028  0.692225  0.000028  1
  Pd  Pd31  1  0.999972  0.999972  0.307775  1
  Pd  Pd32  1  0.000028  0.000028  0.692225  1
