# generated using pymatgen
data_Ac3La2Nd5C4I15
_symmetry_space_group_name_H-M   'P 1'
_cell_length_a   10.00179376
_cell_length_b   10.81104432
_cell_length_c   12.06037395
_cell_angle_alpha   94.10790036
_cell_angle_beta   114.43784627
_cell_angle_gamma   108.91604638
_symmetry_Int_Tables_number   1
_chemical_formula_structural   Ac3La2Nd5C4I15
_chemical_formula_sum   'Ac3 La2 Nd5 C4 I15'
_cell_volume   1090.61447427
_cell_formula_units_Z   1
loop_
 _symmetry_equiv_pos_site_id
 _symmetry_equiv_pos_as_xyz
  1  'x, y, z'
loop_
 _atom_site_type_symbol
 _atom_site_label
 _atom_site_symmetry_multiplicity
 _atom_site_fract_x
 _atom_site_fract_y
 _atom_site_fract_z
 _atom_site_occupancy
  Ac  Ac0  1  0.601885  0.535528  0.347557  1
  Ac  Ac1  1  0.336494  0.747534  0.163849  1
  Ac  Ac2  1  0.787414  0.894027  0.262286  1
  La  La3  1  0.294289  0.431483  0.953317  1
  La  La4  1  0.652886  0.251225  0.833984  1
  Nd  Nd5  1  0.526135  0.185718  0.095989  1
  Nd  Nd6  1  0.228956  0.122107  0.745387  1
  Nd  Nd7  1  0.405196  0.459876  0.666151  1
  Nd  Nd8  1  0.472113  0.809632  0.899772  1
  Nd  Nd9  1  0.696596  0.563183  0.039788  1
  C  C10  1  0.483121  0.302030  0.937997  1
  C  C11  1  0.519367  0.698639  0.061926  1
  C  C12  1  0.454792  0.364126  0.837289  1
  C  C13  1  0.548968  0.637196  0.164003  1
  I  I14  1  0.211994  0.911183  0.931202  1
  I  I15  1  0.113421  0.194404  0.475824  1
  I  I16  1  0.157380  0.557564  0.704518  1
  I  I17  1  0.399773  0.966521  0.651861  1
  I  I18  1  0.709234  0.729901  0.824543  1
  I  I19  1  0.283394  0.258519  0.170843  1
  I  I20  1  0.848249  0.438796  0.284249  1
  I  I21  1  0.903212  0.817721  0.540311  1
  I  I22  1  0.357011  0.628356  0.418736  1
  I  I23  1  0.052013  0.827173  0.214718  1
  I  I24  1  0.784555  0.091880  0.055389  1
  I  I25  1  0.635463  0.368920  0.591350  1
  I  I26  1  0.952262  0.166773  0.778652  1
  I  I27  1  0.593520  0.044062  0.352178  1
  I  I28  1  0.990307  0.495922  0.996334  1
