# generated using pymatgen
data_La3Ga4IrPt3
_symmetry_space_group_name_H-M   'P 1'
_cell_length_a   8.40617938
_cell_length_b   8.40617951
_cell_length_c   8.40620376
_cell_angle_alpha   150.73449307
_cell_angle_beta   127.59919189
_cell_angle_gamma   61.15106849
_symmetry_Int_Tables_number   1
_chemical_formula_structural   La3Ga4IrPt3
_chemical_formula_sum   'La3 Ga4 Ir1 Pt3'
_cell_volume   228.16792201
_cell_formula_units_Z   1
loop_
 _symmetry_equiv_pos_site_id
 _symmetry_equiv_pos_as_xyz
  1  'x, y, z'
loop_
 _atom_site_type_symbol
 _atom_site_label
 _atom_site_symmetry_multiplicity
 _atom_site_fract_x
 _atom_site_fract_y
 _atom_site_fract_z
 _atom_site_occupancy
  La  La0  1  0.497695  0.997695  0.500000  1
  La  La1  1  0.874455  0.874455  0.000000  1
  La  La2  1  0.127773  0.127773  0.000000  1
  Ga  Ga3  1  0.479398  0.674928  0.804470  1
  Ga  Ga4  1  0.870459  0.674928  0.195530  1
  Ga  Ga5  1  0.134726  0.326199  0.808531  1
  Ga  Ga6  1  0.517668  0.326196  0.191469  1
  Ir  Ir7  1  0.282633  0.782633  0.500000  1
  Pt  Pt8  1  0.715452  0.215452  0.500000  1
  Pt  Pt9  1  0.794797  0.499877  0.294933  1
  Pt  Pt10  1  0.204944  0.499865  0.705067  1
