# generated using pymatgen
data_Pr3TcMoC6
_symmetry_space_group_name_H-M   'P 1'
_cell_length_a   8.40367400
_cell_length_b   8.40367372
_cell_length_c   5.29537100
_cell_angle_alpha   90.00000000
_cell_angle_beta   90.00000000
_cell_angle_gamma   119.99998536
_symmetry_Int_Tables_number   1
_chemical_formula_structural   Pr3TcMoC6
_chemical_formula_sum   'Pr6 Tc2 Mo2 C12'
_cell_volume   323.86608194
_cell_formula_units_Z   2
loop_
 _symmetry_equiv_pos_site_id
 _symmetry_equiv_pos_as_xyz
  1  'x, y, z'
loop_
 _atom_site_type_symbol
 _atom_site_label
 _atom_site_symmetry_multiplicity
 _atom_site_fract_x
 _atom_site_fract_y
 _atom_site_fract_z
 _atom_site_occupancy
  Pr  Pr0  1  0.614080  0.684702  0.750000  1
  Pr  Pr1  1  0.929378  0.614080  0.250000  1
  Pr  Pr2  1  0.684702  0.070622  0.250000  1
  Pr  Pr3  1  0.315298  0.929378  0.750000  1
  Pr  Pr4  1  0.070622  0.385920  0.750000  1
  Pr  Pr5  1  0.385920  0.315298  0.250000  1
  Tc  Tc6  1  0.666667  0.333333  0.750000  1
  Tc  Tc7  1  0.333333  0.666667  0.250000  1
  Mo  Mo8  1  0.000000  0.000000  0.500000  1
  Mo  Mo9  1  0.000000  0.000000  0.000000  1
  C  C10  1  0.959121  0.769823  0.750000  1
  C  C11  1  0.189297  0.959121  0.250000  1
  C  C12  1  0.769823  0.810703  0.250000  1
  C  C13  1  0.230177  0.189297  0.750000  1
  C  C14  1  0.810703  0.040879  0.750000  1
  C  C15  1  0.040879  0.230177  0.250000  1
  C  C16  1  0.868146  0.583396  0.750000  1
  C  C17  1  0.284748  0.868146  0.250000  1
  C  C18  1  0.583396  0.715252  0.250000  1
  C  C19  1  0.416604  0.284748  0.750000  1
  C  C20  1  0.131854  0.416604  0.250000  1
  C  C21  1  0.715252  0.131854  0.750000  1
