# generated using pymatgen
data_Tb3Nd2Er11(CdPt)4
_symmetry_space_group_name_H-M   'P 1'
_cell_length_a   9.65930961
_cell_length_b   9.67377824
_cell_length_c   9.65691376
_cell_angle_alpha   60.24165044
_cell_angle_beta   60.10734628
_cell_angle_gamma   59.93404153
_symmetry_Int_Tables_number   1
_chemical_formula_structural   Tb3Nd2Er11(CdPt)4
_chemical_formula_sum   'Tb3 Nd2 Er11 Cd4 Pt4'
_cell_volume   639.42076318
_cell_formula_units_Z   1
loop_
 _symmetry_equiv_pos_site_id
 _symmetry_equiv_pos_as_xyz
  1  'x, y, z'
loop_
 _atom_site_type_symbol
 _atom_site_label
 _atom_site_symmetry_multiplicity
 _atom_site_fract_x
 _atom_site_fract_y
 _atom_site_fract_z
 _atom_site_occupancy
  Tb  Tb0  1  0.558846  0.941154  0.941154  1
  Tb  Tb1  1  0.563179  0.936736  0.562375  1
  Tb  Tb2  1  0.937710  0.562375  0.936736  1
  Nd  Nd3  1  0.567745  0.566072  0.933162  1
  Nd  Nd4  1  0.933021  0.933162  0.566072  1
  Er  Er5  1  0.351207  0.350489  0.350776  1
  Er  Er6  1  0.350697  0.355539  0.943180  1
  Er  Er7  1  0.350584  0.943180  0.355539  1
  Er  Er8  1  0.947528  0.350776  0.350489  1
  Er  Er9  1  0.811169  0.188831  0.188831  1
  Er  Er10  1  0.187370  0.812630  0.812630  1
  Er  Er11  1  0.188398  0.811512  0.189733  1
  Er  Er12  1  0.810357  0.189733  0.811512  1
  Er  Er13  1  0.189042  0.189261  0.811526  1
  Er  Er14  1  0.810171  0.811526  0.189261  1
  Er  Er15  1  0.940668  0.559332  0.559332  1
  Cd  Cd16  1  0.583730  0.580631  0.577767  1
  Cd  Cd17  1  0.581664  0.580946  0.257629  1
  Cd  Cd18  1  0.579761  0.257629  0.580946  1
  Cd  Cd19  1  0.257872  0.577767  0.580631  1
  Pt  Pt20  1  0.146387  0.143226  0.140970  1
  Pt  Pt21  1  0.143060  0.144618  0.571902  1
  Pt  Pt22  1  0.140419  0.571902  0.144618  1
  Pt  Pt23  1  0.569416  0.140970  0.143226  1
