# generated using pymatgen
data_LiPr2Co8ReP6
_symmetry_space_group_name_H-M   'P 1'
_cell_length_a   3.74652600
_cell_length_b   10.53931800
_cell_length_c   11.94813300
_cell_angle_alpha   90.00000000
_cell_angle_beta   90.00000000
_cell_angle_gamma   90.00000000
_symmetry_Int_Tables_number   1
_chemical_formula_structural   LiPr2Co8ReP6
_chemical_formula_sum   'Li2 Pr4 Co16 Re2 P12'
_cell_volume   471.78193542
_cell_formula_units_Z   2
loop_
 _symmetry_equiv_pos_site_id
 _symmetry_equiv_pos_as_xyz
  1  'x, y, z'
loop_
 _atom_site_type_symbol
 _atom_site_label
 _atom_site_symmetry_multiplicity
 _atom_site_fract_x
 _atom_site_fract_y
 _atom_site_fract_z
 _atom_site_occupancy
  Li  Li0  1  0.750000  0.299360  0.008703  1
  Li  Li1  1  0.750000  0.200640  0.508703  1
  Pr  Pr2  1  0.250000  0.583810  0.703198  1
  Pr  Pr3  1  0.250000  0.916190  0.203198  1
  Pr  Pr4  1  0.750000  0.415822  0.298852  1
  Pr  Pr5  1  0.750000  0.084178  0.798852  1
  Co  Co6  1  0.250000  0.414794  0.492373  1
  Co  Co7  1  0.250000  0.085206  0.992373  1
  Co  Co8  1  0.750000  0.599794  0.508957  1
  Co  Co9  1  0.750000  0.900206  0.008957  1
  Co  Co10  1  0.250000  0.217266  0.172880  1
  Co  Co11  1  0.250000  0.282734  0.672880  1
  Co  Co12  1  0.750000  0.776119  0.824697  1
  Co  Co13  1  0.750000  0.723881  0.324697  1
  Co  Co14  1  0.250000  0.884645  0.701056  1
  Co  Co15  1  0.250000  0.615355  0.201056  1
  Co  Co16  1  0.750000  0.115475  0.301407  1
  Co  Co17  1  0.750000  0.384525  0.801407  1
  Co  Co18  1  0.250000  0.466161  0.934569  1
  Co  Co19  1  0.250000  0.033839  0.434569  1
  Co  Co20  1  0.750000  0.533010  0.069274  1
  Co  Co21  1  0.750000  0.966990  0.569274  1
  Re  Re22  1  0.250000  0.705477  0.989914  1
  Re  Re23  1  0.250000  0.794523  0.489914  1
  P  P24  1  0.250000  0.417941  0.112633  1
  P  P25  1  0.250000  0.082059  0.612633  1
  P  P26  1  0.750000  0.577467  0.890700  1
  P  P27  1  0.750000  0.922533  0.390700  1
  P  P28  1  0.250000  0.279529  0.859790  1
  P  P29  1  0.250000  0.220471  0.359790  1
  P  P30  1  0.750000  0.724352  0.133104  1
  P  P31  1  0.750000  0.775648  0.633104  1
  P  P32  1  0.250000  0.602477  0.393602  1
  P  P33  1  0.250000  0.897523  0.893602  1
  P  P34  1  0.750000  0.396725  0.604290  1
  P  P35  1  0.750000  0.103275  0.104290  1
