# generated using pymatgen
data_Tb2Er(CrC3)2
_symmetry_space_group_name_H-M   'P 1'
_cell_length_a   8.12549500
_cell_length_b   8.12837753
_cell_length_c   5.01558800
_cell_angle_alpha   90.00000000
_cell_angle_beta   90.00000000
_cell_angle_gamma   119.98723117
_symmetry_Int_Tables_number   1
_chemical_formula_structural   Tb2Er(CrC3)2
_chemical_formula_sum   'Tb4 Er2 Cr4 C12'
_cell_volume   286.92080833
_cell_formula_units_Z   2
loop_
 _symmetry_equiv_pos_site_id
 _symmetry_equiv_pos_as_xyz
  1  'x, y, z'
loop_
 _atom_site_type_symbol
 _atom_site_label
 _atom_site_symmetry_multiplicity
 _atom_site_fract_x
 _atom_site_fract_y
 _atom_site_fract_z
 _atom_site_occupancy
  Tb  Tb0  1  0.686027  0.065363  0.250000  1
  Tb  Tb1  1  0.314694  0.934605  0.750000  1
  Tb  Tb2  1  0.065317  0.379885  0.750000  1
  Tb  Tb3  1  0.380429  0.315306  0.250000  1
  Er  Er4  1  0.624146  0.687774  0.750000  1
  Er  Er5  1  0.936160  0.623910  0.250000  1
  Cr  Cr6  1  0.999821  0.999377  0.499948  1
  Cr  Cr7  1  0.999821  0.999377  0.000052  1
  Cr  Cr8  1  0.666853  0.333824  0.750000  1
  Cr  Cr9  1  0.333405  0.666443  0.250000  1
  C  C10  1  0.963639  0.775765  0.750000  1
  C  C11  1  0.187863  0.963288  0.250000  1
  C  C12  1  0.775501  0.808859  0.250000  1
  C  C13  1  0.224682  0.188696  0.750000  1
  C  C14  1  0.808798  0.033609  0.750000  1
  C  C15  1  0.035781  0.224668  0.250000  1
  C  C16  1  0.865004  0.580227  0.750000  1
  C  C17  1  0.283729  0.863578  0.250000  1
  C  C18  1  0.579808  0.713641  0.250000  1
  C  C19  1  0.420327  0.286497  0.750000  1
  C  C20  1  0.133607  0.420136  0.250000  1
  C  C21  1  0.714588  0.135172  0.750000  1
