# generated using pymatgen
data_U4MnCo3(SiNi)2
_symmetry_space_group_name_H-M   'P 1'
_cell_length_a   5.06265355
_cell_length_b   5.19125921
_cell_length_c   7.55294400
_cell_angle_alpha   90.00000000
_cell_angle_beta   90.00000000
_cell_angle_gamma   120.01779766
_symmetry_Int_Tables_number   1
_chemical_formula_structural   U4MnCo3(SiNi)2
_chemical_formula_sum   'U4 Mn1 Co3 Si2 Ni2'
_cell_volume   171.87784723
_cell_formula_units_Z   1
loop_
 _symmetry_equiv_pos_site_id
 _symmetry_equiv_pos_as_xyz
  1  'x, y, z'
loop_
 _atom_site_type_symbol
 _atom_site_label
 _atom_site_symmetry_multiplicity
 _atom_site_fract_x
 _atom_site_fract_y
 _atom_site_fract_z
 _atom_site_occupancy
  U  U0  1  0.675807  0.338444  0.424656  1
  U  U1  1  0.326082  0.658707  0.563787  1
  U  U2  1  0.326082  0.658707  0.936213  1
  U  U3  1  0.675807  0.338444  0.075344  1
  Mn  Mn4  1  0.169256  0.337692  0.250000  1
  Co  Co5  1  0.826871  0.161823  0.750000  1
  Co  Co6  1  0.170384  0.839192  0.250000  1
  Co  Co7  1  0.666936  0.836308  0.250000  1
  Si  Si8  1  0.999756  0.002002  0.001443  1
  Si  Si9  1  0.999756  0.002002  0.498557  1
  Ni  Ni10  1  0.334064  0.163145  0.750000  1
  Ni  Ni11  1  0.829197  0.663531  0.750000  1
