# generated using pymatgen
data_ReIr5Rh3
_symmetry_space_group_name_H-M   'P 1'
_cell_length_a   6.12214134
_cell_length_b   6.12214248
_cell_length_c   6.11884055
_cell_angle_alpha   95.69468190
_cell_angle_beta   95.69468682
_cell_angle_gamma   143.28815699
_symmetry_Int_Tables_number   1
_chemical_formula_structural   ReIr5Rh3
_chemical_formula_sum   'Re1 Ir5 Rh3'
_cell_volume   130.11275349
_cell_formula_units_Z   1
loop_
 _symmetry_equiv_pos_site_id
 _symmetry_equiv_pos_as_xyz
  1  'x, y, z'
loop_
 _atom_site_type_symbol
 _atom_site_label
 _atom_site_symmetry_multiplicity
 _atom_site_fract_x
 _atom_site_fract_y
 _atom_site_fract_z
 _atom_site_occupancy
  Re  Re0  1  0.998833  0.001167  0.000000  1
  Ir  Ir1  1  0.337666  0.662334  0.000000  1
  Ir  Ir2  1  0.998432  0.331521  0.329952  1
  Ir  Ir3  1  0.000702  0.666953  0.667655  1
  Ir  Ir4  1  0.668479  0.001568  0.670048  1
  Ir  Ir5  1  0.333047  0.999298  0.332345  1
  Rh  Rh6  1  0.337010  0.337268  0.674278  1
  Rh  Rh7  1  0.662732  0.662990  0.325722  1
  Rh  Rh8  1  0.663098  0.336902  0.000000  1
