# generated using pymatgen
data_Th3Zn3IrAu2
_symmetry_space_group_name_H-M   'P 1'
_cell_length_a   7.54679600
_cell_length_b   7.54679595
_cell_length_c   4.03471900
_cell_angle_alpha   90.00000000
_cell_angle_beta   90.00000000
_cell_angle_gamma   120.00000020
_symmetry_Int_Tables_number   1
_chemical_formula_structural   Th3Zn3IrAu2
_chemical_formula_sum   'Th3 Zn3 Ir1 Au2'
_cell_volume   199.00736199
_cell_formula_units_Z   1
loop_
 _symmetry_equiv_pos_site_id
 _symmetry_equiv_pos_as_xyz
  1  'x, y, z'
loop_
 _atom_site_type_symbol
 _atom_site_label
 _atom_site_symmetry_multiplicity
 _atom_site_fract_x
 _atom_site_fract_y
 _atom_site_fract_z
 _atom_site_occupancy
  Th  Th0  1  0.420401  0.015405  0.500000  1
  Th  Th1  1  0.984595  0.404996  0.500000  1
  Th  Th2  1  0.595004  0.579599  0.500000  1
  Zn  Zn3  1  0.752732  0.003457  0.000000  1
  Zn  Zn4  1  0.996543  0.749274  0.000000  1
  Zn  Zn5  1  0.250726  0.247268  0.000000  1
  Ir  Ir6  1  0.666667  0.333333  0.000000  1
  Au  Au7  1  0.333333  0.666667  0.000000  1
  Au  Au8  1  0.000000  0.000000  0.500000  1
