# generated using pymatgen
data_Hf4Zr(Re7Tc)3
_symmetry_space_group_name_H-M   'P 1'
_cell_length_a   8.47832147
_cell_length_b   8.47022049
_cell_length_c   8.47022005
_cell_angle_alpha   109.45183804
_cell_angle_beta   109.49058640
_cell_angle_gamma   109.49059891
_symmetry_Int_Tables_number   1
_chemical_formula_structural   Hf4Zr(Re7Tc)3
_chemical_formula_sum   'Hf4 Zr1 Re21 Tc3'
_cell_volume   468.13760748
_cell_formula_units_Z   1
loop_
 _symmetry_equiv_pos_site_id
 _symmetry_equiv_pos_as_xyz
  1  'x, y, z'
loop_
 _atom_site_type_symbol
 _atom_site_label
 _atom_site_symmetry_multiplicity
 _atom_site_fract_x
 _atom_site_fract_y
 _atom_site_fract_z
 _atom_site_occupancy
  Hf  Hf0  1  0.626430  0.000000  0.000000  1
  Hf  Hf1  1  0.999963  0.628242  0.000000  1
  Hf  Hf2  1  0.999963  0.000000  0.628242  1
  Hf  Hf3  1  0.371721  0.371758  0.371758  1
  Zr  Zr4  1  0.999742  0.000000  0.000000  1
  Re  Re5  1  0.676326  0.395950  0.000000  1
  Re  Re6  1  0.000808  0.396646  0.677049  1
  Re  Re7  1  0.323759  0.719598  0.322951  1
  Re  Re8  1  0.323759  0.322951  0.719598  1
  Re  Re9  1  0.000808  0.677049  0.396646  1
  Re  Re10  1  0.676326  0.000000  0.395950  1
  Re  Re11  1  0.604162  0.603354  0.280402  1
  Re  Re12  1  0.280375  0.604050  0.604050  1
  Re  Re13  1  0.604162  0.280402  0.603354  1
  Re  Re14  1  0.375463  0.194778  0.000000  1
  Re  Re15  1  0.180685  0.805222  0.805222  1
  Re  Re16  1  0.375463  0.000000  0.194778  1
  Re  Re17  1  0.194106  0.376787  0.000000  1
  Re  Re18  1  0.000367  0.376119  0.193878  1
  Re  Re19  1  0.806489  0.182241  0.806122  1
  Re  Re20  1  0.806489  0.806122  0.182241  1
  Re  Re21  1  0.000367  0.193878  0.376119  1
  Re  Re22  1  0.194106  0.000000  0.376787  1
  Re  Re23  1  0.624248  0.623881  0.817759  1
  Re  Re24  1  0.817319  0.623213  0.623213  1
  Re  Re25  1  0.624248  0.817759  0.623881  1
  Tc  Tc26  1  0.396755  0.677921  0.000000  1
  Tc  Tc27  1  0.718836  0.322079  0.322079  1
  Tc  Tc28  1  0.396755  0.000000  0.677921  1
