# generated using pymatgen
data_Dy9Y11Co3Bi8Ru
_symmetry_space_group_name_H-M   'P 1'
_cell_length_a   8.04122715
_cell_length_b   8.91239400
_cell_length_c   12.49502178
_cell_angle_alpha   90.00000000
_cell_angle_beta   90.24851062
_cell_angle_gamma   90.00000000
_symmetry_Int_Tables_number   1
_chemical_formula_structural   Dy9Y11Co3Bi8Ru
_chemical_formula_sum   'Dy9 Y11 Co3 Bi8 Ru1'
_cell_volume   895.46711280
_cell_formula_units_Z   1
loop_
 _symmetry_equiv_pos_site_id
 _symmetry_equiv_pos_as_xyz
  1  'x, y, z'
loop_
 _atom_site_type_symbol
 _atom_site_label
 _atom_site_symmetry_multiplicity
 _atom_site_fract_x
 _atom_site_fract_y
 _atom_site_fract_z
 _atom_site_occupancy
  Dy  Dy0  1  0.549321  0.750000  0.002133  1
  Dy  Dy1  1  0.676904  0.042392  0.564637  1
  Dy  Dy2  1  0.324965  0.965753  0.436575  1
  Dy  Dy3  1  0.174854  0.965087  0.937191  1
  Dy  Dy4  1  0.324965  0.534247  0.436575  1
  Dy  Dy5  1  0.824023  0.036169  0.062998  1
  Dy  Dy6  1  0.676904  0.457608  0.564637  1
  Dy  Dy7  1  0.824023  0.463831  0.062998  1
  Dy  Dy8  1  0.174854  0.534913  0.937191  1
  Y  Y9  1  0.846601  0.750000  0.799686  1
  Y  Y10  1  0.152497  0.250000  0.199257  1
  Y  Y11  1  0.347319  0.250000  0.700279  1
  Y  Y12  1  0.653982  0.750000  0.295222  1
  Y  Y13  1  0.377864  0.750000  0.693974  1
  Y  Y14  1  0.619373  0.250000  0.309113  1
  Y  Y15  1  0.880232  0.250000  0.810082  1
  Y  Y16  1  0.119056  0.750000  0.188259  1
  Y  Y17  1  0.949961  0.750000  0.503420  1
  Y  Y18  1  0.049663  0.250000  0.496981  1
  Y  Y19  1  0.452189  0.250000  0.997534  1
  Co  Co20  1  0.433797  0.250000  0.490583  1
  Co  Co21  1  0.060675  0.250000  0.991955  1
  Co  Co22  1  0.936439  0.750000  0.007684  1
  Bi  Bi23  1  0.570859  0.491691  0.826925  1
  Bi  Bi24  1  0.428504  0.507989  0.173182  1
  Bi  Bi25  1  0.071026  0.507714  0.674242  1
  Bi  Bi26  1  0.428504  0.992011  0.173182  1
  Bi  Bi27  1  0.930190  0.492131  0.326071  1
  Bi  Bi28  1  0.570859  0.008309  0.826925  1
  Bi  Bi29  1  0.930190  0.007869  0.326071  1
  Bi  Bi30  1  0.071026  0.992286  0.674242  1
  Ru  Ru31  1  0.568378  0.750000  0.510196  1
