# generated using pymatgen
data_HoTcN2
_symmetry_space_group_name_H-M   'P 1'
_cell_length_a   3.13113000
_cell_length_b   5.62845900
_cell_length_c   10.71084700
_cell_angle_alpha   90.00000000
_cell_angle_beta   90.00000000
_cell_angle_gamma   90.00000000
_symmetry_Int_Tables_number   1
_chemical_formula_structural   HoTcN2
_chemical_formula_sum   'Ho4 Tc4 N8'
_cell_volume   188.76193549
_cell_formula_units_Z   4
loop_
 _symmetry_equiv_pos_site_id
 _symmetry_equiv_pos_as_xyz
  1  'x, y, z'
loop_
 _atom_site_type_symbol
 _atom_site_label
 _atom_site_symmetry_multiplicity
 _atom_site_fract_x
 _atom_site_fract_y
 _atom_site_fract_z
 _atom_site_occupancy
  Ho  Ho0  1  0.250000  0.078739  0.851880  1
  Ho  Ho1  1  0.250000  0.578739  0.648120  1
  Ho  Ho2  1  0.750000  0.921261  0.148120  1
  Ho  Ho3  1  0.750000  0.421261  0.351880  1
  Tc  Tc4  1  0.250000  0.436409  0.096940  1
  Tc  Tc5  1  0.250000  0.936409  0.403060  1
  Tc  Tc6  1  0.750000  0.563591  0.903060  1
  Tc  Tc7  1  0.750000  0.063591  0.596940  1
  N  N8  1  0.250000  0.168081  0.244682  1
  N  N9  1  0.250000  0.668081  0.255318  1
  N  N10  1  0.750000  0.831919  0.755318  1
  N  N11  1  0.750000  0.331919  0.744682  1
  N  N12  1  0.250000  0.750830  0.997401  1
  N  N13  1  0.250000  0.250830  0.502599  1
  N  N14  1  0.750000  0.249170  0.002599  1
  N  N15  1  0.750000  0.749170  0.497401  1
