# generated using pymatgen
data_KSm6Tm4(C2I9)2
_symmetry_space_group_name_H-M   'P 1'
_cell_length_a   11.49967085
_cell_length_b   11.53089601
_cell_length_c   11.63035400
_cell_angle_alpha   113.34160991
_cell_angle_beta   87.10582766
_cell_angle_gamma   119.62219481
_symmetry_Int_Tables_number   1
_chemical_formula_structural   KSm6Tm4(C2I9)2
_chemical_formula_sum   'K1 Sm6 Tm4 C4 I18'
_cell_volume   1210.34047941
_cell_formula_units_Z   1
loop_
 _symmetry_equiv_pos_site_id
 _symmetry_equiv_pos_as_xyz
  1  'x, y, z'
loop_
 _atom_site_type_symbol
 _atom_site_label
 _atom_site_symmetry_multiplicity
 _atom_site_fract_x
 _atom_site_fract_y
 _atom_site_fract_z
 _atom_site_occupancy
  K  K0  1  0.500397  0.998380  0.499633  1
  Sm  Sm1  1  0.907176  0.602905  0.703190  1
  Sm  Sm2  1  0.106647  0.945008  0.000881  1
  Sm  Sm3  1  0.033957  0.961684  0.673399  1
  Sm  Sm4  1  0.327610  0.278242  0.292615  1
  Sm  Sm5  1  0.720267  0.642687  0.982242  1
  Sm  Sm6  1  0.893823  0.056768  0.000453  1
  Tm  Tm7  1  0.679384  0.725069  0.712981  1
  Tm  Tm8  1  0.273245  0.350551  0.020643  1
  Tm  Tm9  1  0.095523  0.388915  0.290884  1
  Tm  Tm10  1  0.968046  0.041132  0.320060  1
  C  C11  1  0.152593  0.224115  0.125084  1
  C  C12  1  0.844684  0.776173  0.874158  1
  C  C13  1  0.919076  0.851720  0.799673  1
  C  C14  1  0.077495  0.148401  0.199756  1
  I  I15  1  0.447754  0.531541  0.828261  1
  I  I16  1  0.387397  0.037168  0.158922  1
  I  I17  1  0.770845  0.856163  0.502283  1
  I  I18  1  0.843610  0.317226  0.159462  1
  I  I19  1  0.546669  0.469630  0.165383  1
  I  I20  1  0.217593  0.141551  0.496212  1
  I  I21  1  0.318529  0.103300  0.834897  1
  I  I22  1  0.687218  0.907356  0.175194  1
  I  I23  1  0.976319  0.761734  0.173933  1
  I  I24  1  0.936740  0.296181  0.495523  1
  I  I25  1  0.030947  0.250684  0.836631  1
  I  I26  1  0.070613  0.700947  0.496663  1
  I  I27  1  0.263535  0.619293  0.187520  1
  I  I28  1  0.732945  0.366676  0.808263  1
  I  I29  1  0.636628  0.437916  0.500368  1
  I  I30  1  0.165247  0.687824  0.846932  1
  I  I31  1  0.614868  0.954801  0.837915  1
  I  I32  1  0.352620  0.568258  0.499988  1
