# generated using pymatgen
data_Li4NdCu9As7
_symmetry_space_group_name_H-M   'P 1'
_cell_length_a   9.90972000
_cell_length_b   9.90972027
_cell_length_c   4.03750000
_cell_angle_alpha   90.00000000
_cell_angle_beta   90.00000000
_cell_angle_gamma   120.00000577
_symmetry_Int_Tables_number   1
_chemical_formula_structural   Li4NdCu9As7
_chemical_formula_sum   'Li4 Nd1 Cu9 As7'
_cell_volume   343.37282452
_cell_formula_units_Z   1
loop_
 _symmetry_equiv_pos_site_id
 _symmetry_equiv_pos_as_xyz
  1  'x, y, z'
loop_
 _atom_site_type_symbol
 _atom_site_label
 _atom_site_symmetry_multiplicity
 _atom_site_fract_x
 _atom_site_fract_y
 _atom_site_fract_z
 _atom_site_occupancy
  Li  Li0  1  0.768677  0.543120  0.500000  1
  Li  Li1  1  0.456880  0.225556  0.500000  1
  Li  Li2  1  0.774444  0.231323  0.500000  1
  Li  Li3  1  0.000000  0.000000  0.500000  1
  Nd  Nd4  1  0.333333  0.666667  0.000000  1
  Cu  Cu5  1  0.274743  0.371687  0.500000  1
  Cu  Cu6  1  0.628313  0.903056  0.500000  1
  Cu  Cu7  1  0.096944  0.725257  0.500000  1
  Cu  Cu8  1  0.506883  0.455165  0.000000  1
  Cu  Cu9  1  0.544835  0.051718  0.000000  1
  Cu  Cu10  1  0.948282  0.493117  0.000000  1
  Cu  Cu11  1  0.721987  0.756620  0.000000  1
  Cu  Cu12  1  0.243380  0.965365  0.000000  1
  Cu  Cu13  1  0.034635  0.278013  0.000000  1
  As  As14  1  0.971608  0.757946  0.000000  1
  As  As15  1  0.242054  0.213662  0.000000  1
  As  As16  1  0.786338  0.028392  0.000000  1
  As  As17  1  0.666667  0.333333  0.000000  1
  As  As18  1  0.543103  0.619290  0.500000  1
  As  As19  1  0.380710  0.923813  0.500000  1
  As  As20  1  0.076187  0.456897  0.500000  1
