# generated using pymatgen
data_Rb4Ti6SiBr18
_symmetry_space_group_name_H-M   'P 1'
_cell_length_a   10.47597477
_cell_length_b   10.73506979
_cell_length_c   10.84902596
_cell_angle_alpha   118.35424391
_cell_angle_beta   100.39505840
_cell_angle_gamma   104.20531599
_symmetry_Int_Tables_number   1
_chemical_formula_structural   Rb4Ti6SiBr18
_chemical_formula_sum   'Rb4 Ti6 Si1 Br18'
_cell_volume   975.77497302
_cell_formula_units_Z   1
loop_
 _symmetry_equiv_pos_site_id
 _symmetry_equiv_pos_as_xyz
  1  'x, y, z'
loop_
 _atom_site_type_symbol
 _atom_site_label
 _atom_site_symmetry_multiplicity
 _atom_site_fract_x
 _atom_site_fract_y
 _atom_site_fract_z
 _atom_site_occupancy
  Rb  Rb0  1  0.659319  0.537500  0.230066  1
  Rb  Rb1  1  0.340681  0.462500  0.769934  1
  Rb  Rb2  1  0.694964  0.228522  0.565073  1
  Rb  Rb3  1  0.305036  0.771478  0.434927  1
  Ti  Ti4  1  0.151103  0.056085  0.228312  1
  Ti  Ti5  1  0.848897  0.943915  0.771688  1
  Ti  Ti6  1  0.861268  0.123257  0.129640  1
  Ti  Ti7  1  0.138732  0.876743  0.870360  1
  Ti  Ti8  1  0.146193  0.237601  0.045304  1
  Ti  Ti9  1  0.853807  0.762399  0.954696  1
  Si  Si10  1  0.000000  0.000000  0.000000  1
  Br  Br11  1  0.008239  0.390736  0.187364  1
  Br  Br12  1  0.991761  0.609264  0.812636  1
  Br  Br13  1  0.320013  0.320077  0.298303  1
  Br  Br14  1  0.679987  0.679923  0.701697  1
  Br  Br15  1  0.313092  0.505196  0.097672  1
  Br  Br16  1  0.686908  0.494804  0.902328  1
  Br  Br17  1  0.004352  0.804397  0.199651  1
  Br  Br18  1  0.995648  0.195603  0.800349  1
  Br  Br19  1  0.709464  0.259839  0.272918  1
  Br  Br20  1  0.290536  0.740161  0.727082  1
  Br  Br21  1  0.306692  0.124612  0.909751  1
  Br  Br22  1  0.693308  0.875388  0.090249  1
  Br  Br23  1  0.015181  0.194898  0.389120  1
  Br  Br24  1  0.984819  0.805102  0.610880  1
  Br  Br25  1  0.310866  0.928791  0.107403  1
  Br  Br26  1  0.689134  0.071209  0.892597  1
  Br  Br27  1  0.325170  0.119141  0.485130  1
  Br  Br28  1  0.674830  0.880859  0.514870  1
