# generated using pymatgen
data_Er3Sc3Tc2
_symmetry_space_group_name_H-M   'P 1'
_cell_length_a   5.94703093
_cell_length_b   7.41176100
_cell_length_c   8.64322555
_cell_angle_alpha   90.00000000
_cell_angle_beta   90.85809989
_cell_angle_gamma   90.00000000
_symmetry_Int_Tables_number   1
_chemical_formula_structural   Er3Sc3Tc2
_chemical_formula_sum   'Er6 Sc6 Tc4'
_cell_volume   380.93312726
_cell_formula_units_Z   2
loop_
 _symmetry_equiv_pos_site_id
 _symmetry_equiv_pos_as_xyz
  1  'x, y, z'
loop_
 _atom_site_type_symbol
 _atom_site_label
 _atom_site_symmetry_multiplicity
 _atom_site_fract_x
 _atom_site_fract_y
 _atom_site_fract_z
 _atom_site_occupancy
  Er  Er0  1  0.358693  0.679459  0.061292  1
  Er  Er1  1  0.141307  0.179459  0.438708  1
  Er  Er2  1  0.877994  0.537718  0.249323  1
  Er  Er3  1  0.622006  0.037718  0.250677  1
  Er  Er4  1  0.115368  0.463079  0.750994  1
  Er  Er5  1  0.384632  0.963079  0.749006  1
  Sc  Sc6  1  0.647508  0.333515  0.564441  1
  Sc  Sc7  1  0.852492  0.833515  0.935559  1
  Sc  Sc8  1  0.643210  0.320045  0.935212  1
  Sc  Sc9  1  0.856790  0.820045  0.564788  1
  Sc  Sc10  1  0.353145  0.669060  0.438361  1
  Sc  Sc11  1  0.146855  0.169060  0.061639  1
  Tc  Tc12  1  0.057038  0.881184  0.250210  1
  Tc  Tc13  1  0.442962  0.381184  0.249790  1
  Tc  Tc14  1  0.930928  0.115938  0.755131  1
  Tc  Tc15  1  0.569072  0.615938  0.744869  1
