# generated using pymatgen
data_PrTh3Mg2Si3Ge
_symmetry_space_group_name_H-M   'P 1'
_cell_length_a   7.33466286
_cell_length_b   7.34263191
_cell_length_c   4.43788200
_cell_angle_alpha   90.00000000
_cell_angle_beta   90.00000000
_cell_angle_gamma   90.26792838
_symmetry_Int_Tables_number   1
_chemical_formula_structural   PrTh3Mg2Si3Ge
_chemical_formula_sum   'Pr1 Th3 Mg2 Si3 Ge1'
_cell_volume   239.00275983
_cell_formula_units_Z   1
loop_
 _symmetry_equiv_pos_site_id
 _symmetry_equiv_pos_as_xyz
  1  'x, y, z'
loop_
 _atom_site_type_symbol
 _atom_site_label
 _atom_site_symmetry_multiplicity
 _atom_site_fract_x
 _atom_site_fract_y
 _atom_site_fract_z
 _atom_site_occupancy
  Pr  Pr0  1  0.818622  0.679640  0.500000  1
  Th  Th1  1  0.678261  0.179059  0.500000  1
  Th  Th2  1  0.323158  0.823988  0.500000  1
  Th  Th3  1  0.179091  0.318283  0.500000  1
  Mg  Mg4  1  0.998188  0.999772  0.000000  1
  Mg  Mg5  1  0.502893  0.500862  0.000000  1
  Si  Si6  1  0.881463  0.376261  0.000000  1
  Si  Si7  1  0.613873  0.886030  0.000000  1
  Si  Si8  1  0.382122  0.117674  0.000000  1
  Ge  Ge9  1  0.122327  0.618432  0.000000  1
