# generated using pymatgen
data_Y12Fe2Co2BiIr
_symmetry_space_group_name_H-M   'P 1'
_cell_length_a   8.36564725
_cell_length_b   8.36564692
_cell_length_c   8.36564651
_cell_angle_alpha   110.74225977
_cell_angle_beta   112.08267779
_cell_angle_gamma   105.65779301
_symmetry_Int_Tables_number   1
_chemical_formula_structural   Y12Fe2Co2BiIr
_chemical_formula_sum   'Y12 Fe2 Co2 Bi1 Ir1'
_cell_volume   449.13820647
_cell_formula_units_Z   1
loop_
 _symmetry_equiv_pos_site_id
 _symmetry_equiv_pos_as_xyz
  1  'x, y, z'
loop_
 _atom_site_type_symbol
 _atom_site_label
 _atom_site_symmetry_multiplicity
 _atom_site_fract_x
 _atom_site_fract_y
 _atom_site_fract_z
 _atom_site_occupancy
  Y  Y0  1  0.284539  0.183971  0.468509  1
  Y  Y1  1  0.715461  0.816029  0.531491  1
  Y  Y2  1  0.284539  0.816029  0.100569  1
  Y  Y3  1  0.715461  0.183971  0.899431  1
  Y  Y4  1  0.619329  0.311374  0.307956  1
  Y  Y5  1  0.380671  0.688626  0.692044  1
  Y  Y6  1  0.003419  0.311374  0.692044  1
  Y  Y7  1  0.996581  0.688626  0.307956  1
  Y  Y8  1  0.210704  0.408683  0.197980  1
  Y  Y9  1  0.789296  0.591317  0.802020  1
  Y  Y10  1  0.210704  0.012724  0.802020  1
  Y  Y11  1  0.789296  0.987276  0.197980  1
  Fe  Fe12  1  0.000000  0.385448  0.385448  1
  Fe  Fe13  1  0.000000  0.614552  0.614552  1
  Co  Co14  1  0.391068  0.891068  0.500000  1
  Co  Co15  1  0.608932  0.108932  0.500000  1
  Bi  Bi16  1  0.500000  0.500000  0.000000  1
  Ir  Ir17  1  0.000000  0.000000  0.000000  1
