# generated using pymatgen
data_TbPr19(Ga2Sn)4
_symmetry_space_group_name_H-M   'P 1'
_cell_length_a   8.09163700
_cell_length_b   8.09163700
_cell_length_c   14.77164900
_cell_angle_alpha   90.00000000
_cell_angle_beta   90.00000000
_cell_angle_gamma   90.00000000
_symmetry_Int_Tables_number   1
_chemical_formula_structural   TbPr19(Ga2Sn)4
_chemical_formula_sum   'Tb1 Pr19 Ga8 Sn4'
_cell_volume   967.16765215
_cell_formula_units_Z   1
loop_
 _symmetry_equiv_pos_site_id
 _symmetry_equiv_pos_as_xyz
  1  'x, y, z'
loop_
 _atom_site_type_symbol
 _atom_site_label
 _atom_site_symmetry_multiplicity
 _atom_site_fract_x
 _atom_site_fract_y
 _atom_site_fract_z
 _atom_site_occupancy
  Tb  Tb0  1  0.000000  0.500000  0.729841  1
  Pr  Pr1  1  0.823264  0.838665  0.607148  1
  Pr  Pr2  1  0.178068  0.839630  0.106716  1
  Pr  Pr3  1  0.159965  0.821748  0.393321  1
  Pr  Pr4  1  0.840035  0.178252  0.393321  1
  Pr  Pr5  1  0.678252  0.659965  0.393321  1
  Pr  Pr6  1  0.661335  0.323264  0.607148  1
  Pr  Pr7  1  0.338665  0.676736  0.607148  1
  Pr  Pr8  1  0.000000  0.500000  0.224056  1
  Pr  Pr9  1  0.660370  0.678068  0.106716  1
  Pr  Pr10  1  0.676951  0.339569  0.892472  1
  Pr  Pr11  1  0.839569  0.823049  0.892472  1
  Pr  Pr12  1  0.321748  0.340035  0.393321  1
  Pr  Pr13  1  0.176736  0.161335  0.607148  1
  Pr  Pr14  1  0.821932  0.160370  0.106716  1
  Pr  Pr15  1  0.323049  0.660431  0.892472  1
  Pr  Pr16  1  0.339630  0.321932  0.106716  1
  Pr  Pr17  1  0.500000  0.000000  0.274720  1
  Pr  Pr18  1  0.160431  0.176951  0.892472  1
  Pr  Pr19  1  0.500000  0.000000  0.774292  1
  Ga  Ga20  1  0.622177  0.377892  0.250148  1
  Ga  Ga21  1  0.120746  0.873059  0.748849  1
  Ga  Ga22  1  0.373059  0.379254  0.748849  1
  Ga  Ga23  1  0.377823  0.622108  0.250148  1
  Ga  Ga24  1  0.877892  0.877823  0.250148  1
  Ga  Ga25  1  0.626941  0.620746  0.748849  1
  Ga  Ga26  1  0.879254  0.126941  0.748849  1
  Ga  Ga27  1  0.122108  0.122177  0.250148  1
  Sn  Sn28  1  0.000000  0.500000  0.508033  1
  Sn  Sn29  1  0.500000  0.000000  0.496498  1
  Sn  Sn30  1  0.500000  0.000000  0.996073  1
  Sn  Sn31  1  0.000000  0.500000  0.001872  1
