# generated using pymatgen
data_Pr4Ga10PtAu5
_symmetry_space_group_name_H-M   'P 1'
_cell_length_a   8.74112811
_cell_length_b   8.72386689
_cell_length_c   8.72386544
_cell_angle_alpha   137.90587926
_cell_angle_beta   105.24934871
_cell_angle_gamma   89.68061909
_symmetry_Int_Tables_number   1
_chemical_formula_structural   Pr4Ga10PtAu5
_chemical_formula_sum   'Pr4 Ga10 Pt1 Au5'
_cell_volume   411.34616536
_cell_formula_units_Z   1
loop_
 _symmetry_equiv_pos_site_id
 _symmetry_equiv_pos_as_xyz
  1  'x, y, z'
loop_
 _atom_site_type_symbol
 _atom_site_label
 _atom_site_symmetry_multiplicity
 _atom_site_fract_x
 _atom_site_fract_y
 _atom_site_fract_z
 _atom_site_occupancy
  Pr  Pr0  1  0.864658  0.628956  0.235701  1
  Pr  Pr1  1  0.133942  0.370817  0.763126  1
  Pr  Pr2  1  0.394965  0.129135  0.265830  1
  Pr  Pr3  1  0.605508  0.870438  0.735069  1
  Ga  Ga4  1  0.499127  0.747252  0.240894  1
  Ga  Ga5  1  0.499127  0.258233  0.751875  1
  Ga  Ga6  1  0.227732  0.976054  0.749427  1
  Ga  Ga7  1  0.766561  0.524679  0.751709  1
  Ga  Ga8  1  0.766561  0.014852  0.241883  1
  Ga  Ga9  1  0.227732  0.478306  0.251679  1
  Ga  Ga10  1  0.036207  0.886604  0.149603  1
  Ga  Ga11  1  0.963872  0.113037  0.850835  1
  Ga  Ga12  1  0.737543  0.386367  0.351177  1
  Ga  Ga13  1  0.270052  0.613634  0.656417  1
  Pt  Pt14  1  0.523276  0.636382  0.886894  1
  Au  Au15  1  0.001563  0.747568  0.748515  1
  Au  Au16  1  0.001563  0.253048  0.253995  1
  Au  Au17  1  0.250679  0.864787  0.385894  1
  Au  Au18  1  0.750463  0.135830  0.614631  1
  Au  Au19  1  0.478868  0.364024  0.114843  1
