# generated using pymatgen
data_Sc3Ni19P6Ir
_symmetry_space_group_name_H-M   'P 1'
_cell_length_a   7.90769136
_cell_length_b   7.90769109
_cell_length_c   7.91883192
_cell_angle_alpha   60.04652878
_cell_angle_beta   60.04653467
_cell_angle_gamma   60.00000267
_symmetry_Int_Tables_number   1
_chemical_formula_structural   Sc3Ni19P6Ir
_chemical_formula_sum   'Sc3 Ni19 P6 Ir1'
_cell_volume   350.38913825
_cell_formula_units_Z   1
loop_
 _symmetry_equiv_pos_site_id
 _symmetry_equiv_pos_as_xyz
  1  'x, y, z'
loop_
 _atom_site_type_symbol
 _atom_site_label
 _atom_site_symmetry_multiplicity
 _atom_site_fract_x
 _atom_site_fract_y
 _atom_site_fract_z
 _atom_site_occupancy
  Sc  Sc0  1  0.748635  0.748635  0.754096  1
  Sc  Sc1  1  0.247424  0.247424  0.257727  1
  Sc  Sc2  1  0.000164  0.000164  0.999508  1
  Ni  Ni3  1  0.620017  0.620017  0.610617  1
  Ni  Ni4  1  0.996749  0.350833  0.999542  1
  Ni  Ni5  1  0.350833  0.996749  0.999542  1
  Ni  Ni6  1  0.998101  0.355942  0.647856  1
  Ni  Ni7  1  0.846390  0.384103  0.385403  1
  Ni  Ni8  1  0.355942  0.998101  0.647856  1
  Ni  Ni9  1  0.996436  0.996436  0.352108  1
  Ni  Ni10  1  0.652877  0.350833  0.999542  1
  Ni  Ni11  1  0.996436  0.655020  0.352108  1
  Ni  Ni12  1  0.998101  0.998101  0.647856  1
  Ni  Ni13  1  0.350833  0.652877  0.999542  1
  Ni  Ni14  1  0.652877  0.996749  0.999542  1
  Ni  Ni15  1  0.996749  0.652877  0.999542  1
  Ni  Ni16  1  0.384103  0.846390  0.385403  1
  Ni  Ni17  1  0.613861  0.613861  0.158416  1
  Ni  Ni18  1  0.620017  0.149348  0.610617  1
  Ni  Ni19  1  0.149348  0.620017  0.610617  1
  Ni  Ni20  1  0.384103  0.384103  0.385403  1
  Ni  Ni21  1  0.655020  0.996436  0.352108  1
  P  P22  1  0.744944  0.259890  0.735277  1
  P  P23  1  0.263736  0.737215  0.261834  1
  P  P24  1  0.259890  0.744944  0.735277  1
  P  P25  1  0.259890  0.259890  0.735277  1
  P  P26  1  0.737215  0.737215  0.261834  1
  P  P27  1  0.737215  0.263736  0.261834  1
  Ir  Ir28  1  0.382094  0.382094  0.853718  1
