# generated using pymatgen
data_ErAl6ZnCu5
_symmetry_space_group_name_H-M   'P 1'
_cell_length_a   5.08229067
_cell_length_b   6.64460848
_cell_length_c   6.64460951
_cell_angle_alpha   98.92235962
_cell_angle_beta   112.48472163
_cell_angle_gamma   67.51527368
_symmetry_Int_Tables_number   1
_chemical_formula_structural   ErAl6ZnCu5
_chemical_formula_sum   'Er1 Al6 Zn1 Cu5'
_cell_volume   191.55860610
_cell_formula_units_Z   1
loop_
 _symmetry_equiv_pos_site_id
 _symmetry_equiv_pos_as_xyz
  1  'x, y, z'
loop_
 _atom_site_type_symbol
 _atom_site_label
 _atom_site_symmetry_multiplicity
 _atom_site_fract_x
 _atom_site_fract_y
 _atom_site_fract_z
 _atom_site_occupancy
  Er  Er0  1  0.000000  0.001283  0.001283  1
  Al  Al1  1  0.652167  0.342907  0.647242  1
  Al  Al2  1  0.347833  0.647242  0.342907  1
  Al  Al3  1  0.000000  0.346087  0.346087  1
  Al  Al4  1  0.000000  0.651114  0.651114  1
  Al  Al5  1  0.709500  0.794613  0.213613  1
  Al  Al6  1  0.290500  0.213613  0.794613  1
  Zn  Zn7  1  0.500000  0.775453  0.775453  1
  Cu  Cu8  1  0.499454  0.000248  0.500927  1
  Cu  Cu9  1  0.001225  0.000248  0.500927  1
  Cu  Cu10  1  0.500546  0.500927  0.000248  1
  Cu  Cu11  1  0.998775  0.500927  0.000248  1
  Cu  Cu12  1  0.500000  0.225337  0.225337  1
