# generated using pymatgen
data_Te13Ir
_symmetry_space_group_name_H-M   'P 1'
_cell_length_a   10.15234638
_cell_length_b   10.70540744
_cell_length_c   9.62986934
_cell_angle_alpha   105.15889920
_cell_angle_beta   110.04245530
_cell_angle_gamma   89.00908751
_symmetry_Int_Tables_number   1
_chemical_formula_structural   Te13Ir
_chemical_formula_sum   'Te26 Ir2'
_cell_volume   946.00164348
_cell_formula_units_Z   2
loop_
 _symmetry_equiv_pos_site_id
 _symmetry_equiv_pos_as_xyz
  1  'x, y, z'
loop_
 _atom_site_type_symbol
 _atom_site_label
 _atom_site_symmetry_multiplicity
 _atom_site_fract_x
 _atom_site_fract_y
 _atom_site_fract_z
 _atom_site_occupancy
  Te  Te0  1  0.452623  0.695018  0.039914  1
  Te  Te1  1  0.547377  0.304982  0.960086  1
  Te  Te2  1  0.589812  0.872248  0.345909  1
  Te  Te3  1  0.410188  0.127752  0.654091  1
  Te  Te4  1  0.717121  0.724021  0.965648  1
  Te  Te5  1  0.282879  0.275979  0.034352  1
  Te  Te6  1  0.812966  0.963513  0.264665  1
  Te  Te7  1  0.187034  0.036487  0.735335  1
  Te  Te8  1  0.438218  0.066954  0.152198  1
  Te  Te9  1  0.561782  0.933046  0.847802  1
  Te  Te10  1  0.235729  0.675003  0.637450  1
  Te  Te11  1  0.764271  0.324997  0.362550  1
  Te  Te12  1  0.092118  0.817288  0.949502  1
  Te  Te13  1  0.907882  0.182712  0.050498  1
  Te  Te14  1  0.104567  0.028735  0.233072  1
  Te  Te15  1  0.895433  0.971265  0.766928  1
  Te  Te16  1  0.266341  0.837823  0.425098  1
  Te  Te17  1  0.733659  0.162177  0.574902  1
  Te  Te18  1  0.509797  0.553042  0.677610  1
  Te  Te19  1  0.490203  0.446958  0.322390  1
  Te  Te20  1  0.091071  0.489889  0.743841  1
  Te  Te21  1  0.908929  0.510111  0.256159  1
  Te  Te22  1  0.893482  0.694648  0.514458  1
  Te  Te23  1  0.106518  0.305352  0.485542  1
  Te  Te24  1  0.224195  0.628929  0.157915  1
  Te  Te25  1  0.775805  0.371071  0.842085  1
  Ir  Ir26  1  0.324040  0.870768  0.893916  1
  Ir  Ir27  1  0.675960  0.129232  0.106084  1
