# generated using pymatgen
data_Nb6Zn6N
_symmetry_space_group_name_H-M   'P 1'
_cell_length_a   8.20752735
_cell_length_b   8.20752830
_cell_length_c   8.20752800
_cell_angle_alpha   60.00000119
_cell_angle_beta   59.99999738
_cell_angle_gamma   60.00000206
_symmetry_Int_Tables_number   1
_chemical_formula_structural   Nb6Zn6N
_chemical_formula_sum   'Nb12 Zn12 N2'
_cell_volume   390.95079850
_cell_formula_units_Z   2
loop_
 _symmetry_equiv_pos_site_id
 _symmetry_equiv_pos_as_xyz
  1  'x, y, z'
loop_
 _atom_site_type_symbol
 _atom_site_label
 _atom_site_symmetry_multiplicity
 _atom_site_fract_x
 _atom_site_fract_y
 _atom_site_fract_z
 _atom_site_occupancy
  Nb  Nb0  1  0.188730  0.811270  0.188730  1
  Nb  Nb1  1  0.438730  0.061270  0.438730  1
  Nb  Nb2  1  0.438730  0.061270  0.061270  1
  Nb  Nb3  1  0.438730  0.438730  0.061270  1
  Nb  Nb4  1  0.188730  0.811270  0.811270  1
  Nb  Nb5  1  0.061270  0.438730  0.061270  1
  Nb  Nb6  1  0.811270  0.811270  0.188730  1
  Nb  Nb7  1  0.061270  0.438730  0.438730  1
  Nb  Nb8  1  0.188730  0.188730  0.811270  1
  Nb  Nb9  1  0.811270  0.188730  0.188730  1
  Nb  Nb10  1  0.811270  0.188730  0.811270  1
  Nb  Nb11  1  0.061270  0.061270  0.438730  1
  Zn  Zn12  1  0.832812  0.501564  0.832812  1
  Zn  Zn13  1  0.417188  0.417188  0.748436  1
  Zn  Zn14  1  0.748436  0.417188  0.417188  1
  Zn  Zn15  1  0.417188  0.417188  0.417188  1
  Zn  Zn16  1  0.832812  0.832812  0.501564  1
  Zn  Zn17  1  0.417188  0.748436  0.417188  1
  Zn  Zn18  1  0.832812  0.832812  0.832812  1
  Zn  Zn19  1  0.501564  0.832812  0.832812  1
  Zn  Zn20  1  0.625000  0.125000  0.625000  1
  Zn  Zn21  1  0.625000  0.625000  0.125000  1
  Zn  Zn22  1  0.125000  0.625000  0.625000  1
  Zn  Zn23  1  0.625000  0.625000  0.625000  1
  N  N24  1  0.000000  0.000000  0.000000  1
  N  N25  1  0.250000  0.250000  0.250000  1
