# generated using pymatgen
data_Y2HoTm(OsC2)2
_symmetry_space_group_name_H-M   'P 1'
_cell_length_a   5.11615900
_cell_length_b   6.44499873
_cell_length_c   9.74424176
_cell_angle_alpha   90.17772687
_cell_angle_beta   90.00000000
_cell_angle_gamma   90.00000000
_symmetry_Int_Tables_number   1
_chemical_formula_structural   Y2HoTm(OsC2)2
_chemical_formula_sum   'Y4 Ho2 Tm2 Os4 C8'
_cell_volume   321.30155687
_cell_formula_units_Z   2
loop_
 _symmetry_equiv_pos_site_id
 _symmetry_equiv_pos_as_xyz
  1  'x, y, z'
loop_
 _atom_site_type_symbol
 _atom_site_label
 _atom_site_symmetry_multiplicity
 _atom_site_fract_x
 _atom_site_fract_y
 _atom_site_fract_z
 _atom_site_occupancy
  Y  Y0  1  0.250000  0.527226  0.218939  1
  Y  Y1  1  0.750000  0.472774  0.781061  1
  Y  Y2  1  0.750000  0.973216  0.717473  1
  Y  Y3  1  0.250000  0.026784  0.282527  1
  Ho  Ho4  1  0.750000  0.817323  0.052963  1
  Ho  Ho5  1  0.250000  0.182677  0.947037  1
  Tm  Tm6  1  0.250000  0.680173  0.553730  1
  Tm  Tm7  1  0.750000  0.319827  0.446270  1
  Os  Os8  1  0.250000  0.726112  0.864936  1
  Os  Os9  1  0.750000  0.273888  0.135064  1
  Os  Os10  1  0.750000  0.774295  0.366563  1
  Os  Os11  1  0.250000  0.225705  0.633437  1
  C  C12  1  0.250000  0.461554  0.757430  1
  C  C13  1  0.750000  0.538446  0.242570  1
  C  C14  1  0.750000  0.039126  0.259137  1
  C  C15  1  0.250000  0.960874  0.740863  1
  C  C16  1  0.250000  0.826846  0.053115  1
  C  C17  1  0.750000  0.173154  0.946885  1
  C  C18  1  0.750000  0.670702  0.553570  1
  C  C19  1  0.250000  0.329298  0.446430  1
