# generated using pymatgen
data_La11Pr(PtBr3)4
_symmetry_space_group_name_H-M   'P 1'
_cell_length_a   10.71059849
_cell_length_b   10.71080695
_cell_length_c   10.70710912
_cell_angle_alpha   109.43993354
_cell_angle_beta   109.43645654
_cell_angle_gamma   109.51170411
_symmetry_Int_Tables_number   1
_chemical_formula_structural   La11Pr(PtBr3)4
_chemical_formula_sum   'La11 Pr1 Pt4 Br12'
_cell_volume   945.85170654
_cell_formula_units_Z   1
loop_
 _symmetry_equiv_pos_site_id
 _symmetry_equiv_pos_as_xyz
  1  'x, y, z'
loop_
 _atom_site_type_symbol
 _atom_site_label
 _atom_site_symmetry_multiplicity
 _atom_site_fract_x
 _atom_site_fract_y
 _atom_site_fract_z
 _atom_site_occupancy
  La  La0  1  0.472044  0.486126  0.235536  1
  La  La1  1  0.749677  0.235982  0.263802  1
  La  La2  1  0.750631  0.014252  0.486401  1
  La  La3  1  0.236006  0.471845  0.486247  1
  La  La4  1  0.263984  0.750312  0.236179  1
  La  La5  1  0.028122  0.264001  0.013776  1
  La  La6  1  0.013872  0.027972  0.264407  1
  La  La7  1  0.485787  0.749360  0.013646  1
  La  La8  1  0.485898  0.236148  0.472302  1
  La  La9  1  0.014439  0.485591  0.750020  1
  La  La10  1  0.263834  0.014130  0.027685  1
  Pr  Pr11  1  0.235846  0.264159  0.750013  1
  Pt  Pt12  1  0.250005  0.249980  0.249991  1
  Pt  Pt13  1  0.500029  0.999960  0.249994  1
  Pt  Pt14  1  0.999867  0.249852  0.499733  1
  Pt  Pt15  1  0.250141  0.500127  0.000266  1
  Br  Br16  1  0.250000  0.754529  0.745438  1
  Br  Br17  1  0.508837  0.504155  0.754530  1
  Br  Br18  1  0.990874  0.745467  0.995458  1
  Br  Br19  1  0.745477  0.249999  0.754566  1
  Br  Br20  1  0.995849  0.991168  0.745485  1
  Br  Br21  1  0.250009  0.995788  0.504793  1
  Br  Br22  1  0.754543  0.509129  0.504545  1
  Br  Br23  1  0.504206  0.249986  0.995202  1
  Br  Br24  1  0.754549  0.745448  0.250003  1
  Br  Br25  1  0.745441  0.995434  0.990904  1
  Br  Br26  1  0.995457  0.504527  0.249985  1
  Br  Br27  1  0.504577  0.754571  0.509090  1
