# generated using pymatgen
data_Er2TmFe2Co7P6
_symmetry_space_group_name_H-M   'P 1'
_cell_length_a   3.69461100
_cell_length_b   10.54500100
_cell_length_c   12.08596900
_cell_angle_alpha   90.00000000
_cell_angle_beta   90.00000000
_cell_angle_gamma   90.00000000
_symmetry_Int_Tables_number   1
_chemical_formula_structural   Er2TmFe2Co7P6
_chemical_formula_sum   'Er4 Tm2 Fe4 Co14 P12'
_cell_volume   470.86544472
_cell_formula_units_Z   2
loop_
 _symmetry_equiv_pos_site_id
 _symmetry_equiv_pos_as_xyz
  1  'x, y, z'
loop_
 _atom_site_type_symbol
 _atom_site_label
 _atom_site_symmetry_multiplicity
 _atom_site_fract_x
 _atom_site_fract_y
 _atom_site_fract_z
 _atom_site_occupancy
  Er  Er0  1  0.000000  0.500000  0.522442  1
  Er  Er1  1  0.500000  0.000000  0.477287  1
  Er  Er2  1  0.000000  0.680790  0.795826  1
  Er  Er3  1  0.000000  0.319210  0.795826  1
  Tm  Tm4  1  0.500000  0.819417  0.204166  1
  Tm  Tm5  1  0.500000  0.180583  0.204166  1
  Fe  Fe6  1  0.000000  0.500000  0.988697  1
  Fe  Fe7  1  0.500000  0.000000  0.012318  1
  Fe  Fe8  1  0.500000  0.500000  0.155897  1
  Fe  Fe9  1  0.000000  0.000000  0.844494  1
  Co  Co10  1  0.500000  0.296533  0.429911  1
  Co  Co11  1  0.500000  0.703467  0.429911  1
  Co  Co12  1  0.000000  0.203346  0.569079  1
  Co  Co13  1  0.000000  0.796654  0.569079  1
  Co  Co14  1  0.500000  0.878616  0.709095  1
  Co  Co15  1  0.500000  0.121384  0.709095  1
  Co  Co16  1  0.000000  0.621570  0.290518  1
  Co  Co17  1  0.000000  0.378430  0.290518  1
  Co  Co18  1  0.500000  0.331591  0.994653  1
  Co  Co19  1  0.500000  0.668409  0.994653  1
  Co  Co20  1  0.000000  0.168188  0.006369  1
  Co  Co21  1  0.000000  0.831812  0.006369  1
  Co  Co22  1  0.500000  0.500000  0.701010  1
  Co  Co23  1  0.000000  0.000000  0.298716  1
  P  P24  1  0.500000  0.310595  0.616627  1
  P  P25  1  0.500000  0.689405  0.616627  1
  P  P26  1  0.000000  0.189204  0.382426  1
  P  P27  1  0.000000  0.810796  0.382426  1
  P  P28  1  0.500000  0.500000  0.884134  1
  P  P29  1  0.000000  0.000000  0.116647  1
  P  P30  1  0.500000  0.847369  0.893324  1
  P  P31  1  0.500000  0.152631  0.893324  1
  P  P32  1  0.000000  0.653032  0.107203  1
  P  P33  1  0.000000  0.346968  0.107203  1
  P  P34  1  0.500000  0.500000  0.342301  1
  P  P35  1  0.000000  0.000000  0.657663  1
