# generated using pymatgen
data_DyTm5Ni12(B2Ru)2
_symmetry_space_group_name_H-M   'P 1'
_cell_length_a   4.99426200
_cell_length_b   5.13843107
_cell_length_c   14.34619003
_cell_angle_alpha   89.99359556
_cell_angle_beta   90.00000000
_cell_angle_gamma   119.07615412
_symmetry_Int_Tables_number   1
_chemical_formula_structural   DyTm5Ni12(B2Ru)2
_chemical_formula_sum   'Dy1 Tm5 Ni12 B4 Ru2'
_cell_volume   321.76382892
_cell_formula_units_Z   1
loop_
 _symmetry_equiv_pos_site_id
 _symmetry_equiv_pos_as_xyz
  1  'x, y, z'
loop_
 _atom_site_type_symbol
 _atom_site_label
 _atom_site_symmetry_multiplicity
 _atom_site_fract_x
 _atom_site_fract_y
 _atom_site_fract_z
 _atom_site_occupancy
  Dy  Dy0  1  0.332469  0.664940  0.533947  1
  Tm  Tm1  1  0.667397  0.334792  0.033944  1
  Tm  Tm2  1  0.662260  0.324518  0.466133  1
  Tm  Tm3  1  0.337663  0.675327  0.966681  1
  Tm  Tm4  1  0.332059  0.664118  0.751043  1
  Tm  Tm5  1  0.667999  0.335998  0.250359  1
  Ni  Ni6  1  0.995749  0.991497  0.998028  1
  Ni  Ni7  1  0.004180  0.008361  0.497803  1
  Ni  Ni8  1  0.667661  0.833850  0.147915  1
  Ni  Ni9  1  0.166189  0.833850  0.147915  1
  Ni  Ni10  1  0.833871  0.166146  0.648527  1
  Ni  Ni11  1  0.332274  0.166146  0.648527  1
  Ni  Ni12  1  0.832916  0.665831  0.850659  1
  Ni  Ni13  1  0.832082  0.163041  0.852623  1
  Ni  Ni14  1  0.330959  0.163041  0.852623  1
  Ni  Ni15  1  0.669560  0.837221  0.351924  1
  Ni  Ni16  1  0.167661  0.837221  0.351924  1
  Ni  Ni17  1  0.166858  0.333718  0.350022  1
  B  B18  1  0.336841  0.673684  0.251294  1
  B  B19  1  0.663037  0.326072  0.751617  1
  B  B20  1  0.000313  0.000626  0.250792  1
  B  B21  1  0.999954  0.999908  0.751609  1
  Ru  Ru22  1  0.165346  0.330690  0.146623  1
  Ru  Ru23  1  0.834700  0.669402  0.647470  1
