# generated using pymatgen
data_Rb3Ca(NpSe3)2
_symmetry_space_group_name_H-M   'P 1'
_cell_length_a   7.48847615
_cell_length_b   7.48847696
_cell_length_c   8.23673500
_cell_angle_alpha   81.29606148
_cell_angle_beta   81.29606054
_cell_angle_gamma   119.66779272
_symmetry_Int_Tables_number   1
_chemical_formula_structural   Rb3Ca(NpSe3)2
_chemical_formula_sum   'Rb3 Ca1 Np2 Se6'
_cell_volume   382.71274712
_cell_formula_units_Z   1
loop_
 _symmetry_equiv_pos_site_id
 _symmetry_equiv_pos_as_xyz
  1  'x, y, z'
loop_
 _atom_site_type_symbol
 _atom_site_label
 _atom_site_symmetry_multiplicity
 _atom_site_fract_x
 _atom_site_fract_y
 _atom_site_fract_z
 _atom_site_occupancy
  Rb  Rb0  1  0.661243  0.338757  0.500000  1
  Rb  Rb1  1  0.338757  0.661243  0.500000  1
  Rb  Rb2  1  0.000000  0.000000  0.500000  1
  Ca  Ca3  1  0.500000  0.500000  0.000000  1
  Np  Np4  1  0.832780  0.167220  0.000000  1
  Np  Np5  1  0.167220  0.832780  0.000000  1
  Se  Se6  1  0.777714  0.777714  0.195841  1
  Se  Se7  1  0.222286  0.222286  0.804159  1
  Se  Se8  1  0.434017  0.088563  0.197522  1
  Se  Se9  1  0.565983  0.911437  0.802478  1
  Se  Se10  1  0.911437  0.565983  0.802478  1
  Se  Se11  1  0.088563  0.434017  0.197522  1
