# generated using pymatgen
data_NdDy9Sn8
_symmetry_space_group_name_H-M   'P 1'
_cell_length_a   8.08236361
_cell_length_b   8.22025600
_cell_length_c   15.53667646
_cell_angle_alpha   90.00000000
_cell_angle_beta   89.83295735
_cell_angle_gamma   90.00000000
_symmetry_Int_Tables_number   1
_chemical_formula_structural   NdDy9Sn8
_chemical_formula_sum   'Nd2 Dy18 Sn16'
_cell_volume   1032.23838261
_cell_formula_units_Z   2
loop_
 _symmetry_equiv_pos_site_id
 _symmetry_equiv_pos_as_xyz
  1  'x, y, z'
loop_
 _atom_site_type_symbol
 _atom_site_label
 _atom_site_symmetry_multiplicity
 _atom_site_fract_x
 _atom_site_fract_y
 _atom_site_fract_z
 _atom_site_occupancy
  Nd  Nd0  1  0.982446  0.819329  0.597402  1
  Nd  Nd1  1  0.517554  0.319329  0.402598  1
  Dy  Dy2  1  0.018972  0.179923  0.401510  1
  Dy  Dy3  1  0.368491  0.836831  0.121093  1
  Dy  Dy4  1  0.133142  0.336847  0.622272  1
  Dy  Dy5  1  0.480200  0.679549  0.902432  1
  Dy  Dy6  1  0.868607  0.663222  0.121356  1
  Dy  Dy7  1  0.131509  0.336831  0.878907  1
  Dy  Dy8  1  0.198701  0.503287  0.249060  1
  Dy  Dy9  1  0.699141  0.997015  0.249212  1
  Dy  Dy10  1  0.481028  0.679923  0.598490  1
  Dy  Dy11  1  0.301299  0.003287  0.750940  1
  Dy  Dy12  1  0.633120  0.162924  0.622538  1
  Dy  Dy13  1  0.800859  0.497015  0.750788  1
  Dy  Dy14  1  0.866880  0.662924  0.377462  1
  Dy  Dy15  1  0.019800  0.179549  0.097568  1
  Dy  Dy16  1  0.979881  0.820006  0.901472  1
  Dy  Dy17  1  0.631393  0.163222  0.878644  1
  Dy  Dy18  1  0.520119  0.320006  0.098528  1
  Dy  Dy19  1  0.366858  0.836847  0.377728  1
  Sn  Sn20  1  0.793801  0.462854  0.542667  1
  Sn  Sn21  1  0.706199  0.962854  0.457333  1
  Sn  Sn22  1  0.670368  0.853439  0.750780  1
  Sn  Sn23  1  0.204410  0.539374  0.458989  1
  Sn  Sn24  1  0.290806  0.035883  0.958251  1
  Sn  Sn25  1  0.829632  0.353439  0.249220  1
  Sn  Sn26  1  0.791208  0.463804  0.958376  1
  Sn  Sn27  1  0.565854  0.620923  0.249430  1
  Sn  Sn28  1  0.209194  0.535883  0.041749  1
  Sn  Sn29  1  0.434592  0.380085  0.750250  1
  Sn  Sn30  1  0.174288  0.644706  0.751734  1
  Sn  Sn31  1  0.934146  0.120923  0.750570  1
  Sn  Sn32  1  0.295590  0.039374  0.541011  1
  Sn  Sn33  1  0.708792  0.963804  0.041624  1
  Sn  Sn34  1  0.325712  0.144706  0.248266  1
  Sn  Sn35  1  0.065408  0.880085  0.249750  1
