# generated using pymatgen
data_La9Tb3(Si7Br3)2
_symmetry_space_group_name_H-M   'P 1'
_cell_length_a   4.09332200
_cell_length_b   11.91636036
_cell_length_c   16.64657482
_cell_angle_alpha   89.57049537
_cell_angle_beta   90.00000000
_cell_angle_gamma   90.00000000
_symmetry_Int_Tables_number   1
_chemical_formula_structural   La9Tb3(Si7Br3)2
_chemical_formula_sum   'La9 Tb3 Si14 Br6'
_cell_volume   811.95548965
_cell_formula_units_Z   1
loop_
 _symmetry_equiv_pos_site_id
 _symmetry_equiv_pos_as_xyz
  1  'x, y, z'
loop_
 _atom_site_type_symbol
 _atom_site_label
 _atom_site_symmetry_multiplicity
 _atom_site_fract_x
 _atom_site_fract_y
 _atom_site_fract_z
 _atom_site_occupancy
  La  La0  1  0.500000  0.338993  0.503757  1
  La  La1  1  0.000000  0.658781  0.997640  1
  La  La2  1  0.000000  0.639576  0.745075  1
  La  La3  1  0.500000  0.359639  0.244314  1
  La  La4  1  0.000000  0.639664  0.255300  1
  La  La5  1  0.500000  0.069365  0.877687  1
  La  La6  1  0.000000  0.934062  0.620852  1
  La  La7  1  0.500000  0.067910  0.118083  1
  La  La8  1  0.000000  0.931688  0.380071  1
  Tb  Tb9  1  0.500000  0.366012  0.759598  1
  Tb  Tb10  1  0.500000  0.356186  0.998228  1
  Tb  Tb11  1  0.000000  0.641696  0.502192  1
  Si  Si12  1  0.000000  0.158402  0.997288  1
  Si  Si13  1  0.500000  0.843453  0.500985  1
  Si  Si14  1  0.500000  0.561254  0.877542  1
  Si  Si15  1  0.000000  0.431477  0.626592  1
  Si  Si16  1  0.500000  0.562589  0.119583  1
  Si  Si17  1  0.000000  0.436858  0.381253  1
  Si  Si18  1  0.000000  0.257974  0.870951  1
  Si  Si19  1  0.500000  0.742129  0.624593  1
  Si  Si20  1  0.000000  0.256945  0.122301  1
  Si  Si21  1  0.500000  0.741827  0.377439  1
  Si  Si22  1  0.000000  0.456116  0.878441  1
  Si  Si23  1  0.500000  0.539964  0.623170  1
  Si  Si24  1  0.500000  0.542569  0.380507  1
  Si  Si25  1  0.000000  0.456399  0.119291  1
  Br  Br26  1  0.500000  0.119275  0.691596  1
  Br  Br27  1  0.000000  0.890432  0.808012  1
  Br  Br28  1  0.000000  0.136255  0.499137  1
  Br  Br29  1  0.500000  0.862727  0.999330  1
  Br  Br30  1  0.500000  0.108992  0.307639  1
  Br  Br31  1  0.000000  0.890791  0.191553  1
