# generated using pymatgen
data_Eu4Cd4Pt3Rh
_symmetry_space_group_name_H-M   'P 1'
_cell_length_a   4.39017400
_cell_length_b   7.42388071
_cell_length_c   8.82349979
_cell_angle_alpha   90.11698660
_cell_angle_beta   90.00000000
_cell_angle_gamma   90.00000000
_symmetry_Int_Tables_number   1
_chemical_formula_structural   Eu4Cd4Pt3Rh
_chemical_formula_sum   'Eu4 Cd4 Pt3 Rh1'
_cell_volume   287.57603577
_cell_formula_units_Z   1
loop_
 _symmetry_equiv_pos_site_id
 _symmetry_equiv_pos_as_xyz
  1  'x, y, z'
loop_
 _atom_site_type_symbol
 _atom_site_label
 _atom_site_symmetry_multiplicity
 _atom_site_fract_x
 _atom_site_fract_y
 _atom_site_fract_z
 _atom_site_occupancy
  Eu  Eu0  1  0.250000  0.038779  0.321656  1
  Eu  Eu1  1  0.250000  0.537572  0.181373  1
  Eu  Eu2  1  0.750000  0.964890  0.677751  1
  Eu  Eu3  1  0.750000  0.461466  0.819057  1
  Cd  Cd4  1  0.250000  0.142340  0.934162  1
  Cd  Cd5  1  0.250000  0.636572  0.562339  1
  Cd  Cd6  1  0.750000  0.858663  0.062011  1
  Cd  Cd7  1  0.750000  0.356614  0.442545  1
  Pt  Pt8  1  0.250000  0.756583  0.870171  1
  Pt  Pt9  1  0.750000  0.745070  0.370583  1
  Pt  Pt10  1  0.750000  0.244081  0.129274  1
  Rh  Rh11  1  0.250000  0.257370  0.629079  1
