# generated using pymatgen
data_SmEr(LuBi)3
_symmetry_space_group_name_H-M   'P 1'
_cell_length_a   8.24725900
_cell_length_b   9.39751200
_cell_length_c   12.04427400
_cell_angle_alpha   90.00000000
_cell_angle_beta   90.00000000
_cell_angle_gamma   90.00000000
_symmetry_Int_Tables_number   1
_chemical_formula_structural   SmEr(LuBi)3
_chemical_formula_sum   'Sm4 Er4 Lu12 Bi12'
_cell_volume   933.47598453
_cell_formula_units_Z   4
loop_
 _symmetry_equiv_pos_site_id
 _symmetry_equiv_pos_as_xyz
  1  'x, y, z'
loop_
 _atom_site_type_symbol
 _atom_site_label
 _atom_site_symmetry_multiplicity
 _atom_site_fract_x
 _atom_site_fract_y
 _atom_site_fract_z
 _atom_site_occupancy
  Sm  Sm0  1  0.185636  0.750000  0.718947  1
  Sm  Sm1  1  0.685636  0.750000  0.781053  1
  Sm  Sm2  1  0.814364  0.250000  0.281053  1
  Sm  Sm3  1  0.314364  0.250000  0.218947  1
  Er  Er4  1  0.353388  0.750000  0.217049  1
  Er  Er5  1  0.853388  0.750000  0.282951  1
  Er  Er6  1  0.646612  0.250000  0.782951  1
  Er  Er7  1  0.146612  0.250000  0.717049  1
  Lu  Lu8  1  0.023244  0.750000  0.989531  1
  Lu  Lu9  1  0.523244  0.750000  0.510469  1
  Lu  Lu10  1  0.976756  0.250000  0.010469  1
  Lu  Lu11  1  0.476756  0.250000  0.489531  1
  Lu  Lu12  1  0.307842  0.432484  0.940302  1
  Lu  Lu13  1  0.807842  0.067516  0.559698  1
  Lu  Lu14  1  0.692158  0.932484  0.059698  1
  Lu  Lu15  1  0.192158  0.567516  0.440302  1
  Lu  Lu16  1  0.692158  0.567516  0.059698  1
  Lu  Lu17  1  0.192158  0.932484  0.440302  1
  Lu  Lu18  1  0.307842  0.067516  0.940302  1
  Lu  Lu19  1  0.807842  0.432484  0.559698  1
  Bi  Bi20  1  0.434644  0.006806  0.671597  1
  Bi  Bi21  1  0.934644  0.493194  0.828403  1
  Bi  Bi22  1  0.565356  0.506806  0.328403  1
  Bi  Bi23  1  0.065356  0.993194  0.171597  1
  Bi  Bi24  1  0.565356  0.993194  0.328403  1
  Bi  Bi25  1  0.065356  0.506806  0.171597  1
  Bi  Bi26  1  0.434644  0.493194  0.671597  1
  Bi  Bi27  1  0.934644  0.006806  0.828403  1
  Bi  Bi28  1  0.403194  0.750000  0.959807  1
  Bi  Bi29  1  0.903194  0.750000  0.540193  1
  Bi  Bi30  1  0.596806  0.250000  0.040193  1
  Bi  Bi31  1  0.096806  0.250000  0.459807  1
