# generated using pymatgen
data_K4Rh2Cl10O
_symmetry_space_group_name_H-M   'P 1'
_cell_length_a   7.18975947
_cell_length_b   7.18976026
_cell_length_c   10.27014622
_cell_angle_alpha   110.48927012
_cell_angle_beta   110.48927317
_cell_angle_gamma   90.00000070
_symmetry_Int_Tables_number   1
_chemical_formula_structural   K4Rh2Cl10O
_chemical_formula_sum   'K4 Rh2 Cl10 O1'
_cell_volume   461.28145143
_cell_formula_units_Z   1
loop_
 _symmetry_equiv_pos_site_id
 _symmetry_equiv_pos_as_xyz
  1  'x, y, z'
loop_
 _atom_site_type_symbol
 _atom_site_label
 _atom_site_symmetry_multiplicity
 _atom_site_fract_x
 _atom_site_fract_y
 _atom_site_fract_z
 _atom_site_occupancy
  K  K0  1  0.500000  0.000000  0.000000  1
  K  K1  1  0.000000  0.500000  0.000000  1
  K  K2  1  0.750000  0.250000  0.500000  1
  K  K3  1  0.250000  0.750000  0.500000  1
  Rh  Rh4  1  0.107104  0.107104  0.214209  1
  Rh  Rh5  1  0.892896  0.892896  0.785792  1
  Cl  Cl6  1  0.345752  0.345752  0.224266  1
  Cl  Cl7  1  0.878514  0.345752  0.224266  1
  Cl  Cl8  1  0.345752  0.878514  0.224266  1
  Cl  Cl9  1  0.878514  0.878514  0.224266  1
  Cl  Cl10  1  0.237152  0.237152  0.474304  1
  Cl  Cl11  1  0.762849  0.762849  0.525696  1
  Cl  Cl12  1  0.121486  0.121486  0.775734  1
  Cl  Cl13  1  0.654248  0.121486  0.775734  1
  Cl  Cl14  1  0.121486  0.654248  0.775734  1
  Cl  Cl15  1  0.654248  0.654248  0.775734  1
  O  O16  1  0.000000  0.000000  0.000000  1
