# generated using pymatgen
data_Tb2NdMoO7
_symmetry_space_group_name_H-M   'P 1'
_cell_length_a   6.51613579
_cell_length_b   6.51613615
_cell_length_c   7.62782300
_cell_angle_alpha   90.00000000
_cell_angle_beta   90.00000000
_cell_angle_gamma   109.20973927
_symmetry_Int_Tables_number   1
_chemical_formula_structural   Tb2NdMoO7
_chemical_formula_sum   'Tb4 Nd2 Mo2 O14'
_cell_volume   305.84422217
_cell_formula_units_Z   2
loop_
 _symmetry_equiv_pos_site_id
 _symmetry_equiv_pos_as_xyz
  1  'x, y, z'
loop_
 _atom_site_type_symbol
 _atom_site_label
 _atom_site_symmetry_multiplicity
 _atom_site_fract_x
 _atom_site_fract_y
 _atom_site_fract_z
 _atom_site_occupancy
  Tb  Tb0  1  0.535060  0.000648  0.750000  1
  Tb  Tb1  1  0.000648  0.535060  0.250000  1
  Tb  Tb2  1  0.464940  0.999352  0.250000  1
  Tb  Tb3  1  0.999352  0.464940  0.750000  1
  Nd  Nd4  1  0.500000  0.500000  0.500000  1
  Nd  Nd5  1  0.500000  0.500000  0.000000  1
  Mo  Mo6  1  0.000000  0.000000  0.500000  1
  Mo  Mo7  1  0.000000  0.000000  0.000000  1
  O  O8  1  0.680274  0.928668  0.470609  1
  O  O9  1  0.928668  0.680274  0.529391  1
  O  O10  1  0.680274  0.928668  0.029391  1
  O  O11  1  0.928668  0.680274  0.970609  1
  O  O12  1  0.319726  0.071332  0.529391  1
  O  O13  1  0.071332  0.319726  0.470609  1
  O  O14  1  0.319726  0.071332  0.970609  1
  O  O15  1  0.071332  0.319726  0.029391  1
  O  O16  1  0.930143  0.069857  0.750000  1
  O  O17  1  0.069857  0.930143  0.250000  1
  O  O18  1  0.364220  0.635780  0.750000  1
  O  O19  1  0.635780  0.364220  0.250000  1
  O  O20  1  0.640143  0.359857  0.750000  1
  O  O21  1  0.359857  0.640143  0.250000  1
