# generated using pymatgen
data_Pu4VB16Mo3
_symmetry_space_group_name_H-M   'P 1'
_cell_length_a   3.61666600
_cell_length_b   6.00440622
_cell_length_c   11.63384944
_cell_angle_alpha   90.03144265
_cell_angle_beta   90.00000000
_cell_angle_gamma   90.00000000
_symmetry_Int_Tables_number   1
_chemical_formula_structural   Pu4VB16Mo3
_chemical_formula_sum   'Pu4 V1 B16 Mo3'
_cell_volume   252.63984348
_cell_formula_units_Z   1
loop_
 _symmetry_equiv_pos_site_id
 _symmetry_equiv_pos_as_xyz
  1  'x, y, z'
loop_
 _atom_site_type_symbol
 _atom_site_label
 _atom_site_symmetry_multiplicity
 _atom_site_fract_x
 _atom_site_fract_y
 _atom_site_fract_z
 _atom_site_occupancy
  Pu  Pu0  1  0.000000  0.625736  0.346627  1
  Pu  Pu1  1  0.000000  0.374302  0.651793  1
  Pu  Pu2  1  0.000000  0.123865  0.149149  1
  Pu  Pu3  1  0.000000  0.874528  0.851391  1
  V  V4  1  0.000000  0.629822  0.084124  1
  B  B5  1  0.500000  0.783877  0.184883  1
  B  B6  1  0.500000  0.213607  0.814080  1
  B  B7  1  0.500000  0.287058  0.312130  1
  B  B8  1  0.500000  0.713685  0.687671  1
  B  B9  1  0.500000  0.864537  0.033249  1
  B  B10  1  0.500000  0.133644  0.968069  1
  B  B11  1  0.500000  0.366988  0.467365  1
  B  B12  1  0.500000  0.633126  0.532167  1
  B  B13  1  0.500000  0.883882  0.452155  1
  B  B14  1  0.500000  0.115549  0.547372  1
  B  B15  1  0.500000  0.386948  0.047955  1
  B  B16  1  0.500000  0.616014  0.954228  1
  B  B17  1  0.500000  0.973402  0.306203  1
  B  B18  1  0.500000  0.025519  0.693514  1
  B  B19  1  0.500000  0.476285  0.191635  1
  B  B20  1  0.500000  0.526104  0.808125  1
  Mo  Mo21  1  0.000000  0.371696  0.916296  1
  Mo  Mo22  1  0.000000  0.131397  0.414050  1
  Mo  Mo23  1  0.000000  0.868427  0.585767  1
