# generated using pymatgen
data_Er5(Tl2Rh)2
_symmetry_space_group_name_H-M   'P 1'
_cell_length_a   3.61716300
_cell_length_b   8.06151000
_cell_length_c   18.41058700
_cell_angle_alpha   90.00000000
_cell_angle_beta   90.00000000
_cell_angle_gamma   90.00000000
_symmetry_Int_Tables_number   1
_chemical_formula_structural   Er5(Tl2Rh)2
_chemical_formula_sum   'Er10 Tl8 Rh4'
_cell_volume   536.84895557
_cell_formula_units_Z   2
loop_
 _symmetry_equiv_pos_site_id
 _symmetry_equiv_pos_as_xyz
  1  'x, y, z'
loop_
 _atom_site_type_symbol
 _atom_site_label
 _atom_site_symmetry_multiplicity
 _atom_site_fract_x
 _atom_site_fract_y
 _atom_site_fract_z
 _atom_site_occupancy
  Er  Er0  1  0.000000  0.115854  0.408633  1
  Er  Er1  1  0.000000  0.884146  0.591367  1
  Er  Er2  1  0.000000  0.384146  0.908633  1
  Er  Er3  1  0.000000  0.615854  0.091367  1
  Er  Er4  1  0.000000  0.249604  0.220607  1
  Er  Er5  1  0.000000  0.750396  0.779393  1
  Er  Er6  1  0.000000  0.250396  0.720607  1
  Er  Er7  1  0.000000  0.749604  0.279393  1
  Er  Er8  1  0.000000  0.000000  0.000000  1
  Er  Er9  1  0.000000  0.500000  0.500000  1
  Tl  Tl10  1  0.500000  0.427926  0.350611  1
  Tl  Tl11  1  0.500000  0.572074  0.649389  1
  Tl  Tl12  1  0.500000  0.072074  0.850611  1
  Tl  Tl13  1  0.500000  0.927926  0.149389  1
  Tl  Tl14  1  0.500000  0.295768  0.064115  1
  Tl  Tl15  1  0.500000  0.704232  0.935885  1
  Tl  Tl16  1  0.500000  0.204232  0.564115  1
  Tl  Tl17  1  0.500000  0.795768  0.435885  1
  Rh  Rh18  1  0.500000  0.028617  0.303585  1
  Rh  Rh19  1  0.500000  0.971383  0.696415  1
  Rh  Rh20  1  0.500000  0.471383  0.803585  1
  Rh  Rh21  1  0.500000  0.528617  0.196415  1
