# generated using pymatgen
data_Tb3Er3Pa2(ReB6)4
_symmetry_space_group_name_H-M   'P 1'
_cell_length_a   3.69996900
_cell_length_b   9.16645123
_cell_length_c   11.53797140
_cell_angle_alpha   90.35810941
_cell_angle_beta   90.00000000
_cell_angle_gamma   90.00000000
_symmetry_Int_Tables_number   1
_chemical_formula_structural   Tb3Er3Pa2(ReB6)4
_chemical_formula_sum   'Tb3 Er3 Pa2 Re4 B24'
_cell_volume   391.30941108
_cell_formula_units_Z   1
loop_
 _symmetry_equiv_pos_site_id
 _symmetry_equiv_pos_as_xyz
  1  'x, y, z'
loop_
 _atom_site_type_symbol
 _atom_site_label
 _atom_site_symmetry_multiplicity
 _atom_site_fract_x
 _atom_site_fract_y
 _atom_site_fract_z
 _atom_site_occupancy
  Tb  Tb0  1  0.000000  0.823693  0.085535  1
  Tb  Tb1  1  0.000000  0.176356  0.914114  1
  Tb  Tb2  1  0.000000  0.944851  0.372927  1
  Er  Er3  1  0.000000  0.055304  0.627798  1
  Er  Er4  1  0.000000  0.443914  0.126417  1
  Er  Er5  1  0.000000  0.556114  0.873337  1
  Pa  Pa6  1  0.000000  0.321815  0.413303  1
  Pa  Pa7  1  0.000000  0.678297  0.587096  1
  Re  Re8  1  0.000000  0.634368  0.324758  1
  Re  Re9  1  0.000000  0.365057  0.675493  1
  Re  Re10  1  0.000000  0.141372  0.181788  1
  Re  Re11  1  0.000000  0.858912  0.817938  1
  B  B12  1  0.500000  0.553095  0.433015  1
  B  B13  1  0.500000  0.446375  0.567202  1
  B  B14  1  0.500000  0.053975  0.067375  1
  B  B15  1  0.500000  0.946289  0.932176  1
  B  B16  1  0.500000  0.747486  0.419757  1
  B  B17  1  0.500000  0.251654  0.580576  1
  B  B18  1  0.500000  0.248771  0.080486  1
  B  B19  1  0.500000  0.751446  0.919301  1
  B  B20  1  0.500000  0.790558  0.265624  1
  B  B21  1  0.500000  0.208559  0.734124  1
  B  B22  1  0.500000  0.292822  0.233739  1
  B  B23  1  0.500000  0.707567  0.766141  1
  B  B24  1  0.500000  0.630613  0.185346  1
  B  B25  1  0.500000  0.369048  0.814474  1
  B  B26  1  0.500000  0.133004  0.313954  1
  B  B27  1  0.500000  0.867807  0.685845  1
  B  B28  1  0.500000  0.983054  0.212005  1
  B  B29  1  0.500000  0.017451  0.787284  1
  B  B30  1  0.500000  0.482593  0.286407  1
  B  B31  1  0.500000  0.517170  0.713530  1
  B  B32  1  0.500000  0.603326  0.028864  1
  B  B33  1  0.500000  0.396670  0.970921  1
  B  B34  1  0.500000  0.111353  0.470032  1
  B  B35  1  0.500000  0.889262  0.531317  1
