# generated using pymatgen
data_Dy3Cd2InGa2Ag
_symmetry_space_group_name_H-M   'P 1'
_cell_length_a   7.29267843
_cell_length_b   7.29267859
_cell_length_c   4.44913300
_cell_angle_alpha   90.00000000
_cell_angle_beta   90.00000000
_cell_angle_gamma   119.93098152
_symmetry_Int_Tables_number   1
_chemical_formula_structural   Dy3Cd2InGa2Ag
_chemical_formula_sum   'Dy3 Cd2 In1 Ga2 Ag1'
_cell_volume   205.06039009
_cell_formula_units_Z   1
loop_
 _symmetry_equiv_pos_site_id
 _symmetry_equiv_pos_as_xyz
  1  'x, y, z'
loop_
 _atom_site_type_symbol
 _atom_site_label
 _atom_site_symmetry_multiplicity
 _atom_site_fract_x
 _atom_site_fract_y
 _atom_site_fract_z
 _atom_site_occupancy
  Dy  Dy0  1  0.421603  0.421603  0.500000  1
  Dy  Dy1  1  0.578065  0.001025  0.500000  1
  Dy  Dy2  1  0.001025  0.578065  0.500000  1
  Cd  Cd3  1  0.251079  0.999938  0.000000  1
  Cd  Cd4  1  0.999938  0.251079  0.000000  1
  In  In5  1  0.752240  0.752240  0.000000  1
  Ga  Ga6  1  0.665452  0.333380  0.000000  1
  Ga  Ga7  1  0.333380  0.665452  0.000000  1
  Ag  Ag8  1  0.997217  0.997217  0.500000  1
