# generated using pymatgen
data_Ca(AcSn2)5
_symmetry_space_group_name_H-M   'P 1'
_cell_length_a   6.87886700
_cell_length_b   6.87886665
_cell_length_c   10.86469500
_cell_angle_alpha   90.00000000
_cell_angle_beta   90.00000000
_cell_angle_gamma   101.46602136
_symmetry_Int_Tables_number   1
_chemical_formula_structural   Ca(AcSn2)5
_chemical_formula_sum   'Ca1 Ac5 Sn10'
_cell_volume   503.84432274
_cell_formula_units_Z   1
loop_
 _symmetry_equiv_pos_site_id
 _symmetry_equiv_pos_as_xyz
  1  'x, y, z'
loop_
 _atom_site_type_symbol
 _atom_site_label
 _atom_site_symmetry_multiplicity
 _atom_site_fract_x
 _atom_site_fract_y
 _atom_site_fract_z
 _atom_site_occupancy
  Ca  Ca0  1  0.629777  0.629777  0.250000  1
  Ac  Ac1  1  0.795998  0.204933  0.000534  1
  Ac  Ac2  1  0.204933  0.795998  0.000534  1
  Ac  Ac3  1  0.204933  0.795998  0.499466  1
  Ac  Ac4  1  0.795998  0.204933  0.499466  1
  Ac  Ac5  1  0.370485  0.370485  0.750000  1
  Sn  Sn6  1  0.073051  0.490381  0.250000  1
  Sn  Sn7  1  0.919283  0.512374  0.750000  1
  Sn  Sn8  1  0.490381  0.073050  0.250000  1
  Sn  Sn9  1  0.512374  0.919283  0.750000  1
  Sn  Sn10  1  0.026959  0.026959  0.250000  1
  Sn  Sn11  1  0.970309  0.970309  0.750000  1
  Sn  Sn12  1  0.313722  0.313722  0.052264  1
  Sn  Sn13  1  0.689037  0.689037  0.957052  1
  Sn  Sn14  1  0.689037  0.689037  0.542948  1
  Sn  Sn15  1  0.313722  0.313722  0.447736  1
