# generated using pymatgen
data_Na2Si2Sn2O7
_symmetry_space_group_name_H-M   'P 1'
_cell_length_a   5.48716500
_cell_length_b   5.48716500
_cell_length_c   7.58630200
_cell_angle_alpha   90.00000000
_cell_angle_beta   90.00000000
_cell_angle_gamma   120.00000601
_symmetry_Int_Tables_number   1
_chemical_formula_structural   Na2Si2Sn2O7
_chemical_formula_sum   'Na2 Si2 Sn2 O7'
_cell_volume   197.81388500
_cell_formula_units_Z   1
loop_
 _symmetry_equiv_pos_site_id
 _symmetry_equiv_pos_as_xyz
  1  'x, y, z'
loop_
 _atom_site_type_symbol
 _atom_site_label
 _atom_site_symmetry_multiplicity
 _atom_site_fract_x
 _atom_site_fract_y
 _atom_site_fract_z
 _atom_site_occupancy
  Na  Na0  1  0.666667  0.333333  0.926716  1
  Na  Na1  1  0.333333  0.666667  0.073284  1
  Si  Si2  1  0.000000  0.000000  0.277859  1
  Si  Si3  1  0.000000  0.000000  0.722141  1
  Sn  Sn4  1  0.333333  0.666667  0.624623  1
  Sn  Sn5  1  0.666667  0.333333  0.375377  1
  O  O6  1  0.761349  0.077686  0.209138  1
  O  O7  1  0.238651  0.922314  0.790862  1
  O  O8  1  0.316337  0.238651  0.209138  1
  O  O9  1  0.000000  0.000000  0.500000  1
  O  O10  1  0.077686  0.316337  0.790862  1
  O  O11  1  0.922314  0.683663  0.209138  1
  O  O12  1  0.683663  0.761349  0.790862  1
