# generated using pymatgen
data_Dy3Lu12Th(CdNi)4
_symmetry_space_group_name_H-M   'P 1'
_cell_length_a   9.41028111
_cell_length_b   9.41028194
_cell_length_c   9.41028138
_cell_angle_alpha   59.98936607
_cell_angle_beta   59.98936011
_cell_angle_gamma   59.98936826
_symmetry_Int_Tables_number   1
_chemical_formula_structural   Dy3Lu12Th(CdNi)4
_chemical_formula_sum   'Dy3 Lu12 Th1 Cd4 Ni4'
_cell_volume   589.09875510
_cell_formula_units_Z   1
loop_
 _symmetry_equiv_pos_site_id
 _symmetry_equiv_pos_as_xyz
  1  'x, y, z'
loop_
 _atom_site_type_symbol
 _atom_site_label
 _atom_site_symmetry_multiplicity
 _atom_site_fract_x
 _atom_site_fract_y
 _atom_site_fract_z
 _atom_site_occupancy
  Dy  Dy0  1  0.350122  0.350122  0.948114  1
  Dy  Dy1  1  0.350122  0.948114  0.350122  1
  Dy  Dy2  1  0.948114  0.350122  0.350122  1
  Lu  Lu3  1  0.813346  0.186749  0.186749  1
  Lu  Lu4  1  0.188521  0.812151  0.812151  1
  Lu  Lu5  1  0.186749  0.813346  0.186749  1
  Lu  Lu6  1  0.812151  0.188521  0.812151  1
  Lu  Lu7  1  0.186749  0.186749  0.813346  1
  Lu  Lu8  1  0.812151  0.812151  0.188521  1
  Lu  Lu9  1  0.935219  0.565380  0.565380  1
  Lu  Lu10  1  0.565049  0.935522  0.935522  1
  Lu  Lu11  1  0.565380  0.935219  0.565380  1
  Lu  Lu12  1  0.935522  0.565049  0.935522  1
  Lu  Lu13  1  0.565380  0.565380  0.935219  1
  Lu  Lu14  1  0.935522  0.935522  0.565049  1
  Th  Th15  1  0.347830  0.347830  0.347830  1
  Cd  Cd16  1  0.582270  0.582270  0.582270  1
  Cd  Cd17  1  0.583569  0.583569  0.251981  1
  Cd  Cd18  1  0.583569  0.251981  0.583569  1
  Cd  Cd19  1  0.251981  0.583569  0.583569  1
  Ni  Ni20  1  0.141750  0.141750  0.141750  1
  Ni  Ni21  1  0.142403  0.142403  0.574131  1
  Ni  Ni22  1  0.142403  0.574131  0.142403  1
  Ni  Ni23  1  0.574131  0.142403  0.142403  1
