# generated using pymatgen
data_Y13Ho7CdIn5Ru2
_symmetry_space_group_name_H-M   'P 1'
_cell_length_a   9.74492421
_cell_length_b   9.81903222
_cell_length_c   9.69030886
_cell_angle_alpha   90.00000258
_cell_angle_beta   89.95837154
_cell_angle_gamma   120.25188680
_symmetry_Int_Tables_number   1
_chemical_formula_structural   Y13Ho7CdIn5Ru2
_chemical_formula_sum   'Y13 Ho7 Cd1 In5 Ru2'
_cell_volume   800.95354210
_cell_formula_units_Z   1
loop_
 _symmetry_equiv_pos_site_id
 _symmetry_equiv_pos_as_xyz
  1  'x, y, z'
loop_
 _atom_site_type_symbol
 _atom_site_label
 _atom_site_symmetry_multiplicity
 _atom_site_fract_x
 _atom_site_fract_y
 _atom_site_fract_z
 _atom_site_occupancy
  Y  Y0  1  0.418746  0.209373  0.560913  1
  Y  Y1  1  0.790421  0.210891  0.940042  1
  Y  Y2  1  0.790421  0.579529  0.940042  1
  Y  Y3  1  0.419480  0.209739  0.938098  1
  Y  Y4  1  0.210292  0.790461  0.059932  1
  Y  Y5  1  0.210292  0.419832  0.059932  1
  Y  Y6  1  0.579951  0.789976  0.062608  1
  Y  Y7  1  0.541565  0.460371  0.251497  1
  Y  Y8  1  0.541565  0.081195  0.251497  1
  Y  Y9  1  0.922165  0.461082  0.251921  1
  Y  Y10  1  0.461493  0.542803  0.748367  1
  Y  Y11  1  0.461493  0.918690  0.748367  1
  Y  Y12  1  0.081620  0.540809  0.748269  1
  Ho  Ho13  1  0.995252  0.997626  0.501949  1
  Ho  Ho14  1  0.996489  0.998245  0.997962  1
  Ho  Ho15  1  0.210459  0.789639  0.440342  1
  Ho  Ho16  1  0.210459  0.420821  0.440342  1
  Ho  Ho17  1  0.578053  0.789027  0.438022  1
  Ho  Ho18  1  0.789969  0.211603  0.559746  1
  Ho  Ho19  1  0.789969  0.578365  0.559746  1
  Cd  Cd20  1  0.767262  0.883631  0.750442  1
  In  In21  1  0.884206  0.117865  0.249750  1
  In  In22  1  0.884206  0.766341  0.249750  1
  In  In23  1  0.231058  0.115530  0.249843  1
  In  In24  1  0.116269  0.882290  0.750047  1
  In  In25  1  0.116269  0.233978  0.750047  1
  Ru  Ru26  1  0.330762  0.665381  0.252499  1
  Ru  Ru27  1  0.669815  0.334907  0.748028  1
