# generated using pymatgen
data_Y5ErAl24Os7Pd
_symmetry_space_group_name_H-M   'P 1'
_cell_length_a   8.84648303
_cell_length_b   8.84911573
_cell_length_c   9.56238176
_cell_angle_alpha   89.69575773
_cell_angle_beta   90.31837076
_cell_angle_gamma   119.80545781
_symmetry_Int_Tables_number   1
_chemical_formula_structural   Y5ErAl24Os7Pd
_chemical_formula_sum   'Y5 Er1 Al24 Os7 Pd1'
_cell_volume   649.54117353
_cell_formula_units_Z   1
loop_
 _symmetry_equiv_pos_site_id
 _symmetry_equiv_pos_as_xyz
  1  'x, y, z'
loop_
 _atom_site_type_symbol
 _atom_site_label
 _atom_site_symmetry_multiplicity
 _atom_site_fract_x
 _atom_site_fract_y
 _atom_site_fract_z
 _atom_site_occupancy
  Y  Y0  1  0.810892  0.614794  0.748563  1
  Y  Y1  1  0.614740  0.810696  0.251465  1
  Y  Y2  1  0.385187  0.189104  0.748571  1
  Y  Y3  1  0.193903  0.805843  0.252476  1
  Y  Y4  1  0.805998  0.193920  0.747537  1
  Er  Er5  1  0.189303  0.386173  0.251851  1
  Al  Al6  1  0.330963  0.668678  0.018247  1
  Al  Al7  1  0.668985  0.330952  0.982045  1
  Al  Al8  1  0.666300  0.333556  0.515624  1
  Al  Al9  1  0.333491  0.666105  0.484102  1
  Al  Al10  1  0.163390  0.325916  0.576017  1
  Al  Al11  1  0.836586  0.674083  0.423506  1
  Al  Al12  1  0.673990  0.836575  0.576368  1
  Al  Al13  1  0.843221  0.676216  0.078616  1
  Al  Al14  1  0.325803  0.163647  0.423377  1
  Al  Al15  1  0.156765  0.323760  0.921815  1
  Al  Al16  1  0.163314  0.836732  0.575113  1
  Al  Al17  1  0.323678  0.156939  0.078743  1
  Al  Al18  1  0.837062  0.163438  0.424619  1
  Al  Al19  1  0.676174  0.843259  0.921492  1
  Al  Al20  1  0.836963  0.163519  0.075238  1
  Al  Al21  1  0.163404  0.836642  0.925040  1
  Al  Al22  1  0.560599  0.121661  0.249312  1
  Al  Al23  1  0.439446  0.878398  0.750679  1
  Al  Al24  1  0.878809  0.439263  0.249318  1
  Al  Al25  1  0.121622  0.560540  0.750701  1
  Al  Al26  1  0.560807  0.438466  0.252086  1
  Al  Al27  1  0.438559  0.561398  0.747775  1
  Al  Al28  1  0.999991  0.001410  0.250231  1
  Al  Al29  1  0.000466  0.999545  0.749723  1
  Os  Os30  1  0.499878  0.999809  0.000120  1
  Os  Os31  1  0.000308  0.499837  0.000420  1
  Os  Os32  1  0.499864  0.999796  0.499878  1
  Os  Os33  1  0.000235  0.499820  0.499591  1
  Os  Os34  1  0.499609  0.499864  0.499665  1
  Os  Os35  1  0.999934  0.999861  0.999979  1
  Os  Os36  1  0.999921  0.999858  0.499994  1
  Pd  Pd37  1  0.499839  0.499927  0.000106  1
