# generated using pymatgen
data_Nb16ZnNi7C4
_symmetry_space_group_name_H-M   'P 1'
_cell_length_a   8.33038854
_cell_length_b   8.33038925
_cell_length_c   8.33038872
_cell_angle_alpha   59.86455813
_cell_angle_beta   59.86455686
_cell_angle_gamma   59.86455602
_symmetry_Int_Tables_number   1
_chemical_formula_structural   Nb16ZnNi7C4
_chemical_formula_sum   'Nb16 Zn1 Ni7 C4'
_cell_volume   407.51536697
_cell_formula_units_Z   1
loop_
 _symmetry_equiv_pos_site_id
 _symmetry_equiv_pos_as_xyz
  1  'x, y, z'
loop_
 _atom_site_type_symbol
 _atom_site_label
 _atom_site_symmetry_multiplicity
 _atom_site_fract_x
 _atom_site_fract_y
 _atom_site_fract_z
 _atom_site_occupancy
  Nb  Nb0  1  0.815307  0.188193  0.815307  1
  Nb  Nb1  1  0.067287  0.431626  0.431626  1
  Nb  Nb2  1  0.434493  0.065782  0.065782  1
  Nb  Nb3  1  0.065782  0.434493  0.065782  1
  Nb  Nb4  1  0.431626  0.431626  0.067287  1
  Nb  Nb5  1  0.065782  0.065782  0.434493  1
  Nb  Nb6  1  0.815307  0.815307  0.188193  1
  Nb  Nb7  1  0.188193  0.815307  0.815307  1
  Nb  Nb8  1  0.816968  0.182337  0.182337  1
  Nb  Nb9  1  0.182337  0.182337  0.816968  1
  Nb  Nb10  1  0.431626  0.067287  0.431626  1
  Nb  Nb11  1  0.182337  0.816968  0.182337  1
  Nb  Nb12  1  0.626110  0.626110  0.626110  1
  Nb  Nb13  1  0.129722  0.619750  0.619750  1
  Nb  Nb14  1  0.619750  0.129722  0.619750  1
  Nb  Nb15  1  0.619750  0.619750  0.129722  1
  Zn  Zn16  1  0.835239  0.835239  0.835239  1
  Ni  Ni17  1  0.419404  0.419404  0.419404  1
  Ni  Ni18  1  0.511710  0.830755  0.830755  1
  Ni  Ni19  1  0.830755  0.511710  0.830755  1
  Ni  Ni20  1  0.830755  0.830755  0.511710  1
  Ni  Ni21  1  0.420906  0.738218  0.420906  1
  Ni  Ni22  1  0.420906  0.420906  0.738218  1
  Ni  Ni23  1  0.738218  0.420906  0.420906  1
  C  C24  1  0.125030  0.125030  0.125030  1
  C  C25  1  0.625893  0.124404  0.124404  1
  C  C26  1  0.124404  0.625893  0.124404  1
  C  C27  1  0.124404  0.124404  0.625893  1
