# generated using pymatgen
data_Tm5Hf(Si3Ru)8
_symmetry_space_group_name_H-M   'P 1'
_cell_length_a   10.05615115
_cell_length_b   10.05615008
_cell_length_c   8.09873683
_cell_angle_alpha   89.98471144
_cell_angle_beta   89.98470850
_cell_angle_gamma   132.58071456
_symmetry_Int_Tables_number   1
_chemical_formula_structural   Tm5Hf(Si3Ru)8
_chemical_formula_sum   'Tm5 Hf1 Si24 Ru8'
_cell_volume   603.04567074
_cell_formula_units_Z   1
loop_
 _symmetry_equiv_pos_site_id
 _symmetry_equiv_pos_as_xyz
  1  'x, y, z'
loop_
 _atom_site_type_symbol
 _atom_site_label
 _atom_site_symmetry_multiplicity
 _atom_site_fract_x
 _atom_site_fract_y
 _atom_site_fract_z
 _atom_site_occupancy
  Tm  Tm0  1  0.500000  0.500000  0.500000  1
  Tm  Tm1  1  0.502267  0.002564  0.749985  1
  Tm  Tm2  1  0.997436  0.497733  0.250015  1
  Tm  Tm3  1  0.497733  0.997436  0.250015  1
  Tm  Tm4  1  0.002564  0.502267  0.749985  1
  Hf  Hf5  1  0.000000  0.000000  0.000000  1
  Si  Si6  1  0.794966  0.205034  0.500000  1
  Si  Si7  1  0.294458  0.705542  0.000000  1
  Si  Si8  1  0.205034  0.794966  0.500000  1
  Si  Si9  1  0.705542  0.294458  0.000000  1
  Si  Si10  1  0.330550  0.330550  0.834152  1
  Si  Si11  1  0.669450  0.669450  0.165848  1
  Si  Si12  1  0.165857  0.165857  0.330735  1
  Si  Si13  1  0.834143  0.834143  0.669265  1
  Si  Si14  1  0.120769  0.887664  0.729392  1
  Si  Si15  1  0.112336  0.879231  0.270608  1
  Si  Si16  1  0.613030  0.378296  0.228616  1
  Si  Si17  1  0.621704  0.386970  0.771384  1
  Si  Si18  1  0.879231  0.112336  0.270608  1
  Si  Si19  1  0.887664  0.120769  0.729392  1
  Si  Si20  1  0.386970  0.621704  0.771384  1
  Si  Si21  1  0.378296  0.613030  0.228616  1
  Si  Si22  1  0.345462  0.111620  0.504724  1
  Si  Si23  1  0.888380  0.654538  0.495276  1
  Si  Si24  1  0.387267  0.154609  0.004495  1
  Si  Si25  1  0.845391  0.612733  0.995505  1
  Si  Si26  1  0.654538  0.888380  0.495276  1
  Si  Si27  1  0.111620  0.345462  0.504724  1
  Si  Si28  1  0.612733  0.845391  0.995505  1
  Si  Si29  1  0.154609  0.387267  0.004495  1
  Ru  Ru30  1  0.669307  0.330693  0.500000  1
  Ru  Ru31  1  0.167696  0.832304  0.000000  1
  Ru  Ru32  1  0.330693  0.669307  0.500000  1
  Ru  Ru33  1  0.832304  0.167696  0.000000  1
  Ru  Ru34  1  0.128001  0.128001  0.628130  1
  Ru  Ru35  1  0.871999  0.871999  0.371870  1
  Ru  Ru36  1  0.372100  0.372100  0.128432  1
  Ru  Ru37  1  0.627900  0.627900  0.871568  1
