# generated using pymatgen
data_Tb3Er2In3Br
_symmetry_space_group_name_H-M   'P 1'
_cell_length_a   9.20158300
_cell_length_b   9.20158270
_cell_length_c   6.71570300
_cell_angle_alpha   90.00000000
_cell_angle_beta   90.00000000
_cell_angle_gamma   120.00000467
_symmetry_Int_Tables_number   1
_chemical_formula_structural   Tb3Er2In3Br
_chemical_formula_sum   'Tb6 Er4 In6 Br2'
_cell_volume   492.43302857
_cell_formula_units_Z   2
loop_
 _symmetry_equiv_pos_site_id
 _symmetry_equiv_pos_as_xyz
  1  'x, y, z'
loop_
 _atom_site_type_symbol
 _atom_site_label
 _atom_site_symmetry_multiplicity
 _atom_site_fract_x
 _atom_site_fract_y
 _atom_site_fract_z
 _atom_site_occupancy
  Tb  Tb0  1  0.733420  0.733420  0.250000  1
  Tb  Tb1  1  0.000000  0.733420  0.750000  1
  Tb  Tb2  1  0.733420  0.000000  0.750000  1
  Tb  Tb3  1  0.266580  0.266580  0.750000  1
  Tb  Tb4  1  0.000000  0.266580  0.250000  1
  Tb  Tb5  1  0.266580  0.000000  0.250000  1
  Er  Er6  1  0.333333  0.666667  0.500000  1
  Er  Er7  1  0.666667  0.333333  0.500000  1
  Er  Er8  1  0.333333  0.666667  0.000000  1
  Er  Er9  1  0.666667  0.333333  0.000000  1
  In  In10  1  0.393460  0.000000  0.750000  1
  In  In11  1  0.000000  0.606540  0.250000  1
  In  In12  1  0.606540  0.000000  0.250000  1
  In  In13  1  0.000000  0.393460  0.750000  1
  In  In14  1  0.393460  0.393460  0.250000  1
  In  In15  1  0.606540  0.606540  0.750000  1
  Br  Br16  1  0.000000  0.000000  0.500000  1
  Br  Br17  1  0.000000  0.000000  0.000000  1
