# generated using pymatgen
data_Sc12Si12Ru3Rh
_symmetry_space_group_name_H-M   'P 1'
_cell_length_a   4.00709200
_cell_length_b   10.29809456
_cell_length_c   11.73172994
_cell_angle_alpha   90.08100226
_cell_angle_beta   90.00000000
_cell_angle_gamma   90.00000000
_symmetry_Int_Tables_number   1
_chemical_formula_structural   Sc12Si12Ru3Rh
_chemical_formula_sum   'Sc12 Si12 Ru3 Rh1'
_cell_volume   484.11418971
_cell_formula_units_Z   1
loop_
 _symmetry_equiv_pos_site_id
 _symmetry_equiv_pos_as_xyz
  1  'x, y, z'
loop_
 _atom_site_type_symbol
 _atom_site_label
 _atom_site_symmetry_multiplicity
 _atom_site_fract_x
 _atom_site_fract_y
 _atom_site_fract_z
 _atom_site_occupancy
  Sc  Sc0  1  0.250000  0.878080  0.021007  1
  Sc  Sc1  1  0.250000  0.622839  0.520081  1
  Sc  Sc2  1  0.750000  0.123290  0.980980  1
  Sc  Sc3  1  0.750000  0.378125  0.479871  1
  Sc  Sc4  1  0.250000  0.920903  0.603061  1
  Sc  Sc5  1  0.250000  0.579263  0.103823  1
  Sc  Sc6  1  0.750000  0.078511  0.396551  1
  Sc  Sc7  1  0.750000  0.420928  0.895824  1
  Sc  Sc8  1  0.250000  0.658897  0.798145  1
  Sc  Sc9  1  0.250000  0.840162  0.298081  1
  Sc  Sc10  1  0.750000  0.340931  0.201874  1
  Sc  Sc11  1  0.750000  0.158165  0.700974  1
  Si  Si12  1  0.250000  0.015437  0.823559  1
  Si  Si13  1  0.250000  0.485221  0.322129  1
  Si  Si14  1  0.750000  0.984939  0.177829  1
  Si  Si15  1  0.750000  0.514577  0.677957  1
  Si  Si16  1  0.250000  0.251078  0.841691  1
  Si  Si17  1  0.250000  0.248091  0.342292  1
  Si  Si18  1  0.750000  0.748316  0.157569  1
  Si  Si19  1  0.750000  0.751494  0.657151  1
  Si  Si20  1  0.250000  0.195536  0.545142  1
  Si  Si21  1  0.250000  0.305676  0.045170  1
  Si  Si22  1  0.750000  0.805932  0.454572  1
  Si  Si23  1  0.750000  0.693432  0.955068  1
  Ru  Ru24  1  0.250000  0.390030  0.676963  1
  Ru  Ru25  1  0.250000  0.110088  0.176833  1
  Ru  Ru26  1  0.750000  0.610529  0.322867  1
  Rh  Rh27  1  0.750000  0.889530  0.822934  1
