# generated using pymatgen
data_Sm3Y(NbRu3)2
_symmetry_space_group_name_H-M   'P 1'
_cell_length_a   5.77427700
_cell_length_b   5.77427712
_cell_length_c   8.02371500
_cell_angle_alpha   90.00000000
_cell_angle_beta   90.00000000
_cell_angle_gamma   119.99999357
_symmetry_Int_Tables_number   1
_chemical_formula_structural   Sm3Y(NbRu3)2
_chemical_formula_sum   'Sm3 Y1 Nb2 Ru6'
_cell_volume   231.68685310
_cell_formula_units_Z   1
loop_
 _symmetry_equiv_pos_site_id
 _symmetry_equiv_pos_as_xyz
  1  'x, y, z'
loop_
 _atom_site_type_symbol
 _atom_site_label
 _atom_site_symmetry_multiplicity
 _atom_site_fract_x
 _atom_site_fract_y
 _atom_site_fract_z
 _atom_site_occupancy
  Sm  Sm0  1  0.333333  0.666667  0.439654  1
  Sm  Sm1  1  0.666667  0.333333  0.561635  1
  Sm  Sm2  1  0.666667  0.333333  0.939195  1
  Y  Y3  1  0.333333  0.666667  0.060665  1
  Nb  Nb4  1  0.000000  0.000000  0.999351  1
  Nb  Nb5  1  0.000000  0.000000  0.499004  1
  Ru  Ru6  1  0.170679  0.341358  0.750632  1
  Ru  Ru7  1  0.170679  0.829321  0.750632  1
  Ru  Ru8  1  0.340998  0.170500  0.249533  1
  Ru  Ru9  1  0.829500  0.659002  0.249533  1
  Ru  Ru10  1  0.658642  0.829321  0.750632  1
  Ru  Ru11  1  0.829500  0.170500  0.249533  1
