# generated using pymatgen
data_TbTcN2
_symmetry_space_group_name_H-M   'P 1'
_cell_length_a   3.16738000
_cell_length_b   5.66814300
_cell_length_c   10.75928700
_cell_angle_alpha   90.00000000
_cell_angle_beta   90.00000000
_cell_angle_gamma   90.00000000
_symmetry_Int_Tables_number   1
_chemical_formula_structural   TbTcN2
_chemical_formula_sum   'Tb4 Tc4 N8'
_cell_volume   193.16323086
_cell_formula_units_Z   4
loop_
 _symmetry_equiv_pos_site_id
 _symmetry_equiv_pos_as_xyz
  1  'x, y, z'
loop_
 _atom_site_type_symbol
 _atom_site_label
 _atom_site_symmetry_multiplicity
 _atom_site_fract_x
 _atom_site_fract_y
 _atom_site_fract_z
 _atom_site_occupancy
  Tb  Tb0  1  0.250000  0.077792  0.852449  1
  Tb  Tb1  1  0.250000  0.577792  0.647551  1
  Tb  Tb2  1  0.750000  0.922208  0.147551  1
  Tb  Tb3  1  0.750000  0.422208  0.352449  1
  Tc  Tc4  1  0.250000  0.437612  0.097282  1
  Tc  Tc5  1  0.250000  0.937612  0.402718  1
  Tc  Tc6  1  0.750000  0.562388  0.902718  1
  Tc  Tc7  1  0.750000  0.062388  0.597282  1
  N  N8  1  0.250000  0.168707  0.245310  1
  N  N9  1  0.250000  0.668707  0.254690  1
  N  N10  1  0.750000  0.831293  0.754690  1
  N  N11  1  0.750000  0.331293  0.745310  1
  N  N12  1  0.250000  0.746711  0.996260  1
  N  N13  1  0.250000  0.246711  0.503740  1
  N  N14  1  0.750000  0.253289  0.003740  1
  N  N15  1  0.750000  0.753289  0.496260  1
