# generated using pymatgen
data_Er17Th3(Ir2Rh)4
_symmetry_space_group_name_H-M   'P 1'
_cell_length_a   10.93327243
_cell_length_b   10.84106734
_cell_length_c   6.33700448
_cell_angle_alpha   90.02215593
_cell_angle_beta   89.92498995
_cell_angle_gamma   89.79681248
_symmetry_Int_Tables_number   1
_chemical_formula_structural   Er17Th3(Ir2Rh)4
_chemical_formula_sum   'Er17 Th3 Ir8 Rh4'
_cell_volume   751.10921452
_cell_formula_units_Z   1
loop_
 _symmetry_equiv_pos_site_id
 _symmetry_equiv_pos_as_xyz
  1  'x, y, z'
loop_
 _atom_site_type_symbol
 _atom_site_label
 _atom_site_symmetry_multiplicity
 _atom_site_fract_x
 _atom_site_fract_y
 _atom_site_fract_z
 _atom_site_occupancy
  Er  Er0  1  0.707420  0.906732  0.379331  1
  Er  Er1  1  0.593293  0.784257  0.881973  1
  Er  Er2  1  0.592288  0.212369  0.380255  1
  Er  Er3  1  0.415468  0.784236  0.380050  1
  Er  Er4  1  0.409189  0.216447  0.879821  1
  Er  Er5  1  0.208301  0.413097  0.618684  1
  Er  Er6  1  0.207750  0.588984  0.119029  1
  Er  Er7  1  0.791626  0.412943  0.117790  1
  Er  Er8  1  0.792059  0.588430  0.618206  1
  Er  Er9  1  0.910652  0.709069  0.117871  1
  Er  Er10  1  0.913999  0.292620  0.614354  1
  Er  Er11  1  0.085209  0.706520  0.615865  1
  Er  Er12  1  0.086315  0.294350  0.112170  1
  Er  Er13  1  0.994644  0.998466  0.500566  1
  Er  Er14  1  0.000646  0.999931  0.001539  1
  Er  Er15  1  0.500184  0.499793  0.009217  1
  Er  Er16  1  0.502212  0.498280  0.509939  1
  Th  Th17  1  0.290567  0.094281  0.379237  1
  Th  Th18  1  0.290376  0.904690  0.878226  1
  Th  Th19  1  0.708741  0.090881  0.882598  1
  Ir  Ir20  1  0.847557  0.156336  0.243441  1
  Ir  Ir21  1  0.842870  0.848043  0.752637  1
  Ir  Ir22  1  0.155118  0.152361  0.746265  1
  Ir  Ir23  1  0.155944  0.847393  0.250160  1
  Ir  Ir24  1  0.654663  0.344365  0.755538  1
  Ir  Ir25  1  0.654966  0.651712  0.254838  1
  Ir  Ir26  1  0.345438  0.347251  0.256603  1
  Ir  Ir27  1  0.346934  0.654867  0.755731  1
  Rh  Rh28  1  0.497018  0.000520  0.119616  1
  Rh  Rh29  1  0.499523  0.999087  0.623037  1
  Rh  Rh30  1  0.999547  0.500842  0.872702  1
  Rh  Rh31  1  0.999484  0.500847  0.372710  1
