# generated using pymatgen
data_Dy8Ho8Sc4Si15Rh
_symmetry_space_group_name_H-M   'P 1'
_cell_length_a   7.21827586
_cell_length_b   7.68538767
_cell_length_c   14.37283000
_cell_angle_alpha   90.00000000
_cell_angle_beta   90.00000000
_cell_angle_gamma   90.02503336
_symmetry_Int_Tables_number   1
_chemical_formula_structural   Dy8Ho8Sc4Si15Rh
_chemical_formula_sum   'Dy8 Ho8 Sc4 Si15 Rh1'
_cell_volume   797.33623733
_cell_formula_units_Z   1
loop_
 _symmetry_equiv_pos_site_id
 _symmetry_equiv_pos_as_xyz
  1  'x, y, z'
loop_
 _atom_site_type_symbol
 _atom_site_label
 _atom_site_symmetry_multiplicity
 _atom_site_fract_x
 _atom_site_fract_y
 _atom_site_fract_z
 _atom_site_occupancy
  Dy  Dy0  1  0.015588  0.183549  0.096426  1
  Dy  Dy1  1  0.986891  0.821601  0.903827  1
  Dy  Dy2  1  0.485746  0.682374  0.904778  1
  Dy  Dy3  1  0.986891  0.821601  0.596173  1
  Dy  Dy4  1  0.516270  0.317804  0.096885  1
  Dy  Dy5  1  0.015588  0.183549  0.403574  1
  Dy  Dy6  1  0.516270  0.317804  0.403115  1
  Dy  Dy7  1  0.485746  0.682374  0.595222  1
  Ho  Ho8  1  0.313765  0.172698  0.628332  1
  Ho  Ho9  1  0.675548  0.824488  0.373883  1
  Ho  Ho10  1  0.174339  0.679431  0.374079  1
  Ho  Ho11  1  0.675548  0.824488  0.126117  1
  Ho  Ho12  1  0.831404  0.319506  0.628101  1
  Ho  Ho13  1  0.313765  0.172698  0.871668  1
  Ho  Ho14  1  0.831404  0.319506  0.871899  1
  Ho  Ho15  1  0.174339  0.679431  0.125921  1
  Sc  Sc16  1  0.159709  0.519840  0.750000  1
  Sc  Sc17  1  0.839545  0.485052  0.250000  1
  Sc  Sc18  1  0.340397  0.016450  0.250000  1
  Sc  Sc19  1  0.667187  0.985846  0.750000  1
  Si  Si20  1  0.977181  0.906333  0.250000  1
  Si  Si21  1  0.477504  0.595903  0.250000  1
  Si  Si22  1  0.521684  0.403946  0.750000  1
  Si  Si23  1  0.287513  0.859988  0.750000  1
  Si  Si24  1  0.715999  0.136213  0.250000  1
  Si  Si25  1  0.217520  0.365455  0.250000  1
  Si  Si26  1  0.777563  0.631469  0.750000  1
  Si  Si27  1  0.157262  0.471703  0.538682  1
  Si  Si28  1  0.844502  0.530430  0.461024  1
  Si  Si29  1  0.345334  0.970688  0.460432  1
  Si  Si30  1  0.844502  0.530430  0.038976  1
  Si  Si31  1  0.654382  0.031372  0.539826  1
  Si  Si32  1  0.157262  0.471703  0.961318  1
  Si  Si33  1  0.654382  0.031372  0.960174  1
  Si  Si34  1  0.345334  0.970688  0.039568  1
  Rh  Rh35  1  0.016135  0.082213  0.750000  1
