# generated using pymatgen
data_LiNb9B20
_symmetry_space_group_name_H-M   'P 1'
_cell_length_a   6.21337769
_cell_length_b   7.05359064
_cell_length_c   7.34657737
_cell_angle_alpha   93.42624079
_cell_angle_beta   102.11492482
_cell_angle_gamma   116.18680250
_symmetry_Int_Tables_number   1
_chemical_formula_structural   LiNb9B20
_chemical_formula_sum   'Li1 Nb9 B20'
_cell_volume   278.20009100
_cell_formula_units_Z   1
loop_
 _symmetry_equiv_pos_site_id
 _symmetry_equiv_pos_as_xyz
  1  'x, y, z'
loop_
 _atom_site_type_symbol
 _atom_site_label
 _atom_site_symmetry_multiplicity
 _atom_site_fract_x
 _atom_site_fract_y
 _atom_site_fract_z
 _atom_site_occupancy
  Li  Li0  1  0.000000  0.000000  0.000000  1
  Nb  Nb1  1  0.500000  0.000000  0.000000  1
  Nb  Nb2  1  0.499578  0.800061  0.399919  1
  Nb  Nb3  1  0.999882  0.396861  0.200292  1
  Nb  Nb4  1  0.500422  0.199939  0.600081  1
  Nb  Nb5  1  0.999410  0.796329  0.399469  1
  Nb  Nb6  1  0.502270  0.600911  0.800795  1
  Nb  Nb7  1  0.497730  0.399089  0.199205  1
  Nb  Nb8  1  0.000590  0.203671  0.600531  1
  Nb  Nb9  1  0.000118  0.603139  0.799708  1
  B  B10  1  0.328705  0.229648  0.868797  1
  B  B11  1  0.333668  0.633519  0.066692  1
  B  B12  1  0.164751  0.362048  0.935799  1
  B  B13  1  0.328597  0.032603  0.262699  1
  B  B14  1  0.164670  0.769747  0.130909  1
  B  B15  1  0.835330  0.230253  0.869091  1
  B  B16  1  0.164569  0.163893  0.328962  1
  B  B17  1  0.835249  0.637952  0.064201  1
  B  B18  1  0.332768  0.432167  0.465341  1
  B  B19  1  0.666332  0.366481  0.933308  1
  B  B20  1  0.834985  0.032605  0.262639  1
  B  B21  1  0.671295  0.770352  0.131203  1
  B  B22  1  0.334643  0.835019  0.667856  1
  B  B23  1  0.167644  0.567539  0.533445  1
  B  B24  1  0.665357  0.164981  0.332144  1
  B  B25  1  0.832356  0.432461  0.466555  1
  B  B26  1  0.165015  0.967395  0.737361  1
  B  B27  1  0.835431  0.836107  0.671038  1
  B  B28  1  0.667232  0.567833  0.534659  1
  B  B29  1  0.671403  0.967397  0.737301  1
