# generated using pymatgen
data_Tb4Tm4Lu4Co5Bi
_symmetry_space_group_name_H-M   'P 1'
_cell_length_a   8.23982492
_cell_length_b   8.23982578
_cell_length_c   8.23982547
_cell_angle_alpha   111.40350229
_cell_angle_beta   110.48036391
_cell_angle_gamma   106.56961188
_symmetry_Int_Tables_number   1
_chemical_formula_structural   Tb4Tm4Lu4Co5Bi
_chemical_formula_sum   'Tb4 Tm4 Lu4 Co5 Bi1'
_cell_volume   429.80506726
_cell_formula_units_Z   1
loop_
 _symmetry_equiv_pos_site_id
 _symmetry_equiv_pos_as_xyz
  1  'x, y, z'
loop_
 _atom_site_type_symbol
 _atom_site_label
 _atom_site_symmetry_multiplicity
 _atom_site_fract_x
 _atom_site_fract_y
 _atom_site_fract_z
 _atom_site_occupancy
  Tb  Tb0  1  0.595523  0.791376  0.804148  1
  Tb  Tb1  1  0.404477  0.208624  0.195852  1
  Tb  Tb2  1  0.987228  0.791376  0.195852  1
  Tb  Tb3  1  0.012772  0.208624  0.804148  1
  Tm  Tm4  1  0.817336  0.710600  0.527937  1
  Tm  Tm5  1  0.182664  0.289400  0.472063  1
  Tm  Tm6  1  0.182664  0.710600  0.893265  1
  Tm  Tm7  1  0.817336  0.289400  0.106735  1
  Lu  Lu8  1  0.686648  0.375713  0.689065  1
  Lu  Lu9  1  0.313352  0.624287  0.310935  1
  Lu  Lu10  1  0.686648  0.997583  0.310935  1
  Lu  Lu11  1  0.313352  0.002417  0.689065  1
  Co  Co12  1  0.623022  0.000000  0.623022  1
  Co  Co13  1  0.376978  0.000000  0.376978  1
  Co  Co14  1  0.112211  0.612211  0.500000  1
  Co  Co15  1  0.887789  0.387789  0.500000  1
  Co  Co16  1  0.000000  0.000000  0.000000  1
  Bi  Bi17  1  0.500000  0.500000  0.000000  1
