# generated using pymatgen
data_Tb2Yb6Cu3Si12Ag
_symmetry_space_group_name_H-M   'P 1'
_cell_length_a   8.15386800
_cell_length_b   8.15386728
_cell_length_c   8.16884500
_cell_angle_alpha   90.00000000
_cell_angle_beta   90.00000000
_cell_angle_gamma   120.00000291
_symmetry_Int_Tables_number   1
_chemical_formula_structural   Tb2Yb6Cu3Si12Ag
_chemical_formula_sum   'Tb2 Yb6 Cu3 Si12 Ag1'
_cell_volume   470.34722872
_cell_formula_units_Z   1
loop_
 _symmetry_equiv_pos_site_id
 _symmetry_equiv_pos_as_xyz
  1  'x, y, z'
loop_
 _atom_site_type_symbol
 _atom_site_label
 _atom_site_symmetry_multiplicity
 _atom_site_fract_x
 _atom_site_fract_y
 _atom_site_fract_z
 _atom_site_occupancy
  Tb  Tb0  1  0.000000  0.000000  0.248499  1
  Tb  Tb1  1  0.000000  0.000000  0.751441  1
  Yb  Yb2  1  0.501165  0.002328  0.248998  1
  Yb  Yb3  1  0.501410  0.002819  0.751078  1
  Yb  Yb4  1  0.997672  0.498835  0.248998  1
  Yb  Yb5  1  0.997181  0.498590  0.751078  1
  Yb  Yb6  1  0.501165  0.498835  0.248998  1
  Yb  Yb7  1  0.501410  0.498590  0.751078  1
  Cu  Cu8  1  0.333333  0.666667  0.999711  1
  Cu  Cu9  1  0.666667  0.333333  0.000490  1
  Cu  Cu10  1  0.666667  0.333333  0.498983  1
  Si  Si11  1  0.167170  0.334340  0.999789  1
  Si  Si12  1  0.833519  0.667036  0.000241  1
  Si  Si13  1  0.665660  0.832830  0.999789  1
  Si  Si14  1  0.832126  0.664252  0.500210  1
  Si  Si15  1  0.332964  0.166481  0.000241  1
  Si  Si16  1  0.160097  0.320193  0.499679  1
  Si  Si17  1  0.167170  0.832830  0.999789  1
  Si  Si18  1  0.335748  0.167874  0.500210  1
  Si  Si19  1  0.833519  0.166481  0.000241  1
  Si  Si20  1  0.679807  0.839903  0.499679  1
  Si  Si21  1  0.832126  0.167874  0.500210  1
  Si  Si22  1  0.160097  0.839903  0.499679  1
  Ag  Ag23  1  0.333333  0.666667  0.500889  1
