# generated using pymatgen
data_La2Nd3EuNb2O14
_symmetry_space_group_name_H-M   'P 1'
_cell_length_a   6.67496094
_cell_length_b   6.70762432
_cell_length_c   7.81312103
_cell_angle_alpha   90.00911530
_cell_angle_beta   89.99298798
_cell_angle_gamma   109.62870794
_symmetry_Int_Tables_number   1
_chemical_formula_structural   La2Nd3EuNb2O14
_chemical_formula_sum   'La2 Nd3 Eu1 Nb2 O14'
_cell_volume   329.48970365
_cell_formula_units_Z   1
loop_
 _symmetry_equiv_pos_site_id
 _symmetry_equiv_pos_as_xyz
  1  'x, y, z'
loop_
 _atom_site_type_symbol
 _atom_site_label
 _atom_site_symmetry_multiplicity
 _atom_site_fract_x
 _atom_site_fract_y
 _atom_site_fract_z
 _atom_site_occupancy
  La  La0  1  0.507554  0.506269  0.501311  1
  La  La1  1  0.496643  0.495711  0.998677  1
  Nd  Nd2  1  0.460271  0.000599  0.251766  1
  Nd  Nd3  1  0.536432  0.999871  0.751854  1
  Nd  Nd4  1  0.001451  0.463799  0.748188  1
  Eu  Eu5  1  0.999492  0.526261  0.248481  1
  Nb  Nb6  1  0.999849  0.999162  0.499192  1
  Nb  Nb7  1  0.999000  0.998233  0.000545  1
  O  O8  1  0.313434  0.065913  0.531806  1
  O  O9  1  0.685843  0.933624  0.033205  1
  O  O10  1  0.065540  0.312915  0.469194  1
  O  O11  1  0.935244  0.688582  0.968018  1
  O  O12  1  0.929909  0.684249  0.527834  1
  O  O13  1  0.070984  0.317265  0.027095  1
  O  O14  1  0.681853  0.928387  0.470749  1
  O  O15  1  0.317574  0.071369  0.972203  1
  O  O16  1  0.637366  0.372611  0.249868  1
  O  O17  1  0.371145  0.631275  0.750011  1
  O  O18  1  0.355639  0.634519  0.249966  1
  O  O19  1  0.635719  0.364806  0.749906  1
  O  O20  1  0.060472  0.945048  0.250061  1
  O  O21  1  0.938588  0.059532  0.750070  1
