# generated using pymatgen
data_Lu2Sc3As2Ru
_symmetry_space_group_name_H-M   'P 1'
_cell_length_a   5.90495100
_cell_length_b   7.99201599
_cell_length_c   8.11786442
_cell_angle_alpha   119.48849556
_cell_angle_beta   90.00000000
_cell_angle_gamma   90.00000000
_symmetry_Int_Tables_number   1
_chemical_formula_structural   Lu2Sc3As2Ru
_chemical_formula_sum   'Lu4 Sc6 As4 Ru2'
_cell_volume   333.47289268
_cell_formula_units_Z   2
loop_
 _symmetry_equiv_pos_site_id
 _symmetry_equiv_pos_as_xyz
  1  'x, y, z'
loop_
 _atom_site_type_symbol
 _atom_site_label
 _atom_site_symmetry_multiplicity
 _atom_site_fract_x
 _atom_site_fract_y
 _atom_site_fract_z
 _atom_site_occupancy
  Lu  Lu0  1  0.750000  0.742925  0.765697  1
  Lu  Lu1  1  0.250000  0.257075  0.234303  1
  Lu  Lu2  1  0.750000  0.977229  0.234303  1
  Lu  Lu3  1  0.250000  0.022771  0.765697  1
  Sc  Sc4  1  0.000000  0.661144  0.322287  1
  Sc  Sc5  1  0.000000  0.338856  0.677713  1
  Sc  Sc6  1  0.500000  0.338856  0.677713  1
  Sc  Sc7  1  0.500000  0.661144  0.322287  1
  Sc  Sc8  1  0.750000  0.255567  0.000000  1
  Sc  Sc9  1  0.250000  0.744433  0.000000  1
  As  As10  1  0.750000  0.382507  0.388813  1
  As  As11  1  0.250000  0.617493  0.611187  1
  As  As12  1  0.750000  0.993694  0.611187  1
  As  As13  1  0.250000  0.006306  0.388813  1
  Ru  Ru14  1  0.750000  0.583016  0.000000  1
  Ru  Ru15  1  0.250000  0.416984  0.000000  1
