# generated using pymatgen
data_BaZr8Tl(PO4)12
_symmetry_space_group_name_H-M   'P 1'
_cell_length_a   8.90646303
_cell_length_b   9.46264017
_cell_length_c   12.99046154
_cell_angle_alpha   94.71220404
_cell_angle_beta   89.99106111
_cell_angle_gamma   90.01060241
_symmetry_Int_Tables_number   1
_chemical_formula_structural   BaZr8Tl(PO4)12
_chemical_formula_sum   'Ba1 Zr8 Tl1 P12 O48'
_cell_volume   1091.11801098
_cell_formula_units_Z   1
loop_
 _symmetry_equiv_pos_site_id
 _symmetry_equiv_pos_as_xyz
  1  'x, y, z'
loop_
 _atom_site_type_symbol
 _atom_site_label
 _atom_site_symmetry_multiplicity
 _atom_site_fract_x
 _atom_site_fract_y
 _atom_site_fract_z
 _atom_site_occupancy
  Ba  Ba0  1  0.500000  0.500000  0.500000  1
  Zr  Zr1  1  0.999715  0.710121  0.642834  1
  Zr  Zr2  1  0.499955  0.215406  0.144781  1
  Zr  Zr3  1  0.000285  0.289879  0.357166  1
  Zr  Zr4  1  0.500045  0.784594  0.855219  1
  Zr  Zr5  1  0.499259  0.197117  0.652910  1
  Zr  Zr6  1  0.000839  0.701848  0.147692  1
  Zr  Zr7  1  0.500741  0.802883  0.347090  1
  Zr  Zr8  1  0.999161  0.298152  0.852308  1
  Tl  Tl9  1  0.000000  0.000000  0.000000  1
  P  P10  1  0.213073  0.995358  0.756370  1
  P  P11  1  0.715454  0.501756  0.253245  1
  P  P12  1  0.638666  0.849674  0.606792  1
  P  P13  1  0.138727  0.354439  0.108643  1
  P  P14  1  0.147469  0.639908  0.392174  1
  P  P15  1  0.646750  0.134359  0.894756  1
  P  P16  1  0.786927  0.004642  0.243630  1
  P  P17  1  0.284546  0.498244  0.746755  1
  P  P18  1  0.361334  0.150326  0.393208  1
  P  P19  1  0.861273  0.645561  0.891357  1
  P  P20  1  0.852531  0.360092  0.607826  1
  P  P21  1  0.353250  0.865641  0.105244  1
  O  O22  1  0.370820  0.027566  0.118334  1
  O  O23  1  0.863938  0.523263  0.615086  1
  O  O24  1  0.686457  0.085318  0.172612  1
  O  O25  1  0.188366  0.575929  0.670220  1
  O  O26  1  0.445659  0.220465  0.306972  1
  O  O27  1  0.945084  0.703662  0.800617  1
  O  O28  1  0.629180  0.972434  0.881666  1
  O  O29  1  0.136062  0.476737  0.384914  1
  O  O30  1  0.313543  0.914682  0.827388  1
  O  O31  1  0.811634  0.424071  0.329780  1
  O  O32  1  0.554341  0.779535  0.693028  1
  O  O33  1  0.054916  0.296338  0.199383  1
  O  O34  1  0.064490  0.703614  0.488888  1
  O  O35  1  0.563824  0.199109  0.990851  1
  O  O36  1  0.124770  0.891861  0.681809  1
  O  O37  1  0.628630  0.395608  0.179804  1
  O  O38  1  0.808994  0.827156  0.616122  1
  O  O39  1  0.308690  0.331765  0.117759  1
  O  O40  1  0.935510  0.296386  0.511112  1
  O  O41  1  0.436176  0.800891  0.009149  1
  O  O42  1  0.875230  0.108139  0.318191  1
  O  O43  1  0.371370  0.604392  0.820196  1
  O  O44  1  0.191006  0.172844  0.383878  1
  O  O45  1  0.691310  0.668235  0.882241  1
  O  O46  1  0.898720  0.911088  0.174586  1
  O  O47  1  0.398148  0.402783  0.682014  1
  O  O48  1  0.416713  0.220838  0.498865  1
  O  O49  1  0.920069  0.726050  0.993195  1
  O  O50  1  0.683112  0.320342  0.599449  1
  O  O51  1  0.181826  0.831206  0.094720  1
  O  O52  1  0.101280  0.088912  0.825414  1
  O  O53  1  0.601852  0.597217  0.317986  1
  O  O54  1  0.583287  0.779162  0.501135  1
  O  O55  1  0.079931  0.273950  0.006805  1
  O  O56  1  0.316888  0.679658  0.400551  1
  O  O57  1  0.818174  0.168794  0.905280  1
  O  O58  1  0.306530  0.096370  0.694138  1
  O  O59  1  0.812095  0.597353  0.188600  1
  O  O60  1  0.604990  0.009913  0.610331  1
  O  O61  1  0.107055  0.514375  0.102640  1
  O  O62  1  0.588379  0.203629  0.798946  1
  O  O63  1  0.082532  0.701853  0.295108  1
  O  O64  1  0.693470  0.903630  0.305862  1
  O  O65  1  0.187905  0.402647  0.811400  1
  O  O66  1  0.395010  0.990087  0.389669  1
  O  O67  1  0.892945  0.485625  0.897360  1
  O  O68  1  0.411621  0.796371  0.201054  1
  O  O69  1  0.917468  0.298147  0.704892  1
