# generated using pymatgen
data_LiTh8(FeSi4)3
_symmetry_space_group_name_H-M   'P 1'
_cell_length_a   8.15717800
_cell_length_b   8.15717804
_cell_length_c   8.37035300
_cell_angle_alpha   90.00000000
_cell_angle_beta   90.00000000
_cell_angle_gamma   119.99999171
_symmetry_Int_Tables_number   1
_chemical_formula_structural   LiTh8(FeSi4)3
_chemical_formula_sum   'Li1 Th8 Fe3 Si12'
_cell_volume   482.34115903
_cell_formula_units_Z   1
loop_
 _symmetry_equiv_pos_site_id
 _symmetry_equiv_pos_as_xyz
  1  'x, y, z'
loop_
 _atom_site_type_symbol
 _atom_site_label
 _atom_site_symmetry_multiplicity
 _atom_site_fract_x
 _atom_site_fract_y
 _atom_site_fract_z
 _atom_site_occupancy
  Li  Li0  1  0.666667  0.333333  0.500392  1
  Th  Th1  1  0.495604  0.504396  0.753869  1
  Th  Th2  1  0.495794  0.504206  0.246100  1
  Th  Th3  1  0.008791  0.504396  0.753869  1
  Th  Th4  1  0.008413  0.504206  0.246100  1
  Th  Th5  1  0.495604  0.991209  0.753869  1
  Th  Th6  1  0.495794  0.991587  0.246100  1
  Th  Th7  1  0.000000  0.000000  0.750030  1
  Th  Th8  1  0.000000  0.000000  0.250005  1
  Fe  Fe9  1  0.666667  0.333333  0.999969  1
  Fe  Fe10  1  0.333333  0.666667  0.000063  1
  Fe  Fe11  1  0.333333  0.666667  0.499973  1
  Si  Si12  1  0.829278  0.170722  0.999852  1
  Si  Si13  1  0.170382  0.829618  0.000136  1
  Si  Si14  1  0.341446  0.170722  0.999852  1
  Si  Si15  1  0.171490  0.828510  0.499780  1
  Si  Si16  1  0.659235  0.829618  0.000136  1
  Si  Si17  1  0.834334  0.165666  0.500120  1
  Si  Si18  1  0.829278  0.658554  0.999852  1
  Si  Si19  1  0.657019  0.828510  0.499780  1
  Si  Si20  1  0.170382  0.340765  0.000136  1
  Si  Si21  1  0.331333  0.165666  0.500120  1
  Si  Si22  1  0.171490  0.342981  0.499780  1
  Si  Si23  1  0.834334  0.668667  0.500120  1
