# generated using pymatgen
data_PrNdCr2(TeO6)2
_symmetry_space_group_name_H-M   'P 1'
_cell_length_a   5.23238500
_cell_length_b   5.23237760
_cell_length_c   10.28200400
_cell_angle_alpha   90.00010336
_cell_angle_beta   90.00014975
_cell_angle_gamma   120.00168464
_symmetry_Int_Tables_number   1
_chemical_formula_structural   PrNdCr2(TeO6)2
_chemical_formula_sum   'Pr1 Nd1 Cr2 Te2 O12'
_cell_volume   243.78096807
_cell_formula_units_Z   1
loop_
 _symmetry_equiv_pos_site_id
 _symmetry_equiv_pos_as_xyz
  1  'x, y, z'
loop_
 _atom_site_type_symbol
 _atom_site_label
 _atom_site_symmetry_multiplicity
 _atom_site_fract_x
 _atom_site_fract_y
 _atom_site_fract_z
 _atom_site_occupancy
  Pr  Pr0  1  0.000000  0.000000  0.000000  1
  Nd  Nd1  1  0.000000  0.000001  0.500000  1
  Cr  Cr2  1  0.333336  0.666675  0.250827  1
  Cr  Cr3  1  0.666663  0.333327  0.749173  1
  Te  Te4  1  0.666674  0.333326  0.250881  1
  Te  Te5  1  0.333327  0.666674  0.749119  1
  O  O6  1  0.635422  0.625778  0.144099  1
  O  O7  1  0.990383  0.364579  0.144097  1
  O  O8  1  0.374213  0.009609  0.144103  1
  O  O9  1  0.371304  0.361394  0.357134  1
  O  O10  1  0.990121  0.628708  0.357131  1
  O  O11  1  0.638607  0.009887  0.357137  1
  O  O12  1  0.361393  0.990113  0.642862  1
  O  O13  1  0.628697  0.638608  0.642865  1
  O  O14  1  0.009879  0.371294  0.642869  1
  O  O15  1  0.009615  0.635421  0.855902  1
  O  O16  1  0.625787  0.990390  0.855898  1
  O  O17  1  0.364577  0.374223  0.855902  1
