# generated using pymatgen
data_Er2Ga10Tc2Os
_symmetry_space_group_name_H-M   'P 1'
_cell_length_a   9.03204200
_cell_length_b   9.03204200
_cell_length_c   6.29902100
_cell_angle_alpha   90.00000000
_cell_angle_beta   90.00000000
_cell_angle_gamma   90.00000000
_symmetry_Int_Tables_number   1
_chemical_formula_structural   Er2Ga10Tc2Os
_chemical_formula_sum   'Er4 Ga20 Tc4 Os2'
_cell_volume   513.86016630
_cell_formula_units_Z   2
loop_
 _symmetry_equiv_pos_site_id
 _symmetry_equiv_pos_as_xyz
  1  'x, y, z'
loop_
 _atom_site_type_symbol
 _atom_site_label
 _atom_site_symmetry_multiplicity
 _atom_site_fract_x
 _atom_site_fract_y
 _atom_site_fract_z
 _atom_site_occupancy
  Er  Er0  1  0.683181  0.183181  0.000000  1
  Er  Er1  1  0.316819  0.816819  0.000000  1
  Er  Er2  1  0.816819  0.683181  0.000000  1
  Er  Er3  1  0.183181  0.316819  0.000000  1
  Ga  Ga4  1  0.940128  0.205850  0.291079  1
  Ga  Ga5  1  0.705850  0.440128  0.291079  1
  Ga  Ga6  1  0.500000  0.000000  0.286336  1
  Ga  Ga7  1  0.559872  0.705850  0.708921  1
  Ga  Ga8  1  0.294150  0.559872  0.708921  1
  Ga  Ga9  1  0.794150  0.940128  0.291079  1
  Ga  Ga10  1  0.940128  0.205850  0.708921  1
  Ga  Ga11  1  0.294150  0.559872  0.291079  1
  Ga  Ga12  1  0.059872  0.794150  0.291079  1
  Ga  Ga13  1  0.705850  0.440128  0.708921  1
  Ga  Ga14  1  0.440128  0.294150  0.708921  1
  Ga  Ga15  1  0.059872  0.794150  0.708921  1
  Ga  Ga16  1  0.205850  0.059872  0.708921  1
  Ga  Ga17  1  0.794150  0.940128  0.708921  1
  Ga  Ga18  1  0.205850  0.059872  0.291079  1
  Ga  Ga19  1  0.000000  0.500000  0.713664  1
  Ga  Ga20  1  0.000000  0.500000  0.286336  1
  Ga  Ga21  1  0.559872  0.705850  0.291079  1
  Ga  Ga22  1  0.440128  0.294150  0.291079  1
  Ga  Ga23  1  0.500000  0.000000  0.713664  1
  Tc  Tc24  1  0.679436  0.179436  0.500000  1
  Tc  Tc25  1  0.820564  0.679436  0.500000  1
  Tc  Tc26  1  0.179436  0.320564  0.500000  1
  Tc  Tc27  1  0.320564  0.820564  0.500000  1
  Os  Os28  1  0.000000  0.000000  0.000000  1
  Os  Os29  1  0.500000  0.500000  0.000000  1
