# generated using pymatgen
data_Re3Tc(OsRh)2
_symmetry_space_group_name_H-M   'P 1'
_cell_length_a   5.52986474
_cell_length_b   5.52986454
_cell_length_c   4.38132000
_cell_angle_alpha   90.00000000
_cell_angle_beta   90.00000000
_cell_angle_gamma   119.84996154
_symmetry_Int_Tables_number   1
_chemical_formula_structural   Re3Tc(OsRh)2
_chemical_formula_sum   'Re3 Tc1 Os2 Rh2'
_cell_volume   116.20350520
_cell_formula_units_Z   1
loop_
 _symmetry_equiv_pos_site_id
 _symmetry_equiv_pos_as_xyz
  1  'x, y, z'
loop_
 _atom_site_type_symbol
 _atom_site_label
 _atom_site_symmetry_multiplicity
 _atom_site_fract_x
 _atom_site_fract_y
 _atom_site_fract_z
 _atom_site_occupancy
  Re  Re0  1  0.163073  0.323983  0.250000  1
  Re  Re1  1  0.676017  0.836927  0.250000  1
  Re  Re2  1  0.162139  0.837861  0.250000  1
  Tc  Tc3  1  0.836854  0.163146  0.750000  1
  Os  Os4  1  0.836242  0.672950  0.750000  1
  Os  Os5  1  0.327050  0.163758  0.750000  1
  Rh  Rh6  1  0.332530  0.667470  0.750000  1
  Rh  Rh7  1  0.666093  0.333907  0.250000  1
