# generated using pymatgen
data_SmNp5(Sb4Au3)2
_symmetry_space_group_name_H-M   'P 1'
_cell_length_a   8.69102440
_cell_length_b   8.71208315
_cell_length_c   8.70584130
_cell_angle_alpha   109.53310827
_cell_angle_beta   109.50396545
_cell_angle_gamma   109.39381633
_symmetry_Int_Tables_number   1
_chemical_formula_structural   SmNp5(Sb4Au3)2
_chemical_formula_sum   'Sm1 Np5 Sb8 Au6'
_cell_volume   507.32811091
_cell_formula_units_Z   1
loop_
 _symmetry_equiv_pos_site_id
 _symmetry_equiv_pos_as_xyz
  1  'x, y, z'
loop_
 _atom_site_type_symbol
 _atom_site_label
 _atom_site_symmetry_multiplicity
 _atom_site_fract_x
 _atom_site_fract_y
 _atom_site_fract_z
 _atom_site_occupancy
  Sm  Sm0  1  0.875208  0.125679  0.749894  1
  Np  Np1  1  0.250303  0.623873  0.373864  1
  Np  Np2  1  0.750629  0.874688  0.124204  1
  Np  Np3  1  0.375584  0.249629  0.626448  1
  Np  Np4  1  0.626133  0.375297  0.249992  1
  Np  Np5  1  0.123551  0.750119  0.873693  1
  Sb  Sb6  1  0.178587  0.178518  0.178986  1
  Sb  Sb7  1  0.499369  0.000296  0.321304  1
  Sb  Sb8  1  0.322752  0.502277  0.001369  1
  Sb  Sb9  1  0.001893  0.322893  0.499600  1
  Sb  Sb10  1  0.677921  0.675804  0.678710  1
  Sb  Sb11  1  0.498084  0.998941  0.822246  1
  Sb  Sb12  1  0.999871  0.820964  0.498733  1
  Sb  Sb13  1  0.820575  0.500550  0.000399  1
  Au  Au14  1  0.246938  0.124436  0.874020  1
  Au  Au15  1  0.750573  0.372945  0.625865  1
  Au  Au16  1  0.874915  0.249900  0.122386  1
  Au  Au17  1  0.124278  0.875408  0.249754  1
  Au  Au18  1  0.626814  0.752181  0.377430  1
  Au  Au19  1  0.376021  0.625601  0.751104  1
