# generated using pymatgen
data_Ti8CO12
_symmetry_space_group_name_H-M   'P 1'
_cell_length_a   6.50556500
_cell_length_b   6.50556631
_cell_length_c   6.50556696
_cell_angle_alpha   73.85952380
_cell_angle_beta   73.85952509
_cell_angle_gamma   73.85953240
_symmetry_Int_Tables_number   1
_chemical_formula_structural   Ti8CO12
_chemical_formula_sum   'Ti8 C1 O12'
_cell_volume   247.97017319
_cell_formula_units_Z   1
loop_
 _symmetry_equiv_pos_site_id
 _symmetry_equiv_pos_as_xyz
  1  'x, y, z'
loop_
 _atom_site_type_symbol
 _atom_site_label
 _atom_site_symmetry_multiplicity
 _atom_site_fract_x
 _atom_site_fract_y
 _atom_site_fract_z
 _atom_site_occupancy
  Ti  Ti0  1  0.936952  0.687617  0.125134  1
  Ti  Ti1  1  0.722945  0.722945  0.722945  1
  Ti  Ti2  1  0.687617  0.125134  0.936952  1
  Ti  Ti3  1  0.874866  0.063048  0.312383  1
  Ti  Ti4  1  0.125134  0.936952  0.687617  1
  Ti  Ti5  1  0.312383  0.874866  0.063048  1
  Ti  Ti6  1  0.277055  0.277055  0.277055  1
  Ti  Ti7  1  0.063048  0.312383  0.874866  1
  C  C8  1  0.000000  0.000000  0.000000  1
  O  O9  1  0.826878  0.744651  0.420506  1
  O  O10  1  0.959706  0.354707  0.204317  1
  O  O11  1  0.744651  0.420506  0.826878  1
  O  O12  1  0.795683  0.040294  0.645293  1
  O  O13  1  0.645293  0.795683  0.040294  1
  O  O14  1  0.420506  0.826878  0.744651  1
  O  O15  1  0.579494  0.173122  0.255349  1
  O  O16  1  0.354707  0.204317  0.959706  1
  O  O17  1  0.204317  0.959706  0.354707  1
  O  O18  1  0.255349  0.579494  0.173122  1
  O  O19  1  0.040294  0.645293  0.795683  1
  O  O20  1  0.173122  0.255349  0.579494  1
