# generated using pymatgen
data_Cs6LuInSb4
_symmetry_space_group_name_H-M   'P 1'
_cell_length_a   10.42806039
_cell_length_b   10.42806065
_cell_length_c   10.42806066
_cell_angle_alpha   127.56775691
_cell_angle_beta   69.56686832
_cell_angle_gamma   137.68159831
_symmetry_Int_Tables_number   1
_chemical_formula_structural   Cs6LuInSb4
_chemical_formula_sum   'Cs6 Lu1 In1 Sb4'
_cell_volume   594.05199083
_cell_formula_units_Z   1
loop_
 _symmetry_equiv_pos_site_id
 _symmetry_equiv_pos_as_xyz
  1  'x, y, z'
loop_
 _atom_site_type_symbol
 _atom_site_label
 _atom_site_symmetry_multiplicity
 _atom_site_fract_x
 _atom_site_fract_y
 _atom_site_fract_z
 _atom_site_occupancy
  Cs  Cs0  1  0.250000  0.250000  0.000000  1
  Cs  Cs1  1  0.750000  0.750000  0.000000  1
  Cs  Cs2  1  0.814617  0.292797  0.119034  1
  Cs  Cs3  1  0.685382  0.804418  0.478181  1
  Cs  Cs4  1  0.326236  0.207203  0.521819  1
  Cs  Cs5  1  0.173763  0.695583  0.880966  1
  Lu  Lu6  1  0.250000  0.750000  0.500000  1
  In  In7  1  0.750000  0.250000  0.500000  1
  Sb  Sb8  1  0.408086  0.821572  0.222148  1
  Sb  Sb9  1  0.091914  0.314061  0.413485  1
  Sb  Sb10  1  0.900575  0.678428  0.586516  1
  Sb  Sb11  1  0.599425  0.185939  0.777852  1
