# generated using pymatgen
data_MnFeN2
_symmetry_space_group_name_H-M   'P 1'
_cell_length_a   5.21829889
_cell_length_b   4.27804340
_cell_length_c   8.50407300
_cell_angle_alpha   90.00000000
_cell_angle_beta   144.57075532
_cell_angle_gamma   114.19903798
_symmetry_Int_Tables_number   1
_chemical_formula_structural   MnFeN2
_chemical_formula_sum   'Mn2 Fe2 N4'
_cell_volume   77.81930657
_cell_formula_units_Z   2
loop_
 _symmetry_equiv_pos_site_id
 _symmetry_equiv_pos_as_xyz
  1  'x, y, z'
loop_
 _atom_site_type_symbol
 _atom_site_label
 _atom_site_symmetry_multiplicity
 _atom_site_fract_x
 _atom_site_fract_y
 _atom_site_fract_z
 _atom_site_occupancy
  Mn  Mn0  1  0.000000  0.500000  0.750000  1
  Mn  Mn1  1  0.000000  0.000000  0.500000  1
  Fe  Fe2  1  0.000000  0.500000  0.250000  1
  Fe  Fe3  1  0.000000  0.000000  0.000000  1
  N  N4  1  0.500000  0.000666  0.125000  1
  N  N5  1  0.500000  0.999334  0.625000  1
  N  N6  1  0.498668  0.499334  0.374334  1
  N  N7  1  0.501332  0.500666  0.875666  1
