# generated using pymatgen
data_Ce2Si7(NiRu5)2
_symmetry_space_group_name_H-M   'P 1'
_cell_length_a   9.60309776
_cell_length_b   9.53610806
_cell_length_c   3.87941300
_cell_angle_alpha   90.00000000
_cell_angle_beta   90.00000000
_cell_angle_gamma   119.72182171
_symmetry_Int_Tables_number   1
_chemical_formula_structural   Ce2Si7(NiRu5)2
_chemical_formula_sum   'Ce2 Si7 Ni2 Ru10'
_cell_volume   308.52454810
_cell_formula_units_Z   1
loop_
 _symmetry_equiv_pos_site_id
 _symmetry_equiv_pos_as_xyz
  1  'x, y, z'
loop_
 _atom_site_type_symbol
 _atom_site_label
 _atom_site_symmetry_multiplicity
 _atom_site_fract_x
 _atom_site_fract_y
 _atom_site_fract_z
 _atom_site_occupancy
  Ce  Ce0  1  0.999931  0.003958  0.000000  1
  Ce  Ce1  1  0.335114  0.666458  0.500000  1
  Si  Si2  1  0.068772  0.440179  0.000000  1
  Si  Si3  1  0.564924  0.624575  0.000000  1
  Si  Si4  1  0.372087  0.935309  0.000000  1
  Si  Si5  1  0.765374  0.039113  0.500000  1
  Si  Si6  1  0.957096  0.724986  0.500000  1
  Si  Si7  1  0.278223  0.234307  0.500000  1
  Si  Si8  1  0.661445  0.334954  0.000000  1
  Ni  Ni9  1  0.793334  0.607556  0.000000  1
  Ni  Ni10  1  0.391865  0.184192  0.000000  1
  Ru  Ru11  1  0.098775  0.704542  0.000000  1
  Ru  Ru12  1  0.299952  0.398366  0.000000  1
  Ru  Ru13  1  0.599444  0.895630  0.000000  1
  Ru  Ru14  1  0.812806  0.208051  0.000000  1
  Ru  Ru15  1  0.048965  0.274496  0.500000  1
  Ru  Ru16  1  0.727105  0.768208  0.500000  1
  Ru  Ru17  1  0.228873  0.957163  0.500000  1
  Ru  Ru18  1  0.873304  0.442292  0.500000  1
  Ru  Ru19  1  0.559352  0.431554  0.500000  1
  Ru  Ru20  1  0.563259  0.124114  0.500000  1
