# generated using pymatgen
data_Cs6H9Pt2Cl
_symmetry_space_group_name_H-M   'P 1'
_cell_length_a   8.52825600
_cell_length_b   8.52825600
_cell_length_c   6.45258800
_cell_angle_alpha   90.00000000
_cell_angle_beta   90.00000000
_cell_angle_gamma   90.00000000
_symmetry_Int_Tables_number   1
_chemical_formula_structural   Cs6H9Pt2Cl
_chemical_formula_sum   'Cs6 H9 Pt2 Cl1'
_cell_volume   469.30414831
_cell_formula_units_Z   1
loop_
 _symmetry_equiv_pos_site_id
 _symmetry_equiv_pos_as_xyz
  1  'x, y, z'
loop_
 _atom_site_type_symbol
 _atom_site_label
 _atom_site_symmetry_multiplicity
 _atom_site_fract_x
 _atom_site_fract_y
 _atom_site_fract_z
 _atom_site_occupancy
  Cs  Cs0  1  0.500000  0.500000  0.000000  1
  Cs  Cs1  1  0.000000  0.000000  0.000000  1
  Cs  Cs2  1  0.161289  0.686773  0.500000  1
  Cs  Cs3  1  0.838711  0.313227  0.500000  1
  Cs  Cs4  1  0.686773  0.838711  0.500000  1
  Cs  Cs5  1  0.313227  0.161289  0.500000  1
  H  H6  1  0.000000  0.000000  0.500000  1
  H  H7  1  0.598308  0.098551  0.817686  1
  H  H8  1  0.401692  0.901449  0.817686  1
  H  H9  1  0.098551  0.401692  0.817686  1
  H  H10  1  0.901449  0.598308  0.817686  1
  H  H11  1  0.401692  0.901449  0.182314  1
  H  H12  1  0.598308  0.098551  0.182314  1
  H  H13  1  0.901449  0.598308  0.182314  1
  H  H14  1  0.098551  0.401692  0.182314  1
  Pt  Pt15  1  0.500000  0.000000  0.000000  1
  Pt  Pt16  1  0.000000  0.500000  0.000000  1
  Cl  Cl17  1  0.500000  0.500000  0.500000  1
