# generated using pymatgen
data_Tb11Y3Ho2(In3Co)2
_symmetry_space_group_name_H-M   'P 1'
_cell_length_a   10.42052500
_cell_length_b   10.42132361
_cell_length_c   7.04698232
_cell_angle_alpha   90.01990882
_cell_angle_beta   90.00000000
_cell_angle_gamma   119.99746822
_symmetry_Int_Tables_number   1
_chemical_formula_structural   Tb11Y3Ho2(In3Co)2
_chemical_formula_sum   'Tb11 Y3 Ho2 In6 Co2'
_cell_volume   662.76160334
_cell_formula_units_Z   1
loop_
 _symmetry_equiv_pos_site_id
 _symmetry_equiv_pos_as_xyz
  1  'x, y, z'
loop_
 _atom_site_type_symbol
 _atom_site_label
 _atom_site_symmetry_multiplicity
 _atom_site_fract_x
 _atom_site_fract_y
 _atom_site_fract_z
 _atom_site_occupancy
  Tb  Tb0  1  0.463991  0.535711  0.483399  1
  Tb  Tb1  1  0.071721  0.535711  0.483399  1
  Tb  Tb2  1  0.464333  0.928666  0.483144  1
  Tb  Tb3  1  0.535176  0.464315  0.983372  1
  Tb  Tb4  1  0.929140  0.464315  0.983372  1
  Tb  Tb5  1  0.535641  0.071281  0.983532  1
  Tb  Tb6  1  0.822297  0.177852  0.275532  1
  Tb  Tb7  1  0.355556  0.177852  0.275532  1
  Tb  Tb8  1  0.822156  0.644310  0.275495  1
  Tb  Tb9  1  0.178025  0.822145  0.775745  1
  Tb  Tb10  1  0.644120  0.822145  0.775745  1
  Y  Y11  1  0.666685  0.333367  0.592342  1
  Y  Y12  1  0.000088  0.000176  0.495508  1
  Y  Y13  1  0.999861  0.999723  0.994937  1
  Ho  Ho14  1  0.177985  0.355969  0.775654  1
  Ho  Ho15  1  0.333130  0.666260  0.090576  1
  In  In16  1  0.163224  0.836791  0.234269  1
  In  In17  1  0.673568  0.836791  0.234269  1
  In  In18  1  0.163213  0.326425  0.233233  1
  In  In19  1  0.837611  0.163370  0.734465  1
  In  In20  1  0.325759  0.163370  0.734465  1
  In  In21  1  0.836933  0.673868  0.734483  1
  Co  Co22  1  0.333097  0.666195  0.706748  1
  Co  Co23  1  0.666695  0.333388  0.205337  1
