# generated using pymatgen
data_Y2HoBe2(PPd5)4
_symmetry_space_group_name_H-M   'P 1'
_cell_length_a   8.67037158
_cell_length_b   8.59462818
_cell_length_c   8.59462743
_cell_angle_alpha   60.58392007
_cell_angle_beta   59.70803840
_cell_angle_gamma   59.70804169
_symmetry_Int_Tables_number   1
_chemical_formula_structural   Y2HoBe2(PPd5)4
_chemical_formula_sum   'Y2 Ho1 Be2 P4 Pd20'
_cell_volume   452.80247607
_cell_formula_units_Z   1
loop_
 _symmetry_equiv_pos_site_id
 _symmetry_equiv_pos_as_xyz
  1  'x, y, z'
loop_
 _atom_site_type_symbol
 _atom_site_label
 _atom_site_symmetry_multiplicity
 _atom_site_fract_x
 _atom_site_fract_y
 _atom_site_fract_z
 _atom_site_occupancy
  Y  Y0  1  0.250000  0.250000  0.250000  1
  Y  Y1  1  0.750000  0.750000  0.750000  1
  Ho  Ho2  1  0.000000  0.000000  0.000000  1
  Be  Be3  1  0.733470  0.266530  0.266530  1
  Be  Be4  1  0.266530  0.733470  0.733470  1
  P  P5  1  0.266284  0.733716  0.266284  1
  P  P6  1  0.733716  0.266284  0.733716  1
  P  P7  1  0.266284  0.266284  0.733716  1
  P  P8  1  0.733716  0.733716  0.266284  1
  Pd  Pd9  1  0.387778  0.382471  0.382471  1
  Pd  Pd10  1  0.612222  0.617529  0.617529  1
  Pd  Pd11  1  0.382471  0.387778  0.847282  1
  Pd  Pd12  1  0.382471  0.847282  0.387778  1
  Pd  Pd13  1  0.617529  0.612222  0.152718  1
  Pd  Pd14  1  0.617529  0.152718  0.612222  1
  Pd  Pd15  1  0.847282  0.382471  0.382471  1
  Pd  Pd16  1  0.152718  0.617529  0.617529  1
  Pd  Pd17  1  0.344192  0.000000  0.000000  1
  Pd  Pd18  1  0.655808  0.000000  0.000000  1
  Pd  Pd19  1  0.000000  0.344192  0.655808  1
  Pd  Pd20  1  0.000000  0.655808  0.344192  1
  Pd  Pd21  1  0.997143  0.343399  0.002857  1
  Pd  Pd22  1  0.656601  0.002857  0.343399  1
  Pd  Pd23  1  0.002857  0.656601  0.997143  1
  Pd  Pd24  1  0.343399  0.997143  0.656601  1
  Pd  Pd25  1  0.997143  0.002857  0.343399  1
  Pd  Pd26  1  0.002857  0.997143  0.656601  1
  Pd  Pd27  1  0.656601  0.343399  0.002857  1
  Pd  Pd28  1  0.343399  0.656601  0.997143  1
