# generated using pymatgen
data_Hf5Ti4Ga12AsRh7
_symmetry_space_group_name_H-M   'P 1'
_cell_length_a   8.78603790
_cell_length_b   8.78603796
_cell_length_c   8.73476100
_cell_angle_alpha   60.19287619
_cell_angle_beta   60.19287599
_cell_angle_gamma   59.75575792
_symmetry_Int_Tables_number   1
_chemical_formula_structural   Hf5Ti4Ga12AsRh7
_chemical_formula_sum   'Hf5 Ti4 Ga12 As1 Rh7'
_cell_volume   477.27586393
_cell_formula_units_Z   1
loop_
 _symmetry_equiv_pos_site_id
 _symmetry_equiv_pos_as_xyz
  1  'x, y, z'
loop_
 _atom_site_type_symbol
 _atom_site_label
 _atom_site_symmetry_multiplicity
 _atom_site_fract_x
 _atom_site_fract_y
 _atom_site_fract_z
 _atom_site_occupancy
  Hf  Hf0  1  0.290184  0.713322  0.289312  1
  Hf  Hf1  1  0.713322  0.290184  0.289312  1
  Hf  Hf2  1  0.311145  0.311145  0.688855  1
  Hf  Hf3  1  0.713322  0.290184  0.707182  1
  Hf  Hf4  1  0.290184  0.713322  0.707182  1
  Ti  Ti5  1  0.878683  0.878683  0.354120  1
  Ti  Ti6  1  0.885648  0.374907  0.869724  1
  Ti  Ti7  1  0.374907  0.885648  0.869724  1
  Ti  Ti8  1  0.878683  0.878683  0.888516  1
  Ga  Ga9  1  0.125840  0.125840  0.633987  1
  Ga  Ga10  1  0.122967  0.647389  0.114822  1
  Ga  Ga11  1  0.647389  0.122967  0.114822  1
  Ga  Ga12  1  0.125840  0.125840  0.114332  1
  Ga  Ga13  1  0.663941  0.663941  0.034712  1
  Ga  Ga14  1  0.675736  0.019501  0.652381  1
  Ga  Ga15  1  0.019501  0.675736  0.652381  1
  Ga  Ga16  1  0.663941  0.663941  0.637405  1
  Ga  Ga17  1  0.347033  0.347033  0.976684  1
  Ga  Ga18  1  0.370260  0.965658  0.332042  1
  Ga  Ga19  1  0.965658  0.370260  0.332042  1
  Ga  Ga20  1  0.347033  0.347033  0.329252  1
  As  As21  1  0.533771  0.533771  0.466229  1
  Rh  Rh22  1  0.007539  0.007539  0.992461  1
  Rh  Rh23  1  0.008717  0.008717  0.491283  1
  Rh  Rh24  1  0.505372  0.008147  0.499219  1
  Rh  Rh25  1  0.008147  0.505372  0.499219  1
  Rh  Rh26  1  0.511723  0.511723  0.988277  1
  Rh  Rh27  1  0.008147  0.505372  0.987263  1
  Rh  Rh28  1  0.505372  0.008147  0.987263  1
