# generated using pymatgen
data_KV4Cl11
_symmetry_space_group_name_H-M   'P 1'
_cell_length_a   6.43910200
_cell_length_b   7.08837700
_cell_length_c   17.11289600
_cell_angle_alpha   90.00000000
_cell_angle_beta   90.00000000
_cell_angle_gamma   90.00000000
_symmetry_Int_Tables_number   1
_chemical_formula_structural   KV4Cl11
_chemical_formula_sum   'K2 V8 Cl22'
_cell_volume   781.08019037
_cell_formula_units_Z   2
loop_
 _symmetry_equiv_pos_site_id
 _symmetry_equiv_pos_as_xyz
  1  'x, y, z'
loop_
 _atom_site_type_symbol
 _atom_site_label
 _atom_site_symmetry_multiplicity
 _atom_site_fract_x
 _atom_site_fract_y
 _atom_site_fract_z
 _atom_site_occupancy
  K  K0  1  0.090661  0.500000  0.750000  1
  K  K1  1  0.909339  0.500000  0.250000  1
  V  V2  1  0.349623  0.000000  0.667036  1
  V  V3  1  0.650377  0.000000  0.332964  1
  V  V4  1  0.349623  0.000000  0.832964  1
  V  V5  1  0.650377  0.000000  0.167036  1
  V  V6  1  0.500000  0.259406  0.500000  1
  V  V7  1  0.500000  0.259406  0.000000  1
  V  V8  1  0.500000  0.740594  0.500000  1
  V  V9  1  0.500000  0.740594  0.000000  1
  Cl  Cl10  1  0.651975  0.000000  0.579622  1
  Cl  Cl11  1  0.348025  0.000000  0.420378  1
  Cl  Cl12  1  0.651975  0.000000  0.920378  1
  Cl  Cl13  1  0.348025  0.000000  0.079622  1
  Cl  Cl14  1  0.203252  0.757628  0.586600  1
  Cl  Cl15  1  0.796748  0.757628  0.413400  1
  Cl  Cl16  1  0.203252  0.757628  0.913400  1
  Cl  Cl17  1  0.796748  0.757628  0.086600  1
  Cl  Cl18  1  0.796748  0.242372  0.413400  1
  Cl  Cl19  1  0.203252  0.242372  0.586600  1
  Cl  Cl20  1  0.796748  0.242372  0.086600  1
  Cl  Cl21  1  0.203252  0.242372  0.913400  1
  Cl  Cl22  1  0.332265  0.500000  0.425924  1
  Cl  Cl23  1  0.667735  0.500000  0.574076  1
  Cl  Cl24  1  0.332265  0.500000  0.074076  1
  Cl  Cl25  1  0.667735  0.500000  0.925924  1
  Cl  Cl26  1  0.048850  0.000000  0.750000  1
  Cl  Cl27  1  0.951150  0.000000  0.250000  1
  Cl  Cl28  1  0.508679  0.234922  0.750000  1
  Cl  Cl29  1  0.491321  0.234922  0.250000  1
  Cl  Cl30  1  0.491321  0.765078  0.250000  1
  Cl  Cl31  1  0.508679  0.765078  0.750000  1
