# generated using pymatgen
data_Nd12B3CCl12
_symmetry_space_group_name_H-M   'P 1'
_cell_length_a   9.76388958
_cell_length_b   9.76388950
_cell_length_c   9.76389002
_cell_angle_alpha   109.31098216
_cell_angle_beta   109.31097862
_cell_angle_gamma   109.31098251
_symmetry_Int_Tables_number   1
_chemical_formula_structural   Nd12B3CCl12
_chemical_formula_sum   'Nd12 B3 C1 Cl12'
_cell_volume   720.77007813
_cell_formula_units_Z   1
loop_
 _symmetry_equiv_pos_site_id
 _symmetry_equiv_pos_as_xyz
  1  'x, y, z'
loop_
 _atom_site_type_symbol
 _atom_site_label
 _atom_site_symmetry_multiplicity
 _atom_site_fract_x
 _atom_site_fract_y
 _atom_site_fract_z
 _atom_site_occupancy
  Nd  Nd0  1  0.469615  0.481390  0.237199  1
  Nd  Nd1  1  0.750000  0.237928  0.262072  1
  Nd  Nd2  1  0.750000  0.012797  0.487203  1
  Nd  Nd3  1  0.237199  0.469615  0.481390  1
  Nd  Nd4  1  0.262072  0.750000  0.237928  1
  Nd  Nd5  1  0.030385  0.262801  0.018610  1
  Nd  Nd6  1  0.018610  0.030385  0.262801  1
  Nd  Nd7  1  0.487203  0.750000  0.012797  1
  Nd  Nd8  1  0.481390  0.237199  0.469615  1
  Nd  Nd9  1  0.012797  0.487203  0.750000  1
  Nd  Nd10  1  0.262801  0.018610  0.030385  1
  Nd  Nd11  1  0.237928  0.262072  0.750000  1
  B  B12  1  0.499148  0.000852  0.250000  1
  B  B13  1  0.000852  0.250000  0.499148  1
  B  B14  1  0.250000  0.499148  0.000852  1
  C  C15  1  0.250000  0.250000  0.250000  1
  Cl  Cl16  1  0.250000  0.755335  0.744665  1
  Cl  Cl17  1  0.510289  0.504966  0.753151  1
  Cl  Cl18  1  0.989711  0.746849  0.995034  1
  Cl  Cl19  1  0.744665  0.250000  0.755335  1
  Cl  Cl20  1  0.995034  0.989711  0.746849  1
  Cl  Cl21  1  0.250000  0.995206  0.504794  1
  Cl  Cl22  1  0.753151  0.510289  0.504966  1
  Cl  Cl23  1  0.504794  0.250000  0.995206  1
  Cl  Cl24  1  0.755335  0.744665  0.250000  1
  Cl  Cl25  1  0.746849  0.995034  0.989711  1
  Cl  Cl26  1  0.995206  0.504794  0.250000  1
  Cl  Cl27  1  0.504966  0.753151  0.510289  1
