# generated using pymatgen
data_Ta5NbOs4
_symmetry_space_group_name_H-M   'P 1'
_cell_length_a   9.90798614
_cell_length_b   9.90798579
_cell_length_c   5.11153900
_cell_angle_alpha   90.00145819
_cell_angle_beta   90.00145850
_cell_angle_gamma   89.82349767
_symmetry_Int_Tables_number   1
_chemical_formula_structural   Ta5NbOs4
_chemical_formula_sum   'Ta15 Nb3 Os12'
_cell_volume   501.78812985
_cell_formula_units_Z   3
loop_
 _symmetry_equiv_pos_site_id
 _symmetry_equiv_pos_as_xyz
  1  'x, y, z'
loop_
 _atom_site_type_symbol
 _atom_site_label
 _atom_site_symmetry_multiplicity
 _atom_site_fract_x
 _atom_site_fract_y
 _atom_site_fract_z
 _atom_site_occupancy
  Ta  Ta0  1  0.897114  0.897114  0.503574  1
  Ta  Ta1  1  0.038580  0.369933  0.501880  1
  Ta  Ta2  1  0.961714  0.629229  0.501681  1
  Ta  Ta3  1  0.534820  0.130767  0.002773  1
  Ta  Ta4  1  0.464992  0.869251  0.002800  1
  Ta  Ta5  1  0.629229  0.961714  0.501681  1
  Ta  Ta6  1  0.369933  0.038580  0.501880  1
  Ta  Ta7  1  0.869251  0.464992  0.002800  1
  Ta  Ta8  1  0.130767  0.534820  0.002773  1
  Ta  Ta9  1  0.818390  0.181355  0.751328  1
  Ta  Ta10  1  0.181355  0.818390  0.751328  1
  Ta  Ta11  1  0.681407  0.681407  0.749823  1
  Ta  Ta12  1  0.319020  0.319020  0.750106  1
  Ta  Ta13  1  0.181309  0.818316  0.251077  1
  Ta  Ta14  1  0.818316  0.181309  0.251077  1
  Nb  Nb15  1  0.103416  0.103416  0.503399  1
  Nb  Nb16  1  0.601551  0.398659  0.994079  1
  Nb  Nb17  1  0.398659  0.601551  0.994079  1
  Os  Os18  1  0.500076  0.500076  0.475084  1
  Os  Os19  1  0.999981  0.999981  0.000343  1
  Os  Os20  1  0.758361  0.433647  0.499709  1
  Os  Os21  1  0.241640  0.566158  0.499578  1
  Os  Os22  1  0.260072  0.069361  0.002281  1
  Os  Os23  1  0.739970  0.930626  0.002259  1
  Os  Os24  1  0.566158  0.241640  0.499578  1
  Os  Os25  1  0.433647  0.758361  0.499709  1
  Os  Os26  1  0.930626  0.739970  0.002259  1
  Os  Os27  1  0.069361  0.260072  0.002281  1
  Os  Os28  1  0.318734  0.318734  0.249306  1
  Os  Os29  1  0.681551  0.681551  0.249476  1
