# generated using pymatgen
data_Pr7NdSi12Ir3Rh
_symmetry_space_group_name_H-M   'P 1'
_cell_length_a   8.27249800
_cell_length_b   8.27309830
_cell_length_c   8.54947401
_cell_angle_alpha   89.99629717
_cell_angle_beta   90.00000000
_cell_angle_gamma   119.99760773
_symmetry_Int_Tables_number   1
_chemical_formula_structural   Pr7NdSi12Ir3Rh
_chemical_formula_sum   'Pr7 Nd1 Si12 Ir3 Rh1'
_cell_volume   506.74019113
_cell_formula_units_Z   1
loop_
 _symmetry_equiv_pos_site_id
 _symmetry_equiv_pos_as_xyz
  1  'x, y, z'
loop_
 _atom_site_type_symbol
 _atom_site_label
 _atom_site_symmetry_multiplicity
 _atom_site_fract_x
 _atom_site_fract_y
 _atom_site_fract_z
 _atom_site_occupancy
  Pr  Pr0  1  0.000000  0.000001  0.750448  1
  Pr  Pr1  1  0.000009  0.000018  0.249559  1
  Pr  Pr2  1  0.499307  0.500707  0.749963  1
  Pr  Pr3  1  0.499316  0.998634  0.749966  1
  Pr  Pr4  1  0.001399  0.500707  0.749963  1
  Pr  Pr5  1  0.500964  0.499015  0.250032  1
  Pr  Pr6  1  0.998053  0.499015  0.250032  1
  Nd  Nd7  1  0.500959  0.001916  0.250070  1
  Si  Si8  1  0.833138  0.166402  0.000231  1
  Si  Si9  1  0.833501  0.667001  0.999484  1
  Si  Si10  1  0.333264  0.166402  0.000231  1
  Si  Si11  1  0.832707  0.166837  0.499764  1
  Si  Si12  1  0.833069  0.666138  0.500508  1
  Si  Si13  1  0.334130  0.166837  0.499764  1
  Si  Si14  1  0.167257  0.833190  0.498963  1
  Si  Si15  1  0.665935  0.833190  0.498963  1
  Si  Si16  1  0.166903  0.333806  0.499647  1
  Si  Si17  1  0.167099  0.833361  0.000979  1
  Si  Si18  1  0.666263  0.833361  0.000979  1
  Si  Si19  1  0.166724  0.333449  0.000291  1
  Ir  Ir20  1  0.666543  0.333084  0.998621  1
  Ir  Ir21  1  0.666544  0.333086  0.501369  1
  Ir  Ir22  1  0.333471  0.666944  0.497134  1
  Rh  Rh23  1  0.333449  0.666899  0.003040  1
