# generated using pymatgen
data_Zr4Al5CuTc2
_symmetry_space_group_name_H-M   'P 1'
_cell_length_a   5.30135300
_cell_length_b   5.21387473
_cell_length_c   8.65830700
_cell_angle_alpha   90.00000000
_cell_angle_beta   90.00000000
_cell_angle_gamma   120.55656136
_symmetry_Int_Tables_number   1
_chemical_formula_structural   Zr4Al5CuTc2
_chemical_formula_sum   'Zr4 Al5 Cu1 Tc2'
_cell_volume   206.08570129
_cell_formula_units_Z   1
loop_
 _symmetry_equiv_pos_site_id
 _symmetry_equiv_pos_as_xyz
  1  'x, y, z'
loop_
 _atom_site_type_symbol
 _atom_site_label
 _atom_site_symmetry_multiplicity
 _atom_site_fract_x
 _atom_site_fract_y
 _atom_site_fract_z
 _atom_site_occupancy
  Zr  Zr0  1  0.335580  0.671162  0.431067  1
  Zr  Zr1  1  0.664128  0.328255  0.940888  1
  Zr  Zr2  1  0.664128  0.328255  0.559112  1
  Zr  Zr3  1  0.335580  0.671162  0.068933  1
  Al  Al4  1  0.649078  0.813311  0.750000  1
  Al  Al5  1  0.008964  0.017929  0.996590  1
  Al  Al6  1  0.008964  0.017929  0.503410  1
  Al  Al7  1  0.831735  0.663470  0.250000  1
  Al  Al8  1  0.164234  0.813311  0.750000  1
  Cu  Cu9  1  0.165414  0.330826  0.750000  1
  Tc  Tc10  1  0.834097  0.172196  0.250000  1
  Tc  Tc11  1  0.338097  0.172196  0.250000  1
