# generated using pymatgen
data_Er3Zr7Co7Si20Ir
_symmetry_space_group_name_H-M   'P 1'
_cell_length_a   12.19083653
_cell_length_b   12.19055905
_cell_length_c   3.99911600
_cell_angle_alpha   90.00000000
_cell_angle_beta   90.00000000
_cell_angle_gamma   89.87259966
_symmetry_Int_Tables_number   1
_chemical_formula_structural   Er3Zr7Co7Si20Ir
_chemical_formula_sum   'Er3 Zr7 Co7 Si20 Ir1'
_cell_volume   594.31960709
_cell_formula_units_Z   1
loop_
 _symmetry_equiv_pos_site_id
 _symmetry_equiv_pos_as_xyz
  1  'x, y, z'
loop_
 _atom_site_type_symbol
 _atom_site_label
 _atom_site_symmetry_multiplicity
 _atom_site_fract_x
 _atom_site_fract_y
 _atom_site_fract_z
 _atom_site_occupancy
  Er  Er0  1  0.114286  0.611034  0.500000  1
  Er  Er1  1  0.386888  0.114422  0.500000  1
  Er  Er2  1  0.612927  0.887191  0.500000  1
  Zr  Zr3  1  0.500092  0.500248  0.000000  1
  Zr  Zr4  1  0.000864  0.006108  0.000000  1
  Zr  Zr5  1  0.679881  0.179200  0.500000  1
  Zr  Zr6  1  0.326995  0.823165  0.500000  1
  Zr  Zr7  1  0.175779  0.321068  0.500000  1
  Zr  Zr8  1  0.817122  0.673318  0.500000  1
  Zr  Zr9  1  0.884416  0.384028  0.500000  1
  Co  Co10  1  0.740520  0.524167  0.000000  1
  Co  Co11  1  0.255982  0.475537  0.000000  1
  Co  Co12  1  0.244461  0.977202  0.000000  1
  Co  Co13  1  0.759137  0.028382  0.000000  1
  Co  Co14  1  0.474739  0.742417  0.000000  1
  Co  Co15  1  0.526263  0.258902  0.000000  1
  Co  Co16  1  0.025124  0.243759  0.000000  1
  Si  Si17  1  0.570869  0.071274  0.000000  1
  Si  Si18  1  0.432335  0.932134  0.000000  1
  Si  Si19  1  0.067239  0.428305  0.000000  1
  Si  Si20  1  0.925682  0.559837  0.000000  1
  Si  Si21  1  0.653596  0.696065  0.000000  1
  Si  Si22  1  0.344437  0.304532  0.000000  1
  Si  Si23  1  0.165957  0.803164  0.000000  1
  Si  Si24  1  0.845596  0.200315  0.000000  1
  Si  Si25  1  0.305417  0.655239  0.000000  1
  Si  Si26  1  0.698392  0.344862  0.000000  1
  Si  Si27  1  0.197447  0.156721  0.000000  1
  Si  Si28  1  0.795788  0.845226  0.000000  1
  Si  Si29  1  0.663398  0.497514  0.500000  1
  Si  Si30  1  0.337075  0.489270  0.500000  1
  Si  Si31  1  0.164224  0.990930  0.500000  1
  Si  Si32  1  0.836958  0.002984  0.500000  1
  Si  Si33  1  0.497420  0.663817  0.500000  1
  Si  Si34  1  0.504678  0.337247  0.500000  1
  Si  Si35  1  0.999520  0.167687  0.500000  1
  Si  Si36  1  0.991820  0.849162  0.500000  1
  Ir  Ir37  1  0.976672  0.753563  0.000000  1
