# generated using pymatgen
data_Rb8PaTa(SbBr12)2
_symmetry_space_group_name_H-M   'P 1'
_cell_length_a   13.72700713
_cell_length_b   13.72700735
_cell_length_c   13.72700788
_cell_angle_alpha   131.75267519
_cell_angle_beta   131.75267160
_cell_angle_gamma   70.61993705
_symmetry_Int_Tables_number   1
_chemical_formula_structural   Rb8PaTa(SbBr12)2
_chemical_formula_sum   'Rb8 Pa1 Ta1 Sb2 Br24'
_cell_volume   1410.33581169
_cell_formula_units_Z   1
loop_
 _symmetry_equiv_pos_site_id
 _symmetry_equiv_pos_as_xyz
  1  'x, y, z'
loop_
 _atom_site_type_symbol
 _atom_site_label
 _atom_site_symmetry_multiplicity
 _atom_site_fract_x
 _atom_site_fract_y
 _atom_site_fract_z
 _atom_site_occupancy
  Rb  Rb0  1  0.372545  0.329880  0.455294  1
  Rb  Rb1  1  0.082749  0.627455  0.957335  1
  Rb  Rb2  1  0.874585  0.917251  0.544706  1
  Rb  Rb3  1  0.086637  0.132372  0.465256  1
  Rb  Rb4  1  0.378620  0.913363  0.045735  1
  Rb  Rb5  1  0.667115  0.621380  0.534744  1
  Rb  Rb6  1  0.670120  0.125415  0.042665  1
  Rb  Rb7  1  0.867628  0.332885  0.954265  1
  Pa  Pa8  1  0.250000  0.750000  0.500000  1
  Ta  Ta9  1  0.500000  0.500000  0.000000  1
  Sb  Sb10  1  0.750000  0.250000  0.500000  1
  Sb  Sb11  1  0.000000  0.000000  0.000000  1
  Br  Br12  1  0.007897  0.777418  0.287470  1
  Br  Br13  1  0.018787  0.255620  0.267382  1
  Br  Br14  1  0.279572  0.992103  0.769521  1
  Br  Br15  1  0.005277  0.229419  0.726543  1
  Br  Br16  1  0.128850  0.628850  0.500000  1
  Br  Br17  1  0.275287  0.522818  0.795570  1
  Br  Br18  1  0.489949  0.720428  0.712530  1
  Br  Br19  1  0.502876  0.278733  0.273457  1
  Br  Br20  1  0.477182  0.272752  0.752470  1
  Br  Br21  1  0.612963  0.612963  0.000000  1
  Br  Br22  1  0.520283  0.724713  0.247530  1
  Br  Br23  1  0.126480  0.126480  0.000000  1
  Br  Br24  1  0.873520  0.873520  0.000000  1
  Br  Br25  1  0.988238  0.751405  0.732618  1
  Br  Br26  1  0.744380  0.011762  0.763168  1
  Br  Br27  1  0.248595  0.981213  0.236832  1
  Br  Br28  1  0.727248  0.479717  0.204430  1
  Br  Br29  1  0.222582  0.510051  0.230479  1
  Br  Br30  1  0.371150  0.871150  0.500000  1
  Br  Br31  1  0.876674  0.376674  0.500000  1
  Br  Br32  1  0.387037  0.387037  0.000000  1
  Br  Br33  1  0.623326  0.123326  0.500000  1
  Br  Br34  1  0.770581  0.497124  0.775858  1
  Br  Br35  1  0.721267  0.994723  0.224142  1
