# generated using pymatgen
data_Hf4Nb2Al16Ir5Pt2
_symmetry_space_group_name_H-M   'P 1'
_cell_length_a   8.66403276
_cell_length_b   8.70694824
_cell_length_c   8.70694848
_cell_angle_alpha   59.67417853
_cell_angle_beta   60.16291268
_cell_angle_gamma   60.16291290
_symmetry_Int_Tables_number   1
_chemical_formula_structural   Hf4Nb2Al16Ir5Pt2
_chemical_formula_sum   'Hf4 Nb2 Al16 Ir5 Pt2'
_cell_volume   464.42548195
_cell_formula_units_Z   1
loop_
 _symmetry_equiv_pos_site_id
 _symmetry_equiv_pos_as_xyz
  1  'x, y, z'
loop_
 _atom_site_type_symbol
 _atom_site_label
 _atom_site_symmetry_multiplicity
 _atom_site_fract_x
 _atom_site_fract_y
 _atom_site_fract_z
 _atom_site_occupancy
  Hf  Hf0  1  0.317259  0.682740  0.317259  1
  Hf  Hf1  1  0.317259  0.317259  0.682740  1
  Hf  Hf2  1  0.682740  0.317259  0.682740  1
  Hf  Hf3  1  0.682740  0.682740  0.317259  1
  Nb  Nb4  1  0.680317  0.319682  0.319682  1
  Nb  Nb5  1  0.319682  0.680317  0.680317  1
  Al  Al6  1  0.341529  0.335653  0.335653  1
  Al  Al7  1  0.335653  0.341529  0.987164  1
  Al  Al8  1  0.987164  0.335653  0.335653  1
  Al  Al9  1  0.335653  0.987164  0.341529  1
  Al  Al10  1  0.658471  0.664347  0.664347  1
  Al  Al11  1  0.664347  0.658471  0.012836  1
  Al  Al12  1  0.664347  0.012836  0.658471  1
  Al  Al13  1  0.012836  0.664347  0.664347  1
  Al  Al14  1  0.113465  0.122485  0.122485  1
  Al  Al15  1  0.122485  0.113465  0.641567  1
  Al  Al16  1  0.641567  0.122485  0.122485  1
  Al  Al17  1  0.122485  0.641567  0.113465  1
  Al  Al18  1  0.886534  0.877514  0.877514  1
  Al  Al19  1  0.877514  0.886534  0.358436  1
  Al  Al20  1  0.877514  0.358436  0.886534  1
  Al  Al21  1  0.358436  0.877514  0.877514  1
  Ir  Ir22  1  0.000000  0.000000  0.000000  1
  Ir  Ir23  1  0.000000  0.500000  0.000000  1
  Ir  Ir24  1  0.000000  0.000000  0.500000  1
  Ir  Ir25  1  0.500000  0.000000  0.500000  1
  Ir  Ir26  1  0.500000  0.500000  0.000000  1
  Pt  Pt27  1  0.500000  0.000000  0.000000  1
  Pt  Pt28  1  0.000000  0.500000  0.500000  1
