# generated using pymatgen
data_YPaS6
_symmetry_space_group_name_H-M   'P 1'
_cell_length_a   4.00886500
_cell_length_b   5.43584325
_cell_length_c   9.46419764
_cell_angle_alpha   82.67816952
_cell_angle_beta   90.00000000
_cell_angle_gamma   90.00000000
_symmetry_Int_Tables_number   1
_chemical_formula_structural   YPaS6
_chemical_formula_sum   'Y1 Pa1 S6'
_cell_volume   204.55796031
_cell_formula_units_Z   1
loop_
 _symmetry_equiv_pos_site_id
 _symmetry_equiv_pos_as_xyz
  1  'x, y, z'
loop_
 _atom_site_type_symbol
 _atom_site_label
 _atom_site_symmetry_multiplicity
 _atom_site_fract_x
 _atom_site_fract_y
 _atom_site_fract_z
 _atom_site_occupancy
  Y  Y0  1  0.250000  0.716904  0.149199  1
  Pa  Pa1  1  0.750000  0.280107  0.863934  1
  S  S2  1  0.250000  0.128881  0.690828  1
  S  S3  1  0.750000  0.872935  0.313902  1
  S  S4  1  0.750000  0.487151  0.313952  1
  S  S5  1  0.250000  0.508958  0.691180  1
  S  S6  1  0.750000  0.766562  0.925349  1
  S  S7  1  0.250000  0.238503  0.051656  1
