# generated using pymatgen
data_DyEr2Co8P6W
_symmetry_space_group_name_H-M   'P 1'
_cell_length_a   3.71179100
_cell_length_b   10.53139600
_cell_length_c   12.21670300
_cell_angle_alpha   90.00000000
_cell_angle_beta   90.00000000
_cell_angle_gamma   90.00000000
_symmetry_Int_Tables_number   1
_chemical_formula_structural   DyEr2Co8P6W
_chemical_formula_sum   'Dy2 Er4 Co16 P12 W2'
_cell_volume   477.55508482
_cell_formula_units_Z   2
loop_
 _symmetry_equiv_pos_site_id
 _symmetry_equiv_pos_as_xyz
  1  'x, y, z'
loop_
 _atom_site_type_symbol
 _atom_site_label
 _atom_site_symmetry_multiplicity
 _atom_site_fract_x
 _atom_site_fract_y
 _atom_site_fract_z
 _atom_site_occupancy
  Dy  Dy0  1  0.750000  0.250000  0.475040  1
  Dy  Dy1  1  0.250000  0.750000  0.524960  1
  Er  Er2  1  0.250000  0.930351  0.795251  1
  Er  Er3  1  0.250000  0.569649  0.795251  1
  Er  Er4  1  0.750000  0.069649  0.204749  1
  Er  Er5  1  0.750000  0.430351  0.204749  1
  Co  Co6  1  0.250000  0.250000  0.298211  1
  Co  Co7  1  0.750000  0.750000  0.701789  1
  Co  Co8  1  0.750000  0.250000  0.013017  1
  Co  Co9  1  0.250000  0.750000  0.986983  1
  Co  Co10  1  0.250000  0.417322  0.009746  1
  Co  Co11  1  0.250000  0.082678  0.009746  1
  Co  Co12  1  0.750000  0.582678  0.990254  1
  Co  Co13  1  0.750000  0.917322  0.990254  1
  Co  Co14  1  0.250000  0.454068  0.568705  1
  Co  Co15  1  0.250000  0.045932  0.568705  1
  Co  Co16  1  0.750000  0.545932  0.431295  1
  Co  Co17  1  0.750000  0.954068  0.431295  1
  Co  Co18  1  0.250000  0.872176  0.292495  1
  Co  Co19  1  0.250000  0.627824  0.292495  1
  Co  Co20  1  0.750000  0.127824  0.707505  1
  Co  Co21  1  0.750000  0.372176  0.707505  1
  P  P22  1  0.250000  0.250000  0.119750  1
  P  P23  1  0.750000  0.750000  0.880250  1
  P  P24  1  0.250000  0.250000  0.649513  1
  P  P25  1  0.750000  0.750000  0.350487  1
  P  P26  1  0.250000  0.438608  0.383572  1
  P  P27  1  0.250000  0.061392  0.383572  1
  P  P28  1  0.750000  0.561392  0.616428  1
  P  P29  1  0.750000  0.938608  0.616428  1
  P  P30  1  0.250000  0.906423  0.107715  1
  P  P31  1  0.250000  0.593577  0.107715  1
  P  P32  1  0.750000  0.093577  0.892285  1
  P  P33  1  0.750000  0.406423  0.892285  1
  W  W34  1  0.250000  0.250000  0.843410  1
  W  W35  1  0.750000  0.750000  0.156590  1
