# generated using pymatgen
data_Hf3ZnPd2C
_symmetry_space_group_name_H-M   'P 1'
_cell_length_a   8.59099706
_cell_length_b   8.59099695
_cell_length_c   8.59099800
_cell_angle_alpha   60.00000366
_cell_angle_beta   60.00000407
_cell_angle_gamma   60.00000453
_symmetry_Int_Tables_number   1
_chemical_formula_structural   Hf3ZnPd2C
_chemical_formula_sum   'Hf12 Zn4 Pd8 C4'
_cell_volume   448.34857680
_cell_formula_units_Z   4
loop_
 _symmetry_equiv_pos_site_id
 _symmetry_equiv_pos_as_xyz
  1  'x, y, z'
loop_
 _atom_site_type_symbol
 _atom_site_label
 _atom_site_symmetry_multiplicity
 _atom_site_fract_x
 _atom_site_fract_y
 _atom_site_fract_z
 _atom_site_occupancy
  Hf  Hf0  1  0.440589  0.440589  0.059411  1
  Hf  Hf1  1  0.059411  0.440589  0.059411  1
  Hf  Hf2  1  0.440589  0.059411  0.059411  1
  Hf  Hf3  1  0.059411  0.059411  0.440589  1
  Hf  Hf4  1  0.440589  0.059411  0.440589  1
  Hf  Hf5  1  0.059411  0.440589  0.440589  1
  Hf  Hf6  1  0.809411  0.809411  0.190589  1
  Hf  Hf7  1  0.190589  0.809411  0.190589  1
  Hf  Hf8  1  0.809411  0.190589  0.190589  1
  Hf  Hf9  1  0.190589  0.190589  0.809411  1
  Hf  Hf10  1  0.809411  0.190589  0.809411  1
  Hf  Hf11  1  0.190589  0.809411  0.809411  1
  Zn  Zn12  1  0.625000  0.625000  0.125000  1
  Zn  Zn13  1  0.625000  0.125000  0.625000  1
  Zn  Zn14  1  0.125000  0.625000  0.625000  1
  Zn  Zn15  1  0.625000  0.625000  0.625000  1
  Pd  Pd16  1  0.837020  0.837020  0.488940  1
  Pd  Pd17  1  0.837020  0.488940  0.837020  1
  Pd  Pd18  1  0.488940  0.837020  0.837020  1
  Pd  Pd19  1  0.837020  0.837020  0.837020  1
  Pd  Pd20  1  0.412980  0.412980  0.761060  1
  Pd  Pd21  1  0.412980  0.761060  0.412980  1
  Pd  Pd22  1  0.761060  0.412980  0.412980  1
  Pd  Pd23  1  0.412980  0.412980  0.412980  1
  C  C24  1  0.125000  0.125000  0.625000  1
  C  C25  1  0.125000  0.625000  0.125000  1
  C  C26  1  0.625000  0.125000  0.125000  1
  C  C27  1  0.125000  0.125000  0.125000  1
