# generated using pymatgen
data_LaFeP3N7
_symmetry_space_group_name_H-M   'P 1'
_cell_length_a   7.61224751
_cell_length_b   7.61224856
_cell_length_c   5.16674600
_cell_angle_alpha   82.41156865
_cell_angle_beta   82.41156001
_cell_angle_gamma   73.00169926
_symmetry_Int_Tables_number   1
_chemical_formula_structural   LaFeP3N7
_chemical_formula_sum   'La2 Fe2 P6 N14'
_cell_volume   282.42447339
_cell_formula_units_Z   2
loop_
 _symmetry_equiv_pos_site_id
 _symmetry_equiv_pos_as_xyz
  1  'x, y, z'
loop_
 _atom_site_type_symbol
 _atom_site_label
 _atom_site_symmetry_multiplicity
 _atom_site_fract_x
 _atom_site_fract_y
 _atom_site_fract_z
 _atom_site_occupancy
  La  La0  1  0.779215  0.220785  0.250000  1
  La  La1  1  0.253626  0.746374  0.750000  1
  Fe  Fe2  1  0.279742  0.455402  0.289389  1
  Fe  Fe3  1  0.544598  0.720258  0.210611  1
  P  P4  1  0.098284  0.263977  0.712699  1
  P  P5  1  0.736023  0.901716  0.787301  1
  P  P6  1  0.902158  0.748535  0.294370  1
  P  P7  1  0.251465  0.097842  0.205630  1
  P  P8  1  0.461860  0.277900  0.804590  1
  P  P9  1  0.722100  0.538140  0.695410  1
  N  N10  1  0.265045  0.369364  0.669502  1
  N  N11  1  0.630636  0.734955  0.830498  1
  N  N12  1  0.776128  0.597029  0.383684  1
  N  N13  1  0.402971  0.223872  0.116316  1
  N  N14  1  0.897152  0.390517  0.824289  1
  N  N15  1  0.609483  0.102848  0.675711  1
  N  N16  1  0.099507  0.657357  0.158306  1
  N  N17  1  0.342643  0.900493  0.341694  1
  N  N18  1  0.910541  0.851914  0.557622  1
  N  N19  1  0.148086  0.089459  0.942378  1
  N  N20  1  0.466900  0.533100  0.250000  1
  N  N21  1  0.551666  0.448334  0.750000  1
  N  N22  1  0.786521  0.916351  0.082940  1
  N  N23  1  0.083649  0.213479  0.417060  1
