# generated using pymatgen
data_Nd2Al3Si2Pt3
_symmetry_space_group_name_H-M   'P 1'
_cell_length_a   8.45658106
_cell_length_b   8.45658161
_cell_length_c   8.45658177
_cell_angle_alpha   137.99365635
_cell_angle_beta   103.46071206
_cell_angle_gamma   91.38387504
_symmetry_Int_Tables_number   1
_chemical_formula_structural   Nd2Al3Si2Pt3
_chemical_formula_sum   'Nd4 Al6 Si4 Pt6'
_cell_volume   375.10945758
_cell_formula_units_Z   2
loop_
 _symmetry_equiv_pos_site_id
 _symmetry_equiv_pos_as_xyz
  1  'x, y, z'
loop_
 _atom_site_type_symbol
 _atom_site_label
 _atom_site_symmetry_multiplicity
 _atom_site_fract_x
 _atom_site_fract_y
 _atom_site_fract_z
 _atom_site_occupancy
  Nd  Nd0  1  0.870641  0.629028  0.241614  1
  Nd  Nd1  1  0.129359  0.370972  0.758386  1
  Nd  Nd2  1  0.387413  0.129028  0.258386  1
  Nd  Nd3  1  0.612587  0.870972  0.741614  1
  Al  Al4  1  0.500000  0.750000  0.250000  1
  Al  Al5  1  0.500000  0.250000  0.750000  1
  Al  Al6  1  0.238410  0.988410  0.750000  1
  Al  Al7  1  0.761590  0.511590  0.750000  1
  Al  Al8  1  0.761590  0.011590  0.250000  1
  Al  Al9  1  0.238410  0.488410  0.250000  1
  Si  Si10  1  0.034141  0.889235  0.144907  1
  Si  Si11  1  0.965859  0.110765  0.855093  1
  Si  Si12  1  0.744328  0.389235  0.355093  1
  Si  Si13  1  0.255672  0.610765  0.644907  1
  Pt  Pt14  1  0.000000  0.750000  0.750000  1
  Pt  Pt15  1  0.000000  0.250000  0.250000  1
  Pt  Pt16  1  0.240756  0.867953  0.372806  1
  Pt  Pt17  1  0.759244  0.132047  0.627194  1
  Pt  Pt18  1  0.495147  0.367953  0.127194  1
  Pt  Pt19  1  0.504853  0.632047  0.872806  1
