# generated using pymatgen
data_CaAsRhF12
_symmetry_space_group_name_H-M   'P 1'
_cell_length_a   11.30482181
_cell_length_b   5.74241579
_cell_length_c   5.76172100
_cell_angle_alpha   57.32826867
_cell_angle_beta   56.44103216
_cell_angle_gamma   56.71739883
_symmetry_Int_Tables_number   1
_chemical_formula_structural   CaAsRhF12
_chemical_formula_sum   'Ca1 As1 Rh1 F12'
_cell_volume   245.09286621
_cell_formula_units_Z   1
loop_
 _symmetry_equiv_pos_site_id
 _symmetry_equiv_pos_as_xyz
  1  'x, y, z'
loop_
 _atom_site_type_symbol
 _atom_site_label
 _atom_site_symmetry_multiplicity
 _atom_site_fract_x
 _atom_site_fract_y
 _atom_site_fract_z
 _atom_site_occupancy
  Ca  Ca0  1  0.741312  0.503200  0.509339  1
  As  As1  1  0.487905  0.013145  0.003193  1
  Rh  Rh2  1  0.009690  0.990770  0.995719  1
  F  F3  1  0.176006  0.111037  0.768502  1
  F  F4  1  0.661172  0.103005  0.793034  1
  F  F5  1  0.060114  0.774459  0.333716  1
  F  F6  1  0.553634  0.794076  0.310993  1
  F  F7  1  0.116856  0.659389  0.879032  1
  F  F8  1  0.607583  0.683770  0.894450  1
  F  F9  1  0.449880  0.204512  0.679384  1
  F  F10  1  0.940402  0.224754  0.663711  1
  F  F11  1  0.336037  0.893534  0.214312  1
  F  F12  1  0.828527  0.884267  0.226950  1
  F  F13  1  0.393726  0.322912  0.105996  1
  F  F14  1  0.887158  0.337171  0.121671  1
