# generated using pymatgen
data_Tb3Nb3(B2Ru5)2
_symmetry_space_group_name_H-M   'P 1'
_cell_length_a   9.61892870
_cell_length_b   9.61892883
_cell_length_c   3.13524600
_cell_angle_alpha   90.00000000
_cell_angle_beta   90.00000000
_cell_angle_gamma   89.60195765
_symmetry_Int_Tables_number   1
_chemical_formula_structural   Tb3Nb3(B2Ru5)2
_chemical_formula_sum   'Tb3 Nb3 B4 Ru10'
_cell_volume   290.07784438
_cell_formula_units_Z   1
loop_
 _symmetry_equiv_pos_site_id
 _symmetry_equiv_pos_as_xyz
  1  'x, y, z'
loop_
 _atom_site_type_symbol
 _atom_site_label
 _atom_site_symmetry_multiplicity
 _atom_site_fract_x
 _atom_site_fract_y
 _atom_site_fract_z
 _atom_site_occupancy
  Tb  Tb0  1  0.174475  0.825525  0.000000  1
  Tb  Tb1  1  0.324775  0.324207  0.000000  1
  Tb  Tb2  1  0.675793  0.675225  0.000000  1
  Nb  Nb3  1  0.497859  0.998554  0.000000  1
  Nb  Nb4  1  0.001446  0.502141  0.000000  1
  Nb  Nb5  1  0.824205  0.175795  0.000000  1
  B  B6  1  0.623860  0.376140  0.000000  1
  B  B7  1  0.380592  0.619408  0.000000  1
  B  B8  1  0.118789  0.123012  0.000000  1
  B  B9  1  0.876988  0.881211  0.000000  1
  Ru  Ru10  1  0.503932  0.496068  0.500000  1
  Ru  Ru11  1  0.990407  0.009593  0.500000  1
  Ru  Ru12  1  0.584712  0.213645  0.500000  1
  Ru  Ru13  1  0.430627  0.780442  0.500000  1
  Ru  Ru14  1  0.058715  0.279770  0.500000  1
  Ru  Ru15  1  0.928928  0.722245  0.500000  1
  Ru  Ru16  1  0.277755  0.071072  0.500000  1
  Ru  Ru17  1  0.720230  0.941285  0.500000  1
  Ru  Ru18  1  0.219558  0.569373  0.500000  1
  Ru  Ru19  1  0.786355  0.415288  0.500000  1
