# generated using pymatgen
data_Li4Ho3TmSi8
_symmetry_space_group_name_H-M   'P 1'
_cell_length_a   3.77686000
_cell_length_b   7.57277182
_cell_length_c   10.11453606
_cell_angle_alpha   90.02743367
_cell_angle_beta   90.00000000
_cell_angle_gamma   90.00000000
_symmetry_Int_Tables_number   1
_chemical_formula_structural   Li4Ho3TmSi8
_chemical_formula_sum   'Li4 Ho3 Tm1 Si8'
_cell_volume   289.28883668
_cell_formula_units_Z   1
loop_
 _symmetry_equiv_pos_site_id
 _symmetry_equiv_pos_as_xyz
  1  'x, y, z'
loop_
 _atom_site_type_symbol
 _atom_site_label
 _atom_site_symmetry_multiplicity
 _atom_site_fract_x
 _atom_site_fract_y
 _atom_site_fract_z
 _atom_site_occupancy
  Li  Li0  1  0.250000  0.990970  0.392496  1
  Li  Li1  1  0.750000  0.011831  0.607871  1
  Li  Li2  1  0.250000  0.488382  0.108516  1
  Li  Li3  1  0.750000  0.509806  0.892975  1
  Ho  Ho4  1  0.250000  0.137854  0.863170  1
  Ho  Ho5  1  0.750000  0.860215  0.136542  1
  Ho  Ho6  1  0.250000  0.639076  0.636154  1
  Tm  Tm7  1  0.750000  0.362542  0.363122  1
  Si  Si8  1  0.750000  0.266351  0.067662  1
  Si  Si9  1  0.250000  0.732106  0.932790  1
  Si  Si10  1  0.750000  0.767636  0.432636  1
  Si  Si11  1  0.250000  0.235013  0.565876  1
  Si  Si12  1  0.750000  0.842489  0.819376  1
  Si  Si13  1  0.250000  0.155757  0.180690  1
  Si  Si14  1  0.750000  0.344627  0.679849  1
  Si  Si15  1  0.250000  0.655346  0.320276  1
