# generated using pymatgen
data_La2GaRu2
_symmetry_space_group_name_H-M   'P 1'
_cell_length_a   5.99830605
_cell_length_b   5.99830630
_cell_length_c   7.05762200
_cell_angle_alpha   90.00000000
_cell_angle_beta   90.00000000
_cell_angle_gamma   119.25120421
_symmetry_Int_Tables_number   1
_chemical_formula_structural   La2GaRu2
_chemical_formula_sum   'La4 Ga2 Ru4'
_cell_volume   221.55114065
_cell_formula_units_Z   2
loop_
 _symmetry_equiv_pos_site_id
 _symmetry_equiv_pos_as_xyz
  1  'x, y, z'
loop_
 _atom_site_type_symbol
 _atom_site_label
 _atom_site_symmetry_multiplicity
 _atom_site_fract_x
 _atom_site_fract_y
 _atom_site_fract_z
 _atom_site_occupancy
  La  La0  1  0.341448  0.658552  0.082343  1
  La  La1  1  0.658552  0.341448  0.917657  1
  La  La2  1  0.158552  0.841448  0.582343  1
  La  La3  1  0.841448  0.158552  0.417657  1
  Ga  Ga4  1  0.000000  0.000000  0.000000  1
  Ga  Ga5  1  0.500000  0.500000  0.500000  1
  Ru  Ru6  1  0.854032  0.645968  0.250000  1
  Ru  Ru7  1  0.645968  0.854032  0.750000  1
  Ru  Ru8  1  0.145968  0.354032  0.750000  1
  Ru  Ru9  1  0.354032  0.145968  0.250000  1
