# generated using pymatgen
data_WF17
_symmetry_space_group_name_H-M   'P 1'
_cell_length_a   8.78360768
_cell_length_b   8.51649780
_cell_length_c   10.07598634
_cell_angle_alpha   82.86015683
_cell_angle_beta   87.53187061
_cell_angle_gamma   68.19476846
_symmetry_Int_Tables_number   1
_chemical_formula_structural   WF17
_chemical_formula_sum   'W2 F34'
_cell_volume   694.38084784
_cell_formula_units_Z   2
loop_
 _symmetry_equiv_pos_site_id
 _symmetry_equiv_pos_as_xyz
  1  'x, y, z'
loop_
 _atom_site_type_symbol
 _atom_site_label
 _atom_site_symmetry_multiplicity
 _atom_site_fract_x
 _atom_site_fract_y
 _atom_site_fract_z
 _atom_site_occupancy
  W  W0  1  0.867828  0.250392  0.760280  1
  W  W1  1  0.132172  0.749608  0.239720  1
  F  F2  1  0.608241  0.207468  0.476018  1
  F  F3  1  0.391759  0.792532  0.523982  1
  F  F4  1  0.814770  0.704412  0.728758  1
  F  F5  1  0.185230  0.295588  0.271242  1
  F  F6  1  0.085424  0.756437  0.861396  1
  F  F7  1  0.914576  0.243563  0.138604  1
  F  F8  1  0.562387  0.137520  0.369452  1
  F  F9  1  0.437613  0.862480  0.630548  1
  F  F10  1  0.650774  0.324102  0.697440  1
  F  F11  1  0.349226  0.675898  0.302560  1
  F  F12  1  0.936447  0.073275  0.651206  1
  F  F13  1  0.063553  0.926725  0.348794  1
  F  F14  1  0.916160  0.389410  0.618567  1
  F  F15  1  0.083840  0.610590  0.381433  1
  F  F16  1  0.848362  0.804972  0.615930  1
  F  F17  1  0.151638  0.195028  0.384070  1
  F  F18  1  0.805375  0.430763  0.866744  1
  F  F19  1  0.194625  0.569237  0.133256  1
  F  F20  1  0.211686  0.690545  0.767102  1
  F  F21  1  0.788314  0.309455  0.232898  1
  F  F22  1  0.919195  0.821916  0.169532  1
  F  F23  1  0.080805  0.178084  0.830468  1
  F  F24  1  0.815993  0.107980  0.897984  1
  F  F25  1  0.184007  0.892020  0.102016  1
  F  F26  1  0.487193  0.588143  0.986435  1
  F  F27  1  0.512807  0.411857  0.013565  1
  F  F28  1  0.451041  0.089636  0.870402  1
  F  F29  1  0.548959  0.910364  0.129598  1
  F  F30  1  0.294451  0.250239  0.609288  1
  F  F31  1  0.705549  0.749761  0.390712  1
  F  F32  1  0.260180  0.396692  0.677578  1
  F  F33  1  0.739820  0.603308  0.322422  1
  F  F34  1  0.562238  0.930465  0.834114  1
  F  F35  1  0.437762  0.069535  0.165886  1
