# generated using pymatgen
data_K5HO2
_symmetry_space_group_name_H-M   'P 1'
_cell_length_a   4.10162500
_cell_length_b   8.10707496
_cell_length_c   10.17641657
_cell_angle_alpha   108.03093360
_cell_angle_beta   70.46641807
_cell_angle_gamma   107.76448546
_symmetry_Int_Tables_number   1
_chemical_formula_structural   K5HO2
_chemical_formula_sum   'K5 H1 O2'
_cell_volume   295.47671486
_cell_formula_units_Z   1
loop_
 _symmetry_equiv_pos_site_id
 _symmetry_equiv_pos_as_xyz
  1  'x, y, z'
loop_
 _atom_site_type_symbol
 _atom_site_label
 _atom_site_symmetry_multiplicity
 _atom_site_fract_x
 _atom_site_fract_y
 _atom_site_fract_z
 _atom_site_occupancy
  K  K0  1  0.232722  0.980437  0.972048  1
  K  K1  1  0.392514  0.436743  0.112013  1
  K  K2  1  0.903112  0.745942  0.598528  1
  K  K3  1  0.545842  0.160199  0.309331  1
  K  K4  1  0.037753  0.225402  0.784541  1
  H  H5  1  0.575526  0.016744  0.598781  1
  O  O6  1  0.800553  0.208782  0.056730  1
  O  O7  1  0.467934  0.980376  0.690147  1
