# generated using pymatgen
data_Dy2Pa2Ge6Ir5Rh2
_symmetry_space_group_name_H-M   'P 1'
_cell_length_a   7.33266999
_cell_length_b   7.29427073
_cell_length_c   7.33267030
_cell_angle_alpha   109.34957762
_cell_angle_beta   109.80226888
_cell_angle_gamma   109.47373688
_symmetry_Int_Tables_number   1
_chemical_formula_structural   Dy2Pa2Ge6Ir5Rh2
_chemical_formula_sum   'Dy2 Pa2 Ge6 Ir5 Rh2'
_cell_volume   301.11874003
_cell_formula_units_Z   1
loop_
 _symmetry_equiv_pos_site_id
 _symmetry_equiv_pos_as_xyz
  1  'x, y, z'
loop_
 _atom_site_type_symbol
 _atom_site_label
 _atom_site_symmetry_multiplicity
 _atom_site_fract_x
 _atom_site_fract_y
 _atom_site_fract_z
 _atom_site_occupancy
  Dy  Dy0  1  0.999939  0.499984  0.999942  1
  Dy  Dy1  1  0.500042  0.499984  0.500045  1
  Pa  Pa2  1  0.000049  0.000028  0.499968  1
  Pa  Pa3  1  0.500060  0.000028  0.999979  1
  Ge  Ge4  1  0.681943  0.677568  0.995625  1
  Ge  Ge5  1  0.317501  0.999898  0.317340  1
  Ge  Ge6  1  0.004612  0.322284  0.317672  1
  Ge  Ge7  1  0.318190  0.322899  0.004709  1
  Ge  Ge8  1  0.682558  0.999898  0.682397  1
  Ge  Ge9  1  0.995409  0.677738  0.682329  1
  Ir  Ir10  1  0.749317  0.244110  0.494794  1
  Ir  Ir11  1  0.749850  0.500065  0.249773  1
  Ir  Ir12  1  0.494897  0.244747  0.749851  1
  Ir  Ir13  1  0.250292  0.500065  0.750215  1
  Ir  Ir14  1  0.250371  0.755520  0.505149  1
  Rh  Rh15  1  0.504855  0.755055  0.250199  1
  Rh  Rh16  1  0.000117  0.000129  0.000012  1
