# generated using pymatgen
data_TiNb9Al12Os7
_symmetry_space_group_name_H-M   'P 1'
_cell_length_a   8.71164136
_cell_length_b   8.71164233
_cell_length_c   8.71164137
_cell_angle_alpha   60.01784464
_cell_angle_beta   60.01784906
_cell_angle_gamma   60.01784844
_symmetry_Int_Tables_number   1
_chemical_formula_structural   TiNb9Al12Os7
_chemical_formula_sum   'Ti1 Nb9 Al12 Os7'
_cell_volume   467.69281187
_cell_formula_units_Z   1
loop_
 _symmetry_equiv_pos_site_id
 _symmetry_equiv_pos_as_xyz
  1  'x, y, z'
loop_
 _atom_site_type_symbol
 _atom_site_label
 _atom_site_symmetry_multiplicity
 _atom_site_fract_x
 _atom_site_fract_y
 _atom_site_fract_z
 _atom_site_occupancy
  Ti  Ti0  1  0.879119  0.879119  0.879119  1
  Nb  Nb1  1  0.686007  0.686007  0.312462  1
  Nb  Nb2  1  0.319075  0.679623  0.319075  1
  Nb  Nb3  1  0.679623  0.319075  0.319075  1
  Nb  Nb4  1  0.319075  0.319075  0.679623  1
  Nb  Nb5  1  0.686007  0.312462  0.686007  1
  Nb  Nb6  1  0.312462  0.686007  0.686007  1
  Nb  Nb7  1  0.878823  0.878823  0.363139  1
  Nb  Nb8  1  0.878823  0.363139  0.878823  1
  Nb  Nb9  1  0.363139  0.878823  0.878823  1
  Al  Al10  1  0.119994  0.119994  0.635420  1
  Al  Al11  1  0.119994  0.635420  0.119994  1
  Al  Al12  1  0.635420  0.119994  0.119994  1
  Al  Al13  1  0.121506  0.121506  0.121506  1
  Al  Al14  1  0.661207  0.661207  0.021412  1
  Al  Al15  1  0.661207  0.021412  0.661207  1
  Al  Al16  1  0.021412  0.661207  0.661207  1
  Al  Al17  1  0.657381  0.657381  0.657381  1
  Al  Al18  1  0.339002  0.339002  0.983971  1
  Al  Al19  1  0.339002  0.983971  0.339002  1
  Al  Al20  1  0.983971  0.339002  0.339002  1
  Al  Al21  1  0.337236  0.337236  0.337236  1
  Os  Os22  1  0.999003  0.999003  0.999003  1
  Os  Os23  1  0.998508  0.998508  0.500566  1
  Os  Os24  1  0.502389  0.999152  0.502389  1
  Os  Os25  1  0.999152  0.502389  0.502389  1
  Os  Os26  1  0.502389  0.502389  0.999152  1
  Os  Os27  1  0.998508  0.500566  0.998508  1
  Os  Os28  1  0.500566  0.998508  0.998508  1
