# generated using pymatgen
data_Nb2CrCo(BRu2)2
_symmetry_space_group_name_H-M   'P 1'
_cell_length_a   9.21155000
_cell_length_b   9.21155000
_cell_length_c   2.95582200
_cell_angle_alpha   90.00000000
_cell_angle_beta   90.00000000
_cell_angle_gamma   90.00000000
_symmetry_Int_Tables_number   1
_chemical_formula_structural   Nb2CrCo(BRu2)2
_chemical_formula_sum   'Nb4 Cr2 Co2 B4 Ru8'
_cell_volume   250.80933969
_cell_formula_units_Z   2
loop_
 _symmetry_equiv_pos_site_id
 _symmetry_equiv_pos_as_xyz
  1  'x, y, z'
loop_
 _atom_site_type_symbol
 _atom_site_label
 _atom_site_symmetry_multiplicity
 _atom_site_fract_x
 _atom_site_fract_y
 _atom_site_fract_z
 _atom_site_occupancy
  Nb  Nb0  1  0.823248  0.676752  0.000000  1
  Nb  Nb1  1  0.176752  0.323248  0.000000  1
  Nb  Nb2  1  0.323248  0.823248  0.000000  1
  Nb  Nb3  1  0.676752  0.176752  0.000000  1
  Cr  Cr4  1  0.500000  0.500000  0.000000  1
  Cr  Cr5  1  0.000000  0.000000  0.000000  1
  Co  Co6  1  0.500000  0.000000  0.500000  1
  Co  Co7  1  0.000000  0.500000  0.500000  1
  B  B8  1  0.612860  0.887140  0.000000  1
  B  B9  1  0.387140  0.112860  0.000000  1
  B  B10  1  0.112860  0.612860  0.000000  1
  B  B11  1  0.887140  0.387140  0.000000  1
  Ru  Ru12  1  0.564334  0.721156  0.500000  1
  Ru  Ru13  1  0.435666  0.278844  0.500000  1
  Ru  Ru14  1  0.064334  0.778844  0.500000  1
  Ru  Ru15  1  0.935666  0.221156  0.500000  1
  Ru  Ru16  1  0.278844  0.564334  0.500000  1
  Ru  Ru17  1  0.721156  0.435666  0.500000  1
  Ru  Ru18  1  0.221156  0.064334  0.500000  1
  Ru  Ru19  1  0.778844  0.935666  0.500000  1
