# generated using pymatgen
data_Tb4PrMnRuO12
_symmetry_space_group_name_H-M   'P 1'
_cell_length_a   6.93716416
_cell_length_b   6.93716312
_cell_length_c   7.37024723
_cell_angle_alpha   74.62326338
_cell_angle_beta   74.62326477
_cell_angle_gamma   50.11754896
_symmetry_Int_Tables_number   1
_chemical_formula_structural   Tb4PrMnRuO12
_chemical_formula_sum   'Tb4 Pr1 Mn1 Ru1 O12'
_cell_volume   260.25215251
_cell_formula_units_Z   1
loop_
 _symmetry_equiv_pos_site_id
 _symmetry_equiv_pos_as_xyz
  1  'x, y, z'
loop_
 _atom_site_type_symbol
 _atom_site_label
 _atom_site_symmetry_multiplicity
 _atom_site_fract_x
 _atom_site_fract_y
 _atom_site_fract_z
 _atom_site_occupancy
  Tb  Tb0  1  0.309266  0.297061  0.358227  1
  Tb  Tb1  1  0.702939  0.690734  0.641773  1
  Tb  Tb2  1  0.696583  0.695856  0.163364  1
  Tb  Tb3  1  0.304144  0.303417  0.836636  1
  Pr  Pr4  1  0.998381  0.001619  0.500000  1
  Mn  Mn5  1  0.748467  0.251533  0.000000  1
  Ru  Ru6  1  0.241400  0.758600  0.000000  1
  O  O7  1  0.098571  0.587067  0.579473  1
  O  O8  1  0.992971  0.005331  0.174964  1
  O  O9  1  0.412933  0.901429  0.420527  1
  O  O10  1  0.502844  0.497833  0.181073  1
  O  O11  1  0.098690  0.576551  0.079690  1
  O  O12  1  0.907577  0.411298  0.419233  1
  O  O13  1  0.994669  0.007029  0.825036  1
  O  O14  1  0.588702  0.092422  0.580767  1
  O  O15  1  0.502167  0.497156  0.818927  1
  O  O16  1  0.578604  0.102360  0.078718  1
  O  O17  1  0.423449  0.901310  0.920310  1
  O  O18  1  0.897640  0.421396  0.921282  1
