# generated using pymatgen
data_Dy7HoIn2OsRh
_symmetry_space_group_name_H-M   'P 1'
_cell_length_a   9.65507954
_cell_length_b   9.71783877
_cell_length_c   9.65507976
_cell_angle_alpha   59.78474527
_cell_angle_beta   59.54923262
_cell_angle_gamma   59.78474449
_symmetry_Int_Tables_number   1
_chemical_formula_structural   Dy7HoIn2OsRh
_chemical_formula_sum   'Dy14 Ho2 In4 Os2 Rh2'
_cell_volume   636.28833974
_cell_formula_units_Z   2
loop_
 _symmetry_equiv_pos_site_id
 _symmetry_equiv_pos_as_xyz
  1  'x, y, z'
loop_
 _atom_site_type_symbol
 _atom_site_label
 _atom_site_symmetry_multiplicity
 _atom_site_fract_x
 _atom_site_fract_y
 _atom_site_fract_z
 _atom_site_occupancy
  Dy  Dy0  1  0.189875  0.191907  0.804591  1
  Dy  Dy1  1  0.597798  0.597367  0.207468  1
  Dy  Dy2  1  0.441331  0.058669  0.441331  1
  Dy  Dy3  1  0.439190  0.444221  0.059436  1
  Dy  Dy4  1  0.812323  0.187677  0.812323  1
  Dy  Dy5  1  0.193309  0.806691  0.193309  1
  Dy  Dy6  1  0.439190  0.057151  0.059436  1
  Dy  Dy7  1  0.189875  0.813627  0.804591  1
  Dy  Dy8  1  0.056841  0.443159  0.056841  1
  Dy  Dy9  1  0.804591  0.813627  0.189875  1
  Dy  Dy10  1  0.207468  0.597367  0.597798  1
  Dy  Dy11  1  0.059436  0.444221  0.439190  1
  Dy  Dy12  1  0.059436  0.057151  0.439190  1
  Dy  Dy13  1  0.804591  0.191907  0.189875  1
  Ho  Ho14  1  0.599003  0.203437  0.599003  1
  Ho  Ho15  1  0.599003  0.598558  0.599003  1
  In  In16  1  0.831604  0.833145  0.831604  1
  In  In17  1  0.832987  0.832711  0.501592  1
  In  In18  1  0.501592  0.832711  0.832987  1
  In  In19  1  0.831604  0.503648  0.831604  1
  Os  Os20  1  0.392889  0.828165  0.392889  1
  Os  Os21  1  0.392889  0.386058  0.392889  1
  Rh  Rh22  1  0.829463  0.388412  0.393713  1
  Rh  Rh23  1  0.393713  0.388412  0.829463  1
