# generated using pymatgen
data_PrNd19(Si2Rh)4
_symmetry_space_group_name_H-M   'P 1'
_cell_length_a   7.91571207
_cell_length_b   8.87948500
_cell_length_c   12.35163611
_cell_angle_alpha   90.00000000
_cell_angle_beta   89.98442325
_cell_angle_gamma   90.00000000
_symmetry_Int_Tables_number   1
_chemical_formula_structural   PrNd19(Si2Rh)4
_chemical_formula_sum   'Pr1 Nd19 Si8 Rh4'
_cell_volume   868.16493193
_cell_formula_units_Z   1
loop_
 _symmetry_equiv_pos_site_id
 _symmetry_equiv_pos_as_xyz
  1  'x, y, z'
loop_
 _atom_site_type_symbol
 _atom_site_label
 _atom_site_symmetry_multiplicity
 _atom_site_fract_x
 _atom_site_fract_y
 _atom_site_fract_z
 _atom_site_occupancy
  Pr  Pr0  1  0.671913  0.750000  0.781084  1
  Nd  Nd1  1  0.681731  0.465209  0.076681  1
  Nd  Nd2  1  0.181722  0.534664  0.423365  1
  Nd  Nd3  1  0.318130  0.965430  0.923446  1
  Nd  Nd4  1  0.818313  0.034812  0.576604  1
  Nd  Nd5  1  0.318130  0.534570  0.923446  1
  Nd  Nd6  1  0.818313  0.465188  0.576604  1
  Nd  Nd7  1  0.681731  0.034791  0.076681  1
  Nd  Nd8  1  0.181722  0.965336  0.423365  1
  Nd  Nd9  1  0.964087  0.750000  0.999991  1
  Nd  Nd10  1  0.463868  0.250000  0.500109  1
  Nd  Nd11  1  0.036113  0.250000  0.000152  1
  Nd  Nd12  1  0.536109  0.750000  0.499760  1
  Nd  Nd13  1  0.348092  0.750000  0.205028  1
  Nd  Nd14  1  0.848089  0.250000  0.294914  1
  Nd  Nd15  1  0.651905  0.250000  0.794910  1
  Nd  Nd16  1  0.152024  0.750000  0.704987  1
  Nd  Nd17  1  0.828092  0.750000  0.281073  1
  Nd  Nd18  1  0.328089  0.250000  0.218947  1
  Nd  Nd19  1  0.171899  0.250000  0.718912  1
  Si  Si20  1  0.558062  0.495387  0.328797  1
  Si  Si21  1  0.058065  0.504629  0.171195  1
  Si  Si22  1  0.441601  0.995651  0.671049  1
  Si  Si23  1  0.942296  0.004928  0.828835  1
  Si  Si24  1  0.441601  0.504349  0.671049  1
  Si  Si25  1  0.942296  0.495072  0.828835  1
  Si  Si26  1  0.558062  0.004613  0.328797  1
  Si  Si27  1  0.058065  0.995371  0.171195  1
  Rh  Rh28  1  0.573233  0.750000  0.014596  1
  Rh  Rh29  1  0.073328  0.250000  0.485661  1
  Rh  Rh30  1  0.426646  0.250000  0.985696  1
  Rh  Rh31  1  0.926671  0.750000  0.514235  1
