# generated using pymatgen
data_Er6Al24Fe3Ni5
_symmetry_space_group_name_H-M   'P 1'
_cell_length_a   8.62020200
_cell_length_b   8.64359597
_cell_length_c   9.20899072
_cell_angle_alpha   89.87687631
_cell_angle_beta   90.00000000
_cell_angle_gamma   119.91050206
_symmetry_Int_Tables_number   1
_chemical_formula_structural   Er6Al24Fe3Ni5
_chemical_formula_sum   'Er6 Al24 Fe3 Ni5'
_cell_volume   594.76334102
_cell_formula_units_Z   1
loop_
 _symmetry_equiv_pos_site_id
 _symmetry_equiv_pos_as_xyz
  1  'x, y, z'
loop_
 _atom_site_type_symbol
 _atom_site_label
 _atom_site_symmetry_multiplicity
 _atom_site_fract_x
 _atom_site_fract_y
 _atom_site_fract_z
 _atom_site_occupancy
  Er  Er0  1  0.193515  0.387029  0.248304  1
  Er  Er1  1  0.806485  0.612971  0.751696  1
  Er  Er2  1  0.611854  0.806551  0.249882  1
  Er  Er3  1  0.388146  0.193449  0.750118  1
  Er  Er4  1  0.194696  0.806551  0.249882  1
  Er  Er5  1  0.805304  0.193449  0.750118  1
  Al  Al6  1  0.335542  0.671087  0.020932  1
  Al  Al7  1  0.664458  0.328913  0.979068  1
  Al  Al8  1  0.666886  0.333770  0.521007  1
  Al  Al9  1  0.333114  0.666230  0.478993  1
  Al  Al10  1  0.160375  0.320751  0.575762  1
  Al  Al11  1  0.839625  0.679249  0.424238  1
  Al  Al12  1  0.679186  0.839374  0.576731  1
  Al  Al13  1  0.839343  0.678685  0.074899  1
  Al  Al14  1  0.320814  0.160626  0.423269  1
  Al  Al15  1  0.160657  0.321315  0.925101  1
  Al  Al16  1  0.160188  0.839374  0.576731  1
  Al  Al17  1  0.322232  0.157018  0.074560  1
  Al  Al18  1  0.839812  0.160626  0.423269  1
  Al  Al19  1  0.677768  0.842982  0.925440  1
  Al  Al20  1  0.834786  0.157018  0.074560  1
  Al  Al21  1  0.165214  0.842982  0.925440  1
  Al  Al22  1  0.559723  0.119448  0.247100  1
  Al  Al23  1  0.440277  0.880552  0.752900  1
  Al  Al24  1  0.878533  0.439148  0.249902  1
  Al  Al25  1  0.121467  0.560852  0.750098  1
  Al  Al26  1  0.560614  0.439148  0.249902  1
  Al  Al27  1  0.439386  0.560852  0.750098  1
  Al  Al28  1  0.000345  0.000689  0.249543  1
  Al  Al29  1  0.999655  0.999311  0.750457  1
  Fe  Fe30  1  0.500000  0.000000  0.000000  1
  Fe  Fe31  1  0.000000  0.000000  0.000000  1
  Fe  Fe32  1  0.000000  0.000000  0.500000  1
  Ni  Ni33  1  0.000000  0.500000  0.000000  1
  Ni  Ni34  1  0.500000  0.000000  0.500000  1
  Ni  Ni35  1  0.500000  0.500000  0.000000  1
  Ni  Ni36  1  0.000000  0.500000  0.500000  1
  Ni  Ni37  1  0.500000  0.500000  0.500000  1
