# generated using pymatgen
data_Ce5Si2Tc3
_symmetry_space_group_name_H-M   'P 1'
_cell_length_a   8.26318228
_cell_length_b   8.26318243
_cell_length_c   8.26318200
_cell_angle_alpha   109.47121959
_cell_angle_beta   109.47121995
_cell_angle_gamma   109.47122443
_symmetry_Int_Tables_number   1
_chemical_formula_structural   Ce5Si2Tc3
_chemical_formula_sum   'Ce10 Si4 Tc6'
_cell_volume   434.33026270
_cell_formula_units_Z   2
loop_
 _symmetry_equiv_pos_site_id
 _symmetry_equiv_pos_as_xyz
  1  'x, y, z'
loop_
 _atom_site_type_symbol
 _atom_site_label
 _atom_site_symmetry_multiplicity
 _atom_site_fract_x
 _atom_site_fract_y
 _atom_site_fract_z
 _atom_site_occupancy
  Ce  Ce0  1  0.776186  0.776186  0.776186  1
  Ce  Ce1  1  0.299382  0.549382  0.750000  1
  Ce  Ce2  1  0.750000  0.299382  0.549382  1
  Ce  Ce3  1  0.549382  0.750000  0.299382  1
  Ce  Ce4  1  0.723814  0.500000  0.000000  1
  Ce  Ce5  1  0.000000  0.723814  0.500000  1
  Ce  Ce6  1  0.500000  0.000000  0.723814  1
  Ce  Ce7  1  0.250000  0.200618  0.950618  1
  Ce  Ce8  1  0.950618  0.250000  0.200618  1
  Ce  Ce9  1  0.200618  0.950618  0.250000  1
  Si  Si10  1  0.399521  0.399521  0.399521  1
  Si  Si11  1  0.100479  0.500000  0.000000  1
  Si  Si12  1  0.000000  0.100479  0.500000  1
  Si  Si13  1  0.500000  0.000000  0.100479  1
  Tc  Tc14  1  0.881398  0.131398  0.750000  1
  Tc  Tc15  1  0.750000  0.881398  0.131398  1
  Tc  Tc16  1  0.131398  0.750000  0.881398  1
  Tc  Tc17  1  0.250000  0.618602  0.368602  1
  Tc  Tc18  1  0.368602  0.250000  0.618602  1
  Tc  Tc19  1  0.618602  0.368602  0.250000  1
