# generated using pymatgen
data_LaNb6Sn5Bi
_symmetry_space_group_name_H-M   'P 1'
_cell_length_a   5.87444100
_cell_length_b   5.87444200
_cell_length_c   9.66627800
_cell_angle_alpha   90.00000000
_cell_angle_beta   90.00000000
_cell_angle_gamma   120.00000002
_symmetry_Int_Tables_number   1
_chemical_formula_structural   LaNb6Sn5Bi
_chemical_formula_sum   'La1 Nb6 Sn5 Bi1'
_cell_volume   288.88372738
_cell_formula_units_Z   1
loop_
 _symmetry_equiv_pos_site_id
 _symmetry_equiv_pos_as_xyz
  1  'x, y, z'
loop_
 _atom_site_type_symbol
 _atom_site_label
 _atom_site_symmetry_multiplicity
 _atom_site_fract_x
 _atom_site_fract_y
 _atom_site_fract_z
 _atom_site_occupancy
  La  La0  1  0.000000  0.000000  0.994188  1
  Nb  Nb1  1  0.000000  0.500000  0.752977  1
  Nb  Nb2  1  0.500000  0.500000  0.752977  1
  Nb  Nb3  1  0.500000  0.000000  0.752977  1
  Nb  Nb4  1  0.000000  0.500000  0.253142  1
  Nb  Nb5  1  0.500000  0.500000  0.253142  1
  Nb  Nb6  1  0.500000  0.000000  0.253142  1
  Sn  Sn7  1  0.666667  0.333333  0.501559  1
  Sn  Sn8  1  0.333333  0.666667  0.501559  1
  Sn  Sn9  1  0.666667  0.333333  0.003098  1
  Sn  Sn10  1  0.333333  0.666667  0.003098  1
  Sn  Sn11  1  0.000000  0.000000  0.328275  1
  Bi  Bi12  1  0.000000  0.000000  0.649869  1
