# generated using pymatgen
data_CdCu(RhO3)2
_symmetry_space_group_name_H-M   'P 1'
_cell_length_a   6.20249603
_cell_length_b   6.20249681
_cell_length_c   3.17920100
_cell_angle_alpha   90.00000000
_cell_angle_beta   90.00000000
_cell_angle_gamma   109.95846948
_symmetry_Int_Tables_number   1
_chemical_formula_structural   CdCu(RhO3)2
_chemical_formula_sum   'Cd1 Cu1 Rh2 O6'
_cell_volume   114.96120154
_cell_formula_units_Z   1
loop_
 _symmetry_equiv_pos_site_id
 _symmetry_equiv_pos_as_xyz
  1  'x, y, z'
loop_
 _atom_site_type_symbol
 _atom_site_label
 _atom_site_symmetry_multiplicity
 _atom_site_fract_x
 _atom_site_fract_y
 _atom_site_fract_z
 _atom_site_occupancy
  Cd  Cd0  1  0.500000  0.500000  0.000000  1
  Cu  Cu1  1  0.000000  0.000000  0.000000  1
  Rh  Rh2  1  0.000000  0.500000  0.500000  1
  Rh  Rh3  1  0.500000  0.000000  0.500000  1
  O  O4  1  0.676391  0.931361  0.000000  1
  O  O5  1  0.323609  0.068639  0.000000  1
  O  O6  1  0.931361  0.676391  0.000000  1
  O  O7  1  0.068639  0.323609  0.000000  1
  O  O8  1  0.663278  0.336722  0.500000  1
  O  O9  1  0.336722  0.663278  0.500000  1
