# generated using pymatgen
data_Y3HoTi4(CoO5)4
_symmetry_space_group_name_H-M   'P 1'
_cell_length_a   5.72780100
_cell_length_b   7.36572620
_cell_length_c   8.48727724
_cell_angle_alpha   89.97293282
_cell_angle_beta   90.00000000
_cell_angle_gamma   90.00000000
_symmetry_Int_Tables_number   1
_chemical_formula_structural   Y3HoTi4(CoO5)4
_chemical_formula_sum   'Y3 Ho1 Ti4 Co4 O20'
_cell_volume   358.07321249
_cell_formula_units_Z   1
loop_
 _symmetry_equiv_pos_site_id
 _symmetry_equiv_pos_as_xyz
  1  'x, y, z'
loop_
 _atom_site_type_symbol
 _atom_site_label
 _atom_site_symmetry_multiplicity
 _atom_site_fract_x
 _atom_site_fract_y
 _atom_site_fract_z
 _atom_site_occupancy
  Y  Y0  1  0.500000  0.639214  0.671052  1
  Y  Y1  1  0.500000  0.139745  0.828638  1
  Y  Y2  1  0.500000  0.860235  0.171359  1
  Ho  Ho3  1  0.500000  0.359867  0.328648  1
  Ti  Ti4  1  0.000000  0.121288  0.147502  1
  Ti  Ti5  1  0.000000  0.879142  0.853008  1
  Ti  Ti6  1  0.000000  0.378948  0.646735  1
  Ti  Ti7  1  0.000000  0.620387  0.352776  1
  Co  Co8  1  0.253539  0.000452  0.499827  1
  Co  Co9  1  0.746461  0.000452  0.499827  1
  Co  Co10  1  0.746423  0.499816  0.000275  1
  Co  Co11  1  0.253577  0.499816  0.000275  1
  O  O12  1  0.223951  0.999932  0.000287  1
  O  O13  1  0.776049  0.999932  0.000287  1
  O  O14  1  0.775341  0.498731  0.499200  1
  O  O15  1  0.224659  0.498731  0.499200  1
  O  O16  1  0.000000  0.347365  0.071621  1
  O  O17  1  0.000000  0.652598  0.928369  1
  O  O18  1  0.000000  0.152507  0.571817  1
  O  O19  1  0.000000  0.847390  0.427712  1
  O  O20  1  0.253855  0.109620  0.292511  1
  O  O21  1  0.746852  0.892474  0.707628  1
  O  O22  1  0.253148  0.892474  0.707628  1
  O  O23  1  0.746903  0.392468  0.792319  1
  O  O24  1  0.746145  0.109620  0.292511  1
  O  O25  1  0.253752  0.606675  0.208030  1
  O  O26  1  0.746248  0.606675  0.208030  1
  O  O27  1  0.253097  0.392468  0.792319  1
  O  O28  1  0.500000  0.339576  0.058445  1
  O  O29  1  0.500000  0.660206  0.942848  1
  O  O30  1  0.500000  0.161110  0.556764  1
  O  O31  1  0.500000  0.840083  0.442552  1
