# generated using pymatgen
data_Ho2Si4Os3
_symmetry_space_group_name_H-M   'P 1'
_cell_length_a   10.26656332
_cell_length_b   10.26656338
_cell_length_c   13.81506653
_cell_angle_alpha   52.77972708
_cell_angle_beta   52.77972738
_cell_angle_gamma   30.84733524
_symmetry_Int_Tables_number   1
_chemical_formula_structural   Ho2Si4Os3
_chemical_formula_sum   'Ho8 Si16 Os12'
_cell_volume   581.35819300
_cell_formula_units_Z   4
loop_
 _symmetry_equiv_pos_site_id
 _symmetry_equiv_pos_as_xyz
  1  'x, y, z'
loop_
 _atom_site_type_symbol
 _atom_site_label
 _atom_site_symmetry_multiplicity
 _atom_site_fract_x
 _atom_site_fract_y
 _atom_site_fract_z
 _atom_site_occupancy
  Ho  Ho0  1  0.037257  0.290777  0.639637  1
  Ho  Ho1  1  0.709223  0.962743  0.860363  1
  Ho  Ho2  1  0.962743  0.709223  0.360363  1
  Ho  Ho3  1  0.290777  0.037257  0.139637  1
  Ho  Ho4  1  0.301343  0.554456  0.645588  1
  Ho  Ho5  1  0.445544  0.698657  0.854412  1
  Ho  Ho6  1  0.698657  0.445544  0.354412  1
  Ho  Ho7  1  0.554456  0.301343  0.145588  1
  Si  Si8  1  0.981413  0.245015  0.893641  1
  Si  Si9  1  0.754985  0.018587  0.606359  1
  Si  Si10  1  0.018587  0.754985  0.106359  1
  Si  Si11  1  0.245015  0.981413  0.393641  1
  Si  Si12  1  0.138961  0.383073  0.901693  1
  Si  Si13  1  0.616927  0.861039  0.598307  1
  Si  Si14  1  0.861039  0.616927  0.098307  1
  Si  Si15  1  0.383073  0.138961  0.401693  1
  Si  Si16  1  0.084977  0.572856  0.568597  1
  Si  Si17  1  0.427144  0.915023  0.931403  1
  Si  Si18  1  0.915023  0.427144  0.431403  1
  Si  Si19  1  0.572856  0.084977  0.068597  1
  Si  Si20  1  0.621748  0.378252  0.750000  1
  Si  Si21  1  0.378252  0.621748  0.250000  1
  Si  Si22  1  0.130277  0.869723  0.750000  1
  Si  Si23  1  0.869723  0.130277  0.250000  1
  Os  Os24  1  0.898185  0.138298  0.587876  1
  Os  Os25  1  0.861702  0.101815  0.912124  1
  Os  Os26  1  0.101815  0.861702  0.412124  1
  Os  Os27  1  0.138298  0.898185  0.087876  1
  Os  Os28  1  0.839675  0.636388  0.784691  1
  Os  Os29  1  0.363612  0.160325  0.715309  1
  Os  Os30  1  0.160325  0.363612  0.215309  1
  Os  Os31  1  0.636388  0.839675  0.284691  1
  Os  Os32  1  0.248840  0.501365  0.930803  1
  Os  Os33  1  0.498635  0.751160  0.569197  1
  Os  Os34  1  0.751160  0.498635  0.069197  1
  Os  Os35  1  0.501365  0.248840  0.430803  1
