# generated using pymatgen
data_Tb5TmSi24Os7Ru
_symmetry_space_group_name_H-M   'P 1'
_cell_length_a   10.14045170
_cell_length_b   10.14045219
_cell_length_c   8.17796110
_cell_angle_alpha   90.01471580
_cell_angle_beta   90.01471010
_cell_angle_gamma   132.45777441
_symmetry_Int_Tables_number   1
_chemical_formula_structural   Tb5TmSi24Os7Ru
_chemical_formula_sum   'Tb5 Tm1 Si24 Os7 Ru1'
_cell_volume   620.41676869
_cell_formula_units_Z   1
loop_
 _symmetry_equiv_pos_site_id
 _symmetry_equiv_pos_as_xyz
  1  'x, y, z'
loop_
 _atom_site_type_symbol
 _atom_site_label
 _atom_site_symmetry_multiplicity
 _atom_site_fract_x
 _atom_site_fract_y
 _atom_site_fract_z
 _atom_site_occupancy
  Tb  Tb0  1  0.000717  0.000717  0.999791  1
  Tb  Tb1  1  0.501205  0.000999  0.749248  1
  Tb  Tb2  1  0.998759  0.499007  0.250774  1
  Tb  Tb3  1  0.499007  0.998759  0.250774  1
  Tb  Tb4  1  0.000999  0.501205  0.749248  1
  Tm  Tm5  1  0.500105  0.500105  0.499085  1
  Si  Si6  1  0.795012  0.204874  0.500151  1
  Si  Si7  1  0.295578  0.704351  0.000136  1
  Si  Si8  1  0.204874  0.795012  0.500151  1
  Si  Si9  1  0.704351  0.295578  0.000136  1
  Si  Si10  1  0.334376  0.334376  0.831624  1
  Si  Si11  1  0.668432  0.668432  0.165563  1
  Si  Si12  1  0.167618  0.167618  0.333189  1
  Si  Si13  1  0.831853  0.831853  0.667234  1
  Si  Si14  1  0.119599  0.885307  0.727755  1
  Si  Si15  1  0.114429  0.879470  0.272336  1
  Si  Si16  1  0.610996  0.376981  0.228700  1
  Si  Si17  1  0.621875  0.388514  0.771609  1
  Si  Si18  1  0.879470  0.114429  0.272336  1
  Si  Si19  1  0.885307  0.119599  0.727755  1
  Si  Si20  1  0.388514  0.621875  0.771609  1
  Si  Si21  1  0.376981  0.610996  0.228700  1
  Si  Si22  1  0.345104  0.111153  0.503701  1
  Si  Si23  1  0.888290  0.654959  0.496955  1
  Si  Si24  1  0.388376  0.154519  0.005930  1
  Si  Si25  1  0.845057  0.611803  0.994890  1
  Si  Si26  1  0.654959  0.888290  0.496955  1
  Si  Si27  1  0.111153  0.345104  0.503701  1
  Si  Si28  1  0.611803  0.845057  0.994890  1
  Si  Si29  1  0.154519  0.388376  0.005930  1
  Os  Os30  1  0.668447  0.331760  0.500056  1
  Os  Os31  1  0.169635  0.830474  0.999713  1
  Os  Os32  1  0.331760  0.668447  0.500056  1
  Os  Os33  1  0.830474  0.169635  0.999713  1
  Os  Os34  1  0.127264  0.127264  0.626218  1
  Os  Os35  1  0.872982  0.872982  0.373500  1
  Os  Os36  1  0.373485  0.373485  0.128603  1
  Ru  Ru37  1  0.626630  0.626630  0.871287  1
