# generated using pymatgen
data_Tb5Tm11MgIn3Rh4
_symmetry_space_group_name_H-M   'P 1'
_cell_length_a   9.59715033
_cell_length_b   9.57688665
_cell_length_c   9.57688580
_cell_angle_alpha   60.12448576
_cell_angle_beta   59.95927990
_cell_angle_gamma   59.95927389
_symmetry_Int_Tables_number   1
_chemical_formula_structural   Tb5Tm11MgIn3Rh4
_chemical_formula_sum   'Tb5 Tm11 Mg1 In3 Rh4'
_cell_volume   622.60811134
_cell_formula_units_Z   1
loop_
 _symmetry_equiv_pos_site_id
 _symmetry_equiv_pos_as_xyz
  1  'x, y, z'
loop_
 _atom_site_type_symbol
 _atom_site_label
 _atom_site_symmetry_multiplicity
 _atom_site_fract_x
 _atom_site_fract_y
 _atom_site_fract_z
 _atom_site_occupancy
  Tb  Tb0  1  0.062449  0.062131  0.437466  1
  Tb  Tb1  1  0.435940  0.064222  0.434846  1
  Tb  Tb2  1  0.062449  0.437466  0.062131  1
  Tb  Tb3  1  0.049097  0.650536  0.650536  1
  Tb  Tb4  1  0.435940  0.434846  0.064222  1
  Tm  Tm5  1  0.650512  0.047175  0.649293  1
  Tm  Tm6  1  0.186450  0.814741  0.185961  1
  Tm  Tm7  1  0.186450  0.185961  0.814741  1
  Tm  Tm8  1  0.810353  0.810438  0.190163  1
  Tm  Tm9  1  0.441790  0.058188  0.058188  1
  Tm  Tm10  1  0.815159  0.186126  0.186126  1
  Tm  Tm11  1  0.060327  0.438948  0.438948  1
  Tm  Tm12  1  0.810353  0.190163  0.810438  1
  Tm  Tm13  1  0.189498  0.811660  0.811660  1
  Tm  Tm14  1  0.650512  0.649293  0.047175  1
  Tm  Tm15  1  0.649802  0.652412  0.652412  1
  Mg  Mg16  1  0.423453  0.422467  0.422467  1
  In  In17  1  0.747196  0.418157  0.418157  1
  In  In18  1  0.419312  0.747101  0.416314  1
  In  In19  1  0.419312  0.416314  0.747101  1
  Rh  Rh20  1  0.856896  0.857496  0.425561  1
  Rh  Rh21  1  0.853054  0.859584  0.859584  1
  Rh  Rh22  1  0.426802  0.859015  0.859015  1
  Rh  Rh23  1  0.856896  0.425561  0.857496  1
