# generated using pymatgen
data_HfScAlRe3
_symmetry_space_group_name_H-M   'P 1'
_cell_length_a   5.26194900
_cell_length_b   5.26194918
_cell_length_c   8.60528000
_cell_angle_alpha   90.00000000
_cell_angle_beta   90.00000000
_cell_angle_gamma   119.99999260
_symmetry_Int_Tables_number   1
_chemical_formula_structural   HfScAlRe3
_chemical_formula_sum   'Hf2 Sc2 Al2 Re6'
_cell_volume   206.34262619
_cell_formula_units_Z   2
loop_
 _symmetry_equiv_pos_site_id
 _symmetry_equiv_pos_as_xyz
  1  'x, y, z'
loop_
 _atom_site_type_symbol
 _atom_site_label
 _atom_site_symmetry_multiplicity
 _atom_site_fract_x
 _atom_site_fract_y
 _atom_site_fract_z
 _atom_site_occupancy
  Hf  Hf0  1  0.666667  0.333333  0.567166  1
  Hf  Hf1  1  0.333333  0.666667  0.067166  1
  Sc  Sc2  1  0.333333  0.666667  0.434895  1
  Sc  Sc3  1  0.666667  0.333333  0.934895  1
  Al  Al4  1  0.000000  0.000000  0.999087  1
  Al  Al5  1  0.000000  0.000000  0.499087  1
  Re  Re6  1  0.170353  0.340708  0.749617  1
  Re  Re7  1  0.829647  0.170353  0.249617  1
  Re  Re8  1  0.340708  0.170353  0.249617  1
  Re  Re9  1  0.659292  0.829647  0.749617  1
  Re  Re10  1  0.829647  0.659292  0.249617  1
  Re  Re11  1  0.170353  0.829647  0.749617  1
