# generated using pymatgen
data_Ca2Hf(SbPt)3
_symmetry_space_group_name_H-M   'P 1'
_cell_length_a   7.98612639
_cell_length_b   8.00939554
_cell_length_c   8.00738900
_cell_angle_alpha   119.97513344
_cell_angle_beta   99.58932372
_cell_angle_gamma   99.63185798
_symmetry_Int_Tables_number   1
_chemical_formula_structural   Ca2Hf(SbPt)3
_chemical_formula_sum   'Ca4 Hf2 Sb6 Pt6'
_cell_volume   418.23242730
_cell_formula_units_Z   2
loop_
 _symmetry_equiv_pos_site_id
 _symmetry_equiv_pos_as_xyz
  1  'x, y, z'
loop_
 _atom_site_type_symbol
 _atom_site_label
 _atom_site_symmetry_multiplicity
 _atom_site_fract_x
 _atom_site_fract_y
 _atom_site_fract_z
 _atom_site_occupancy
  Ca  Ca0  1  0.000440  0.502042  0.000391  1
  Ca  Ca1  1  0.500382  0.332644  0.167117  1
  Ca  Ca2  1  0.000401  0.167091  0.332646  1
  Ca  Ca3  1  0.500453  0.000384  0.502019  1
  Hf  Hf4  1  0.999959  0.830223  0.668772  1
  Hf  Hf5  1  0.499924  0.668797  0.830214  1
  Sb  Sb6  1  0.248974  0.917353  0.088495  1
  Sb  Sb7  1  0.749647  0.750349  0.255648  1
  Sb  Sb8  1  0.255558  0.581244  0.414035  1
  Sb  Sb9  1  0.755560  0.414065  0.581292  1
  Sb  Sb10  1  0.249636  0.255649  0.750432  1
  Sb  Sb11  1  0.749011  0.088350  0.917453  1
  Pt  Pt12  1  0.115566  0.181540  0.013761  1
  Pt  Pt13  1  0.615606  0.013842  0.181510  1
  Pt  Pt14  1  0.114981  0.871890  0.397095  1
  Pt  Pt15  1  0.639544  0.712548  0.564732  1
  Pt  Pt16  1  0.139507  0.564758  0.712508  1
  Pt  Pt17  1  0.614937  0.397206  0.871857  1
