# generated using pymatgen
data_Ce3Pr13Cd4(OsPt)2
_symmetry_space_group_name_H-M   'P 1'
_cell_length_a   9.98439315
_cell_length_b   10.03940843
_cell_length_c   10.14794200
_cell_angle_alpha   59.64173414
_cell_angle_beta   59.45664345
_cell_angle_gamma   59.72872053
_symmetry_Int_Tables_number   1
_chemical_formula_structural   Ce3Pr13Cd4(OsPt)2
_chemical_formula_sum   'Ce3 Pr13 Cd4 Os2 Pt2'
_cell_volume   712.87163462
_cell_formula_units_Z   1
loop_
 _symmetry_equiv_pos_site_id
 _symmetry_equiv_pos_as_xyz
  1  'x, y, z'
loop_
 _atom_site_type_symbol
 _atom_site_label
 _atom_site_symmetry_multiplicity
 _atom_site_fract_x
 _atom_site_fract_y
 _atom_site_fract_z
 _atom_site_occupancy
  Ce  Ce0  1  0.342556  0.342723  0.354883  1
  Ce  Ce1  1  0.342556  0.342723  0.959839  1
  Ce  Ce2  1  0.336758  0.972001  0.345621  1
  Pr  Pr3  1  0.954258  0.348598  0.348572  1
  Pr  Pr4  1  0.814298  0.188913  0.192460  1
  Pr  Pr5  1  0.189911  0.811048  0.804516  1
  Pr  Pr6  1  0.189911  0.811048  0.194525  1
  Pr  Pr7  1  0.814298  0.188913  0.804329  1
  Pr  Pr8  1  0.191255  0.188888  0.809928  1
  Pr  Pr9  1  0.802479  0.805947  0.195787  1
  Pr  Pr10  1  0.940574  0.558311  0.565256  1
  Pr  Pr11  1  0.554334  0.939967  0.941261  1
  Pr  Pr12  1  0.554334  0.939967  0.564437  1
  Pr  Pr13  1  0.940574  0.558311  0.935858  1
  Pr  Pr14  1  0.558886  0.558816  0.941149  1
  Pr  Pr15  1  0.939011  0.936883  0.562053  1
  Cd  Cd16  1  0.575966  0.580230  0.581414  1
  Cd  Cd17  1  0.575966  0.580230  0.262391  1
  Cd  Cd18  1  0.577891  0.260236  0.580936  1
  Cd  Cd19  1  0.261290  0.579583  0.579563  1
  Os  Os20  1  0.160448  0.142710  0.134009  1
  Os  Os21  1  0.160448  0.142710  0.562834  1
  Pt  Pt22  1  0.152522  0.570724  0.138377  1
  Pt  Pt23  1  0.569479  0.150519  0.140001  1
