# generated using pymatgen
data_Ba11Yb(SnAu)12
_symmetry_space_group_name_H-M   'P 1'
_cell_length_a   5.03147200
_cell_length_b   8.47164705
_cell_length_c   25.07101581
_cell_angle_alpha   89.93142106
_cell_angle_beta   90.00000000
_cell_angle_gamma   90.00000000
_symmetry_Int_Tables_number   1
_chemical_formula_structural   Ba11Yb(SnAu)12
_chemical_formula_sum   'Ba11 Yb1 Sn12 Au12'
_cell_volume   1068.64764651
_cell_formula_units_Z   1
loop_
 _symmetry_equiv_pos_site_id
 _symmetry_equiv_pos_as_xyz
  1  'x, y, z'
loop_
 _atom_site_type_symbol
 _atom_site_label
 _atom_site_symmetry_multiplicity
 _atom_site_fract_x
 _atom_site_fract_y
 _atom_site_fract_z
 _atom_site_occupancy
  Ba  Ba0  1  0.250000  0.795881  0.166434  1
  Ba  Ba1  1  0.250000  0.797702  0.502135  1
  Ba  Ba2  1  0.250000  0.794155  0.832730  1
  Ba  Ba3  1  0.250000  0.706216  0.335703  1
  Ba  Ba4  1  0.750000  0.204087  0.833393  1
  Ba  Ba5  1  0.750000  0.292369  0.997285  1
  Ba  Ba6  1  0.750000  0.293338  0.664381  1
  Ba  Ba7  1  0.750000  0.293589  0.336408  1
  Ba  Ba8  1  0.250000  0.703798  0.663296  1
  Ba  Ba9  1  0.250000  0.707620  0.002552  1
  Ba  Ba10  1  0.750000  0.205887  0.167261  1
  Yb  Yb11  1  0.750000  0.227238  0.496483  1
  Sn  Sn12  1  0.250000  0.406588  0.558850  1
  Sn  Sn13  1  0.250000  0.083926  0.399932  1
  Sn  Sn14  1  0.250000  0.085929  0.063304  1
  Sn  Sn15  1  0.250000  0.417564  0.895144  1
  Sn  Sn16  1  0.750000  0.582090  0.104807  1
  Sn  Sn17  1  0.250000  0.419071  0.770597  1
  Sn  Sn18  1  0.750000  0.580854  0.229471  1
  Sn  Sn19  1  0.750000  0.580317  0.439169  1
  Sn  Sn20  1  0.750000  0.914032  0.936582  1
  Sn  Sn21  1  0.250000  0.081433  0.273149  1
  Sn  Sn22  1  0.750000  0.921308  0.600527  1
  Sn  Sn23  1  0.750000  0.919282  0.726863  1
  Au  Au24  1  0.250000  0.088872  0.588596  1
  Au  Au25  1  0.250000  0.085051  0.739045  1
  Au  Au26  1  0.750000  0.586781  0.905713  1
  Au  Au27  1  0.750000  0.922555  0.413172  1
  Au  Au28  1  0.750000  0.573083  0.561358  1
  Au  Au29  1  0.750000  0.585054  0.758846  1
  Au  Au30  1  0.250000  0.401820  0.440941  1
  Au  Au31  1  0.250000  0.414902  0.240649  1
  Au  Au32  1  0.750000  0.919256  0.066308  1
  Au  Au33  1  0.250000  0.413156  0.094224  1
  Au  Au34  1  0.250000  0.080866  0.933553  1
  Au  Au35  1  0.750000  0.914331  0.261138  1
