# generated using pymatgen
data_Pa2ReSnPd
_symmetry_space_group_name_H-M   'P 1'
_cell_length_a   7.77244319
_cell_length_b   7.77244319
_cell_length_c   3.65536500
_cell_angle_alpha   90.00000000
_cell_angle_beta   90.00000000
_cell_angle_gamma   89.82377312
_symmetry_Int_Tables_number   1
_chemical_formula_structural   Pa2ReSnPd
_chemical_formula_sum   'Pa4 Re2 Sn2 Pd2'
_cell_volume   220.82274685
_cell_formula_units_Z   2
loop_
 _symmetry_equiv_pos_site_id
 _symmetry_equiv_pos_as_xyz
  1  'x, y, z'
loop_
 _atom_site_type_symbol
 _atom_site_label
 _atom_site_symmetry_multiplicity
 _atom_site_fract_x
 _atom_site_fract_y
 _atom_site_fract_z
 _atom_site_occupancy
  Pa  Pa0  1  0.679954  0.179954  0.500000  1
  Pa  Pa1  1  0.320046  0.820046  0.500000  1
  Pa  Pa2  1  0.161139  0.338861  0.500000  1
  Pa  Pa3  1  0.838861  0.661139  0.500000  1
  Re  Re4  1  0.135656  0.635656  0.000000  1
  Re  Re5  1  0.864344  0.364344  0.000000  1
  Sn  Sn6  1  0.000000  0.000000  0.000000  1
  Sn  Sn7  1  0.500000  0.500000  0.000000  1
  Pd  Pd8  1  0.627719  0.872281  0.000000  1
  Pd  Pd9  1  0.372281  0.127719  0.000000  1
