# generated using pymatgen
data_Yb8Sb5Te
_symmetry_space_group_name_H-M   'P 1'
_cell_length_a   8.19303695
_cell_length_b   8.19303626
_cell_length_c   8.19303692
_cell_angle_alpha   109.60393445
_cell_angle_beta   109.20611363
_cell_angle_gamma   109.60393604
_symmetry_Int_Tables_number   1
_chemical_formula_structural   Yb8Sb5Te
_chemical_formula_sum   'Yb8 Sb5 Te1'
_cell_volume   423.35613357
_cell_formula_units_Z   1
loop_
 _symmetry_equiv_pos_site_id
 _symmetry_equiv_pos_as_xyz
  1  'x, y, z'
loop_
 _atom_site_type_symbol
 _atom_site_label
 _atom_site_symmetry_multiplicity
 _atom_site_fract_x
 _atom_site_fract_y
 _atom_site_fract_z
 _atom_site_occupancy
  Yb  Yb0  1  0.151014  0.002362  0.998899  1
  Yb  Yb1  1  0.646813  0.002114  0.998358  1
  Yb  Yb2  1  0.496537  0.497638  0.148652  1
  Yb  Yb3  1  0.355301  0.851545  0.353187  1
  Yb  Yb4  1  0.001642  0.648455  0.503755  1
  Yb  Yb5  1  0.001101  0.152114  0.503463  1
  Yb  Yb6  1  0.496244  0.497886  0.644699  1
  Yb  Yb7  1  0.851349  0.347887  0.848987  1
  Sb  Sb8  1  0.123205  0.374832  0.249884  1
  Sb  Sb9  1  0.624999  0.250000  0.375000  1
  Sb  Sb10  1  0.750116  0.873321  0.624946  1
  Sb  Sb11  1  0.375054  0.125168  0.748373  1
  Sb  Sb12  1  0.251627  0.626679  0.876795  1
  Te  Te13  1  0.875000  0.750000  0.125000  1
