# generated using pymatgen
data_Zr2Si7(TcNi5)2
_symmetry_space_group_name_H-M   'P 1'
_cell_length_a   9.16355878
_cell_length_b   9.17825220
_cell_length_c   3.67051900
_cell_angle_alpha   90.00000000
_cell_angle_beta   90.00000000
_cell_angle_gamma   120.15516038
_symmetry_Int_Tables_number   1
_chemical_formula_structural   Zr2Si7(TcNi5)2
_chemical_formula_sum   'Zr2 Si7 Tc2 Ni10'
_cell_volume   266.93229529
_cell_formula_units_Z   1
loop_
 _symmetry_equiv_pos_site_id
 _symmetry_equiv_pos_as_xyz
  1  'x, y, z'
loop_
 _atom_site_type_symbol
 _atom_site_label
 _atom_site_symmetry_multiplicity
 _atom_site_fract_x
 _atom_site_fract_y
 _atom_site_fract_z
 _atom_site_occupancy
  Zr  Zr0  1  0.995652  0.001503  0.000000  1
  Zr  Zr1  1  0.331501  0.664198  0.500000  1
  Si  Si2  1  0.665079  0.329856  0.000000  1
  Si  Si3  1  0.077012  0.452663  0.000000  1
  Si  Si4  1  0.256117  0.213761  0.500000  1
  Si  Si5  1  0.778460  0.042004  0.500000  1
  Si  Si6  1  0.959628  0.745782  0.500000  1
  Si  Si7  1  0.546767  0.623709  0.000000  1
  Si  Si8  1  0.381758  0.926839  0.000000  1
  Tc  Tc9  1  0.884587  0.452431  0.500000  1
  Tc  Tc10  1  0.550391  0.431574  0.500000  1
  Ni  Ni11  1  0.287382  0.389339  0.000000  1
  Ni  Ni12  1  0.105089  0.714858  0.000000  1
  Ni  Ni13  1  0.378913  0.170256  0.000000  1
  Ni  Ni14  1  0.794091  0.623353  0.000000  1
  Ni  Ni15  1  0.826841  0.206747  0.000000  1
  Ni  Ni16  1  0.234234  0.948491  0.500000  1
  Ni  Ni17  1  0.049373  0.278015  0.500000  1
  Ni  Ni18  1  0.718837  0.770454  0.500000  1
  Ni  Ni19  1  0.570798  0.119796  0.500000  1
  Ni  Ni20  1  0.607492  0.894371  0.000000  1
