# generated using pymatgen
data_Er2Lu6In3Os
_symmetry_space_group_name_H-M   'P 1'
_cell_length_a   10.19661700
_cell_length_b   10.18764596
_cell_length_c   6.99508934
_cell_angle_alpha   90.03491528
_cell_angle_beta   90.00000000
_cell_angle_gamma   120.02913688
_symmetry_Int_Tables_number   1
_chemical_formula_structural   Er2Lu6In3Os
_chemical_formula_sum   'Er4 Lu12 In6 Os2'
_cell_volume   629.10937287
_cell_formula_units_Z   2
loop_
 _symmetry_equiv_pos_site_id
 _symmetry_equiv_pos_as_xyz
  1  'x, y, z'
loop_
 _atom_site_type_symbol
 _atom_site_label
 _atom_site_symmetry_multiplicity
 _atom_site_fract_x
 _atom_site_fract_y
 _atom_site_fract_z
 _atom_site_occupancy
  Er  Er0  1  0.532284  0.064567  0.522982  1
  Er  Er1  1  0.936180  0.468024  0.523486  1
  Er  Er2  1  0.531844  0.468024  0.523486  1
  Er  Er3  1  0.467382  0.934765  0.023162  1
  Lu  Lu4  1  0.065848  0.532926  0.023863  1
  Lu  Lu5  1  0.467076  0.532926  0.023863  1
  Lu  Lu6  1  0.177499  0.354999  0.728933  1
  Lu  Lu7  1  0.645285  0.822300  0.728121  1
  Lu  Lu8  1  0.177014  0.822300  0.728121  1
  Lu  Lu9  1  0.822377  0.644754  0.226290  1
  Lu  Lu10  1  0.354443  0.177657  0.226773  1
  Lu  Lu11  1  0.823216  0.177657  0.226773  1
  Lu  Lu12  1  0.667034  0.334065  0.903959  1
  Lu  Lu13  1  0.333005  0.666012  0.403746  1
  Lu  Lu14  1  0.000078  0.000155  0.507006  1
  Lu  Lu15  1  0.999948  0.999894  0.007156  1
  In  In16  1  0.836876  0.673751  0.771637  1
  In  In17  1  0.326412  0.163222  0.771906  1
  In  In18  1  0.836810  0.163222  0.771906  1
  In  In19  1  0.163608  0.327216  0.271556  1
  In  In20  1  0.673379  0.836344  0.271701  1
  In  In21  1  0.162965  0.836344  0.271701  1
  Os  Os22  1  0.666617  0.333232  0.298144  1
  Os  Os23  1  0.332821  0.665644  0.799406  1
