# generated using pymatgen
data_Th2OsSe
_symmetry_space_group_name_H-M   'P 1'
_cell_length_a   7.69552824
_cell_length_b   7.69552842
_cell_length_c   7.69552834
_cell_angle_alpha   31.25672729
_cell_angle_beta   31.25672536
_cell_angle_gamma   31.25672394
_symmetry_Int_Tables_number   1
_chemical_formula_structural   Th2OsSe
_chemical_formula_sum   'Th2 Os1 Se1'
_cell_volume   108.89055815
_cell_formula_units_Z   1
loop_
 _symmetry_equiv_pos_site_id
 _symmetry_equiv_pos_as_xyz
  1  'x, y, z'
loop_
 _atom_site_type_symbol
 _atom_site_label
 _atom_site_symmetry_multiplicity
 _atom_site_fract_x
 _atom_site_fract_y
 _atom_site_fract_z
 _atom_site_occupancy
  Th  Th0  1  0.262602  0.262602  0.262602  1
  Th  Th1  1  0.737398  0.737398  0.737398  1
  Os  Os2  1  0.000000  0.000000  0.000000  1
  Se  Se3  1  0.500000  0.500000  0.500000  1
