# generated using pymatgen
data_PrThCS
_symmetry_space_group_name_H-M   'P 1'
_cell_length_a   7.03044965
_cell_length_b   7.03044947
_cell_length_c   7.03045070
_cell_angle_alpha   32.21879972
_cell_angle_beta   32.21879908
_cell_angle_gamma   32.21879853
_symmetry_Int_Tables_number   1
_chemical_formula_structural   PrThCS
_chemical_formula_sum   'Pr1 Th1 C1 S1'
_cell_volume   87.79282061
_cell_formula_units_Z   1
loop_
 _symmetry_equiv_pos_site_id
 _symmetry_equiv_pos_as_xyz
  1  'x, y, z'
loop_
 _atom_site_type_symbol
 _atom_site_label
 _atom_site_symmetry_multiplicity
 _atom_site_fract_x
 _atom_site_fract_y
 _atom_site_fract_z
 _atom_site_occupancy
  Pr  Pr0  1  0.259626  0.259626  0.259626  1
  Th  Th1  1  0.736601  0.736601  0.736601  1
  C  C2  1  0.006087  0.006087  0.006087  1
  S  S3  1  0.497685  0.497685  0.497685  1
