# generated using pymatgen
data_TbMn2SiC
_symmetry_space_group_name_H-M   'P 1'
_cell_length_a   5.61040602
_cell_length_b   5.61040672
_cell_length_c   7.02073200
_cell_angle_alpha   90.00000000
_cell_angle_beta   90.00000000
_cell_angle_gamma   141.24279791
_symmetry_Int_Tables_number   1
_chemical_formula_structural   TbMn2SiC
_chemical_formula_sum   'Tb2 Mn4 Si2 C2'
_cell_volume   138.34398494
_cell_formula_units_Z   2
loop_
 _symmetry_equiv_pos_site_id
 _symmetry_equiv_pos_as_xyz
  1  'x, y, z'
loop_
 _atom_site_type_symbol
 _atom_site_label
 _atom_site_symmetry_multiplicity
 _atom_site_fract_x
 _atom_site_fract_y
 _atom_site_fract_z
 _atom_site_occupancy
  Tb  Tb0  1  0.543979  0.456021  0.250000  1
  Tb  Tb1  1  0.456021  0.543979  0.750000  1
  Mn  Mn2  1  0.831909  0.168091  0.061614  1
  Mn  Mn3  1  0.168091  0.831909  0.938386  1
  Mn  Mn4  1  0.168091  0.831909  0.561614  1
  Mn  Mn5  1  0.831909  0.168091  0.438386  1
  Si  Si6  1  0.264979  0.735021  0.250000  1
  Si  Si7  1  0.735021  0.264979  0.750000  1
  C  C8  1  0.000000  0.000000  0.000000  1
  C  C9  1  0.000000  0.000000  0.500000  1
