# generated using pymatgen
data_Ca2AlHgAu2
_symmetry_space_group_name_H-M   'P 1'
_cell_length_a   4.60312100
_cell_length_b   7.33150021
_cell_length_c   8.28861811
_cell_angle_alpha   87.98982036
_cell_angle_beta   90.00000000
_cell_angle_gamma   90.00000000
_symmetry_Int_Tables_number   1
_chemical_formula_structural   Ca2AlHgAu2
_chemical_formula_sum   'Ca4 Al2 Hg2 Au4'
_cell_volume   279.55034346
_cell_formula_units_Z   2
loop_
 _symmetry_equiv_pos_site_id
 _symmetry_equiv_pos_as_xyz
  1  'x, y, z'
loop_
 _atom_site_type_symbol
 _atom_site_label
 _atom_site_symmetry_multiplicity
 _atom_site_fract_x
 _atom_site_fract_y
 _atom_site_fract_z
 _atom_site_occupancy
  Ca  Ca0  1  0.250000  0.014618  0.310064  1
  Ca  Ca1  1  0.250000  0.523682  0.192800  1
  Ca  Ca2  1  0.750000  0.985382  0.689936  1
  Ca  Ca3  1  0.750000  0.476318  0.807200  1
  Al  Al4  1  0.250000  0.657249  0.559704  1
  Al  Al5  1  0.750000  0.342751  0.440296  1
  Hg  Hg6  1  0.750000  0.828114  0.072545  1
  Hg  Hg7  1  0.250000  0.171886  0.927455  1
  Au  Au8  1  0.250000  0.757024  0.856838  1
  Au  Au9  1  0.750000  0.242976  0.143162  1
  Au  Au10  1  0.750000  0.708526  0.418976  1
  Au  Au11  1  0.250000  0.291474  0.581024  1
