# generated using pymatgen
data_Hf8FeCoRh2
_symmetry_space_group_name_H-M   'P 1'
_cell_length_a   8.59706851
_cell_length_b   8.59706789
_cell_length_c   8.58722300
_cell_angle_alpha   60.03787770
_cell_angle_beta   60.03788010
_cell_angle_gamma   60.09144149
_symmetry_Int_Tables_number   1
_chemical_formula_structural   Hf8FeCoRh2
_chemical_formula_sum   'Hf16 Fe2 Co2 Rh4'
_cell_volume   449.35178704
_cell_formula_units_Z   2
loop_
 _symmetry_equiv_pos_site_id
 _symmetry_equiv_pos_as_xyz
  1  'x, y, z'
loop_
 _atom_site_type_symbol
 _atom_site_label
 _atom_site_symmetry_multiplicity
 _atom_site_fract_x
 _atom_site_fract_y
 _atom_site_fract_z
 _atom_site_occupancy
  Hf  Hf0  1  0.678734  0.107090  0.107088  1
  Hf  Hf1  1  0.107090  0.678734  0.107088  1
  Hf  Hf2  1  0.106554  0.106554  0.680322  1
  Hf  Hf3  1  0.106554  0.106554  0.106570  1
  Hf  Hf4  1  0.311405  0.311405  0.688595  1
  Hf  Hf5  1  0.687301  0.687301  0.312699  1
  Hf  Hf6  1  0.312851  0.687893  0.311721  1
  Hf  Hf7  1  0.687893  0.312851  0.687535  1
  Hf  Hf8  1  0.687893  0.312851  0.311721  1
  Hf  Hf9  1  0.312851  0.687893  0.687535  1
  Hf  Hf10  1  0.943766  0.943766  0.556234  1
  Hf  Hf11  1  0.558215  0.558215  0.941785  1
  Hf  Hf12  1  0.942401  0.556158  0.942091  1
  Hf  Hf13  1  0.556158  0.942401  0.559351  1
  Hf  Hf14  1  0.556158  0.942401  0.942091  1
  Hf  Hf15  1  0.942401  0.556158  0.559351  1
  Fe  Fe16  1  0.318246  0.894319  0.893718  1
  Fe  Fe17  1  0.894319  0.318246  0.893718  1
  Co  Co18  1  0.894116  0.894116  0.317907  1
  Co  Co19  1  0.894116  0.894116  0.893860  1
  Rh  Rh20  1  0.994734  0.335221  0.335022  1
  Rh  Rh21  1  0.335221  0.994734  0.335022  1
  Rh  Rh22  1  0.335513  0.335513  0.994453  1
  Rh  Rh23  1  0.335513  0.335513  0.334520  1
