# generated using pymatgen
data_La2Yb14Mg3CdRu4
_symmetry_space_group_name_H-M   'P 1'
_cell_length_a   9.95498913
_cell_length_b   9.95498852
_cell_length_c   9.84204390
_cell_angle_alpha   60.90004217
_cell_angle_beta   60.90004412
_cell_angle_gamma   60.19498829
_symmetry_Int_Tables_number   1
_chemical_formula_structural   La2Yb14Mg3CdRu4
_chemical_formula_sum   'La2 Yb14 Mg3 Cd1 Ru4'
_cell_volume   699.97215936
_cell_formula_units_Z   1
loop_
 _symmetry_equiv_pos_site_id
 _symmetry_equiv_pos_as_xyz
  1  'x, y, z'
loop_
 _atom_site_type_symbol
 _atom_site_label
 _atom_site_symmetry_multiplicity
 _atom_site_fract_x
 _atom_site_fract_y
 _atom_site_fract_z
 _atom_site_occupancy
  La  La0  1  0.064140  0.064140  0.438118  1
  La  La1  1  0.436027  0.436027  0.064858  1
  Yb  Yb2  1  0.795695  0.203961  0.204307  1
  Yb  Yb3  1  0.196722  0.196722  0.804623  1
  Yb  Yb4  1  0.799828  0.799828  0.197361  1
  Yb  Yb5  1  0.204137  0.793203  0.794803  1
  Yb  Yb6  1  0.591136  0.591136  0.227873  1
  Yb  Yb7  1  0.444507  0.057130  0.057211  1
  Yb  Yb8  1  0.057130  0.444507  0.057211  1
  Yb  Yb9  1  0.442961  0.058585  0.442167  1
  Yb  Yb10  1  0.227027  0.588532  0.590452  1
  Yb  Yb11  1  0.058585  0.442961  0.442167  1
  Yb  Yb12  1  0.588532  0.227027  0.590452  1
  Yb  Yb13  1  0.592642  0.592642  0.589183  1
  Yb  Yb14  1  0.203961  0.795695  0.204307  1
  Yb  Yb15  1  0.793203  0.204137  0.794803  1
  Mg  Mg16  1  0.519239  0.825336  0.828243  1
  Mg  Mg17  1  0.825336  0.519239  0.828243  1
  Mg  Mg18  1  0.828241  0.828241  0.520142  1
  Cd  Cd19  1  0.832737  0.832737  0.832128  1
  Ru  Ru20  1  0.857962  0.354908  0.391628  1
  Ru  Ru21  1  0.394474  0.394474  0.353520  1
  Ru  Ru22  1  0.354908  0.857962  0.391628  1
  Ru  Ru23  1  0.390871  0.390871  0.854574  1
