# generated using pymatgen
data_Nd3Lu(NiAs)4
_symmetry_space_group_name_H-M   'P 1'
_cell_length_a   4.08499000
_cell_length_b   4.08499127
_cell_length_c   15.95793500
_cell_angle_alpha   90.00000000
_cell_angle_beta   90.00000000
_cell_angle_gamma   120.00000593
_symmetry_Int_Tables_number   1
_chemical_formula_structural   Nd3Lu(NiAs)4
_chemical_formula_sum   'Nd3 Lu1 Ni4 As4'
_cell_volume   230.61599605
_cell_formula_units_Z   1
loop_
 _symmetry_equiv_pos_site_id
 _symmetry_equiv_pos_as_xyz
  1  'x, y, z'
loop_
 _atom_site_type_symbol
 _atom_site_label
 _atom_site_symmetry_multiplicity
 _atom_site_fract_x
 _atom_site_fract_y
 _atom_site_fract_z
 _atom_site_occupancy
  Nd  Nd0  1  0.000000  0.000000  0.750000  1
  Nd  Nd1  1  0.000000  0.000000  0.007211  1
  Nd  Nd2  1  0.000000  0.000000  0.492789  1
  Lu  Lu3  1  0.000000  0.000000  0.250000  1
  Ni  Ni4  1  0.333333  0.666667  0.148162  1
  Ni  Ni5  1  0.666667  0.333333  0.878002  1
  Ni  Ni6  1  0.666667  0.333333  0.621998  1
  Ni  Ni7  1  0.333333  0.666667  0.351838  1
  As  As8  1  0.333333  0.666667  0.621815  1
  As  As9  1  0.666667  0.333333  0.371021  1
  As  As10  1  0.666667  0.333333  0.128979  1
  As  As11  1  0.333333  0.666667  0.878185  1
