# generated using pymatgen
data_Nd8Dy12Si15Pd
_symmetry_space_group_name_H-M   'P 1'
_cell_length_a   7.73762307
_cell_length_b   7.79569288
_cell_length_c   14.29690700
_cell_angle_alpha   90.01139199
_cell_angle_beta   89.86315122
_cell_angle_gamma   89.97536178
_symmetry_Int_Tables_number   1
_chemical_formula_structural   Nd8Dy12Si15Pd
_chemical_formula_sum   'Nd8 Dy12 Si15 Pd1'
_cell_volume   862.38877565
_cell_formula_units_Z   1
loop_
 _symmetry_equiv_pos_site_id
 _symmetry_equiv_pos_as_xyz
  1  'x, y, z'
loop_
 _atom_site_type_symbol
 _atom_site_label
 _atom_site_symmetry_multiplicity
 _atom_site_fract_x
 _atom_site_fract_y
 _atom_site_fract_z
 _atom_site_occupancy
  Nd  Nd0  1  0.988627  0.360228  0.209362  1
  Nd  Nd1  1  0.008544  0.642577  0.710435  1
  Nd  Nd2  1  0.143224  0.500521  0.458080  1
  Nd  Nd3  1  0.508167  0.855163  0.039037  1
  Nd  Nd4  1  0.854522  0.505301  0.959341  1
  Nd  Nd5  1  0.496610  0.142117  0.543904  1
  Nd  Nd6  1  0.359068  0.992872  0.791435  1
  Nd  Nd7  1  0.643496  0.006298  0.290170  1
  Dy  Dy8  1  0.182534  0.183290  0.000803  1
  Dy  Dy9  1  0.823556  0.818706  0.500148  1
  Dy  Dy10  1  0.319577  0.685254  0.249054  1
  Dy  Dy11  1  0.683639  0.319187  0.749808  1
  Dy  Dy12  1  0.146665  0.010866  0.374896  1
  Dy  Dy13  1  0.860067  0.992818  0.875188  1
  Dy  Dy14  1  0.492489  0.640686  0.627018  1
  Dy  Dy15  1  0.363158  0.507560  0.873973  1
  Dy  Dy16  1  0.503255  0.355170  0.126826  1
  Dy  Dy17  1  0.633731  0.491096  0.377408  1
  Dy  Dy18  1  0.008637  0.140722  0.624431  1
  Dy  Dy19  1  0.988754  0.857053  0.122931  1
  Si  Si20  1  0.652034  0.704713  0.811935  1
  Si  Si21  1  0.207269  0.851892  0.562685  1
  Si  Si22  1  0.148319  0.789971  0.937329  1
  Si  Si23  1  0.793937  0.149198  0.061192  1
  Si  Si24  1  0.850304  0.205767  0.437773  1
  Si  Si25  1  0.295542  0.349294  0.690078  1
  Si  Si26  1  0.701143  0.650857  0.189228  1
  Si  Si27  1  0.289372  0.053492  0.184587  1
  Si  Si28  1  0.709927  0.937162  0.688743  1
  Si  Si29  1  0.438562  0.794809  0.440881  1
  Si  Si30  1  0.208280  0.565893  0.059287  1
  Si  Si31  1  0.563378  0.206478  0.939076  1
  Si  Si32  1  0.791814  0.436995  0.561563  1
  Si  Si33  1  0.065028  0.289389  0.811149  1
  Si  Si34  1  0.931835  0.709142  0.311619  1
  Pd  Pd35  1  0.344940  0.297466  0.308625  1
