# generated using pymatgen
data_CsVTe3O8
_symmetry_space_group_name_H-M   'P 1'
_cell_length_a   5.73972476
_cell_length_b   7.90867690
_cell_length_c   11.12648315
_cell_angle_alpha   100.22308364
_cell_angle_beta   90.15799892
_cell_angle_gamma   108.57202801
_symmetry_Int_Tables_number   1
_chemical_formula_structural   CsVTe3O8
_chemical_formula_sum   'Cs2 V2 Te6 O16'
_cell_volume   470.21608414
_cell_formula_units_Z   2
loop_
 _symmetry_equiv_pos_site_id
 _symmetry_equiv_pos_as_xyz
  1  'x, y, z'
loop_
 _atom_site_type_symbol
 _atom_site_label
 _atom_site_symmetry_multiplicity
 _atom_site_fract_x
 _atom_site_fract_y
 _atom_site_fract_z
 _atom_site_occupancy
  Cs  Cs0  1  0.820769  0.108470  0.161998  1
  Cs  Cs1  1  0.179231  0.891530  0.838002  1
  V  V2  1  0.500000  0.500000  0.000000  1
  V  V3  1  0.000000  0.500000  0.500000  1
  Te  Te4  1  0.215210  0.969212  0.416757  1
  Te  Te5  1  0.784790  0.030788  0.583243  1
  Te  Te6  1  0.051521  0.649704  0.145370  1
  Te  Te7  1  0.948479  0.350296  0.854630  1
  Te  Te8  1  0.519387  0.534278  0.340667  1
  Te  Te9  1  0.480613  0.465722  0.659333  1
  O  O10  1  0.171073  0.724621  0.426798  1
  O  O11  1  0.828927  0.275379  0.573202  1
  O  O12  1  0.227461  0.899817  0.227392  1
  O  O13  1  0.772539  0.100183  0.772608  1
  O  O14  1  0.880249  0.961990  0.394565  1
  O  O15  1  0.119751  0.038010  0.605435  1
  O  O16  1  0.257827  0.654199  0.012067  1
  O  O17  1  0.742173  0.345801  0.987933  1
  O  O18  1  0.802247  0.715178  0.071683  1
  O  O19  1  0.197753  0.284822  0.928317  1
  O  O20  1  0.409418  0.445440  0.171841  1
  O  O21  1  0.590582  0.554560  0.828159  1
  O  O22  1  0.248156  0.378376  0.408625  1
  O  O23  1  0.751844  0.621624  0.591375  1
  O  O24  1  0.747649  0.406193  0.354318  1
  O  O25  1  0.252351  0.593807  0.645682  1
