# generated using pymatgen
data_Er2TmSc3CrBi2
_symmetry_space_group_name_H-M   'P 1'
_cell_length_a   7.91804260
_cell_length_b   7.91804151
_cell_length_c   4.25217100
_cell_angle_alpha   90.00000000
_cell_angle_beta   90.00000000
_cell_angle_gamma   120.00042054
_symmetry_Int_Tables_number   1
_chemical_formula_structural   Er2TmSc3CrBi2
_chemical_formula_sum   'Er2 Tm1 Sc3 Cr1 Bi2'
_cell_volume   230.87404965
_cell_formula_units_Z   1
loop_
 _symmetry_equiv_pos_site_id
 _symmetry_equiv_pos_as_xyz
  1  'x, y, z'
loop_
 _atom_site_type_symbol
 _atom_site_label
 _atom_site_symmetry_multiplicity
 _atom_site_fract_x
 _atom_site_fract_y
 _atom_site_fract_z
 _atom_site_occupancy
  Er  Er0  1  0.612290  0.000087  0.000000  1
  Er  Er1  1  0.000087  0.612290  0.000000  1
  Tm  Tm2  1  0.386780  0.386780  0.000000  1
  Sc  Sc3  1  0.226976  0.000456  0.500000  1
  Sc  Sc4  1  0.000456  0.226976  0.500000  1
  Sc  Sc5  1  0.773412  0.773412  0.500000  1
  Cr  Cr6  1  0.000096  0.000096  0.000000  1
  Bi  Bi7  1  0.333551  0.666355  0.500000  1
  Bi  Bi8  1  0.666355  0.333551  0.500000  1
