# generated using pymatgen
data_Na2In2Se3
_symmetry_space_group_name_H-M   'P 1'
_cell_length_a   7.26094187
_cell_length_b   7.26165205
_cell_length_c   9.16302714
_cell_angle_alpha   82.46290970
_cell_angle_beta   82.41974032
_cell_angle_gamma   120.03882791
_symmetry_Int_Tables_number   1
_chemical_formula_structural   Na2In2Se3
_chemical_formula_sum   'Na4 In4 Se6'
_cell_volume   403.49130741
_cell_formula_units_Z   2
loop_
 _symmetry_equiv_pos_site_id
 _symmetry_equiv_pos_as_xyz
  1  'x, y, z'
loop_
 _atom_site_type_symbol
 _atom_site_label
 _atom_site_symmetry_multiplicity
 _atom_site_fract_x
 _atom_site_fract_y
 _atom_site_fract_z
 _atom_site_occupancy
  Na  Na0  1  0.666455  0.332826  0.000154  1
  Na  Na1  1  0.331976  0.667149  0.000289  1
  Na  Na2  1  0.001409  0.999699  0.000269  1
  Na  Na3  1  0.501029  0.500458  0.498240  1
  In  In4  1  0.886066  0.218973  0.341686  1
  In  In5  1  0.781672  0.114327  0.656094  1
  In  In6  1  0.218997  0.885671  0.343588  1
  In  In7  1  0.114125  0.780994  0.657598  1
  Se  Se8  1  0.408411  0.079988  0.778682  1
  Se  Se9  1  0.078659  0.407048  0.779355  1
  Se  Se10  1  0.918117  0.592487  0.222852  1
  Se  Se11  1  0.734700  0.735112  0.778846  1
  Se  Se12  1  0.591780  0.919352  0.220754  1
  Se  Se13  1  0.266604  0.265918  0.221593  1
