# generated using pymatgen
data_Ba4Na3Ta4TlS16
_symmetry_space_group_name_H-M   'P 1'
_cell_length_a   9.74212191
_cell_length_b   6.80628514
_cell_length_c   12.73077026
_cell_angle_alpha   70.10242971
_cell_angle_beta   89.01172317
_cell_angle_gamma   89.19820604
_symmetry_Int_Tables_number   1
_chemical_formula_structural   Ba4Na3Ta4TlS16
_chemical_formula_sum   'Ba4 Na3 Ta4 Tl1 S16'
_cell_volume   793.60643172
_cell_formula_units_Z   1
loop_
 _symmetry_equiv_pos_site_id
 _symmetry_equiv_pos_as_xyz
  1  'x, y, z'
loop_
 _atom_site_type_symbol
 _atom_site_label
 _atom_site_symmetry_multiplicity
 _atom_site_fract_x
 _atom_site_fract_y
 _atom_site_fract_z
 _atom_site_occupancy
  Ba  Ba0  1  0.878698  0.381361  0.345929  1
  Ba  Ba1  1  0.617011  0.394744  0.841235  1
  Ba  Ba2  1  0.120693  0.612286  0.658344  1
  Ba  Ba3  1  0.384595  0.611107  0.156534  1
  Na  Na4  1  0.386061  0.230041  0.526972  1
  Na  Na5  1  0.883328  0.771997  0.970317  1
  Na  Na6  1  0.613697  0.768849  0.473559  1
  Ta  Ta7  1  0.623567  0.116129  0.185873  1
  Ta  Ta8  1  0.875562  0.115875  0.679404  1
  Ta  Ta9  1  0.382374  0.894568  0.812761  1
  Ta  Ta10  1  0.120030  0.870361  0.323493  1
  Tl  Tl11  1  0.117954  0.226214  0.022162  1
  S  S12  1  0.802686  0.321413  0.094120  1
  S  S13  1  0.695040  0.315889  0.585746  1
  S  S14  1  0.195921  0.715723  0.905452  1
  S  S15  1  0.302925  0.673130  0.413426  1
  S  S16  1  0.931355  0.803835  0.436581  1
  S  S17  1  0.565814  0.810112  0.928710  1
  S  S18  1  0.067094  0.189682  0.568777  1
  S  S19  1  0.440706  0.194502  0.070487  1
  S  S20  1  0.568031  0.207798  0.338972  1
  S  S21  1  0.916189  0.209650  0.832044  1
  S  S22  1  0.429951  0.793396  0.660969  1
  S  S23  1  0.071949  0.774602  0.171761  1
  S  S24  1  0.162153  0.220021  0.265092  1
  S  S25  1  0.344087  0.246345  0.757535  1
  S  S26  1  0.837987  0.764775  0.736465  1
  S  S27  1  0.664542  0.765594  0.237280  1
