# generated using pymatgen
data_Ho12Fe4PtPb
_symmetry_space_group_name_H-M   'P 1'
_cell_length_a   8.30388927
_cell_length_b   8.30388872
_cell_length_c   8.30388800
_cell_angle_alpha   110.79001616
_cell_angle_beta   110.70815102
_cell_angle_gamma   106.94466577
_symmetry_Int_Tables_number   1
_chemical_formula_structural   Ho12Fe4PtPb
_chemical_formula_sum   'Ho12 Fe4 Pt1 Pb1'
_cell_volume   440.14129402
_cell_formula_units_Z   1
loop_
 _symmetry_equiv_pos_site_id
 _symmetry_equiv_pos_as_xyz
  1  'x, y, z'
loop_
 _atom_site_type_symbol
 _atom_site_label
 _atom_site_symmetry_multiplicity
 _atom_site_fract_x
 _atom_site_fract_y
 _atom_site_fract_z
 _atom_site_occupancy
  Ho  Ho0  1  0.312509  0.615388  0.302879  1
  Ho  Ho1  1  0.687491  0.384612  0.697121  1
  Ho  Ho2  1  0.312509  0.009628  0.697121  1
  Ho  Ho3  1  0.687491  0.990372  0.302879  1
  Ho  Ho4  1  0.185013  0.288265  0.473277  1
  Ho  Ho5  1  0.814987  0.711735  0.526723  1
  Ho  Ho6  1  0.185013  0.711735  0.896750  1
  Ho  Ho7  1  0.814987  0.288265  0.103250  1
  Ho  Ho8  1  0.415355  0.214798  0.200556  1
  Ho  Ho9  1  0.584645  0.785202  0.799444  1
  Ho  Ho10  1  0.014241  0.214798  0.799444  1
  Ho  Ho11  1  0.985759  0.785202  0.200556  1
  Fe  Fe12  1  0.108006  0.608006  0.500000  1
  Fe  Fe13  1  0.891994  0.391994  0.500000  1
  Fe  Fe14  1  0.385455  0.000000  0.385455  1
  Fe  Fe15  1  0.614545  0.000000  0.614545  1
  Pt  Pt16  1  0.000000  0.000000  0.000000  1
  Pb  Pb17  1  0.500000  0.500000  0.000000  1
