# generated using pymatgen
data_Lu3Co8MoP6
_symmetry_space_group_name_H-M   'P 1'
_cell_length_a   3.68928800
_cell_length_b   10.50885800
_cell_length_c   12.13954100
_cell_angle_alpha   90.00000000
_cell_angle_beta   90.00000000
_cell_angle_gamma   90.00000000
_symmetry_Int_Tables_number   1
_chemical_formula_structural   Lu3Co8MoP6
_chemical_formula_sum   'Lu6 Co16 Mo2 P12'
_cell_volume   470.65247755
_cell_formula_units_Z   2
loop_
 _symmetry_equiv_pos_site_id
 _symmetry_equiv_pos_as_xyz
  1  'x, y, z'
loop_
 _atom_site_type_symbol
 _atom_site_label
 _atom_site_symmetry_multiplicity
 _atom_site_fract_x
 _atom_site_fract_y
 _atom_site_fract_z
 _atom_site_occupancy
  Lu  Lu0  1  0.750000  0.250000  0.474594  1
  Lu  Lu1  1  0.250000  0.750000  0.525406  1
  Lu  Lu2  1  0.250000  0.930397  0.794991  1
  Lu  Lu3  1  0.250000  0.569603  0.794991  1
  Lu  Lu4  1  0.750000  0.069603  0.205009  1
  Lu  Lu5  1  0.750000  0.430397  0.205009  1
  Co  Co6  1  0.250000  0.250000  0.299208  1
  Co  Co7  1  0.750000  0.750000  0.700792  1
  Co  Co8  1  0.750000  0.250000  0.014099  1
  Co  Co9  1  0.250000  0.750000  0.985901  1
  Co  Co10  1  0.250000  0.417532  0.010582  1
  Co  Co11  1  0.250000  0.082468  0.010582  1
  Co  Co12  1  0.750000  0.582468  0.989418  1
  Co  Co13  1  0.750000  0.917532  0.989418  1
  Co  Co14  1  0.250000  0.453808  0.568123  1
  Co  Co15  1  0.250000  0.046192  0.568123  1
  Co  Co16  1  0.750000  0.546192  0.431877  1
  Co  Co17  1  0.750000  0.953808  0.431877  1
  Co  Co18  1  0.250000  0.873155  0.294295  1
  Co  Co19  1  0.250000  0.626845  0.294295  1
  Co  Co20  1  0.750000  0.126845  0.705705  1
  Co  Co21  1  0.750000  0.373155  0.705705  1
  Mo  Mo22  1  0.250000  0.250000  0.841858  1
  Mo  Mo23  1  0.750000  0.750000  0.158142  1
  P  P24  1  0.250000  0.250000  0.120717  1
  P  P25  1  0.750000  0.750000  0.879283  1
  P  P26  1  0.250000  0.250000  0.647940  1
  P  P27  1  0.750000  0.750000  0.352060  1
  P  P28  1  0.250000  0.436928  0.383355  1
  P  P29  1  0.250000  0.063072  0.383355  1
  P  P30  1  0.750000  0.563072  0.616645  1
  P  P31  1  0.750000  0.936928  0.616645  1
  P  P32  1  0.250000  0.906397  0.108578  1
  P  P33  1  0.250000  0.593603  0.108578  1
  P  P34  1  0.750000  0.093603  0.891422  1
  P  P35  1  0.750000  0.406397  0.891422  1
