# generated using pymatgen
data_TbPrBi2O7
_symmetry_space_group_name_H-M   'P 1'
_cell_length_a   6.70192779
_cell_length_b   6.80258350
_cell_length_c   7.88610978
_cell_angle_alpha   106.55897700
_cell_angle_beta   89.66290103
_cell_angle_gamma   98.00827681
_symmetry_Int_Tables_number   1
_chemical_formula_structural   TbPrBi2O7
_chemical_formula_sum   'Tb2 Pr2 Bi4 O14'
_cell_volume   341.04273821
_cell_formula_units_Z   2
loop_
 _symmetry_equiv_pos_site_id
 _symmetry_equiv_pos_as_xyz
  1  'x, y, z'
loop_
 _atom_site_type_symbol
 _atom_site_label
 _atom_site_symmetry_multiplicity
 _atom_site_fract_x
 _atom_site_fract_y
 _atom_site_fract_z
 _atom_site_occupancy
  Tb  Tb0  1  0.458265  0.004913  0.252100  1
  Tb  Tb1  1  0.541735  0.995087  0.747900  1
  Pr  Pr2  1  0.258801  0.537476  0.883457  1
  Pr  Pr3  1  0.741199  0.462524  0.116543  1
  Bi  Bi4  1  0.000000  0.000000  0.500000  1
  Bi  Bi5  1  0.000000  0.000000  0.000000  1
  Bi  Bi6  1  0.723028  0.456886  0.610322  1
  Bi  Bi7  1  0.276972  0.543114  0.389678  1
  O  O8  1  0.443306  0.655475  0.173931  1
  O  O9  1  0.556694  0.344525  0.826069  1
  O  O10  1  0.303027  0.931583  0.949138  1
  O  O11  1  0.696973  0.068417  0.050862  1
  O  O12  1  0.300577  0.921094  0.513175  1
  O  O13  1  0.699423  0.078906  0.486825  1
  O  O14  1  0.537592  0.356117  0.347054  1
  O  O15  1  0.462408  0.643883  0.652946  1
  O  O16  1  0.931629  0.676386  0.960134  1
  O  O17  1  0.068371  0.323614  0.039866  1
  O  O18  1  0.085830  0.320530  0.621924  1
  O  O19  1  0.914170  0.679470  0.378076  1
  O  O20  1  0.878883  0.932336  0.733761  1
  O  O21  1  0.121117  0.067664  0.266239  1
