# generated using pymatgen
data_Er2UTc3
_symmetry_space_group_name_H-M   'P 1'
_cell_length_a   5.75391600
_cell_length_b   5.75391563
_cell_length_c   8.21349700
_cell_angle_alpha   90.00000000
_cell_angle_beta   90.00000000
_cell_angle_gamma   120.00000213
_symmetry_Int_Tables_number   1
_chemical_formula_structural   Er2UTc3
_chemical_formula_sum   'Er4 U2 Tc6'
_cell_volume   235.49719151
_cell_formula_units_Z   2
loop_
 _symmetry_equiv_pos_site_id
 _symmetry_equiv_pos_as_xyz
  1  'x, y, z'
loop_
 _atom_site_type_symbol
 _atom_site_label
 _atom_site_symmetry_multiplicity
 _atom_site_fract_x
 _atom_site_fract_y
 _atom_site_fract_z
 _atom_site_occupancy
  Er  Er0  1  0.333333  0.666667  0.440361  1
  Er  Er1  1  0.666667  0.333333  0.559639  1
  Er  Er2  1  0.666667  0.333333  0.940361  1
  Er  Er3  1  0.333333  0.666667  0.059639  1
  U  U4  1  0.000000  0.000000  0.500000  1
  U  U5  1  0.000000  0.000000  0.000000  1
  Tc  Tc6  1  0.835206  0.164794  0.250000  1
  Tc  Tc7  1  0.835206  0.670413  0.250000  1
  Tc  Tc8  1  0.329587  0.164794  0.250000  1
  Tc  Tc9  1  0.164794  0.835206  0.750000  1
  Tc  Tc10  1  0.164794  0.329587  0.750000  1
  Tc  Tc11  1  0.670413  0.835206  0.750000  1
