# generated using pymatgen
data_Ho6Hf7Ga9Ir7
_symmetry_space_group_name_H-M   'P 1'
_cell_length_a   9.26157731
_cell_length_b   9.26157761
_cell_length_c   9.26157749
_cell_angle_alpha   59.18665344
_cell_angle_beta   59.18665351
_cell_angle_gamma   59.18665193
_symmetry_Int_Tables_number   1
_chemical_formula_structural   Ho6Hf7Ga9Ir7
_chemical_formula_sum   'Ho6 Hf7 Ga9 Ir7'
_cell_volume   551.33533577
_cell_formula_units_Z   1
loop_
 _symmetry_equiv_pos_site_id
 _symmetry_equiv_pos_as_xyz
  1  'x, y, z'
loop_
 _atom_site_type_symbol
 _atom_site_label
 _atom_site_symmetry_multiplicity
 _atom_site_fract_x
 _atom_site_fract_y
 _atom_site_fract_z
 _atom_site_occupancy
  Ho  Ho0  1  0.691425  0.691425  0.310470  1
  Ho  Ho1  1  0.303644  0.705115  0.303644  1
  Ho  Ho2  1  0.705115  0.303644  0.303644  1
  Ho  Ho3  1  0.303644  0.303644  0.705115  1
  Ho  Ho4  1  0.691425  0.310470  0.691425  1
  Ho  Ho5  1  0.310470  0.691425  0.691425  1
  Hf  Hf6  1  0.877981  0.877981  0.371732  1
  Hf  Hf7  1  0.877981  0.371732  0.877981  1
  Hf  Hf8  1  0.371732  0.877981  0.877981  1
  Hf  Hf9  1  0.873975  0.873975  0.873975  1
  Hf  Hf10  1  0.124891  0.124891  0.626271  1
  Hf  Hf11  1  0.124891  0.626271  0.124891  1
  Hf  Hf12  1  0.626271  0.124891  0.124891  1
  Ga  Ga13  1  0.115405  0.115405  0.115405  1
  Ga  Ga14  1  0.657626  0.657626  0.027374  1
  Ga  Ga15  1  0.657626  0.027374  0.657626  1
  Ga  Ga16  1  0.027374  0.657626  0.657626  1
  Ga  Ga17  1  0.656626  0.656626  0.656626  1
  Ga  Ga18  1  0.333490  0.333490  0.991948  1
  Ga  Ga19  1  0.333490  0.991948  0.333490  1
  Ga  Ga20  1  0.991948  0.333490  0.333490  1
  Ga  Ga21  1  0.340481  0.340481  0.340481  1
  Ir  Ir22  1  0.994967  0.994967  0.994967  1
  Ir  Ir23  1  0.000494  0.000494  0.502097  1
  Ir  Ir24  1  0.501459  0.001518  0.501459  1
  Ir  Ir25  1  0.001518  0.501459  0.501459  1
  Ir  Ir26  1  0.501459  0.501459  0.001518  1
  Ir  Ir27  1  0.000494  0.502097  0.000494  1
  Ir  Ir28  1  0.502097  0.000494  0.000494  1
