# generated using pymatgen
data_DyHo4Nb2P12Ir17
_symmetry_space_group_name_H-M   'P 1'
_cell_length_a   12.58131101
_cell_length_b   12.78295990
_cell_length_c   3.99788200
_cell_angle_alpha   90.00000000
_cell_angle_beta   90.00000000
_cell_angle_gamma   119.47539603
_symmetry_Int_Tables_number   1
_chemical_formula_structural   DyHo4Nb2P12Ir17
_chemical_formula_sum   'Dy1 Ho4 Nb2 P12 Ir17'
_cell_volume   559.74411088
_cell_formula_units_Z   1
loop_
 _symmetry_equiv_pos_site_id
 _symmetry_equiv_pos_as_xyz
  1  'x, y, z'
loop_
 _atom_site_type_symbol
 _atom_site_label
 _atom_site_symmetry_multiplicity
 _atom_site_fract_x
 _atom_site_fract_y
 _atom_site_fract_z
 _atom_site_occupancy
  Dy  Dy0  1  0.668790  0.338460  0.500000  1
  Ho  Ho1  1  0.330334  0.661457  0.500000  1
  Ho  Ho2  1  0.999037  0.813310  0.000000  1
  Ho  Ho3  1  0.185732  0.186686  0.000000  1
  Ho  Ho4  1  0.815025  0.000003  0.000000  1
  Nb  Nb5  1  0.997642  0.450878  0.500000  1
  Nb  Nb6  1  0.546709  0.549185  0.500000  1
  P  P7  1  0.002898  0.642381  0.500000  1
  P  P8  1  0.360537  0.357580  0.500000  1
  P  P9  1  0.645881  0.000047  0.500000  1
  P  P10  1  0.514355  0.683168  0.000000  1
  P  P11  1  0.308977  0.823924  0.000000  1
  P  P12  1  0.163476  0.480959  0.000000  1
  P  P13  1  0.484875  0.175883  0.000000  1
  P  P14  1  0.682521  0.519208  0.000000  1
  P  P15  1  0.831408  0.316889  0.000000  1
  P  P16  1  0.000167  0.175487  0.500000  1
  P  P17  1  0.824651  0.824548  0.500000  1
  P  P18  1  0.180656  0.999960  0.500000  1
  Ir  Ir19  1  0.505397  0.863769  0.000000  1
  Ir  Ir20  1  0.128160  0.641222  0.000000  1
  Ir  Ir21  1  0.354487  0.493590  0.000000  1
  Ir  Ir22  1  0.486597  0.358792  0.000000  1
  Ir  Ir23  1  0.861301  0.506763  0.000000  1
  Ir  Ir24  1  0.641620  0.135921  0.000000  1
  Ir  Ir25  1  0.464484  0.999962  0.500000  1
  Ir  Ir26  1  0.997428  0.282011  0.000000  1
  Ir  Ir27  1  0.715348  0.718036  0.000000  1
  Ir  Ir28  1  0.291359  0.999948  0.000000  1
  Ir  Ir29  1  0.624638  0.807378  0.500000  1
  Ir  Ir30  1  0.201230  0.823786  0.500000  1
  Ir  Ir31  1  0.177585  0.368190  0.500000  1
  Ir  Ir32  1  0.377317  0.176112  0.500000  1
  Ir  Ir33  1  0.809398  0.631907  0.500000  1
  Ir  Ir34  1  0.817356  0.192600  0.500000  1
  Ir  Ir35  1  0.002625  0.999999  0.500000  1
