# generated using pymatgen
data_Nd3Sc7Si20(IrPt)4
_symmetry_space_group_name_H-M   'P 1'
_cell_length_a   12.49028001
_cell_length_b   12.53614075
_cell_length_c   4.20786900
_cell_angle_alpha   90.00000000
_cell_angle_beta   90.00000000
_cell_angle_gamma   90.19865279
_symmetry_Int_Tables_number   1
_chemical_formula_structural   Nd3Sc7Si20(IrPt)4
_chemical_formula_sum   'Nd3 Sc7 Si20 Ir4 Pt4'
_cell_volume   658.86378131
_cell_formula_units_Z   1
loop_
 _symmetry_equiv_pos_site_id
 _symmetry_equiv_pos_as_xyz
  1  'x, y, z'
loop_
 _atom_site_type_symbol
 _atom_site_label
 _atom_site_symmetry_multiplicity
 _atom_site_fract_x
 _atom_site_fract_y
 _atom_site_fract_z
 _atom_site_occupancy
  Nd  Nd0  1  0.114990  0.614296  0.500000  1
  Nd  Nd1  1  0.885710  0.385043  0.500000  1
  Nd  Nd2  1  0.613572  0.886374  0.500000  1
  Sc  Sc3  1  0.385560  0.114992  0.500000  1
  Sc  Sc4  1  0.674378  0.174329  0.500000  1
  Sc  Sc5  1  0.325452  0.825755  0.500000  1
  Sc  Sc6  1  0.177674  0.324697  0.500000  1
  Sc  Sc7  1  0.823832  0.673670  0.500000  1
  Sc  Sc8  1  0.997173  0.000130  0.000000  1
  Sc  Sc9  1  0.499742  0.502706  0.000000  1
  Si  Si10  1  0.567006  0.066572  0.000000  1
  Si  Si11  1  0.432984  0.933138  0.000000  1
  Si  Si12  1  0.070016  0.433321  0.000000  1
  Si  Si13  1  0.930225  0.566050  0.000000  1
  Si  Si14  1  0.206590  0.165880  0.000000  1
  Si  Si15  1  0.796100  0.835302  0.000000  1
  Si  Si16  1  0.168397  0.796825  0.000000  1
  Si  Si17  1  0.701238  0.335927  0.000000  1
  Si  Si18  1  0.833117  0.200452  0.000000  1
  Si  Si19  1  0.301475  0.662325  0.000000  1
  Si  Si20  1  0.663075  0.699313  0.000000  1
  Si  Si21  1  0.335937  0.299183  0.000000  1
  Si  Si22  1  0.009393  0.147802  0.500000  1
  Si  Si23  1  0.992098  0.852216  0.500000  1
  Si  Si24  1  0.149389  0.995465  0.500000  1
  Si  Si25  1  0.505196  0.349326  0.500000  1
  Si  Si26  1  0.848639  0.009800  0.500000  1
  Si  Si27  1  0.489606  0.652074  0.500000  1
  Si  Si28  1  0.650417  0.507548  0.500000  1
  Si  Si29  1  0.349590  0.491353  0.500000  1
  Ir  Ir30  1  0.758846  0.023325  0.000000  1
  Ir  Ir31  1  0.476139  0.742748  0.000000  1
  Ir  Ir32  1  0.739568  0.522834  0.000000  1
  Ir  Ir33  1  0.260423  0.474939  0.000000  1
  Pt  Pt34  1  0.024898  0.239789  0.000000  1
  Pt  Pt35  1  0.977376  0.759879  0.000000  1
  Pt  Pt36  1  0.243487  0.979676  0.000000  1
  Pt  Pt37  1  0.520689  0.254948  0.000000  1
