# generated using pymatgen
data_Gd7Er3Co4
_symmetry_space_group_name_H-M   'P 1'
_cell_length_a   6.30502387
_cell_length_b   6.92077051
_cell_length_c   8.57747200
_cell_angle_alpha   96.19367316
_cell_angle_beta   111.65187725
_cell_angle_gamma   90.00058900
_symmetry_Int_Tables_number   1
_chemical_formula_structural   Gd7Er3Co4
_chemical_formula_sum   'Gd7 Er3 Co4'
_cell_volume   345.52310932
_cell_formula_units_Z   1
loop_
 _symmetry_equiv_pos_site_id
 _symmetry_equiv_pos_as_xyz
  1  'x, y, z'
loop_
 _atom_site_type_symbol
 _atom_site_label
 _atom_site_symmetry_multiplicity
 _atom_site_fract_x
 _atom_site_fract_y
 _atom_site_fract_z
 _atom_site_occupancy
  Gd  Gd0  1  0.795735  0.588111  0.813106  1
  Gd  Gd1  1  0.984321  0.913144  0.188384  1
  Gd  Gd2  1  0.204822  0.412241  0.189172  1
  Gd  Gd3  1  0.018221  0.088279  0.812756  1
  Gd  Gd4  1  0.217280  0.684104  0.569941  1
  Gd  Gd5  1  0.644826  0.816935  0.430126  1
  Gd  Gd6  1  0.782274  0.314223  0.431400  1
  Er  Er7  1  0.352665  0.184823  0.570424  1
  Er  Er8  1  0.430411  0.749500  0.999836  1
  Er  Er9  1  0.571080  0.249597  0.998908  1
  Co  Co10  1  0.599766  0.929525  0.779493  1
  Co  Co11  1  0.819167  0.570694  0.218635  1
  Co  Co12  1  0.397866  0.071035  0.218121  1
  Co  Co13  1  0.181566  0.427790  0.779699  1
