# generated using pymatgen
data_TbNd3Y2(AlC3)2
_symmetry_space_group_name_H-M   'P 1'
_cell_length_a   3.66879500
_cell_length_b   7.27032748
_cell_length_c   10.11765298
_cell_angle_alpha   89.19092927
_cell_angle_beta   90.00000000
_cell_angle_gamma   90.00000000
_symmetry_Int_Tables_number   1
_chemical_formula_structural   TbNd3Y2(AlC3)2
_chemical_formula_sum   'Tb1 Nd3 Y2 Al2 C6'
_cell_volume   269.84470319
_cell_formula_units_Z   1
loop_
 _symmetry_equiv_pos_site_id
 _symmetry_equiv_pos_as_xyz
  1  'x, y, z'
loop_
 _atom_site_type_symbol
 _atom_site_label
 _atom_site_symmetry_multiplicity
 _atom_site_fract_x
 _atom_site_fract_y
 _atom_site_fract_z
 _atom_site_occupancy
  Tb  Tb0  1  0.000000  0.249348  0.545399  1
  Nd  Nd1  1  0.500000  0.510194  0.192619  1
  Nd  Nd2  1  0.500000  0.488703  0.807000  1
  Nd  Nd3  1  0.000000  0.750821  0.462680  1
  Y  Y4  1  0.500000  0.990563  0.201102  1
  Y  Y5  1  0.500000  0.009910  0.797412  1
  Al  Al6  1  0.000000  0.777391  0.007795  1
  Al  Al7  1  0.000000  0.222620  0.990615  1
  C  C8  1  0.500000  0.498507  0.564620  1
  C  C9  1  0.500000  0.483819  0.434760  1
  C  C10  1  0.500000  0.000873  0.563941  1
  C  C11  1  0.500000  0.017530  0.433837  1
  C  C12  1  0.000000  0.759134  0.207496  1
  C  C13  1  0.000000  0.240585  0.790724  1
