# generated using pymatgen
data_Cs4Na2TiZnAs4
_symmetry_space_group_name_H-M   'P 1'
_cell_length_a   9.71815356
_cell_length_b   9.71815320
_cell_length_c   9.71815307
_cell_angle_alpha   140.53299875
_cell_angle_beta   137.78928924
_cell_angle_gamma   59.15817518
_symmetry_Int_Tables_number   1
_chemical_formula_structural   Cs4Na2TiZnAs4
_chemical_formula_sum   'Cs4 Na2 Ti1 Zn1 As4'
_cell_volume   388.18014242
_cell_formula_units_Z   1
loop_
 _symmetry_equiv_pos_site_id
 _symmetry_equiv_pos_as_xyz
  1  'x, y, z'
loop_
 _atom_site_type_symbol
 _atom_site_label
 _atom_site_symmetry_multiplicity
 _atom_site_fract_x
 _atom_site_fract_y
 _atom_site_fract_z
 _atom_site_occupancy
  Cs  Cs0  1  0.093087  0.312272  0.756257  1
  Cs  Cs1  1  0.443984  0.187728  0.280815  1
  Cs  Cs2  1  0.906913  0.663169  0.219185  1
  Cs  Cs3  1  0.556016  0.836831  0.743743  1
  Na  Na4  1  0.500000  0.750000  0.250000  1
  Na  Na5  1  0.500000  0.250000  0.750000  1
  Ti  Ti6  1  0.000000  0.750000  0.750000  1
  Zn  Zn7  1  0.000000  0.250000  0.250000  1
  As  As8  1  0.116295  0.904183  0.189334  1
  As  As9  1  0.883705  0.073039  0.787888  1
  As  As10  1  0.285151  0.595817  0.712112  1
  As  As11  1  0.714849  0.426961  0.310666  1
