# generated using pymatgen
data_Y8Ho11TmPt16
_symmetry_space_group_name_H-M   'P 1'
_cell_length_a   7.46396500
_cell_length_b   7.54126900
_cell_length_c   14.68572900
_cell_angle_alpha   90.00000000
_cell_angle_beta   90.00000000
_cell_angle_gamma   89.99905030
_symmetry_Int_Tables_number   1
_chemical_formula_structural   Y8Ho11TmPt16
_chemical_formula_sum   'Y8 Ho11 Tm1 Pt16'
_cell_volume   826.62690498
_cell_formula_units_Z   1
loop_
 _symmetry_equiv_pos_site_id
 _symmetry_equiv_pos_as_xyz
  1  'x, y, z'
loop_
 _atom_site_type_symbol
 _atom_site_label
 _atom_site_symmetry_multiplicity
 _atom_site_fract_x
 _atom_site_fract_y
 _atom_site_fract_z
 _atom_site_occupancy
  Y  Y0  1  0.998223  0.820049  0.406935  1
  Y  Y1  1  0.498348  0.680118  0.093040  1
  Y  Y2  1  0.501719  0.320024  0.592843  1
  Y  Y3  1  0.001750  0.180032  0.907145  1
  Y  Y4  1  0.001750  0.180032  0.592855  1
  Y  Y5  1  0.501719  0.320024  0.907157  1
  Y  Y6  1  0.498348  0.680118  0.406960  1
  Y  Y7  1  0.998223  0.820049  0.093065  1
  Ho  Ho8  1  0.181184  0.511250  0.250000  1
  Ho  Ho9  1  0.818785  0.488777  0.750000  1
  Ho  Ho10  1  0.318834  0.011236  0.750000  1
  Ho  Ho11  1  0.656272  0.832450  0.622045  1
  Ho  Ho12  1  0.156310  0.667532  0.877930  1
  Ho  Ho13  1  0.843490  0.332237  0.377656  1
  Ho  Ho14  1  0.343894  0.167301  0.122341  1
  Ho  Ho15  1  0.343894  0.167301  0.377659  1
  Ho  Ho16  1  0.843490  0.332237  0.122344  1
  Ho  Ho17  1  0.156310  0.667532  0.622070  1
  Ho  Ho18  1  0.656272  0.832450  0.877955  1
  Tm  Tm19  1  0.681284  0.988889  0.250000  1
  Pt  Pt20  1  0.815626  0.642780  0.250000  1
  Pt  Pt21  1  0.317109  0.858688  0.250000  1
  Pt  Pt22  1  0.683956  0.141702  0.750000  1
  Pt  Pt23  1  0.183846  0.358249  0.750000  1
  Pt  Pt24  1  0.547076  0.384842  0.250000  1
  Pt  Pt25  1  0.045880  0.114160  0.250000  1
  Pt  Pt26  1  0.953191  0.885276  0.750000  1
  Pt  Pt27  1  0.453177  0.614637  0.750000  1
  Pt  Pt28  1  0.817528  0.533262  0.541860  1
  Pt  Pt29  1  0.317550  0.966769  0.958118  1
  Pt  Pt30  1  0.682459  0.033231  0.457659  1
  Pt  Pt31  1  0.182481  0.466753  0.042105  1
  Pt  Pt32  1  0.182481  0.466753  0.457895  1
  Pt  Pt33  1  0.682459  0.033231  0.042341  1
  Pt  Pt34  1  0.317550  0.966769  0.541882  1
  Pt  Pt35  1  0.817528  0.533262  0.958140  1
