# generated using pymatgen
data_Dy11HoTc4
_symmetry_space_group_name_H-M   'P 1'
_cell_length_a   6.27126900
_cell_length_b   7.57441759
_cell_length_c   9.11870900
_cell_angle_alpha   90.00000000
_cell_angle_beta   90.00000000
_cell_angle_gamma   90.11993335
_symmetry_Int_Tables_number   1
_chemical_formula_structural   Dy11HoTc4
_chemical_formula_sum   'Dy11 Ho1 Tc4'
_cell_volume   433.14876448
_cell_formula_units_Z   1
loop_
 _symmetry_equiv_pos_site_id
 _symmetry_equiv_pos_as_xyz
  1  'x, y, z'
loop_
 _atom_site_type_symbol
 _atom_site_label
 _atom_site_symmetry_multiplicity
 _atom_site_fract_x
 _atom_site_fract_y
 _atom_site_fract_z
 _atom_site_occupancy
  Dy  Dy0  1  0.345298  0.673449  0.062762  1
  Dy  Dy1  1  0.153821  0.175313  0.437029  1
  Dy  Dy2  1  0.654963  0.325784  0.562702  1
  Dy  Dy3  1  0.846443  0.825437  0.937026  1
  Dy  Dy4  1  0.654963  0.325784  0.937298  1
  Dy  Dy5  1  0.846443  0.825437  0.562974  1
  Dy  Dy6  1  0.345298  0.673449  0.437238  1
  Dy  Dy7  1  0.153821  0.175313  0.062971  1
  Dy  Dy8  1  0.873351  0.542073  0.250000  1
  Dy  Dy9  1  0.625125  0.039911  0.250000  1
  Dy  Dy10  1  0.125897  0.458757  0.750000  1
  Ho  Ho11  1  0.374703  0.959686  0.750000  1
  Tc  Tc12  1  0.043032  0.882739  0.250000  1
  Tc  Tc13  1  0.458534  0.381730  0.250000  1
  Tc  Tc14  1  0.956115  0.117458  0.750000  1
  Tc  Tc15  1  0.542189  0.617677  0.750000  1
