# generated using pymatgen
data_NpU(BN)2
_symmetry_space_group_name_H-M   'P 1'
_cell_length_a   6.16896511
_cell_length_b   6.16896459
_cell_length_c   3.29822100
_cell_angle_alpha   90.00000000
_cell_angle_beta   90.00000000
_cell_angle_gamma   146.20020970
_symmetry_Int_Tables_number   1
_chemical_formula_structural   NpU(BN)2
_chemical_formula_sum   'Np1 U1 B2 N2'
_cell_volume   69.82446341
_cell_formula_units_Z   1
loop_
 _symmetry_equiv_pos_site_id
 _symmetry_equiv_pos_as_xyz
  1  'x, y, z'
loop_
 _atom_site_type_symbol
 _atom_site_label
 _atom_site_symmetry_multiplicity
 _atom_site_fract_x
 _atom_site_fract_y
 _atom_site_fract_z
 _atom_site_occupancy
  Np  Np0  1  0.862278  0.137722  0.750000  1
  U  U1  1  0.139281  0.860719  0.250000  1
  B  B2  1  0.534000  0.466000  0.750000  1
  B  B3  1  0.465409  0.534591  0.250000  1
  N  N4  1  0.661988  0.338012  0.750000  1
  N  N5  1  0.337044  0.662956  0.250000  1
