# generated using pymatgen
data_Nd10Sn2Bi3Pb
_symmetry_space_group_name_H-M   'P 1'
_cell_length_a   9.43839175
_cell_length_b   9.43298947
_cell_length_c   6.69377500
_cell_angle_alpha   90.00000000
_cell_angle_beta   90.00000000
_cell_angle_gamma   119.71280673
_symmetry_Int_Tables_number   1
_chemical_formula_structural   Nd10Sn2Bi3Pb
_chemical_formula_sum   'Nd10 Sn2 Bi3 Pb1'
_cell_volume   517.60523131
_cell_formula_units_Z   1
loop_
 _symmetry_equiv_pos_site_id
 _symmetry_equiv_pos_as_xyz
  1  'x, y, z'
loop_
 _atom_site_type_symbol
 _atom_site_label
 _atom_site_symmetry_multiplicity
 _atom_site_fract_x
 _atom_site_fract_y
 _atom_site_fract_z
 _atom_site_occupancy
  Nd  Nd0  1  0.335782  0.667067  0.999338  1
  Nd  Nd1  1  0.661233  0.331704  0.500758  1
  Nd  Nd2  1  0.661233  0.331704  0.999242  1
  Nd  Nd3  1  0.335782  0.667067  0.500662  1
  Nd  Nd4  1  0.243849  0.005300  0.250000  1
  Nd  Nd5  1  0.245206  0.239999  0.750000  1
  Nd  Nd6  1  0.002836  0.761099  0.750000  1
  Nd  Nd7  1  0.005332  0.243828  0.250000  1
  Nd  Nd8  1  0.753080  0.753090  0.250000  1
  Nd  Nd9  1  0.751965  0.997599  0.750000  1
  Sn  Sn10  1  0.391509  0.392666  0.250000  1
  Sn  Sn11  1  0.391513  0.998710  0.750000  1
  Bi  Bi12  1  0.610763  0.000786  0.250000  1
  Bi  Bi13  1  0.999837  0.390218  0.750000  1
  Bi  Bi14  1  0.000083  0.609942  0.250000  1
  Pb  Pb15  1  0.609997  0.609221  0.750000  1
