# generated using pymatgen
data_Hf2Al3MoRu6
_symmetry_space_group_name_H-M   'P 1'
_cell_length_a   4.41357100
_cell_length_b   6.24141300
_cell_length_c   13.15082700
_cell_angle_alpha   90.00039802
_cell_angle_beta   90.00065557
_cell_angle_gamma   89.99996866
_symmetry_Int_Tables_number   1
_chemical_formula_structural   Hf2Al3MoRu6
_chemical_formula_sum   'Hf4 Al6 Mo2 Ru12'
_cell_volume   362.26477160
_cell_formula_units_Z   2
loop_
 _symmetry_equiv_pos_site_id
 _symmetry_equiv_pos_as_xyz
  1  'x, y, z'
loop_
 _atom_site_type_symbol
 _atom_site_label
 _atom_site_symmetry_multiplicity
 _atom_site_fract_x
 _atom_site_fract_y
 _atom_site_fract_z
 _atom_site_occupancy
  Hf  Hf0  1  0.999917  0.000009  0.332680  1
  Hf  Hf1  1  0.500006  0.500001  0.500074  1
  Hf  Hf2  1  0.000082  0.000000  0.666583  1
  Hf  Hf3  1  0.500089  0.499990  0.833994  1
  Al  Al4  1  0.000017  0.499978  0.000391  1
  Al  Al5  1  0.499898  0.000022  0.166268  1
  Al  Al6  1  0.999915  0.499991  0.332393  1
  Al  Al7  1  0.500004  0.999999  0.499390  1
  Al  Al8  1  0.000082  0.500001  0.667276  1
  Al  Al9  1  0.500094  0.000009  0.834283  1
  Mo  Mo10  1  0.000007  0.999984  0.998666  1
  Mo  Mo11  1  0.499902  0.500016  0.168011  1
  Ru  Ru12  1  0.500000  0.244080  0.005071  1
  Ru  Ru13  1  0.500000  0.755931  0.005074  1
  Ru  Ru14  1  0.999910  0.255878  0.161589  1
  Ru  Ru15  1  0.999910  0.744112  0.161587  1
  Ru  Ru16  1  0.499913  0.254961  0.325852  1
  Ru  Ru17  1  0.499913  0.745033  0.325850  1
  Ru  Ru18  1  0.000009  0.250649  0.498220  1
  Ru  Ru19  1  0.000009  0.749351  0.498221  1
  Ru  Ru20  1  0.500077  0.249347  0.668436  1
  Ru  Ru21  1  0.500077  0.750653  0.668436  1
  Ru  Ru22  1  0.000083  0.244993  0.840826  1
  Ru  Ru23  1  0.000084  0.755014  0.840827  1
