# generated using pymatgen
data_Sr4Ir4Pt2O19
_symmetry_space_group_name_H-M   'P 1'
_cell_length_a   8.13656141
_cell_length_b   8.12223395
_cell_length_c   8.12071700
_cell_angle_alpha   109.24946537
_cell_angle_beta   109.45310102
_cell_angle_gamma   109.78618365
_symmetry_Int_Tables_number   1
_chemical_formula_structural   Sr4Ir4Pt2O19
_chemical_formula_sum   'Sr4 Ir4 Pt2 O19'
_cell_volume   412.74183570
_cell_formula_units_Z   1
loop_
 _symmetry_equiv_pos_site_id
 _symmetry_equiv_pos_as_xyz
  1  'x, y, z'
loop_
 _atom_site_type_symbol
 _atom_site_label
 _atom_site_symmetry_multiplicity
 _atom_site_fract_x
 _atom_site_fract_y
 _atom_site_fract_z
 _atom_site_occupancy
  Sr  Sr0  1  0.997096  0.003616  0.296103  1
  Sr  Sr1  1  0.002834  0.297092  0.997721  1
  Sr  Sr2  1  0.704024  0.699637  0.707139  1
  Sr  Sr3  1  0.291425  0.998360  0.997739  1
  Ir  Ir4  1  0.499256  0.161932  0.658836  1
  Ir  Ir5  1  0.162296  0.659594  0.502944  1
  Ir  Ir6  1  0.497822  0.839330  0.336544  1
  Ir  Ir7  1  0.661462  0.499076  0.163429  1
  Pt  Pt8  1  0.340629  0.498092  0.841420  1
  Pt  Pt9  1  0.842459  0.340581  0.501607  1
  O  O10  1  0.363387  0.003794  0.359408  1
  O  O11  1  0.358700  0.353534  0.003650  1
  O  O12  1  0.005595  0.647275  0.646685  1
  O  O13  1  0.648449  0.645084  0.006510  1
  O  O14  1  0.003364  0.359148  0.355991  1
  O  O15  1  0.638125  0.001046  0.636697  1
  O  O16  1  0.997192  0.999404  0.998352  1
  O  O17  1  0.339642  0.290729  0.623426  1
  O  O18  1  0.042075  0.321618  0.705901  1
  O  O19  1  0.713946  0.374341  0.672625  1
  O  O20  1  0.375228  0.668027  0.709705  1
  O  O21  1  0.295540  0.953961  0.658825  1
  O  O22  1  0.624540  0.336024  0.291291  1
  O  O23  1  0.292491  0.635660  0.339782  1
  O  O24  1  0.705062  0.039947  0.332030  1
  O  O25  1  0.955764  0.663586  0.297333  1
  O  O26  1  0.653995  0.703832  0.359570  1
  O  O27  1  0.655536  0.297530  0.951834  1
  O  O28  1  0.332070  0.708148  0.046901  1
