# generated using pymatgen
data_Tb20Cd3Co2Au3
_symmetry_space_group_name_H-M   'P 1'
_cell_length_a   9.61252608
_cell_length_b   9.61252101
_cell_length_c   9.59728800
_cell_angle_alpha   90.00000000
_cell_angle_beta   90.00000000
_cell_angle_gamma   120.01757476
_symmetry_Int_Tables_number   1
_chemical_formula_structural   Tb20Cd3Co2Au3
_chemical_formula_sum   'Tb20 Cd3 Co2 Au3'
_cell_volume   767.85117620
_cell_formula_units_Z   1
loop_
 _symmetry_equiv_pos_site_id
 _symmetry_equiv_pos_as_xyz
  1  'x, y, z'
loop_
 _atom_site_type_symbol
 _atom_site_label
 _atom_site_symmetry_multiplicity
 _atom_site_fract_x
 _atom_site_fract_y
 _atom_site_fract_z
 _atom_site_occupancy
  Tb  Tb0  1  0.000034  0.999976  0.459009  1
  Tb  Tb1  1  0.000034  0.999976  0.040991  1
  Tb  Tb2  1  0.541225  0.458706  0.250000  1
  Tb  Tb3  1  0.541293  0.082505  0.250000  1
  Tb  Tb4  1  0.917485  0.458774  0.250000  1
  Tb  Tb5  1  0.457211  0.542760  0.750000  1
  Tb  Tb6  1  0.457270  0.914503  0.750000  1
  Tb  Tb7  1  0.085489  0.542756  0.750000  1
  Tb  Tb8  1  0.211212  0.788823  0.436091  1
  Tb  Tb9  1  0.211159  0.422370  0.436081  1
  Tb  Tb10  1  0.577633  0.788802  0.436082  1
  Tb  Tb11  1  0.789740  0.210260  0.562538  1
  Tb  Tb12  1  0.789733  0.579487  0.562543  1
  Tb  Tb13  1  0.420516  0.210262  0.562543  1
  Tb  Tb14  1  0.789740  0.210260  0.937462  1
  Tb  Tb15  1  0.789733  0.579487  0.937457  1
  Tb  Tb16  1  0.420516  0.210262  0.937457  1
  Tb  Tb17  1  0.211212  0.788823  0.063909  1
  Tb  Tb18  1  0.211159  0.422370  0.063919  1
  Tb  Tb19  1  0.577633  0.788802  0.063918  1
  Cd  Cd20  1  0.109587  0.890427  0.750000  1
  Cd  Cd21  1  0.109572  0.219138  0.750000  1
  Cd  Cd22  1  0.780865  0.890417  0.750000  1
  Co  Co23  1  0.333330  0.666674  0.250000  1
  Co  Co24  1  0.666669  0.333334  0.750000  1
  Au  Au25  1  0.869387  0.130643  0.250000  1
  Au  Au26  1  0.869290  0.738731  0.250000  1
  Au  Au27  1  0.261273  0.130673  0.250000  1
