# generated using pymatgen
data_Dy4MoOs5Ru2
_symmetry_space_group_name_H-M   'P 1'
_cell_length_a   5.41584025
_cell_length_b   5.21437802
_cell_length_c   9.12035700
_cell_angle_alpha   90.00000000
_cell_angle_beta   90.00000000
_cell_angle_gamma   121.21061189
_symmetry_Int_Tables_number   1
_chemical_formula_structural   Dy4MoOs5Ru2
_chemical_formula_sum   'Dy4 Mo1 Os5 Ru2'
_cell_volume   220.28380642
_cell_formula_units_Z   1
loop_
 _symmetry_equiv_pos_site_id
 _symmetry_equiv_pos_as_xyz
  1  'x, y, z'
loop_
 _atom_site_type_symbol
 _atom_site_label
 _atom_site_symmetry_multiplicity
 _atom_site_fract_x
 _atom_site_fract_y
 _atom_site_fract_z
 _atom_site_occupancy
  Dy  Dy0  1  0.670585  0.341435  0.563194  1
  Dy  Dy1  1  0.334244  0.668774  0.432820  1
  Dy  Dy2  1  0.334244  0.668774  0.067180  1
  Dy  Dy3  1  0.670585  0.341435  0.936806  1
  Mo  Mo4  1  0.159645  0.319931  0.750000  1
  Os  Os5  1  0.171512  0.823782  0.750000  1
  Os  Os6  1  0.652118  0.824488  0.750000  1
  Os  Os7  1  0.826014  0.651337  0.250000  1
  Os  Os8  1  0.830618  0.165619  0.250000  1
  Os  Os9  1  0.336483  0.166397  0.250000  1
  Ru  Ru10  1  0.006975  0.014014  0.497791  1
  Ru  Ru11  1  0.006975  0.014014  0.002209  1
