# generated using pymatgen
data_Be3Al5(V3N)4
_symmetry_space_group_name_H-M   'P 1'
_cell_length_a   6.50608378
_cell_length_b   6.50608437
_cell_length_c   6.50608321
_cell_angle_alpha   90.06542820
_cell_angle_beta   89.93456958
_cell_angle_gamma   89.93457088
_symmetry_Int_Tables_number   1
_chemical_formula_structural   Be3Al5(V3N)4
_chemical_formula_sum   'Be3 Al5 V12 N4'
_cell_volume   275.39630255
_cell_formula_units_Z   1
loop_
 _symmetry_equiv_pos_site_id
 _symmetry_equiv_pos_as_xyz
  1  'x, y, z'
loop_
 _atom_site_type_symbol
 _atom_site_label
 _atom_site_symmetry_multiplicity
 _atom_site_fract_x
 _atom_site_fract_y
 _atom_site_fract_z
 _atom_site_occupancy
  Be  Be0  1  0.424939  0.925795  0.570886  1
  Be  Be1  1  0.929114  0.575061  0.425795  1
  Be  Be2  1  0.074205  0.070886  0.075061  1
  Al  Al3  1  0.175340  0.824660  0.324660  1
  Al  Al4  1  0.314770  0.164991  0.820369  1
  Al  Al5  1  0.835009  0.320369  0.185230  1
  Al  Al6  1  0.679631  0.685230  0.664991  1
  Al  Al7  1  0.571758  0.428242  0.928242  1
  V  V8  1  0.790945  0.956027  0.376245  1
  V  V9  1  0.709843  0.042349  0.876340  1
  V  V10  1  0.207279  0.457394  0.124290  1
  V  V11  1  0.289968  0.544005  0.623515  1
  V  V12  1  0.957651  0.376340  0.790157  1
  V  V13  1  0.043973  0.876245  0.709055  1
  V  V14  1  0.455995  0.123515  0.210032  1
  V  V15  1  0.542606  0.624290  0.292721  1
  V  V16  1  0.375710  0.792721  0.957394  1
  V  V17  1  0.876485  0.710032  0.044005  1
  V  V18  1  0.123755  0.209055  0.456027  1
  V  V19  1  0.623660  0.290157  0.542349  1
  N  N20  1  0.874430  0.125570  0.625570  1
  N  N21  1  0.625354  0.875123  0.127294  1
  N  N22  1  0.124877  0.627294  0.874646  1
  N  N23  1  0.372706  0.374646  0.375123  1
