# generated using pymatgen
data_Y3Ho2Lu5(Si5Ir2)4
_symmetry_space_group_name_H-M   'P 1'
_cell_length_a   12.58708906
_cell_length_b   12.58676238
_cell_length_c   4.23348500
_cell_angle_alpha   90.00000000
_cell_angle_beta   90.00000000
_cell_angle_gamma   89.95924094
_symmetry_Int_Tables_number   1
_chemical_formula_structural   Y3Ho2Lu5(Si5Ir2)4
_chemical_formula_sum   'Y3 Ho2 Lu5 Si20 Ir8'
_cell_volume   670.71381824
_cell_formula_units_Z   1
loop_
 _symmetry_equiv_pos_site_id
 _symmetry_equiv_pos_as_xyz
  1  'x, y, z'
loop_
 _atom_site_type_symbol
 _atom_site_label
 _atom_site_symmetry_multiplicity
 _atom_site_fract_x
 _atom_site_fract_y
 _atom_site_fract_z
 _atom_site_occupancy
  Y  Y0  1  0.116412  0.616236  0.500000  1
  Y  Y1  1  0.383905  0.116092  0.500000  1
  Y  Y2  1  0.615685  0.884287  0.500000  1
  Ho  Ho3  1  0.823448  0.676513  0.500000  1
  Ho  Ho4  1  0.883708  0.383562  0.500000  1
  Lu  Lu5  1  0.499910  0.500150  0.000000  1
  Lu  Lu6  1  0.999790  0.000120  0.000000  1
  Lu  Lu7  1  0.676437  0.175654  0.500000  1
  Lu  Lu8  1  0.324370  0.823638  0.500000  1
  Lu  Lu9  1  0.176166  0.323863  0.500000  1
  Si  Si10  1  0.566188  0.066642  0.000000  1
  Si  Si11  1  0.433366  0.933813  0.000000  1
  Si  Si12  1  0.066614  0.433318  0.000000  1
  Si  Si13  1  0.934150  0.565766  0.000000  1
  Si  Si14  1  0.662267  0.701268  0.000000  1
  Si  Si15  1  0.336771  0.298824  0.000000  1
  Si  Si16  1  0.163691  0.799216  0.000000  1
  Si  Si17  1  0.836772  0.201459  0.000000  1
  Si  Si18  1  0.298692  0.663126  0.000000  1
  Si  Si19  1  0.700936  0.336190  0.000000  1
  Si  Si20  1  0.201110  0.163270  0.000000  1
  Si  Si21  1  0.798681  0.837777  0.000000  1
  Si  Si22  1  0.654196  0.502058  0.500000  1
  Si  Si23  1  0.345292  0.495991  0.500000  1
  Si  Si24  1  0.154230  0.995881  0.500000  1
  Si  Si25  1  0.845116  0.003416  0.500000  1
  Si  Si26  1  0.496654  0.654864  0.500000  1
  Si  Si27  1  0.504167  0.345749  0.500000  1
  Si  Si28  1  0.003970  0.154758  0.500000  1
  Si  Si29  1  0.997918  0.845861  0.500000  1
  Ir  Ir30  1  0.744219  0.521074  0.000000  1
  Ir  Ir31  1  0.255524  0.477296  0.000000  1
  Ir  Ir32  1  0.244603  0.977866  0.000000  1
  Ir  Ir33  1  0.755378  0.023222  0.000000  1
  Ir  Ir34  1  0.476784  0.744625  0.000000  1
  Ir  Ir35  1  0.522141  0.255396  0.000000  1
  Ir  Ir36  1  0.022264  0.244907  0.000000  1
  Ir  Ir37  1  0.978475  0.756255  0.000000  1
