# generated using pymatgen
data_K3MnAgCl6
_symmetry_space_group_name_H-M   'P 1'
_cell_length_a   8.43522628
_cell_length_b   8.43522596
_cell_length_c   8.43522609
_cell_angle_alpha   92.41007032
_cell_angle_beta   92.41007483
_cell_angle_gamma   92.41006217
_symmetry_Int_Tables_number   1
_chemical_formula_structural   K3MnAgCl6
_chemical_formula_sum   'K6 Mn2 Ag2 Cl12'
_cell_volume   598.55312402
_cell_formula_units_Z   2
loop_
 _symmetry_equiv_pos_site_id
 _symmetry_equiv_pos_as_xyz
  1  'x, y, z'
loop_
 _atom_site_type_symbol
 _atom_site_label
 _atom_site_symmetry_multiplicity
 _atom_site_fract_x
 _atom_site_fract_y
 _atom_site_fract_z
 _atom_site_occupancy
  K  K0  1  0.127507  0.372493  0.750000  1
  K  K1  1  0.750000  0.127507  0.372493  1
  K  K2  1  0.372493  0.750000  0.127507  1
  K  K3  1  0.250000  0.872493  0.627507  1
  K  K4  1  0.627507  0.250000  0.872493  1
  K  K5  1  0.872493  0.627507  0.250000  1
  Mn  Mn6  1  0.500000  0.500000  0.500000  1
  Mn  Mn7  1  0.000000  0.000000  0.000000  1
  Ag  Ag8  1  0.250000  0.250000  0.250000  1
  Ag  Ag9  1  0.750000  0.750000  0.750000  1
  Cl  Cl10  1  0.211114  0.544149  0.418288  1
  Cl  Cl11  1  0.418288  0.211114  0.544149  1
  Cl  Cl12  1  0.544149  0.418288  0.211114  1
  Cl  Cl13  1  0.918288  0.044149  0.711114  1
  Cl  Cl14  1  0.711114  0.918288  0.044149  1
  Cl  Cl15  1  0.044149  0.711114  0.918288  1
  Cl  Cl16  1  0.788886  0.455851  0.581712  1
  Cl  Cl17  1  0.581712  0.788886  0.455851  1
  Cl  Cl18  1  0.455851  0.581712  0.788886  1
  Cl  Cl19  1  0.081712  0.955851  0.288886  1
  Cl  Cl20  1  0.288886  0.081712  0.955851  1
  Cl  Cl21  1  0.955851  0.288886  0.081712  1
