# generated using pymatgen
data_Dy3YRe2(B8Rh)2
_symmetry_space_group_name_H-M   'P 1'
_cell_length_a   3.59231500
_cell_length_b   5.97453612
_cell_length_c   11.57248814
_cell_angle_alpha   90.29424666
_cell_angle_beta   90.00000000
_cell_angle_gamma   90.00000000
_symmetry_Int_Tables_number   1
_chemical_formula_structural   Dy3YRe2(B8Rh)2
_chemical_formula_sum   'Dy3 Y1 Re2 B16 Rh2'
_cell_volume   248.37027624
_cell_formula_units_Z   1
loop_
 _symmetry_equiv_pos_site_id
 _symmetry_equiv_pos_as_xyz
  1  'x, y, z'
loop_
 _atom_site_type_symbol
 _atom_site_label
 _atom_site_symmetry_multiplicity
 _atom_site_fract_x
 _atom_site_fract_y
 _atom_site_fract_z
 _atom_site_occupancy
  Dy  Dy0  1  0.500000  0.627818  0.852193  1
  Dy  Dy1  1  0.500000  0.128304  0.650298  1
  Dy  Dy2  1  0.500000  0.871685  0.349724  1
  Y  Y3  1  0.500000  0.372172  0.147781  1
  Re  Re4  1  0.500000  0.366457  0.411735  1
  Re  Re5  1  0.500000  0.633523  0.588400  1
  B  B6  1  0.000000  0.112598  0.047332  1
  B  B7  1  0.000000  0.887169  0.952536  1
  B  B8  1  0.000000  0.386888  0.546755  1
  B  B9  1  0.000000  0.613122  0.453270  1
  B  B10  1  0.000000  0.135466  0.469141  1
  B  B11  1  0.000000  0.864527  0.530886  1
  B  B12  1  0.000000  0.363796  0.968632  1
  B  B13  1  0.000000  0.636402  0.031129  1
  B  B14  1  0.000000  0.023329  0.192690  1
  B  B15  1  0.000000  0.976458  0.807365  1
  B  B16  1  0.000000  0.475832  0.692396  1
  B  B17  1  0.000000  0.524331  0.307711  1
  B  B18  1  0.000000  0.212063  0.314290  1
  B  B19  1  0.000000  0.787779  0.685846  1
  B  B20  1  0.000000  0.289228  0.814133  1
  B  B21  1  0.000000  0.711053  0.185912  1
  Rh  Rh22  1  0.500000  0.140143  0.905576  1
  Rh  Rh23  1  0.500000  0.859855  0.094270  1
