# generated using pymatgen
data_Tb15NdCd4IrPt3
_symmetry_space_group_name_H-M   'P 1'
_cell_length_a   9.75408558
_cell_length_b   9.72374832
_cell_length_c   9.72044000
_cell_angle_alpha   60.01125412
_cell_angle_beta   60.11403922
_cell_angle_gamma   60.01263898
_symmetry_Int_Tables_number   1
_chemical_formula_structural   Tb15NdCd4IrPt3
_chemical_formula_sum   'Tb15 Nd1 Cd4 Ir1 Pt3'
_cell_volume   652.59332929
_cell_formula_units_Z   1
loop_
 _symmetry_equiv_pos_site_id
 _symmetry_equiv_pos_as_xyz
  1  'x, y, z'
loop_
 _atom_site_type_symbol
 _atom_site_label
 _atom_site_symmetry_multiplicity
 _atom_site_fract_x
 _atom_site_fract_y
 _atom_site_fract_z
 _atom_site_occupancy
  Tb  Tb0  1  0.353189  0.349332  0.347372  1
  Tb  Tb1  1  0.353189  0.349332  0.950107  1
  Tb  Tb2  1  0.355975  0.946225  0.348900  1
  Tb  Tb3  1  0.940028  0.355344  0.352314  1
  Tb  Tb4  1  0.807383  0.190407  0.188816  1
  Tb  Tb5  1  0.192304  0.809545  0.809154  1
  Tb  Tb6  1  0.192304  0.809545  0.188999  1
  Tb  Tb7  1  0.807383  0.190407  0.813395  1
  Tb  Tb8  1  0.192353  0.190464  0.808592  1
  Tb  Tb9  1  0.807960  0.814277  0.188882  1
  Tb  Tb10  1  0.937412  0.560897  0.564375  1
  Tb  Tb11  1  0.562772  0.937267  0.937931  1
  Tb  Tb12  1  0.562772  0.937267  0.562029  1
  Tb  Tb13  1  0.937412  0.560897  0.937317  1
  Tb  Tb14  1  0.566349  0.562582  0.935535  1
  Nd  Nd15  1  0.935762  0.935360  0.564439  1
  Cd  Cd16  1  0.581278  0.581689  0.581829  1
  Cd  Cd17  1  0.581278  0.581689  0.255203  1
  Cd  Cd18  1  0.578587  0.256195  0.582608  1
  Cd  Cd19  1  0.257754  0.578404  0.581920  1
  Ir  Ir20  1  0.572264  0.142174  0.142781  1
  Pt  Pt21  1  0.141913  0.144643  0.143390  1
  Pt  Pt22  1  0.141913  0.144643  0.570054  1
  Pt  Pt23  1  0.140472  0.571412  0.144057  1
