# generated using pymatgen
data_Sr4InSnPt4
_symmetry_space_group_name_H-M   'P 1'
_cell_length_a   5.96444043
_cell_length_b   5.96444068
_cell_length_c   8.50245752
_cell_angle_alpha   78.79513767
_cell_angle_beta   78.79513778
_cell_angle_gamma   60.90489647
_symmetry_Int_Tables_number   1
_chemical_formula_structural   Sr4InSnPt4
_chemical_formula_sum   'Sr4 In1 Sn1 Pt4'
_cell_volume   257.50110549
_cell_formula_units_Z   1
loop_
 _symmetry_equiv_pos_site_id
 _symmetry_equiv_pos_as_xyz
  1  'x, y, z'
loop_
 _atom_site_type_symbol
 _atom_site_label
 _atom_site_symmetry_multiplicity
 _atom_site_fract_x
 _atom_site_fract_y
 _atom_site_fract_z
 _atom_site_occupancy
  Sr  Sr0  1  0.508066  0.787856  0.350925  1
  Sr  Sr1  1  0.212144  0.491934  0.149075  1
  Sr  Sr2  1  0.493646  0.208192  0.646446  1
  Sr  Sr3  1  0.791808  0.506354  0.853554  1
  In  In4  1  0.132111  0.867889  0.750000  1
  Sn  Sn5  1  0.866164  0.133836  0.250000  1
  Pt  Pt6  1  0.271138  0.998826  0.000822  1
  Pt  Pt7  1  0.001174  0.728862  0.499178  1
  Pt  Pt8  1  0.725712  0.001961  0.000838  1
  Pt  Pt9  1  0.998039  0.274288  0.499162  1
