# generated using pymatgen
data_Dy9Y7(ZnCo)4
_symmetry_space_group_name_H-M   'P 1'
_cell_length_a   9.35117929
_cell_length_b   9.35007419
_cell_length_c   9.33954318
_cell_angle_alpha   60.02282972
_cell_angle_beta   60.02750735
_cell_angle_gamma   60.15163973
_symmetry_Int_Tables_number   1
_chemical_formula_structural   Dy9Y7(ZnCo)4
_chemical_formula_sum   'Dy9 Y7 Zn4 Co4'
_cell_volume   578.29948288
_cell_formula_units_Z   1
loop_
 _symmetry_equiv_pos_site_id
 _symmetry_equiv_pos_as_xyz
  1  'x, y, z'
loop_
 _atom_site_type_symbol
 _atom_site_label
 _atom_site_symmetry_multiplicity
 _atom_site_fract_x
 _atom_site_fract_y
 _atom_site_fract_z
 _atom_site_occupancy
  Dy  Dy0  1  0.600045  0.599792  0.600007  1
  Dy  Dy1  1  0.600198  0.599916  0.200016  1
  Dy  Dy2  1  0.600198  0.200153  0.599940  1
  Dy  Dy3  1  0.199951  0.600097  0.600102  1
  Dy  Dy4  1  0.058968  0.440843  0.440362  1
  Dy  Dy5  1  0.440775  0.059304  0.059590  1
  Dy  Dy6  1  0.440769  0.059109  0.440420  1
  Dy  Dy7  1  0.059165  0.440847  0.059721  1
  Dy  Dy8  1  0.440531  0.440660  0.059263  1
  Y  Y9  1  0.059136  0.059292  0.440829  1
  Y  Y10  1  0.188404  0.811380  0.812109  1
  Y  Y11  1  0.811510  0.188243  0.187999  1
  Y  Y12  1  0.811429  0.188286  0.812198  1
  Y  Y13  1  0.188375  0.811453  0.188025  1
  Y  Y14  1  0.811638  0.811707  0.188318  1
  Y  Y15  1  0.188158  0.188069  0.811903  1
  Zn  Zn16  1  0.826769  0.826865  0.826569  1
  Zn  Zn17  1  0.826783  0.826875  0.519804  1
  Zn  Zn18  1  0.826876  0.519573  0.826795  1
  Zn  Zn19  1  0.519646  0.826921  0.826739  1
  Co  Co20  1  0.391657  0.391637  0.391652  1
  Co  Co21  1  0.391680  0.391655  0.824987  1
  Co  Co22  1  0.393466  0.823879  0.391316  1
  Co  Co23  1  0.823871  0.393446  0.391336  1
