# generated using pymatgen
data_Er8Cu3Si12Os
_symmetry_space_group_name_H-M   'P 1'
_cell_length_a   8.01011500
_cell_length_b   8.01011468
_cell_length_c   7.99871200
_cell_angle_alpha   90.00000000
_cell_angle_beta   90.00000000
_cell_angle_gamma   119.99999718
_symmetry_Int_Tables_number   1
_chemical_formula_structural   Er8Cu3Si12Os
_chemical_formula_sum   'Er8 Cu3 Si12 Os1'
_cell_volume   444.45540220
_cell_formula_units_Z   1
loop_
 _symmetry_equiv_pos_site_id
 _symmetry_equiv_pos_as_xyz
  1  'x, y, z'
loop_
 _atom_site_type_symbol
 _atom_site_label
 _atom_site_symmetry_multiplicity
 _atom_site_fract_x
 _atom_site_fract_y
 _atom_site_fract_z
 _atom_site_occupancy
  Er  Er0  1  0.497586  0.995171  0.254362  1
  Er  Er1  1  0.497170  0.994339  0.745684  1
  Er  Er2  1  0.004829  0.502414  0.254362  1
  Er  Er3  1  0.005661  0.502830  0.745684  1
  Er  Er4  1  0.497586  0.502414  0.254362  1
  Er  Er5  1  0.497170  0.502830  0.745684  1
  Er  Er6  1  0.000000  0.000000  0.248048  1
  Er  Er7  1  0.000000  0.000000  0.751619  1
  Cu  Cu8  1  0.333333  0.666667  0.000909  1
  Cu  Cu9  1  0.666667  0.333333  0.000058  1
  Cu  Cu10  1  0.666667  0.333333  0.500231  1
  Si  Si11  1  0.168313  0.336628  0.999846  1
  Si  Si12  1  0.831339  0.662679  0.000062  1
  Si  Si13  1  0.663372  0.831687  0.999846  1
  Si  Si14  1  0.831924  0.663849  0.500226  1
  Si  Si15  1  0.337321  0.168661  0.000062  1
  Si  Si16  1  0.166473  0.332945  0.499749  1
  Si  Si17  1  0.168313  0.831687  0.999846  1
  Si  Si18  1  0.336151  0.168076  0.500226  1
  Si  Si19  1  0.831339  0.168661  0.000062  1
  Si  Si20  1  0.667055  0.833527  0.499749  1
  Si  Si21  1  0.831924  0.168076  0.500226  1
  Si  Si22  1  0.166473  0.833527  0.499749  1
  Os  Os23  1  0.333333  0.666667  0.499347  1
