# generated using pymatgen
data_Sr2Li2AgPd
_symmetry_space_group_name_H-M   'P 1'
_cell_length_a   4.48761000
_cell_length_b   7.73856993
_cell_length_c   9.03303900
_cell_angle_alpha   90.56850478
_cell_angle_beta   90.00000000
_cell_angle_gamma   90.00000000
_symmetry_Int_Tables_number   1
_chemical_formula_structural   Sr2Li2AgPd
_chemical_formula_sum   'Sr4 Li4 Ag2 Pd2'
_cell_volume   313.68108051
_cell_formula_units_Z   2
loop_
 _symmetry_equiv_pos_site_id
 _symmetry_equiv_pos_as_xyz
  1  'x, y, z'
loop_
 _atom_site_type_symbol
 _atom_site_label
 _atom_site_symmetry_multiplicity
 _atom_site_fract_x
 _atom_site_fract_y
 _atom_site_fract_z
 _atom_site_occupancy
  Sr  Sr0  1  0.750000  0.035005  0.305985  1
  Sr  Sr1  1  0.250000  0.474422  0.825813  1
  Sr  Sr2  1  0.750000  0.525578  0.174187  1
  Sr  Sr3  1  0.250000  0.964995  0.694015  1
  Li  Li4  1  0.250000  0.874441  0.048404  1
  Li  Li5  1  0.250000  0.365328  0.434734  1
  Li  Li6  1  0.750000  0.634672  0.565266  1
  Li  Li7  1  0.750000  0.125559  0.951596  1
  Ag  Ag8  1  0.250000  0.726449  0.388630  1
  Ag  Ag9  1  0.750000  0.273551  0.611370  1
  Pd  Pd10  1  0.750000  0.767783  0.884984  1
  Pd  Pd11  1  0.250000  0.232217  0.115016  1
