# generated using pymatgen
data_SrPrNbFeO6
_symmetry_space_group_name_H-M   'P 1'
_cell_length_a   8.15271863
_cell_length_b   8.17383804
_cell_length_c   9.77513599
_cell_angle_alpha   66.37666918
_cell_angle_beta   66.42899580
_cell_angle_gamma   91.64786303
_symmetry_Int_Tables_number   1
_chemical_formula_structural   SrPrNbFeO6
_chemical_formula_sum   'Sr4 Pr4 Nb4 Fe4 O24'
_cell_volume   532.98749181
_cell_formula_units_Z   4
loop_
 _symmetry_equiv_pos_site_id
 _symmetry_equiv_pos_as_xyz
  1  'x, y, z'
loop_
 _atom_site_type_symbol
 _atom_site_label
 _atom_site_symmetry_multiplicity
 _atom_site_fract_x
 _atom_site_fract_y
 _atom_site_fract_z
 _atom_site_occupancy
  Sr  Sr0  1  0.400856  0.859146  0.249581  1
  Sr  Sr1  1  0.901413  0.358564  0.249115  1
  Sr  Sr2  1  0.107867  0.152184  0.748404  1
  Sr  Sr3  1  0.609276  0.649195  0.750788  1
  Pr  Pr4  1  0.086264  0.647212  0.754132  1
  Pr  Pr5  1  0.582437  0.145492  0.752982  1
  Pr  Pr6  1  0.395557  0.332936  0.254820  1
  Pr  Pr7  1  0.897318  0.836313  0.252427  1
  Nb  Nb8  1  0.752600  0.246528  0.000173  1
  Nb  Nb9  1  0.253903  0.746880  0.000200  1
  Nb  Nb10  1  0.496641  0.503736  0.499575  1
  Nb  Nb11  1  0.996750  0.002565  0.500792  1
  Fe  Fe12  1  0.501352  0.996060  0.501544  1
  Fe  Fe13  1  0.746937  0.750482  0.002072  1
  Fe  Fe14  1  0.999974  0.497217  0.501594  1
  Fe  Fe15  1  0.246424  0.250716  0.001244  1
  O  O16  1  0.261581  0.989188  0.453111  1
  O  O17  1  0.762057  0.487070  0.456009  1
  O  O18  1  0.737510  0.510926  0.957910  1
  O  O19  1  0.239362  0.012139  0.950972  1
  O  O20  1  0.234658  0.530609  0.549667  1
  O  O21  1  0.737395  0.029619  0.550360  1
  O  O22  1  0.779806  0.985471  0.049533  1
  O  O23  1  0.280524  0.487470  0.050565  1
  O  O24  1  0.577010  0.764627  0.448064  1
  O  O25  1  0.075106  0.265543  0.450150  1
  O  O26  1  0.015220  0.325692  0.948346  1
  O  O27  1  0.515861  0.826692  0.949779  1
  O  O28  1  0.943235  0.739809  0.541465  1
  O  O29  1  0.443107  0.239983  0.541097  1
  O  O30  1  0.487911  0.193855  0.043188  1
  O  O31  1  0.991276  0.692469  0.039327  1
  O  O32  1  0.932002  0.901989  0.743721  1
  O  O33  1  0.427168  0.403092  0.744439  1
  O  O34  1  0.152635  0.683292  0.242322  1
  O  O35  1  0.652215  0.176490  0.245723  1
  O  O36  1  0.556957  0.579774  0.257379  1
  O  O37  1  0.059693  0.082239  0.255043  1
  O  O38  1  0.334791  0.809406  0.753723  1
  O  O39  1  0.827349  0.307329  0.758667  1
