# generated using pymatgen
data_Lu2B2SbRh5
_symmetry_space_group_name_H-M   'P 1'
_cell_length_a   9.46814700
_cell_length_b   9.46814700
_cell_length_c   3.29272800
_cell_angle_alpha   90.00000000
_cell_angle_beta   90.00000000
_cell_angle_gamma   90.00000000
_symmetry_Int_Tables_number   1
_chemical_formula_structural   Lu2B2SbRh5
_chemical_formula_sum   'Lu4 B4 Sb2 Rh10'
_cell_volume   295.17926081
_cell_formula_units_Z   2
loop_
 _symmetry_equiv_pos_site_id
 _symmetry_equiv_pos_as_xyz
  1  'x, y, z'
loop_
 _atom_site_type_symbol
 _atom_site_label
 _atom_site_symmetry_multiplicity
 _atom_site_fract_x
 _atom_site_fract_y
 _atom_site_fract_z
 _atom_site_occupancy
  Lu  Lu0  1  0.825971  0.325971  0.000000  1
  Lu  Lu1  1  0.325971  0.174029  0.000000  1
  Lu  Lu2  1  0.674029  0.825971  0.000000  1
  Lu  Lu3  1  0.174029  0.674029  0.000000  1
  B  B4  1  0.620869  0.120869  0.000000  1
  B  B5  1  0.120869  0.379131  0.000000  1
  B  B6  1  0.879131  0.620869  0.000000  1
  B  B7  1  0.379131  0.879131  0.000000  1
  Sb  Sb8  1  0.000000  0.000000  0.000000  1
  Sb  Sb9  1  0.500000  0.500000  0.000000  1
  Rh  Rh10  1  0.072452  0.222418  0.500000  1
  Rh  Rh11  1  0.222418  0.927548  0.500000  1
  Rh  Rh12  1  0.777582  0.072452  0.500000  1
  Rh  Rh13  1  0.927548  0.777582  0.500000  1
  Rh  Rh14  1  0.427548  0.722418  0.500000  1
  Rh  Rh15  1  0.572452  0.277582  0.500000  1
  Rh  Rh16  1  0.722418  0.572452  0.500000  1
  Rh  Rh17  1  0.277582  0.427548  0.500000  1
  Rh  Rh18  1  0.500000  0.000000  0.500000  1
  Rh  Rh19  1  0.000000  0.500000  0.500000  1
