# generated using pymatgen
data_Cs8Hf(MoO4)6
_symmetry_space_group_name_H-M   'P 1'
_cell_length_a   11.27950890
_cell_length_b   11.27950966
_cell_length_c   8.50829527
_cell_angle_alpha   80.91170153
_cell_angle_beta   80.91169550
_cell_angle_gamma   123.54721287
_symmetry_Int_Tables_number   1
_chemical_formula_structural   Cs8Hf(MoO4)6
_chemical_formula_sum   'Cs8 Hf1 Mo6 O24'
_cell_volume   850.37665524
_cell_formula_units_Z   1
loop_
 _symmetry_equiv_pos_site_id
 _symmetry_equiv_pos_as_xyz
  1  'x, y, z'
loop_
 _atom_site_type_symbol
 _atom_site_label
 _atom_site_symmetry_multiplicity
 _atom_site_fract_x
 _atom_site_fract_y
 _atom_site_fract_z
 _atom_site_occupancy
  Cs  Cs0  1  0.215046  0.215046  0.356874  1
  Cs  Cs1  1  0.784954  0.784954  0.643126  1
  Cs  Cs2  1  0.664945  0.335055  0.500000  1
  Cs  Cs3  1  0.335055  0.664945  0.500000  1
  Cs  Cs4  1  0.866909  0.520445  0.889111  1
  Cs  Cs5  1  0.520445  0.866909  0.889111  1
  Cs  Cs6  1  0.133091  0.479555  0.110889  1
  Cs  Cs7  1  0.479555  0.133091  0.110889  1
  Hf  Hf8  1  0.000000  0.000000  0.000000  1
  Mo  Mo9  1  0.949455  0.255473  0.720105  1
  Mo  Mo10  1  0.255473  0.949455  0.720105  1
  Mo  Mo11  1  0.050545  0.744527  0.279895  1
  Mo  Mo12  1  0.744527  0.050545  0.279895  1
  Mo  Mo13  1  0.376051  0.376051  0.798341  1
  Mo  Mo14  1  0.623949  0.623949  0.201659  1
  O  O15  1  0.943935  0.091101  0.818159  1
  O  O16  1  0.091101  0.943935  0.818159  1
  O  O17  1  0.056065  0.908899  0.181841  1
  O  O18  1  0.908899  0.056065  0.181841  1
  O  O19  1  0.768371  0.213725  0.773860  1
  O  O20  1  0.213725  0.768371  0.773860  1
  O  O21  1  0.231629  0.786275  0.226140  1
  O  O22  1  0.786275  0.231629  0.226140  1
  O  O23  1  0.061633  0.406836  0.795363  1
  O  O24  1  0.406836  0.061633  0.795363  1
  O  O25  1  0.938367  0.593164  0.204637  1
  O  O26  1  0.593164  0.938367  0.204637  1
  O  O27  1  0.026827  0.314874  0.499181  1
  O  O28  1  0.314874  0.026827  0.499181  1
  O  O29  1  0.973173  0.685126  0.500819  1
  O  O30  1  0.685126  0.973173  0.500819  1
  O  O31  1  0.398757  0.543148  0.813591  1
  O  O32  1  0.543148  0.398757  0.813591  1
  O  O33  1  0.601243  0.456852  0.186409  1
  O  O34  1  0.456852  0.601243  0.186409  1
  O  O35  1  0.205851  0.205851  0.962673  1
  O  O36  1  0.794149  0.794149  0.037327  1
  O  O37  1  0.352752  0.352752  0.602281  1
  O  O38  1  0.647248  0.647248  0.397719  1
