# generated using pymatgen
data_KGaGePd3
_symmetry_space_group_name_H-M   'P 1'
_cell_length_a   7.00681737
_cell_length_b   7.00681861
_cell_length_c   7.00681826
_cell_angle_alpha   115.73939888
_cell_angle_beta   86.44976364
_cell_angle_gamma   128.87659963
_symmetry_Int_Tables_number   1
_chemical_formula_structural   KGaGePd3
_chemical_formula_sum   'K2 Ga2 Ge2 Pd6'
_cell_volume   230.09330395
_cell_formula_units_Z   2
loop_
 _symmetry_equiv_pos_site_id
 _symmetry_equiv_pos_as_xyz
  1  'x, y, z'
loop_
 _atom_site_type_symbol
 _atom_site_label
 _atom_site_symmetry_multiplicity
 _atom_site_fract_x
 _atom_site_fract_y
 _atom_site_fract_z
 _atom_site_occupancy
  K  K0  1  0.471609  0.221609  0.250000  1
  K  K1  1  0.518066  0.768065  0.750000  1
  Ga  Ga2  1  0.800091  0.705665  0.094425  1
  Ga  Ga3  1  0.111240  0.705665  0.405574  1
  Ge  Ge4  1  0.867098  0.301269  0.565830  1
  Ge  Ge5  1  0.235439  0.301269  0.934171  1
  Pd  Pd6  1  0.001466  0.474716  0.973251  1
  Pd  Pd7  1  0.998609  0.210404  0.212249  1
  Pd  Pd8  1  0.498155  0.786360  0.287751  1
  Pd  Pd9  1  0.001466  0.028215  0.526749  1
  Pd  Pd10  1  0.498155  0.210404  0.711795  1
  Pd  Pd11  1  0.998609  0.786360  0.788205  1
