# generated using pymatgen
data_BaTa2V2(PO4)6
_symmetry_space_group_name_H-M   'P 1'
_cell_length_a   8.60278900
_cell_length_b   9.28112525
_cell_length_c   12.71036395
_cell_angle_alpha   84.69825327
_cell_angle_beta   90.00000000
_cell_angle_gamma   90.00000000
_symmetry_Int_Tables_number   1
_chemical_formula_structural   BaTa2V2(PO4)6
_chemical_formula_sum   'Ba2 Ta4 V4 P12 O48'
_cell_volume   1010.49912592
_cell_formula_units_Z   2
loop_
 _symmetry_equiv_pos_site_id
 _symmetry_equiv_pos_as_xyz
  1  'x, y, z'
loop_
 _atom_site_type_symbol
 _atom_site_label
 _atom_site_symmetry_multiplicity
 _atom_site_fract_x
 _atom_site_fract_y
 _atom_site_fract_z
 _atom_site_occupancy
  Ba  Ba0  1  0.000000  0.000000  0.500000  1
  Ba  Ba1  1  0.500000  0.500000  0.500000  1
  Ta  Ta2  1  0.499966  0.210924  0.852704  1
  Ta  Ta3  1  0.999966  0.289076  0.147296  1
  Ta  Ta4  1  0.500034  0.789076  0.147296  1
  Ta  Ta5  1  0.000034  0.710924  0.852704  1
  V  V6  1  0.499865  0.803431  0.649472  1
  V  V7  1  0.999865  0.696569  0.350528  1
  V  V8  1  0.500135  0.196569  0.350528  1
  V  V9  1  0.000135  0.303431  0.649472  1
  P  P10  1  0.355344  0.856597  0.392636  1
  P  P11  1  0.283109  0.501721  0.745648  1
  P  P12  1  0.144656  0.356597  0.392636  1
  P  P13  1  0.860652  0.362554  0.890594  1
  P  P14  1  0.360652  0.137446  0.109406  1
  P  P15  1  0.783109  0.998279  0.254352  1
  P  P16  1  0.216891  0.001721  0.745648  1
  P  P17  1  0.639348  0.862554  0.890594  1
  P  P18  1  0.139348  0.637446  0.109406  1
  P  P19  1  0.855344  0.643403  0.607364  1
  P  P20  1  0.716891  0.498279  0.254352  1
  P  P21  1  0.644656  0.143403  0.607364  1
  O  O22  1  0.307225  0.917809  0.667306  1
  O  O23  1  0.181287  0.819455  0.390862  1
  O  O24  1  0.434181  0.784319  0.492212  1
  O  O25  1  0.435615  0.788220  0.296779  1
  O  O26  1  0.393493  0.604886  0.682004  1
  O  O27  1  0.131808  0.521386  0.383941  1
  O  O28  1  0.192775  0.417809  0.667306  1
  O  O29  1  0.379627  0.389278  0.818943  1
  O  O30  1  0.126662  0.470058  0.116099  1
  O  O31  1  0.821737  0.415785  0.180864  1
  O  O32  1  0.318713  0.319455  0.390862  1
  O  O33  1  0.065819  0.284319  0.492212  1
  O  O34  1  0.064385  0.288220  0.296779  1
  O  O35  1  0.684318  0.323923  0.888127  1
  O  O36  1  0.924116  0.302819  0.000698  1
  O  O37  1  0.949882  0.295920  0.805430  1
  O  O38  1  0.449882  0.204080  0.194570  1
  O  O39  1  0.424116  0.197181  0.999302  1
  O  O40  1  0.184318  0.176077  0.111873  1
  O  O41  1  0.879627  0.110722  0.181057  1
  O  O42  1  0.368192  0.021386  0.383941  1
  O  O43  1  0.106507  0.104886  0.682004  1
  O  O44  1  0.321737  0.084215  0.819136  1
  O  O45  1  0.626662  0.029942  0.883901  1
  O  O46  1  0.373338  0.970058  0.116099  1
  O  O47  1  0.678263  0.915785  0.180864  1
  O  O48  1  0.893493  0.895114  0.317996  1
  O  O49  1  0.631808  0.978614  0.616059  1
  O  O50  1  0.120373  0.889278  0.818943  1
  O  O51  1  0.815682  0.823923  0.888127  1
  O  O52  1  0.575884  0.802819  0.000698  1
  O  O53  1  0.550118  0.795920  0.805430  1
  O  O54  1  0.050118  0.704080  0.194570  1
  O  O55  1  0.075884  0.697181  0.999302  1
  O  O56  1  0.315682  0.676077  0.111873  1
  O  O57  1  0.935615  0.711780  0.703221  1
  O  O58  1  0.934181  0.715681  0.507788  1
  O  O59  1  0.681287  0.680545  0.609138  1
  O  O60  1  0.178263  0.584215  0.819136  1
  O  O61  1  0.873338  0.529942  0.883901  1
  O  O62  1  0.620373  0.610722  0.181057  1
  O  O63  1  0.807225  0.582191  0.332694  1
  O  O64  1  0.868192  0.478614  0.616059  1
  O  O65  1  0.606507  0.395114  0.317996  1
  O  O66  1  0.564385  0.211780  0.703221  1
  O  O67  1  0.565819  0.215681  0.507788  1
  O  O68  1  0.818713  0.180545  0.609138  1
  O  O69  1  0.692775  0.082191  0.332694  1
