# generated using pymatgen
data_Na10NbAlAs6
_symmetry_space_group_name_H-M   'P 1'
_cell_length_a   7.53891500
_cell_length_b   8.38963619
_cell_length_c   15.91117161
_cell_angle_alpha   59.05355426
_cell_angle_beta   90.00000000
_cell_angle_gamma   90.00000000
_symmetry_Int_Tables_number   1
_chemical_formula_structural   Na10NbAlAs6
_chemical_formula_sum   'Na20 Nb2 Al2 As12'
_cell_volume   863.10450216
_cell_formula_units_Z   2
loop_
 _symmetry_equiv_pos_site_id
 _symmetry_equiv_pos_as_xyz
  1  'x, y, z'
loop_
 _atom_site_type_symbol
 _atom_site_label
 _atom_site_symmetry_multiplicity
 _atom_site_fract_x
 _atom_site_fract_y
 _atom_site_fract_z
 _atom_site_occupancy
  Na  Na0  1  0.737777  0.942214  0.245451  1
  Na  Na1  1  0.262223  0.942214  0.745451  1
  Na  Na2  1  0.771216  0.055486  0.759188  1
  Na  Na3  1  0.228784  0.055486  0.259188  1
  Na  Na4  1  0.268544  0.246925  0.418748  1
  Na  Na5  1  0.731456  0.246925  0.918748  1
  Na  Na6  1  0.220627  0.752191  0.579169  1
  Na  Na7  1  0.779373  0.752191  0.079169  1
  Na  Na8  1  0.088827  0.346693  0.582717  1
  Na  Na9  1  0.911173  0.346693  0.082717  1
  Na  Na10  1  0.405892  0.655807  0.418632  1
  Na  Na11  1  0.594108  0.655807  0.918632  1
  Na  Na12  1  0.596878  0.335273  0.242677  1
  Na  Na13  1  0.403122  0.335273  0.742677  1
  Na  Na14  1  0.908435  0.663473  0.760104  1
  Na  Na15  1  0.091565  0.663473  0.260104  1
  Na  Na16  1  0.769675  0.420995  0.408472  1
  Na  Na17  1  0.230325  0.420995  0.908472  1
  Na  Na18  1  0.739799  0.580695  0.589217  1
  Na  Na19  1  0.260201  0.580695  0.089217  1
  Nb  Nb20  1  0.615582  0.989055  0.578703  1
  Nb  Nb21  1  0.384418  0.989055  0.078703  1
  Al  Al22  1  0.889693  0.012480  0.416495  1
  Al  Al23  1  0.110307  0.012480  0.916495  1
  As  As24  1  0.982824  0.316550  0.272345  1
  As  As25  1  0.017176  0.316550  0.772345  1
  As  As26  1  0.518783  0.690092  0.726113  1
  As  As27  1  0.481217  0.690092  0.226113  1
  As  As28  1  0.948650  0.019734  0.573630  1
  As  As29  1  0.051350  0.019734  0.073630  1
  As  As30  1  0.544343  0.979101  0.427405  1
  As  As31  1  0.455657  0.979101  0.927405  1
  As  As32  1  0.004167  0.726286  0.421739  1
  As  As33  1  0.995833  0.726286  0.921739  1
  As  As34  1  0.492058  0.266948  0.579194  1
  As  As35  1  0.507942  0.266948  0.079194  1
