# generated using pymatgen
data_Er9Zn4
_symmetry_space_group_name_H-M   'P 1'
_cell_length_a   8.49930171
_cell_length_b   8.49930182
_cell_length_c   8.49969986
_cell_angle_alpha   94.97864210
_cell_angle_beta   94.97778428
_cell_angle_gamma   145.73455853
_symmetry_Int_Tables_number   1
_chemical_formula_structural   Er9Zn4
_chemical_formula_sum   'Er9 Zn4'
_cell_volume   330.36134940
_cell_formula_units_Z   1
loop_
 _symmetry_equiv_pos_site_id
 _symmetry_equiv_pos_as_xyz
  1  'x, y, z'
loop_
 _atom_site_type_symbol
 _atom_site_label
 _atom_site_symmetry_multiplicity
 _atom_site_fract_x
 _atom_site_fract_y
 _atom_site_fract_z
 _atom_site_occupancy
  Er  Er0  1  0.499999  0.499999  0.000000  1
  Er  Er1  1  0.182029  0.888502  0.070532  1
  Er  Er2  1  0.111496  0.182030  0.293525  1
  Er  Er3  1  0.882650  0.401544  0.284197  1
  Er  Er4  1  0.598460  0.882685  0.481147  1
  Er  Er5  1  0.401539  0.117314  0.518852  1
  Er  Er6  1  0.117349  0.598455  0.715803  1
  Er  Er7  1  0.888503  0.817969  0.706475  1
  Er  Er8  1  0.817970  0.111497  0.929468  1
  Zn  Zn9  1  0.392337  0.735416  0.127755  1
  Zn  Zn10  1  0.735396  0.607665  0.343063  1
  Zn  Zn11  1  0.264603  0.392334  0.656937  1
  Zn  Zn12  1  0.607662  0.264583  0.872245  1
