# generated using pymatgen
data_KMn3AlO8
_symmetry_space_group_name_H-M   'P 1'
_cell_length_a   2.92701986
_cell_length_b   7.10985356
_cell_length_c   7.13499518
_cell_angle_alpha   92.29512351
_cell_angle_beta   101.83463693
_cell_angle_gamma   78.11600774
_symmetry_Int_Tables_number   1
_chemical_formula_structural   KMn3AlO8
_chemical_formula_sum   'K1 Mn3 Al1 O8'
_cell_volume   142.21263220
_cell_formula_units_Z   1
loop_
 _symmetry_equiv_pos_site_id
 _symmetry_equiv_pos_as_xyz
  1  'x, y, z'
loop_
 _atom_site_type_symbol
 _atom_site_label
 _atom_site_symmetry_multiplicity
 _atom_site_fract_x
 _atom_site_fract_y
 _atom_site_fract_z
 _atom_site_occupancy
  K  K0  1  0.029465  0.008994  0.003661  1
  Mn  Mn1  1  0.349227  0.512626  0.175138  1
  Mn  Mn2  1  0.872242  0.811204  0.520081  1
  Mn  Mn3  1  0.170616  0.182562  0.487582  1
  Al  Al4  1  0.681380  0.487026  0.813553  1
  O  O5  1  0.976216  0.371706  0.287844  1
  O  O6  1  0.060789  0.621938  0.707594  1
  O  O7  1  0.685176  0.291268  0.625083  1
  O  O8  1  0.351525  0.709594  0.376812  1
  O  O9  1  0.719789  0.644757  0.047676  1
  O  O10  1  0.313262  0.359480  0.949090  1
  O  O11  1  0.673664  0.047493  0.357797  1
  O  O12  1  0.366649  0.951350  0.648091  1
