# generated using pymatgen
data_Tm3AgSn3IrRu
_symmetry_space_group_name_H-M   'P 1'
_cell_length_a   7.79049800
_cell_length_b   7.79049698
_cell_length_c   3.66541300
_cell_angle_alpha   90.00000000
_cell_angle_beta   90.00000000
_cell_angle_gamma   120.00000432
_symmetry_Int_Tables_number   1
_chemical_formula_structural   Tm3AgSn3IrRu
_chemical_formula_sum   'Tm3 Ag1 Sn3 Ir1 Ru1'
_cell_volume   192.65660933
_cell_formula_units_Z   1
loop_
 _symmetry_equiv_pos_site_id
 _symmetry_equiv_pos_as_xyz
  1  'x, y, z'
loop_
 _atom_site_type_symbol
 _atom_site_label
 _atom_site_symmetry_multiplicity
 _atom_site_fract_x
 _atom_site_fract_y
 _atom_site_fract_z
 _atom_site_occupancy
  Tm  Tm0  1  0.972384  0.380528  0.500000  1
  Tm  Tm1  1  0.619472  0.591855  0.500000  1
  Tm  Tm2  1  0.408145  0.027616  0.500000  1
  Ag  Ag3  1  0.333333  0.666667  0.000000  1
  Sn  Sn4  1  0.007563  0.737841  0.000000  1
  Sn  Sn5  1  0.262159  0.269721  0.000000  1
  Sn  Sn6  1  0.730279  0.992437  0.000000  1
  Ir  Ir7  1  0.666667  0.333333  0.000000  1
  Ru  Ru8  1  0.000000  0.000000  0.500000  1
