# generated using pymatgen
data_Ho3Er(Lu2Co)4
_symmetry_space_group_name_H-M   'P 1'
_cell_length_a   6.12279294
_cell_length_b   6.88560684
_cell_length_c   9.18161500
_cell_angle_alpha   90.00000000
_cell_angle_beta   90.00000000
_cell_angle_gamma   90.02034738
_symmetry_Int_Tables_number   1
_chemical_formula_structural   Ho3Er(Lu2Co)4
_chemical_formula_sum   'Ho3 Er1 Lu8 Co4'
_cell_volume   387.08901286
_cell_formula_units_Z   1
loop_
 _symmetry_equiv_pos_site_id
 _symmetry_equiv_pos_as_xyz
  1  'x, y, z'
loop_
 _atom_site_type_symbol
 _atom_site_label
 _atom_site_symmetry_multiplicity
 _atom_site_fract_x
 _atom_site_fract_y
 _atom_site_fract_z
 _atom_site_occupancy
  Ho  Ho0  1  0.864892  0.541434  0.250000  1
  Ho  Ho1  1  0.636154  0.041051  0.250000  1
  Ho  Ho2  1  0.136379  0.458060  0.750000  1
  Er  Er3  1  0.363039  0.958484  0.750000  1
  Lu  Lu4  1  0.325322  0.674278  0.066725  1
  Lu  Lu5  1  0.175086  0.173361  0.433111  1
  Lu  Lu6  1  0.675066  0.325957  0.566812  1
  Lu  Lu7  1  0.824950  0.826574  0.932559  1
  Lu  Lu8  1  0.675066  0.325957  0.933188  1
  Lu  Lu9  1  0.824950  0.826574  0.567441  1
  Lu  Lu10  1  0.325322  0.674278  0.433275  1
  Lu  Lu11  1  0.175086  0.173361  0.066889  1
  Co  Co12  1  0.048239  0.884943  0.250000  1
  Co  Co13  1  0.450233  0.386815  0.250000  1
  Co  Co14  1  0.950912  0.115045  0.750000  1
  Co  Co15  1  0.549303  0.613829  0.750000  1
