# generated using pymatgen
data_Zr4Al5Tc2Au
_symmetry_space_group_name_H-M   'P 1'
_cell_length_a   5.32177200
_cell_length_b   5.26253886
_cell_length_c   8.73507700
_cell_angle_alpha   90.00000000
_cell_angle_beta   90.00000000
_cell_angle_gamma   120.37302406
_symmetry_Int_Tables_number   1
_chemical_formula_structural   Zr4Al5Tc2Au
_chemical_formula_sum   'Zr4 Al5 Tc2 Au1'
_cell_volume   211.05915923
_cell_formula_units_Z   1
loop_
 _symmetry_equiv_pos_site_id
 _symmetry_equiv_pos_as_xyz
  1  'x, y, z'
loop_
 _atom_site_type_symbol
 _atom_site_label
 _atom_site_symmetry_multiplicity
 _atom_site_fract_x
 _atom_site_fract_y
 _atom_site_fract_z
 _atom_site_occupancy
  Zr  Zr0  1  0.336722  0.673444  0.429570  1
  Zr  Zr1  1  0.663524  0.327047  0.945471  1
  Zr  Zr2  1  0.663524  0.327047  0.554529  1
  Zr  Zr3  1  0.336722  0.673444  0.070430  1
  Al  Al4  1  0.654269  0.821684  0.750000  1
  Al  Al5  1  0.004337  0.008673  0.001896  1
  Al  Al6  1  0.004337  0.008673  0.498104  1
  Al  Al7  1  0.830080  0.660160  0.250000  1
  Al  Al8  1  0.167418  0.821684  0.750000  1
  Tc  Tc9  1  0.836330  0.172210  0.250000  1
  Tc  Tc10  1  0.335880  0.172210  0.250000  1
  Au  Au11  1  0.166860  0.333720  0.750000  1
