# generated using pymatgen
data_Er2TmPa(Ga3Rh)6
_symmetry_space_group_name_H-M   'P 1'
_cell_length_a   7.58938802
_cell_length_b   7.58183524
_cell_length_c   9.45425100
_cell_angle_alpha   90.00000000
_cell_angle_beta   90.00000000
_cell_angle_gamma   119.85350547
_symmetry_Int_Tables_number   1
_chemical_formula_structural   Er2TmPa(Ga3Rh)6
_chemical_formula_sum   'Er2 Tm1 Pa1 Ga18 Rh6'
_cell_volume   471.82186595
_cell_formula_units_Z   1
loop_
 _symmetry_equiv_pos_site_id
 _symmetry_equiv_pos_as_xyz
  1  'x, y, z'
loop_
 _atom_site_type_symbol
 _atom_site_label
 _atom_site_symmetry_multiplicity
 _atom_site_fract_x
 _atom_site_fract_y
 _atom_site_fract_z
 _atom_site_occupancy
  Er  Er0  1  0.003807  0.331534  0.750000  1
  Er  Er1  1  0.331082  0.002867  0.750000  1
  Tm  Tm2  1  0.669557  0.997004  0.250000  1
  Pa  Pa3  1  0.997463  0.668536  0.250000  1
  Ga  Ga4  1  0.127687  0.127528  0.250000  1
  Ga  Ga5  1  0.875454  0.876056  0.750000  1
  Ga  Ga6  1  0.998425  0.330730  0.079248  1
  Ga  Ga7  1  0.000952  0.665649  0.917131  1
  Ga  Ga8  1  0.000952  0.665649  0.582869  1
  Ga  Ga9  1  0.337889  0.002185  0.420646  1
  Ga  Ga10  1  0.998425  0.330730  0.420752  1
  Ga  Ga11  1  0.665763  0.001424  0.580910  1
  Ga  Ga12  1  0.665763  0.001424  0.919090  1
  Ga  Ga13  1  0.337889  0.002185  0.079354  1
  Ga  Ga14  1  0.331948  0.331994  0.567935  1
  Ga  Ga15  1  0.664514  0.667988  0.434759  1
  Ga  Ga16  1  0.664514  0.667988  0.065241  1
  Ga  Ga17  1  0.331948  0.331994  0.932065  1
  Ga  Ga18  1  0.338342  0.545534  0.250000  1
  Ga  Ga19  1  0.661276  0.451346  0.750000  1
  Ga  Ga20  1  0.545038  0.338654  0.250000  1
  Ga  Ga21  1  0.452178  0.661668  0.750000  1
  Rh  Rh22  1  0.672813  0.330289  0.001513  1
  Rh  Rh23  1  0.327029  0.671416  0.001711  1
  Rh  Rh24  1  0.327029  0.671416  0.498289  1
  Rh  Rh25  1  0.672813  0.330289  0.498487  1
  Rh  Rh26  1  0.999725  0.997963  0.001692  1
  Rh  Rh27  1  0.999725  0.997963  0.498308  1
