# generated using pymatgen
data_Zr5Co16(ReP4)3
_symmetry_space_group_name_H-M   'P 1'
_cell_length_a   11.84708400
_cell_length_b   11.84708512
_cell_length_c   3.65836100
_cell_angle_alpha   90.00000000
_cell_angle_beta   90.00000000
_cell_angle_gamma   119.99999687
_symmetry_Int_Tables_number   1
_chemical_formula_structural   Zr5Co16(ReP4)3
_chemical_formula_sum   'Zr5 Co16 Re3 P12'
_cell_volume   444.67240638
_cell_formula_units_Z   1
loop_
 _symmetry_equiv_pos_site_id
 _symmetry_equiv_pos_as_xyz
  1  'x, y, z'
loop_
 _atom_site_type_symbol
 _atom_site_label
 _atom_site_symmetry_multiplicity
 _atom_site_fract_x
 _atom_site_fract_y
 _atom_site_fract_z
 _atom_site_occupancy
  Zr  Zr0  1  0.666667  0.333333  0.000000  1
  Zr  Zr1  1  0.333333  0.666667  0.000000  1
  Zr  Zr2  1  0.820323  0.820323  0.500000  1
  Zr  Zr3  1  0.179677  0.000000  0.500000  1
  Zr  Zr4  1  0.000000  0.179677  0.500000  1
  Co  Co5  1  0.195101  0.374112  0.000000  1
  Co  Co6  1  0.179011  0.804899  0.000000  1
  Co  Co7  1  0.820989  0.625888  0.000000  1
  Co  Co8  1  0.804899  0.179011  0.000000  1
  Co  Co9  1  0.374112  0.195101  0.000000  1
  Co  Co10  1  0.128324  0.484371  0.500000  1
  Co  Co11  1  0.356047  0.871676  0.500000  1
  Co  Co12  1  0.515629  0.643953  0.500000  1
  Co  Co13  1  0.643953  0.515629  0.500000  1
  Co  Co14  1  0.871676  0.356047  0.500000  1
  Co  Co15  1  0.484371  0.128324  0.500000  1
  Co  Co16  1  0.000000  0.000000  0.000000  1
  Co  Co17  1  0.718322  0.000000  0.500000  1
  Co  Co18  1  0.000000  0.718322  0.500000  1
  Co  Co19  1  0.625888  0.820989  0.000000  1
  Co  Co20  1  0.281678  0.281678  0.500000  1
  Re  Re21  1  0.447653  0.447653  0.000000  1
  Re  Re22  1  0.552347  0.000000  0.000000  1
  Re  Re23  1  0.000000  0.552347  0.000000  1
  P  P24  1  0.642509  0.642509  0.000000  1
  P  P25  1  0.357491  0.000000  0.000000  1
  P  P26  1  0.000000  0.357491  0.000000  1
  P  P27  1  0.481047  0.314409  0.500000  1
  P  P28  1  0.685591  0.166640  0.500000  1
  P  P29  1  0.833360  0.518953  0.500000  1
  P  P30  1  0.518953  0.833360  0.500000  1
  P  P31  1  0.166640  0.685591  0.500000  1
  P  P32  1  0.823850  0.000000  0.000000  1
  P  P33  1  0.000000  0.823850  0.000000  1
  P  P34  1  0.314409  0.481047  0.500000  1
  P  P35  1  0.176150  0.176150  0.000000  1
