# generated using pymatgen
data_TiNb3SiB4PRu10
_symmetry_space_group_name_H-M   'P 1'
_cell_length_a   9.26459200
_cell_length_b   9.26459228
_cell_length_c   2.95959100
_cell_angle_alpha   90.00000000
_cell_angle_beta   90.00000000
_cell_angle_gamma   89.68809533
_symmetry_Int_Tables_number   1
_chemical_formula_structural   TiNb3SiB4PRu10
_chemical_formula_sum   'Ti1 Nb3 Si1 B4 P1 Ru10'
_cell_volume   254.02582616
_cell_formula_units_Z   1
loop_
 _symmetry_equiv_pos_site_id
 _symmetry_equiv_pos_as_xyz
  1  'x, y, z'
loop_
 _atom_site_type_symbol
 _atom_site_label
 _atom_site_symmetry_multiplicity
 _atom_site_fract_x
 _atom_site_fract_y
 _atom_site_fract_z
 _atom_site_occupancy
  Ti  Ti0  1  0.825093  0.679512  0.000000  1
  Nb  Nb1  1  0.174002  0.323373  0.000000  1
  Nb  Nb2  1  0.321265  0.823267  0.000000  1
  Nb  Nb3  1  0.679797  0.175020  0.000000  1
  Si  Si4  1  0.999723  0.998954  0.000000  1
  B  B5  1  0.626315  0.874328  0.000000  1
  B  B6  1  0.375193  0.124346  0.000000  1
  B  B7  1  0.123272  0.625371  0.000000  1
  B  B8  1  0.875243  0.376100  0.000000  1
  P  P9  1  0.501485  0.500484  0.000000  1
  Ru  Ru10  1  0.566046  0.707863  0.500000  1
  Ru  Ru11  1  0.435394  0.291575  0.500000  1
  Ru  Ru12  1  0.067463  0.788420  0.500000  1
  Ru  Ru13  1  0.933473  0.211972  0.500000  1
  Ru  Ru14  1  0.291703  0.563906  0.500000  1
  Ru  Ru15  1  0.707860  0.434661  0.500000  1
  Ru  Ru16  1  0.211655  0.067521  0.500000  1
  Ru  Ru17  1  0.788783  0.930184  0.500000  1
  Ru  Ru18  1  0.500312  0.999444  0.500000  1
  Ru  Ru19  1  0.995921  0.503701  0.500000  1
