# generated using pymatgen
data_Dy3Co5Cu2(NiB)4
_symmetry_space_group_name_H-M   'P 1'
_cell_length_a   5.02336100
_cell_length_b   5.04666377
_cell_length_c   9.85373800
_cell_angle_alpha   90.00000000
_cell_angle_beta   90.00000000
_cell_angle_gamma   119.84737935
_symmetry_Int_Tables_number   1
_chemical_formula_structural   Dy3Co5Cu2(NiB)4
_chemical_formula_sum   'Dy3 Co5 Cu2 Ni4 B4'
_cell_volume   216.66873888
_cell_formula_units_Z   1
loop_
 _symmetry_equiv_pos_site_id
 _symmetry_equiv_pos_as_xyz
  1  'x, y, z'
loop_
 _atom_site_type_symbol
 _atom_site_label
 _atom_site_symmetry_multiplicity
 _atom_site_fract_x
 _atom_site_fract_y
 _atom_site_fract_z
 _atom_site_occupancy
  Dy  Dy0  1  0.000000  0.000000  0.656594  1
  Dy  Dy1  1  0.000000  0.000000  0.343406  1
  Dy  Dy2  1  0.000000  0.000000  0.000000  1
  Co  Co3  1  0.500000  0.500000  0.500000  1
  Co  Co4  1  0.000000  0.500000  0.500000  1
  Co  Co5  1  0.500000  0.000000  0.210416  1
  Co  Co6  1  0.500000  0.000000  0.789584  1
  Co  Co7  1  0.500000  0.000000  0.500000  1
  Cu  Cu8  1  0.337087  0.674175  0.000000  1
  Cu  Cu9  1  0.662913  0.325825  0.000000  1
  Ni  Ni10  1  0.500000  0.500000  0.206836  1
  Ni  Ni11  1  0.000000  0.500000  0.206836  1
  Ni  Ni12  1  0.500000  0.500000  0.793164  1
  Ni  Ni13  1  0.000000  0.500000  0.793164  1
  B  B14  1  0.335657  0.671314  0.648593  1
  B  B15  1  0.664343  0.328686  0.648593  1
  B  B16  1  0.664343  0.328686  0.351407  1
  B  B17  1  0.335657  0.671314  0.351407  1
