# generated using pymatgen
data_YEr7Re2(TcB12)2
_symmetry_space_group_name_H-M   'P 1'
_cell_length_a   3.66166900
_cell_length_b   9.13208961
_cell_length_c   11.50916901
_cell_angle_alpha   90.04833720
_cell_angle_beta   90.00000000
_cell_angle_gamma   90.00000000
_symmetry_Int_Tables_number   1
_chemical_formula_structural   YEr7Re2(TcB12)2
_chemical_formula_sum   'Y1 Er7 Re2 Tc2 B24'
_cell_volume   384.85139123
_cell_formula_units_Z   1
loop_
 _symmetry_equiv_pos_site_id
 _symmetry_equiv_pos_as_xyz
  1  'x, y, z'
loop_
 _atom_site_type_symbol
 _atom_site_label
 _atom_site_symmetry_multiplicity
 _atom_site_fract_x
 _atom_site_fract_y
 _atom_site_fract_z
 _atom_site_occupancy
  Y  Y0  1  0.000000  0.323746  0.414055  1
  Er  Er1  1  0.000000  0.676160  0.586040  1
  Er  Er2  1  0.000000  0.823457  0.086007  1
  Er  Er3  1  0.000000  0.176533  0.913991  1
  Er  Er4  1  0.000000  0.942214  0.369973  1
  Er  Er5  1  0.000000  0.057498  0.630129  1
  Er  Er6  1  0.000000  0.443896  0.130257  1
  Er  Er7  1  0.000000  0.556207  0.869646  1
  Re  Re8  1  0.000000  0.138687  0.178988  1
  Re  Re9  1  0.000000  0.861037  0.820734  1
  Tc  Tc10  1  0.000000  0.639425  0.320536  1
  Tc  Tc11  1  0.000000  0.361026  0.679682  1
  B  B12  1  0.500000  0.553902  0.433188  1
  B  B13  1  0.500000  0.446880  0.567205  1
  B  B14  1  0.500000  0.053197  0.066602  1
  B  B15  1  0.500000  0.946715  0.933314  1
  B  B16  1  0.500000  0.749452  0.419058  1
  B  B17  1  0.500000  0.250521  0.581555  1
  B  B18  1  0.500000  0.249777  0.080793  1
  B  B19  1  0.500000  0.750236  0.919074  1
  B  B20  1  0.500000  0.792494  0.265324  1
  B  B21  1  0.500000  0.207464  0.734768  1
  B  B22  1  0.500000  0.292669  0.234316  1
  B  B23  1  0.500000  0.707160  0.765255  1
  B  B24  1  0.500000  0.631245  0.185317  1
  B  B25  1  0.500000  0.368896  0.814651  1
  B  B26  1  0.500000  0.130430  0.314556  1
  B  B27  1  0.500000  0.869119  0.685131  1
  B  B28  1  0.500000  0.981598  0.211834  1
  B  B29  1  0.500000  0.018254  0.788126  1
  B  B30  1  0.500000  0.482691  0.287860  1
  B  B31  1  0.500000  0.517964  0.711932  1
  B  B32  1  0.500000  0.600301  0.027920  1
  B  B33  1  0.500000  0.399763  0.972005  1
  B  B34  1  0.500000  0.099407  0.472101  1
  B  B35  1  0.500000  0.899979  0.528079  1
