# generated using pymatgen
data_Ho3LuSc6(SiGe)4
_symmetry_space_group_name_H-M   'P 1'
_cell_length_a   7.14762814
_cell_length_b   7.37897995
_cell_length_c   14.01763656
_cell_angle_alpha   89.96035351
_cell_angle_beta   90.24309500
_cell_angle_gamma   89.82658504
_symmetry_Int_Tables_number   1
_chemical_formula_structural   Ho3LuSc6(SiGe)4
_chemical_formula_sum   'Ho6 Lu2 Sc12 Si8 Ge8'
_cell_volume   739.31083345
_cell_formula_units_Z   2
loop_
 _symmetry_equiv_pos_site_id
 _symmetry_equiv_pos_as_xyz
  1  'x, y, z'
loop_
 _atom_site_type_symbol
 _atom_site_label
 _atom_site_symmetry_multiplicity
 _atom_site_fract_x
 _atom_site_fract_y
 _atom_site_fract_z
 _atom_site_occupancy
  Ho  Ho0  1  0.498242  0.678588  0.902138  1
  Ho  Ho1  1  0.997434  0.822956  0.598189  1
  Ho  Ho2  1  0.501758  0.321412  0.097862  1
  Ho  Ho3  1  0.002566  0.177044  0.401811  1
  Ho  Ho4  1  0.501925  0.322556  0.400911  1
  Ho  Ho5  1  0.498075  0.677444  0.599089  1
  Lu  Lu6  1  0.999584  0.177323  0.098617  1
  Lu  Lu7  1  0.000416  0.822677  0.901383  1
  Sc  Sc8  1  0.174635  0.500647  0.750753  1
  Sc  Sc9  1  0.825365  0.499353  0.249247  1
  Sc  Sc10  1  0.324556  0.001174  0.248993  1
  Sc  Sc11  1  0.675444  0.998826  0.751007  1
  Sc  Sc12  1  0.343538  0.172567  0.626452  1
  Sc  Sc13  1  0.656462  0.827433  0.373548  1
  Sc  Sc14  1  0.156803  0.672442  0.373348  1
  Sc  Sc15  1  0.654983  0.829136  0.125236  1
  Sc  Sc16  1  0.843197  0.327558  0.626652  1
  Sc  Sc17  1  0.345017  0.170864  0.874764  1
  Sc  Sc18  1  0.845416  0.327340  0.873939  1
  Sc  Sc19  1  0.154584  0.672660  0.126061  1
  Si  Si20  1  0.046887  0.115671  0.750266  1
  Si  Si21  1  0.953113  0.884329  0.249734  1
  Si  Si22  1  0.453924  0.617161  0.249448  1
  Si  Si23  1  0.546076  0.382839  0.750552  1
  Si  Si24  1  0.296523  0.871116  0.750625  1
  Si  Si25  1  0.703477  0.128884  0.249375  1
  Si  Si26  1  0.202000  0.370167  0.249203  1
  Si  Si27  1  0.798000  0.629833  0.750797  1
  Ge  Ge28  1  0.176553  0.460231  0.540517  1
  Ge  Ge29  1  0.823447  0.539769  0.459483  1
  Ge  Ge30  1  0.323569  0.959046  0.459349  1
  Ge  Ge31  1  0.823287  0.539590  0.040544  1
  Ge  Ge32  1  0.676431  0.040954  0.540651  1
  Ge  Ge33  1  0.176713  0.460410  0.959456  1
  Ge  Ge34  1  0.684621  0.039125  0.959236  1
  Ge  Ge35  1  0.315379  0.960875  0.040764  1
