# generated using pymatgen
data_Li4Nd2YHoSi6
_symmetry_space_group_name_H-M   'P 1'
_cell_length_a   9.34502402
_cell_length_b   9.34502327
_cell_length_c   6.79394700
_cell_angle_alpha   90.00000000
_cell_angle_beta   90.00000000
_cell_angle_gamma   153.20293486
_symmetry_Int_Tables_number   1
_chemical_formula_structural   Li4Nd2YHoSi6
_chemical_formula_sum   'Li4 Nd2 Y1 Ho1 Si6'
_cell_volume   267.48382484
_cell_formula_units_Z   1
loop_
 _symmetry_equiv_pos_site_id
 _symmetry_equiv_pos_as_xyz
  1  'x, y, z'
loop_
 _atom_site_type_symbol
 _atom_site_label
 _atom_site_symmetry_multiplicity
 _atom_site_fract_x
 _atom_site_fract_y
 _atom_site_fract_z
 _atom_site_occupancy
  Li  Li0  1  0.190245  0.809755  0.059977  1
  Li  Li1  1  0.190245  0.809755  0.440023  1
  Li  Li2  1  0.809708  0.190292  0.939894  1
  Li  Li3  1  0.809708  0.190292  0.560106  1
  Nd  Nd4  1  0.553764  0.446236  0.250000  1
  Nd  Nd5  1  0.446319  0.553681  0.750000  1
  Y  Y6  1  0.343961  0.656039  0.250000  1
  Ho  Ho7  1  0.655990  0.344010  0.750000  1
  Si  Si8  1  0.723219  0.276781  0.250000  1
  Si  Si9  1  0.276571  0.723429  0.750000  1
  Si  Si10  1  0.059617  0.940383  0.925225  1
  Si  Si11  1  0.940519  0.059481  0.074592  1
  Si  Si12  1  0.940519  0.059481  0.425408  1
  Si  Si13  1  0.059617  0.940383  0.574775  1
