# generated using pymatgen
data_TbDy2Bi3(SbO7)2
_symmetry_space_group_name_H-M   'P 1'
_cell_length_a   6.49090381
_cell_length_b   6.70214304
_cell_length_c   7.64377074
_cell_angle_alpha   106.55150845
_cell_angle_beta   89.66349256
_cell_angle_gamma   98.41280547
_symmetry_Int_Tables_number   1
_chemical_formula_structural   TbDy2Bi3(SbO7)2
_chemical_formula_sum   'Tb1 Dy2 Bi3 Sb2 O14'
_cell_volume   315.09341974
_cell_formula_units_Z   1
loop_
 _symmetry_equiv_pos_site_id
 _symmetry_equiv_pos_as_xyz
  1  'x, y, z'
loop_
 _atom_site_type_symbol
 _atom_site_label
 _atom_site_symmetry_multiplicity
 _atom_site_fract_x
 _atom_site_fract_y
 _atom_site_fract_z
 _atom_site_occupancy
  Tb  Tb0  1  0.544038  0.996434  0.752518  1
  Dy  Dy1  1  0.458781  0.001931  0.251459  1
  Dy  Dy2  1  0.256137  0.531368  0.882571  1
  Bi  Bi3  1  0.742308  0.483797  0.117314  1
  Bi  Bi4  1  0.727695  0.464352  0.613941  1
  Bi  Bi5  1  0.261181  0.528146  0.388121  1
  Sb  Sb6  1  0.002651  0.006799  0.501858  1
  Sb  Sb7  1  0.004255  0.001182  0.999728  1
  O  O8  1  0.444146  0.649926  0.165197  1
  O  O9  1  0.543788  0.347842  0.825921  1
  O  O10  1  0.293034  0.929891  0.953709  1
  O  O11  1  0.709616  0.042213  0.046749  1
  O  O12  1  0.289152  0.930252  0.514302  1
  O  O13  1  0.712475  0.076716  0.488277  1
  O  O14  1  0.530703  0.352991  0.347450  1
  O  O15  1  0.453708  0.643746  0.659137  1
  O  O16  1  0.936448  0.681862  0.954889  1
  O  O17  1  0.087045  0.309885  0.033979  1
  O  O18  1  0.094351  0.315148  0.620067  1
  O  O19  1  0.903766  0.699416  0.382027  1
  O  O20  1  0.901776  0.945505  0.736075  1
  O  O21  1  0.102947  0.060599  0.264712  1
