# generated using pymatgen
data_Nb3VNi2N
_symmetry_space_group_name_H-M   'P 1'
_cell_length_a   8.11727220
_cell_length_b   8.11557149
_cell_length_c   8.11554316
_cell_angle_alpha   59.98126574
_cell_angle_beta   59.98905845
_cell_angle_gamma   59.98928245
_symmetry_Int_Tables_number   1
_chemical_formula_structural   Nb3VNi2N
_chemical_formula_sum   'Nb12 V4 Ni8 N4'
_cell_volume   377.91940851
_cell_formula_units_Z   4
loop_
 _symmetry_equiv_pos_site_id
 _symmetry_equiv_pos_as_xyz
  1  'x, y, z'
loop_
 _atom_site_type_symbol
 _atom_site_label
 _atom_site_symmetry_multiplicity
 _atom_site_fract_x
 _atom_site_fract_y
 _atom_site_fract_z
 _atom_site_occupancy
  Nb  Nb0  1  0.813133  0.813177  0.186806  1
  Nb  Nb1  1  0.186913  0.186837  0.813140  1
  Nb  Nb2  1  0.813123  0.186819  0.813143  1
  Nb  Nb3  1  0.186882  0.813175  0.186825  1
  Nb  Nb4  1  0.186826  0.813177  0.813151  1
  Nb  Nb5  1  0.813115  0.186881  0.186903  1
  Nb  Nb6  1  0.436867  0.436823  0.063194  1
  Nb  Nb7  1  0.063087  0.063163  0.436860  1
  Nb  Nb8  1  0.436877  0.063181  0.436857  1
  Nb  Nb9  1  0.063118  0.436825  0.063175  1
  Nb  Nb10  1  0.063174  0.436823  0.436849  1
  Nb  Nb11  1  0.436885  0.063119  0.063097  1
  V  V12  1  0.125000  0.625000  0.625000  1
  V  V13  1  0.625000  0.125000  0.625000  1
  V  V14  1  0.625000  0.625000  0.125000  1
  V  V15  1  0.625000  0.625000  0.625000  1
  Ni  Ni16  1  0.733283  0.422144  0.422212  1
  Ni  Ni17  1  0.422233  0.733302  0.422154  1
  Ni  Ni18  1  0.422258  0.422125  0.733280  1
  Ni  Ni19  1  0.422309  0.422171  0.422233  1
  Ni  Ni20  1  0.516717  0.827856  0.827788  1
  Ni  Ni21  1  0.827767  0.516698  0.827846  1
  Ni  Ni22  1  0.827742  0.827875  0.516720  1
  Ni  Ni23  1  0.827691  0.827829  0.827767  1
  N  N24  1  0.625000  0.125000  0.125000  1
  N  N25  1  0.125000  0.625000  0.125000  1
  N  N26  1  0.125000  0.125000  0.625000  1
  N  N27  1  0.125000  0.125000  0.125000  1
