# generated using pymatgen
data_Er5Lu2Pa(ReB6)4
_symmetry_space_group_name_H-M   'P 1'
_cell_length_a   3.66325400
_cell_length_b   9.11770601
_cell_length_c   11.48283955
_cell_angle_alpha   90.16957283
_cell_angle_beta   90.00000000
_cell_angle_gamma   90.00000000
_symmetry_Int_Tables_number   1
_chemical_formula_structural   Er5Lu2Pa(ReB6)4
_chemical_formula_sum   'Er5 Lu2 Pa1 Re4 B24'
_cell_volume   383.53059298
_cell_formula_units_Z   1
loop_
 _symmetry_equiv_pos_site_id
 _symmetry_equiv_pos_as_xyz
  1  'x, y, z'
loop_
 _atom_site_type_symbol
 _atom_site_label
 _atom_site_symmetry_multiplicity
 _atom_site_fract_x
 _atom_site_fract_y
 _atom_site_fract_z
 _atom_site_occupancy
  Er  Er0  1  0.000000  0.679419  0.587022  1
  Er  Er1  1  0.000000  0.822767  0.085189  1
  Er  Er2  1  0.000000  0.176298  0.913615  1
  Er  Er3  1  0.000000  0.942569  0.371393  1
  Er  Er4  1  0.000000  0.055202  0.629624  1
  Lu  Lu5  1  0.000000  0.443669  0.127168  1
  Lu  Lu6  1  0.000000  0.557118  0.870718  1
  Pa  Pa7  1  0.000000  0.323230  0.414013  1
  Re  Re8  1  0.000000  0.635611  0.320980  1
  Re  Re9  1  0.000000  0.362559  0.677437  1
  Re  Re10  1  0.000000  0.141602  0.181067  1
  Re  Re11  1  0.000000  0.860609  0.821407  1
  B  B12  1  0.500000  0.552842  0.432064  1
  B  B13  1  0.500000  0.446180  0.567313  1
  B  B14  1  0.500000  0.054033  0.066995  1
  B  B15  1  0.500000  0.946643  0.933932  1
  B  B16  1  0.500000  0.748947  0.418533  1
  B  B17  1  0.500000  0.250624  0.581492  1
  B  B18  1  0.500000  0.250259  0.080232  1
  B  B19  1  0.500000  0.749483  0.919266  1
  B  B20  1  0.500000  0.791544  0.265249  1
  B  B21  1  0.500000  0.208236  0.735447  1
  B  B22  1  0.500000  0.292816  0.233970  1
  B  B23  1  0.500000  0.706984  0.765969  1
  B  B24  1  0.500000  0.630290  0.183782  1
  B  B25  1  0.500000  0.370655  0.815167  1
  B  B26  1  0.500000  0.131871  0.314670  1
  B  B27  1  0.500000  0.868489  0.686001  1
  B  B28  1  0.500000  0.982435  0.211832  1
  B  B29  1  0.500000  0.017684  0.788580  1
  B  B30  1  0.500000  0.482290  0.286515  1
  B  B31  1  0.500000  0.518728  0.713612  1
  B  B32  1  0.500000  0.599746  0.027268  1
  B  B33  1  0.500000  0.400382  0.971536  1
  B  B34  1  0.500000  0.103614  0.471517  1
  B  B35  1  0.500000  0.894574  0.529422  1
