# generated using pymatgen
data_SbSe(ClF2)3
_symmetry_space_group_name_H-M   'P 1'
_cell_length_a   8.28100100
_cell_length_b   9.33523500
_cell_length_c   12.45982900
_cell_angle_alpha   90.00000000
_cell_angle_beta   90.00000000
_cell_angle_gamma   90.00000000
_symmetry_Int_Tables_number   1
_chemical_formula_structural   SbSe(ClF2)3
_chemical_formula_sum   'Sb4 Se4 Cl12 F24'
_cell_volume   963.20820684
_cell_formula_units_Z   4
loop_
 _symmetry_equiv_pos_site_id
 _symmetry_equiv_pos_as_xyz
  1  'x, y, z'
loop_
 _atom_site_type_symbol
 _atom_site_label
 _atom_site_symmetry_multiplicity
 _atom_site_fract_x
 _atom_site_fract_y
 _atom_site_fract_z
 _atom_site_occupancy
  Sb  Sb0  1  0.303217  0.958674  0.186750  1
  Sb  Sb1  1  0.696783  0.458674  0.313250  1
  Sb  Sb2  1  0.196783  0.041326  0.686750  1
  Sb  Sb3  1  0.803217  0.541326  0.813250  1
  Se  Se4  1  0.634019  0.033162  0.471263  1
  Se  Se5  1  0.365981  0.533162  0.028737  1
  Se  Se6  1  0.134019  0.466838  0.528737  1
  Se  Se7  1  0.865981  0.966838  0.971263  1
  Cl  Cl8  1  0.287335  0.675341  0.903644  1
  Cl  Cl9  1  0.349572  0.494571  0.622522  1
  Cl  Cl10  1  0.139994  0.666283  0.443177  1
  Cl  Cl11  1  0.650428  0.994571  0.877478  1
  Cl  Cl12  1  0.849572  0.005429  0.377478  1
  Cl  Cl13  1  0.360006  0.333717  0.943177  1
  Cl  Cl14  1  0.150428  0.505429  0.122522  1
  Cl  Cl15  1  0.860006  0.166283  0.056823  1
  Cl  Cl16  1  0.787335  0.824659  0.096356  1
  Cl  Cl17  1  0.639994  0.833717  0.556823  1
  Cl  Cl18  1  0.712665  0.175341  0.596356  1
  Cl  Cl19  1  0.212665  0.324659  0.403644  1
  F  F20  1  0.560339  0.447974  0.187839  1
  F  F21  1  0.725352  0.355864  0.773272  1
  F  F22  1  0.368014  0.127369  0.767593  1
  F  F23  1  0.617991  0.271270  0.354621  1
  F  F24  1  0.117991  0.228730  0.645379  1
  F  F25  1  0.274648  0.855864  0.726728  1
  F  F26  1  0.439661  0.947974  0.312161  1
  F  F27  1  0.774648  0.644136  0.273272  1
  F  F28  1  0.165382  0.957016  0.061229  1
  F  F29  1  0.868014  0.372631  0.232407  1
  F  F30  1  0.027096  0.955117  0.606388  1
  F  F31  1  0.939661  0.552026  0.687839  1
  F  F32  1  0.527096  0.544883  0.393612  1
  F  F33  1  0.225352  0.144136  0.226728  1
  F  F34  1  0.334618  0.042984  0.561229  1
  F  F35  1  0.882009  0.728730  0.854621  1
  F  F36  1  0.382009  0.771270  0.145379  1
  F  F37  1  0.131986  0.872631  0.267593  1
  F  F38  1  0.834618  0.457016  0.438771  1
  F  F39  1  0.631986  0.627369  0.732407  1
  F  F40  1  0.972904  0.455117  0.893612  1
  F  F41  1  0.665382  0.542984  0.938771  1
  F  F42  1  0.060339  0.052026  0.812161  1
  F  F43  1  0.472904  0.044883  0.106388  1
