# generated using pymatgen
data_SmGd5TeO12
_symmetry_space_group_name_H-M   'P 1'
_cell_length_a   6.61547020
_cell_length_b   6.59840025
_cell_length_c   6.60352636
_cell_angle_alpha   98.65576828
_cell_angle_beta   98.74992393
_cell_angle_gamma   98.55037898
_symmetry_Int_Tables_number   1
_chemical_formula_structural   SmGd5TeO12
_chemical_formula_sum   'Sm1 Gd5 Te1 O12'
_cell_volume   277.27816484
_cell_formula_units_Z   1
loop_
 _symmetry_equiv_pos_site_id
 _symmetry_equiv_pos_as_xyz
  1  'x, y, z'
loop_
 _atom_site_type_symbol
 _atom_site_label
 _atom_site_symmetry_multiplicity
 _atom_site_fract_x
 _atom_site_fract_y
 _atom_site_fract_z
 _atom_site_occupancy
  Sm  Sm0  1  0.856560  0.389833  0.688838  1
  Gd  Gd1  1  0.607894  0.313481  0.145010  1
  Gd  Gd2  1  0.313556  0.144719  0.608579  1
  Gd  Gd3  1  0.686019  0.854783  0.390729  1
  Gd  Gd4  1  0.391564  0.687038  0.855303  1
  Gd  Gd5  1  0.144822  0.609088  0.313223  1
  Te  Te6  1  0.000318  0.000150  0.000370  1
  O  O7  1  0.927800  0.032632  0.706016  1
  O  O8  1  0.965653  0.293767  0.070927  1
  O  O9  1  0.591407  0.176257  0.433572  1
  O  O10  1  0.823058  0.565715  0.404950  1
  O  O11  1  0.292969  0.072259  0.966480  1
  O  O12  1  0.563029  0.406600  0.824266  1
  O  O13  1  0.434047  0.593572  0.177594  1
  O  O14  1  0.706925  0.927721  0.033444  1
  O  O15  1  0.179983  0.435313  0.591752  1
  O  O16  1  0.407618  0.823183  0.565800  1
  O  O17  1  0.034673  0.706897  0.928911  1
  O  O18  1  0.072104  0.966991  0.294239  1
