# generated using pymatgen
data_Ca10Ge2BiSb3
_symmetry_space_group_name_H-M   'P 1'
_cell_length_a   8.05660900
_cell_length_b   9.51073402
_cell_length_c   12.86344803
_cell_angle_alpha   90.00797300
_cell_angle_beta   90.00000000
_cell_angle_gamma   90.00000000
_symmetry_Int_Tables_number   1
_chemical_formula_structural   Ca10Ge2BiSb3
_chemical_formula_sum   'Ca20 Ge4 Bi2 Sb6'
_cell_volume   985.65224541
_cell_formula_units_Z   2
loop_
 _symmetry_equiv_pos_site_id
 _symmetry_equiv_pos_as_xyz
  1  'x, y, z'
loop_
 _atom_site_type_symbol
 _atom_site_label
 _atom_site_symmetry_multiplicity
 _atom_site_fract_x
 _atom_site_fract_y
 _atom_site_fract_z
 _atom_site_occupancy
  Ca  Ca0  1  0.328674  0.972927  0.076733  1
  Ca  Ca1  1  0.828674  0.027073  0.423267  1
  Ca  Ca2  1  0.672136  0.473253  0.920437  1
  Ca  Ca3  1  0.172136  0.526747  0.579563  1
  Ca  Ca4  1  0.672860  0.026763  0.920186  1
  Ca  Ca5  1  0.172860  0.973237  0.579814  1
  Ca  Ca6  1  0.327539  0.527202  0.078841  1
  Ca  Ca7  1  0.827539  0.472798  0.421159  1
  Ca  Ca8  1  0.674655  0.745808  0.216865  1
  Ca  Ca9  1  0.174655  0.254192  0.283135  1
  Ca  Ca10  1  0.325392  0.249829  0.782594  1
  Ca  Ca11  1  0.825392  0.750171  0.717406  1
  Ca  Ca12  1  0.149815  0.746072  0.305548  1
  Ca  Ca13  1  0.649815  0.253928  0.194452  1
  Ca  Ca14  1  0.849480  0.250058  0.694955  1
  Ca  Ca15  1  0.349480  0.749942  0.805045  1
  Ca  Ca16  1  0.553297  0.748239  0.502047  1
  Ca  Ca17  1  0.053297  0.251761  0.997953  1
  Ca  Ca18  1  0.447789  0.251915  0.500575  1
  Ca  Ca19  1  0.947789  0.748085  0.999425  1
  Ge  Ge20  1  0.558021  0.749636  0.992117  1
  Ge  Ge21  1  0.058021  0.250364  0.507883  1
  Ge  Ge22  1  0.442455  0.250552  0.007079  1
  Ge  Ge23  1  0.942455  0.749448  0.492921  1
  Bi  Bi24  1  0.945364  0.006858  0.168921  1
  Bi  Bi25  1  0.445364  0.993142  0.331079  1
  Sb  Sb26  1  0.052125  0.506681  0.830550  1
  Sb  Sb27  1  0.552125  0.493319  0.669450  1
  Sb  Sb28  1  0.052409  0.993168  0.830776  1
  Sb  Sb29  1  0.552409  0.006832  0.669224  1
  Sb  Sb30  1  0.947988  0.493282  0.168970  1
  Sb  Sb31  1  0.447988  0.506718  0.331030  1
