# generated using pymatgen
data_TbYFe7Co5P7
_symmetry_space_group_name_H-M   'P 1'
_cell_length_a   3.61177400
_cell_length_b   8.97000963
_cell_length_c   8.97910412
_cell_angle_alpha   119.96605368
_cell_angle_beta   90.00000000
_cell_angle_gamma   90.00000000
_symmetry_Int_Tables_number   1
_chemical_formula_structural   TbYFe7Co5P7
_chemical_formula_sum   'Tb1 Y1 Fe7 Co5 P7'
_cell_volume   252.01452457
_cell_formula_units_Z   1
loop_
 _symmetry_equiv_pos_site_id
 _symmetry_equiv_pos_as_xyz
  1  'x, y, z'
loop_
 _atom_site_type_symbol
 _atom_site_label
 _atom_site_symmetry_multiplicity
 _atom_site_fract_x
 _atom_site_fract_y
 _atom_site_fract_z
 _atom_site_occupancy
  Tb  Tb0  1  0.500000  0.333916  0.666769  1
  Y  Y1  1  0.000000  0.666584  0.333538  1
  Fe  Fe2  1  0.000000  0.568515  0.626544  1
  Fe  Fe3  1  0.000000  0.881011  0.727565  1
  Fe  Fe4  1  0.000000  0.272581  0.153266  1
  Fe  Fe5  1  0.000000  0.846108  0.120520  1
  Fe  Fe6  1  0.500000  0.128323  0.897080  1
  Fe  Fe7  1  0.500000  0.101637  0.230044  1
  Fe  Fe8  1  0.500000  0.772297  0.873910  1
  Co  Co9  1  0.000000  0.373025  0.940645  1
  Co  Co10  1  0.000000  0.059206  0.432430  1
  Co  Co11  1  0.500000  0.948179  0.563965  1
  Co  Co12  1  0.500000  0.435354  0.382836  1
  Co  Co13  1  0.500000  0.614462  0.050695  1
  P  P14  1  0.000000  0.111074  0.705100  1
  P  P15  1  0.000000  0.296736  0.407194  1
  P  P16  1  0.000000  0.594697  0.887077  1
  P  P17  1  0.500000  0.709549  0.601020  1
  P  P18  1  0.500000  0.399766  0.111606  1
  P  P19  1  0.500000  0.887652  0.287892  1
  P  P20  1  0.000000  0.999328  0.000303  1
