# generated using pymatgen
data_Sm4Ga10Cu5Pt
_symmetry_space_group_name_H-M   'P 1'
_cell_length_a   8.37813307
_cell_length_b   8.37813251
_cell_length_c   8.37813338
_cell_angle_alpha   138.17204352
_cell_angle_beta   105.34472044
_cell_angle_gamma   89.43983792
_symmetry_Int_Tables_number   1
_chemical_formula_structural   Sm4Ga10Cu5Pt
_chemical_formula_sum   'Sm4 Ga10 Cu5 Pt1'
_cell_volume   361.79728215
_cell_formula_units_Z   1
loop_
 _symmetry_equiv_pos_site_id
 _symmetry_equiv_pos_as_xyz
  1  'x, y, z'
loop_
 _atom_site_type_symbol
 _atom_site_label
 _atom_site_symmetry_multiplicity
 _atom_site_fract_x
 _atom_site_fract_y
 _atom_site_fract_z
 _atom_site_occupancy
  Sm  Sm0  1  0.630067  0.375649  0.265328  1
  Sm  Sm1  1  0.369933  0.635261  0.745582  1
  Sm  Sm2  1  0.110321  0.864739  0.234672  1
  Sm  Sm3  1  0.889679  0.124351  0.754418  1
  Ga  Ga4  1  0.267013  0.517013  0.250000  1
  Ga  Ga5  1  0.736283  0.486283  0.750000  1
  Ga  Ga6  1  0.732987  0.982987  0.250000  1
  Ga  Ga7  1  0.263717  0.013717  0.750000  1
  Ga  Ga8  1  0.457420  0.119634  0.355735  1
  Ga  Ga9  1  0.542580  0.898314  0.662213  1
  Ga  Ga10  1  0.763898  0.601686  0.144265  1
  Ga  Ga11  1  0.236102  0.380366  0.837787  1
  Ga  Ga12  1  0.000000  0.250000  0.250000  1
  Ga  Ga13  1  0.000000  0.750000  0.750000  1
  Cu  Cu14  1  0.247638  0.135074  0.116189  1
  Cu  Cu15  1  0.752362  0.868551  0.887435  1
  Cu  Cu16  1  0.018884  0.631449  0.383811  1
  Cu  Cu17  1  0.981116  0.364926  0.612565  1
  Cu  Cu18  1  0.500000  0.250000  0.750000  1
  Pt  Pt19  1  0.500000  0.750000  0.250000  1
