# generated using pymatgen
data_Sn3Sb8PPt6
_symmetry_space_group_name_H-M   'P 1'
_cell_length_a   4.04368200
_cell_length_b   8.47225861
_cell_length_c   12.46354263
_cell_angle_alpha   97.00653992
_cell_angle_beta   90.00000000
_cell_angle_gamma   90.00000000
_symmetry_Int_Tables_number   1
_chemical_formula_structural   Sn3Sb8PPt6
_chemical_formula_sum   'Sn3 Sb8 P1 Pt6'
_cell_volume   423.80133720
_cell_formula_units_Z   1
loop_
 _symmetry_equiv_pos_site_id
 _symmetry_equiv_pos_as_xyz
  1  'x, y, z'
loop_
 _atom_site_type_symbol
 _atom_site_label
 _atom_site_symmetry_multiplicity
 _atom_site_fract_x
 _atom_site_fract_y
 _atom_site_fract_z
 _atom_site_occupancy
  Sn  Sn0  1  0.500000  0.994545  0.140751  1
  Sn  Sn1  1  0.500000  0.659662  0.476078  1
  Sn  Sn2  1  0.500000  0.663187  0.183593  1
  Sb  Sb3  1  0.500000  0.338684  0.539171  1
  Sb  Sb4  1  0.500000  0.032366  0.856025  1
  Sb  Sb5  1  0.000000  0.313296  0.049085  1
  Sb  Sb6  1  0.000000  0.977177  0.381038  1
  Sb  Sb7  1  0.000000  0.649330  0.719947  1
  Sb  Sb8  1  0.000000  0.686416  0.948571  1
  Sb  Sb9  1  0.000000  0.353088  0.284244  1
  Sb  Sb10  1  0.000000  0.017795  0.613965  1
  P  P11  1  0.500000  0.324485  0.804973  1
  Pt  Pt12  1  0.500000  0.837652  0.670309  1
  Pt  Pt13  1  0.500000  0.486274  0.983572  1
  Pt  Pt14  1  0.500000  0.168453  0.338597  1
  Pt  Pt15  1  0.000000  0.329058  0.684586  1
  Pt  Pt16  1  0.000000  0.004654  0.993415  1
  Pt  Pt17  1  0.000000  0.663876  0.332082  1
