# generated using pymatgen
data_TbEr7Cd2OsPt
_symmetry_space_group_name_H-M   'P 1'
_cell_length_a   9.59334170
_cell_length_b   9.59334156
_cell_length_c   9.65451800
_cell_angle_alpha   59.78881950
_cell_angle_beta   59.78882000
_cell_angle_gamma   59.52233423
_symmetry_Int_Tables_number   1
_chemical_formula_structural   TbEr7Cd2OsPt
_chemical_formula_sum   'Tb2 Er14 Cd4 Os2 Pt2'
_cell_volume   623.99255464
_cell_formula_units_Z   2
loop_
 _symmetry_equiv_pos_site_id
 _symmetry_equiv_pos_as_xyz
  1  'x, y, z'
loop_
 _atom_site_type_symbol
 _atom_site_label
 _atom_site_symmetry_multiplicity
 _atom_site_fract_x
 _atom_site_fract_y
 _atom_site_fract_z
 _atom_site_occupancy
  Tb  Tb0  1  0.564563  0.564563  0.935437  1
  Tb  Tb1  1  0.939600  0.939600  0.560400  1
  Er  Er2  1  0.350008  0.350008  0.351741  1
  Er  Er3  1  0.350008  0.350008  0.948243  1
  Er  Er4  1  0.346688  0.953827  0.349742  1
  Er  Er5  1  0.953827  0.346688  0.349742  1
  Er  Er6  1  0.814476  0.187629  0.190523  1
  Er  Er7  1  0.187629  0.814476  0.807372  1
  Er  Er8  1  0.187629  0.814476  0.190523  1
  Er  Er9  1  0.814476  0.187629  0.807372  1
  Er  Er10  1  0.188295  0.188295  0.811705  1
  Er  Er11  1  0.808416  0.808416  0.191584  1
  Er  Er12  1  0.939084  0.555752  0.566169  1
  Er  Er13  1  0.555752  0.939084  0.938995  1
  Er  Er14  1  0.555752  0.939084  0.566169  1
  Er  Er15  1  0.939084  0.555752  0.938995  1
  Cd  Cd16  1  0.580392  0.580392  0.581302  1
  Cd  Cd17  1  0.580392  0.580392  0.257913  1
  Cd  Cd18  1  0.580728  0.255834  0.581719  1
  Cd  Cd19  1  0.255834  0.580728  0.581719  1
  Os  Os20  1  0.144579  0.144579  0.136997  1
  Os  Os21  1  0.144579  0.144579  0.573845  1
  Pt  Pt22  1  0.144157  0.574052  0.140896  1
  Pt  Pt23  1  0.574052  0.144157  0.140896  1
