# generated using pymatgen
data_TbY(Al5Os)4
_symmetry_space_group_name_H-M   'P 1'
_cell_length_a   6.86607390
_cell_length_b   6.86607284
_cell_length_c   9.17546000
_cell_angle_alpha   90.00000000
_cell_angle_beta   90.00000000
_cell_angle_gamma   96.52519661
_symmetry_Int_Tables_number   1
_chemical_formula_structural   TbY(Al5Os)4
_chemical_formula_sum   'Tb1 Y1 Al20 Os4'
_cell_volume   429.75625272
_cell_formula_units_Z   1
loop_
 _symmetry_equiv_pos_site_id
 _symmetry_equiv_pos_as_xyz
  1  'x, y, z'
loop_
 _atom_site_type_symbol
 _atom_site_label
 _atom_site_symmetry_multiplicity
 _atom_site_fract_x
 _atom_site_fract_y
 _atom_site_fract_z
 _atom_site_occupancy
  Tb  Tb0  1  0.371231  0.628769  0.250000  1
  Y  Y1  1  0.629080  0.370920  0.750000  1
  Al  Al2  1  0.281516  0.019227  0.750000  1
  Al  Al3  1  0.019261  0.281921  0.250000  1
  Al  Al4  1  0.718079  0.980739  0.250000  1
  Al  Al5  1  0.980773  0.718484  0.750000  1
  Al  Al6  1  0.876542  0.123458  0.952168  1
  Al  Al7  1  0.123405  0.876595  0.045091  1
  Al  Al8  1  0.876542  0.123458  0.547832  1
  Al  Al9  1  0.123405  0.876595  0.454909  1
  Al  Al10  1  0.645456  0.915729  0.750000  1
  Al  Al11  1  0.914842  0.646304  0.250000  1
  Al  Al12  1  0.353696  0.085158  0.250000  1
  Al  Al13  1  0.084271  0.354544  0.750000  1
  Al  Al14  1  0.344009  0.655991  0.898900  1
  Al  Al15  1  0.657366  0.342634  0.101194  1
  Al  Al16  1  0.344009  0.655991  0.601100  1
  Al  Al17  1  0.657366  0.342634  0.398806  1
  Al  Al18  1  0.723929  0.724174  0.999875  1
  Al  Al19  1  0.723929  0.724174  0.500125  1
  Al  Al20  1  0.275826  0.276071  0.999875  1
  Al  Al21  1  0.275826  0.276071  0.500125  1
  Os  Os22  1  0.499818  0.999998  0.000037  1
  Os  Os23  1  0.000002  0.500182  0.000037  1
  Os  Os24  1  0.499818  0.999998  0.499963  1
  Os  Os25  1  0.000002  0.500182  0.499963  1
