# generated using pymatgen
data_La3Nd13Cd4Ir3Pt
_symmetry_space_group_name_H-M   'P 1'
_cell_length_a   10.00797132
_cell_length_b   10.01328368
_cell_length_c   10.01328358
_cell_angle_alpha   60.22655631
_cell_angle_beta   60.17336880
_cell_angle_gamma   60.17336888
_symmetry_Int_Tables_number   1
_chemical_formula_structural   La3Nd13Cd4Ir3Pt
_chemical_formula_sum   'La3 Nd13 Cd4 Ir3 Pt1'
_cell_volume   712.62189486
_cell_formula_units_Z   1
loop_
 _symmetry_equiv_pos_site_id
 _symmetry_equiv_pos_as_xyz
  1  'x, y, z'
loop_
 _atom_site_type_symbol
 _atom_site_label
 _atom_site_symmetry_multiplicity
 _atom_site_fract_x
 _atom_site_fract_y
 _atom_site_fract_z
 _atom_site_occupancy
  La  La0  1  0.345842  0.347061  0.347061  1
  La  La1  1  0.351020  0.351852  0.952681  1
  La  La2  1  0.351020  0.952681  0.351852  1
  Nd  Nd3  1  0.947995  0.352407  0.352407  1
  Nd  Nd4  1  0.806438  0.189917  0.189917  1
  Nd  Nd5  1  0.188154  0.810225  0.810225  1
  Nd  Nd6  1  0.189950  0.806734  0.189519  1
  Nd  Nd7  1  0.810734  0.188091  0.809654  1
  Nd  Nd8  1  0.189950  0.189519  0.806734  1
  Nd  Nd9  1  0.810734  0.809654  0.188091  1
  Nd  Nd10  1  0.939046  0.562617  0.562617  1
  Nd  Nd11  1  0.563180  0.937634  0.937634  1
  Nd  Nd12  1  0.563596  0.938406  0.563303  1
  Nd  Nd13  1  0.938118  0.562744  0.938000  1
  Nd  Nd14  1  0.563596  0.563303  0.938406  1
  Nd  Nd15  1  0.938118  0.938000  0.562744  1
  Cd  Cd16  1  0.582149  0.579867  0.579867  1
  Cd  Cd17  1  0.581689  0.579633  0.258177  1
  Cd  Cd18  1  0.581689  0.258177  0.579633  1
  Cd  Cd19  1  0.257711  0.580643  0.580643  1
  Ir  Ir20  1  0.142010  0.142303  0.573857  1
  Ir  Ir21  1  0.142010  0.573857  0.142303  1
  Ir  Ir22  1  0.574232  0.141836  0.141836  1
  Pt  Pt23  1  0.141014  0.142839  0.142839  1
