# generated using pymatgen
data_Np4Ga11SiRh
_symmetry_space_group_name_H-M   'P 1'
_cell_length_a   7.45015319
_cell_length_b   7.45015333
_cell_length_c   7.45015365
_cell_angle_alpha   109.81291163
_cell_angle_beta   109.81290714
_cell_angle_gamma   108.78997867
_symmetry_Int_Tables_number   1
_chemical_formula_structural   Np4Ga11SiRh
_chemical_formula_sum   'Np4 Ga11 Si1 Rh1'
_cell_volume   318.29351793
_cell_formula_units_Z   1
loop_
 _symmetry_equiv_pos_site_id
 _symmetry_equiv_pos_as_xyz
  1  'x, y, z'
loop_
 _atom_site_type_symbol
 _atom_site_label
 _atom_site_symmetry_multiplicity
 _atom_site_fract_x
 _atom_site_fract_y
 _atom_site_fract_z
 _atom_site_occupancy
  Np  Np0  1  0.504031  0.495969  0.500000  1
  Np  Np1  1  0.995969  0.495969  0.991939  1
  Np  Np2  1  0.995969  0.004031  0.500000  1
  Np  Np3  1  0.504031  0.004031  0.008061  1
  Ga  Ga4  1  0.001815  0.709813  0.707998  1
  Ga  Ga5  1  0.290187  0.998185  0.292002  1
  Ga  Ga6  1  0.498057  0.248278  0.750221  1
  Ga  Ga7  1  0.751722  0.501943  0.249779  1
  Ga  Ga8  1  0.250000  0.750000  0.500000  1
  Ga  Ga9  1  0.252164  0.501943  0.750221  1
  Ga  Ga10  1  0.706183  0.998185  0.707998  1
  Ga  Ga11  1  0.498057  0.747836  0.249779  1
  Ga  Ga12  1  0.709927  0.709927  0.000000  1
  Ga  Ga13  1  0.290073  0.290073  0.000000  1
  Ga  Ga14  1  0.001815  0.293817  0.292002  1
  Si  Si15  1  0.750000  0.250000  0.500000  1
  Rh  Rh16  1  0.000000  0.000000  0.000000  1
