# generated using pymatgen
data_YHoTm4(B7W)2
_symmetry_space_group_name_H-M   'P 1'
_cell_length_a   8.07382351
_cell_length_b   8.07382356
_cell_length_c   9.45607100
_cell_angle_alpha   90.00000000
_cell_angle_beta   90.00000000
_cell_angle_gamma   155.46266549
_symmetry_Int_Tables_number   1
_chemical_formula_structural   YHoTm4(B7W)2
_chemical_formula_sum   'Y1 Ho1 Tm4 B14 W2'
_cell_volume   255.98623919
_cell_formula_units_Z   1
loop_
 _symmetry_equiv_pos_site_id
 _symmetry_equiv_pos_as_xyz
  1  'x, y, z'
loop_
 _atom_site_type_symbol
 _atom_site_label
 _atom_site_symmetry_multiplicity
 _atom_site_fract_x
 _atom_site_fract_y
 _atom_site_fract_z
 _atom_site_occupancy
  Y  Y0  1  0.246992  0.753008  0.250000  1
  Ho  Ho1  1  0.753917  0.246083  0.750000  1
  Tm  Tm2  1  0.893053  0.106947  0.441398  1
  Tm  Tm3  1  0.107203  0.892797  0.559048  1
  Tm  Tm4  1  0.893053  0.106947  0.058602  1
  Tm  Tm5  1  0.107203  0.892797  0.940952  1
  B  B6  1  0.727564  0.272436  0.467950  1
  B  B7  1  0.272332  0.727668  0.533113  1
  B  B8  1  0.727564  0.272436  0.032050  1
  B  B9  1  0.272332  0.727668  0.966887  1
  B  B10  1  0.634782  0.365218  0.146580  1
  B  B11  1  0.364726  0.635274  0.853075  1
  B  B12  1  0.634782  0.365218  0.353420  1
  B  B13  1  0.364726  0.635274  0.646925  1
  B  B14  1  0.518863  0.481137  0.091186  1
  B  B15  1  0.481151  0.518849  0.908658  1
  B  B16  1  0.518863  0.481137  0.408814  1
  B  B17  1  0.481151  0.518849  0.591342  1
  B  B18  1  0.452451  0.547549  0.250000  1
  B  B19  1  0.547450  0.452550  0.750000  1
  W  W20  1  0.052369  0.947631  0.250000  1
  W  W21  1  0.947472  0.052528  0.750000  1
