# generated using pymatgen
data_Tb3Mg3AgSnPb
_symmetry_space_group_name_H-M   'P 1'
_cell_length_a   7.55206800
_cell_length_b   7.55206773
_cell_length_c   4.58301100
_cell_angle_alpha   90.00000000
_cell_angle_beta   90.00000000
_cell_angle_gamma   119.99999244
_symmetry_Int_Tables_number   1
_chemical_formula_structural   Tb3Mg3AgSnPb
_chemical_formula_sum   'Tb3 Mg3 Ag1 Sn1 Pb1'
_cell_volume   226.36711306
_cell_formula_units_Z   1
loop_
 _symmetry_equiv_pos_site_id
 _symmetry_equiv_pos_as_xyz
  1  'x, y, z'
loop_
 _atom_site_type_symbol
 _atom_site_label
 _atom_site_symmetry_multiplicity
 _atom_site_fract_x
 _atom_site_fract_y
 _atom_site_fract_z
 _atom_site_occupancy
  Tb  Tb0  1  0.586910  0.002884  0.000000  1
  Tb  Tb1  1  0.997116  0.584026  0.000000  1
  Tb  Tb2  1  0.415974  0.413090  0.000000  1
  Mg  Mg3  1  0.236234  0.002043  0.500000  1
  Mg  Mg4  1  0.997957  0.234191  0.500000  1
  Mg  Mg5  1  0.765809  0.763766  0.500000  1
  Ag  Ag6  1  0.000000  0.000000  0.000000  1
  Sn  Sn7  1  0.666667  0.333333  0.500000  1
  Pb  Pb8  1  0.333333  0.666667  0.500000  1
