# generated using pymatgen
data_Sc4AlPd11
_symmetry_space_group_name_H-M   'P 1'
_cell_length_a   4.04417200
_cell_length_b   5.66656880
_cell_length_c   11.28867900
_cell_angle_alpha   87.79971831
_cell_angle_beta   90.00000000
_cell_angle_gamma   90.00000000
_symmetry_Int_Tables_number   1
_chemical_formula_structural   Sc4AlPd11
_chemical_formula_sum   'Sc4 Al1 Pd11'
_cell_volume   258.50717212
_cell_formula_units_Z   1
loop_
 _symmetry_equiv_pos_site_id
 _symmetry_equiv_pos_as_xyz
  1  'x, y, z'
loop_
 _atom_site_type_symbol
 _atom_site_label
 _atom_site_symmetry_multiplicity
 _atom_site_fract_x
 _atom_site_fract_y
 _atom_site_fract_z
 _atom_site_occupancy
  Sc  Sc0  1  0.500000  0.760976  0.375684  1
  Sc  Sc1  1  0.500000  0.705053  0.860768  1
  Sc  Sc2  1  0.500000  0.294947  0.139232  1
  Sc  Sc3  1  0.500000  0.239024  0.624316  1
  Al  Al4  1  0.000000  0.000000  0.000000  1
  Pd  Pd5  1  0.000000  0.026588  0.241950  1
  Pd  Pd6  1  0.000000  0.973412  0.758050  1
  Pd  Pd7  1  0.000000  0.500000  0.000000  1
  Pd  Pd8  1  0.000000  0.500000  0.500000  1
  Pd  Pd9  1  0.000000  0.531832  0.248336  1
  Pd  Pd10  1  0.000000  0.468168  0.751664  1
  Pd  Pd11  1  0.500000  0.258976  0.375792  1
  Pd  Pd12  1  0.500000  0.206533  0.893265  1
  Pd  Pd13  1  0.500000  0.793467  0.106735  1
  Pd  Pd14  1  0.500000  0.741024  0.624208  1
  Pd  Pd15  1  0.000000  0.000000  0.500000  1
