# generated using pymatgen
data_Rb8Na8Si15Ge
_symmetry_space_group_name_H-M   'P 1'
_cell_length_a   9.39894315
_cell_length_b   8.25681820
_cell_length_c   13.08861300
_cell_angle_alpha   68.61062970
_cell_angle_beta   89.95312800
_cell_angle_gamma   89.95068685
_symmetry_Int_Tables_number   1
_chemical_formula_structural   Rb8Na8Si15Ge
_chemical_formula_sum   'Rb8 Na8 Si15 Ge1'
_cell_volume   945.78502084
_cell_formula_units_Z   1
loop_
 _symmetry_equiv_pos_site_id
 _symmetry_equiv_pos_as_xyz
  1  'x, y, z'
loop_
 _atom_site_type_symbol
 _atom_site_label
 _atom_site_symmetry_multiplicity
 _atom_site_fract_x
 _atom_site_fract_y
 _atom_site_fract_z
 _atom_site_occupancy
  Rb  Rb0  1  0.977275  0.490605  0.279162  1
  Rb  Rb1  1  0.477882  0.511471  0.218167  1
  Rb  Rb2  1  0.022155  0.513063  0.719463  1
  Rb  Rb3  1  0.520830  0.488023  0.782407  1
  Rb  Rb4  1  0.203136  0.649876  0.966969  1
  Rb  Rb5  1  0.700109  0.350616  0.532900  1
  Rb  Rb6  1  0.797160  0.350217  0.032733  1
  Rb  Rb7  1  0.298985  0.650757  0.467355  1
  Na  Na8  1  0.102122  0.055353  0.394063  1
  Na  Na9  1  0.541657  0.942114  0.685722  1
  Na  Na10  1  0.039975  0.055813  0.815620  1
  Na  Na11  1  0.398294  0.055647  0.894385  1
  Na  Na12  1  0.898486  0.941607  0.606195  1
  Na  Na13  1  0.601503  0.944126  0.105887  1
  Na  Na14  1  0.460630  0.056489  0.314537  1
  Na  Na15  1  0.960136  0.944580  0.184823  1
  Si  Si16  1  0.603148  0.758123  0.943042  1
  Si  Si17  1  0.163022  0.195561  0.990194  1
  Si  Si18  1  0.339292  0.191346  0.490984  1
  Si  Si19  1  0.663293  0.804902  0.509578  1
  Si  Si20  1  0.685399  0.774734  0.335823  1
  Si  Si21  1  0.185034  0.225639  0.163961  1
  Si  Si22  1  0.317437  0.222894  0.664066  1
  Si  Si23  1  0.814229  0.774793  0.836102  1
  Si  Si24  1  0.774862  0.041379  0.357331  1
  Si  Si25  1  0.396651  0.241640  0.057677  1
  Si  Si26  1  0.896959  0.757759  0.442185  1
  Si  Si27  1  0.725317  0.041566  0.857594  1
  Si  Si28  1  0.227625  0.956340  0.643358  1
  Si  Si29  1  0.274194  0.958558  0.142672  1
  Si  Si30  1  0.836981  0.804976  0.009768  1
  Ge  Ge31  1  0.096220  0.249435  0.555280  1
