# generated using pymatgen
data_Sr5(Pd2Au)2
_symmetry_space_group_name_H-M   'P 1'
_cell_length_a   15.47692926
_cell_length_b   15.47692870
_cell_length_c   4.37115400
_cell_angle_alpha   90.00000000
_cell_angle_beta   90.00000000
_cell_angle_gamma   162.96937407
_symmetry_Int_Tables_number   1
_chemical_formula_structural   Sr5(Pd2Au)2
_chemical_formula_sum   'Sr5 Pd4 Au2'
_cell_volume   306.66174260
_cell_formula_units_Z   1
loop_
 _symmetry_equiv_pos_site_id
 _symmetry_equiv_pos_as_xyz
  1  'x, y, z'
loop_
 _atom_site_type_symbol
 _atom_site_label
 _atom_site_symmetry_multiplicity
 _atom_site_fract_x
 _atom_site_fract_y
 _atom_site_fract_z
 _atom_site_occupancy
  Sr  Sr0  1  0.002641  0.997359  0.000000  1
  Sr  Sr1  1  0.612402  0.387596  0.000000  1
  Sr  Sr2  1  0.386628  0.613370  0.000000  1
  Sr  Sr3  1  0.802654  0.197344  0.500001  1
  Sr  Sr4  1  0.195821  0.804177  0.500001  1
  Pd  Pd5  1  0.276455  0.723543  0.000000  1
  Pd  Pd6  1  0.544046  0.455952  0.500001  1
  Pd  Pd7  1  0.458545  0.541453  0.500001  1
  Pd  Pd8  1  0.090391  0.909608  0.500001  1
  Au  Au9  1  0.722766  0.277232  0.000000  1
  Au  Au10  1  0.907642  0.092357  0.500001  1
