# generated using pymatgen
data_Pr3HgPt3Pb2
_symmetry_space_group_name_H-M   'P 1'
_cell_length_a   7.90927470
_cell_length_b   7.90927576
_cell_length_c   4.04286600
_cell_angle_alpha   90.00000000
_cell_angle_beta   90.00000000
_cell_angle_gamma   119.57848970
_symmetry_Int_Tables_number   1
_chemical_formula_structural   Pr3HgPt3Pb2
_chemical_formula_sum   'Pr3 Hg1 Pt3 Pb2'
_cell_volume   219.94918636
_cell_formula_units_Z   1
loop_
 _symmetry_equiv_pos_site_id
 _symmetry_equiv_pos_as_xyz
  1  'x, y, z'
loop_
 _atom_site_type_symbol
 _atom_site_label
 _atom_site_symmetry_multiplicity
 _atom_site_fract_x
 _atom_site_fract_y
 _atom_site_fract_z
 _atom_site_occupancy
  Pr  Pr0  1  0.594974  0.991452  0.000000  1
  Pr  Pr1  1  0.991452  0.594974  0.000000  1
  Pr  Pr2  1  0.418937  0.418937  0.000000  1
  Hg  Hg3  1  0.737292  0.737292  0.500000  1
  Pt  Pt4  1  0.330604  0.666008  0.500000  1
  Pt  Pt5  1  0.666008  0.330604  0.500000  1
  Pt  Pt6  1  0.003105  0.003105  0.000000  1
  Pb  Pb7  1  0.256847  0.000780  0.500000  1
  Pb  Pb8  1  0.000780  0.256847  0.500000  1
