# generated using pymatgen
data_TbY3IrPd3O14
_symmetry_space_group_name_H-M   'P 1'
_cell_length_a   7.25405063
_cell_length_b   7.25405168
_cell_length_c   7.28165902
_cell_angle_alpha   60.06533123
_cell_angle_beta   60.06532898
_cell_angle_gamma   59.92606211
_symmetry_Int_Tables_number   1
_chemical_formula_structural   TbY3IrPd3O14
_chemical_formula_sum   'Tb1 Y3 Ir1 Pd3 O14'
_cell_volume   271.05721436
_cell_formula_units_Z   1
loop_
 _symmetry_equiv_pos_site_id
 _symmetry_equiv_pos_as_xyz
  1  'x, y, z'
loop_
 _atom_site_type_symbol
 _atom_site_label
 _atom_site_symmetry_multiplicity
 _atom_site_fract_x
 _atom_site_fract_y
 _atom_site_fract_z
 _atom_site_occupancy
  Tb  Tb0  1  0.125000  0.125000  0.125000  1
  Y  Y1  1  0.625000  0.125000  0.125000  1
  Y  Y2  1  0.125000  0.625000  0.125000  1
  Y  Y3  1  0.125000  0.125000  0.625000  1
  Ir  Ir4  1  0.625000  0.625000  0.125000  1
  Pd  Pd5  1  0.125000  0.625000  0.625000  1
  Pd  Pd6  1  0.625000  0.125000  0.625000  1
  Pd  Pd7  1  0.625000  0.625000  0.625000  1
  O  O8  1  0.712485  0.712485  0.284198  1
  O  O9  1  0.283852  0.283852  0.717959  1
  O  O10  1  0.714002  0.283838  0.717887  1
  O  O11  1  0.291049  0.712091  0.284094  1
  O  O12  1  0.283838  0.714002  0.717887  1
  O  O13  1  0.712091  0.291049  0.284094  1
  O  O14  1  0.537515  0.537515  0.965802  1
  O  O15  1  0.966148  0.966148  0.532041  1
  O  O16  1  0.535998  0.966162  0.532113  1
  O  O17  1  0.958951  0.537909  0.965906  1
  O  O18  1  0.966162  0.535998  0.532113  1
  O  O19  1  0.537909  0.958951  0.965906  1
  O  O20  1  0.250636  0.250636  0.249402  1
  O  O21  1  0.999364  0.999364  0.000598  1
