# generated using pymatgen
data_Dy4VRu7
_symmetry_space_group_name_H-M   'P 1'
_cell_length_a   5.46186712
_cell_length_b   5.15613402
_cell_length_c   9.00573100
_cell_angle_alpha   90.00000000
_cell_angle_beta   90.00000000
_cell_angle_gamma   122.02004707
_symmetry_Int_Tables_number   1
_chemical_formula_structural   Dy4VRu7
_chemical_formula_sum   'Dy4 V1 Ru7'
_cell_volume   215.03531702
_cell_formula_units_Z   1
loop_
 _symmetry_equiv_pos_site_id
 _symmetry_equiv_pos_as_xyz
  1  'x, y, z'
loop_
 _atom_site_type_symbol
 _atom_site_label
 _atom_site_symmetry_multiplicity
 _atom_site_fract_x
 _atom_site_fract_y
 _atom_site_fract_z
 _atom_site_occupancy
  Dy  Dy0  1  0.669250  0.338601  0.564231  1
  Dy  Dy1  1  0.332103  0.664373  0.431295  1
  Dy  Dy2  1  0.332103  0.664373  0.068705  1
  Dy  Dy3  1  0.669250  0.338601  0.935769  1
  V  V4  1  0.169918  0.340398  0.750000  1
  Ru  Ru5  1  0.005458  0.010478  0.502839  1
  Ru  Ru6  1  0.005458  0.010478  0.997161  1
  Ru  Ru7  1  0.167539  0.817530  0.750000  1
  Ru  Ru8  1  0.650101  0.817525  0.750000  1
  Ru  Ru9  1  0.829845  0.659620  0.250000  1
  Ru  Ru10  1  0.828968  0.169005  0.250000  1
  Ru  Ru11  1  0.340007  0.169019  0.250000  1
