# generated using pymatgen
data_Mn3Cr(SiTc)6
_symmetry_space_group_name_H-M   'P 1'
_cell_length_a   6.98150400
_cell_length_b   6.98150416
_cell_length_c   4.77624300
_cell_angle_alpha   90.00000000
_cell_angle_beta   90.00000000
_cell_angle_gamma   119.99999926
_symmetry_Int_Tables_number   1
_chemical_formula_structural   Mn3Cr(SiTc)6
_chemical_formula_sum   'Mn3 Cr1 Si6 Tc6'
_cell_volume   201.61137946
_cell_formula_units_Z   1
loop_
 _symmetry_equiv_pos_site_id
 _symmetry_equiv_pos_as_xyz
  1  'x, y, z'
loop_
 _atom_site_type_symbol
 _atom_site_label
 _atom_site_symmetry_multiplicity
 _atom_site_fract_x
 _atom_site_fract_y
 _atom_site_fract_z
 _atom_site_occupancy
  Mn  Mn0  1  0.666667  0.333333  0.000000  1
  Mn  Mn1  1  0.666667  0.333333  0.500000  1
  Mn  Mn2  1  0.333333  0.666667  0.000000  1
  Cr  Cr3  1  0.333333  0.666667  0.500000  1
  Si  Si4  1  0.401761  0.001241  0.751488  1
  Si  Si5  1  0.401761  0.400520  0.248512  1
  Si  Si6  1  0.998759  0.598239  0.248512  1
  Si  Si7  1  0.998759  0.400520  0.751488  1
  Si  Si8  1  0.599480  0.598239  0.751488  1
  Si  Si9  1  0.599480  0.001241  0.248512  1
  Tc  Tc10  1  0.999878  0.757888  0.750160  1
  Tc  Tc11  1  0.999878  0.241990  0.249840  1
  Tc  Tc12  1  0.758010  0.757888  0.249840  1
  Tc  Tc13  1  0.758010  0.000122  0.750160  1
  Tc  Tc14  1  0.242112  0.241990  0.750160  1
  Tc  Tc15  1  0.242112  0.000122  0.249840  1
