# generated using pymatgen
data_Ba2AsBrF14
_symmetry_space_group_name_H-M   'P 1'
_cell_length_a   4.90399379
_cell_length_b   7.73194577
_cell_length_c   7.98035080
_cell_angle_alpha   106.78057974
_cell_angle_beta   100.75860343
_cell_angle_gamma   90.55930786
_symmetry_Int_Tables_number   1
_chemical_formula_structural   Ba2AsBrF14
_chemical_formula_sum   'Ba2 As1 Br1 F14'
_cell_volume   283.96410036
_cell_formula_units_Z   1
loop_
 _symmetry_equiv_pos_site_id
 _symmetry_equiv_pos_as_xyz
  1  'x, y, z'
loop_
 _atom_site_type_symbol
 _atom_site_label
 _atom_site_symmetry_multiplicity
 _atom_site_fract_x
 _atom_site_fract_y
 _atom_site_fract_z
 _atom_site_occupancy
  Ba  Ba0  1  0.179985  0.340407  0.790800  1
  Ba  Ba1  1  0.818550  0.657867  0.209559  1
  As  As2  1  0.352005  0.188509  0.291236  1
  Br  Br3  1  0.648068  0.811835  0.709806  1
  F  F4  1  0.144073  0.180626  0.082181  1
  F  F5  1  0.430792  0.792681  0.479065  1
  F  F6  1  0.556373  0.205003  0.505879  1
  F  F7  1  0.495344  0.031114  0.812068  1
  F  F8  1  0.497108  0.983921  0.195558  1
  F  F9  1  0.364709  0.677329  0.757525  1
  F  F10  1  0.869342  0.819729  0.933547  1
  F  F11  1  0.280931  0.583551  0.096574  1
  F  F12  1  0.087880  0.062566  0.340567  1
  F  F13  1  0.201969  0.391606  0.394057  1
  F  F14  1  0.719447  0.416474  0.903283  1
  F  F15  1  0.807271  0.594812  0.597540  1
  F  F16  1  0.617511  0.315256  0.246773  1
  F  F17  1  0.928640  0.946713  0.653982  1
