# generated using pymatgen
data_Tb12InCo4Pd
_symmetry_space_group_name_H-M   'P 1'
_cell_length_a   8.36933778
_cell_length_b   8.36933757
_cell_length_c   8.36933811
_cell_angle_alpha   111.06009818
_cell_angle_beta   110.23998285
_cell_angle_gamma   107.13954653
_symmetry_Int_Tables_number   1
_chemical_formula_structural   Tb12InCo4Pd
_chemical_formula_sum   'Tb12 In1 Co4 Pd1'
_cell_volume   450.70372850
_cell_formula_units_Z   1
loop_
 _symmetry_equiv_pos_site_id
 _symmetry_equiv_pos_as_xyz
  1  'x, y, z'
loop_
 _atom_site_type_symbol
 _atom_site_label
 _atom_site_symmetry_multiplicity
 _atom_site_fract_x
 _atom_site_fract_y
 _atom_site_fract_z
 _atom_site_occupancy
  Tb  Tb0  1  0.812619  0.704088  0.516707  1
  Tb  Tb1  1  0.187381  0.295912  0.483293  1
  Tb  Tb2  1  0.187381  0.704088  0.891471  1
  Tb  Tb3  1  0.812619  0.295912  0.108529  1
  Tb  Tb4  1  0.684721  0.379868  0.695147  1
  Tb  Tb5  1  0.315279  0.620132  0.304853  1
  Tb  Tb6  1  0.684721  0.989574  0.304853  1
  Tb  Tb7  1  0.315279  0.010426  0.695147  1
  Tb  Tb8  1  0.588783  0.787551  0.801233  1
  Tb  Tb9  1  0.411217  0.212449  0.198767  1
  Tb  Tb10  1  0.986317  0.787551  0.198767  1
  Tb  Tb11  1  0.013683  0.212449  0.801233  1
  In  In12  1  0.500000  0.500000  0.000000  1
  Co  Co13  1  0.619611  0.000000  0.619611  1
  Co  Co14  1  0.380389  0.000000  0.380389  1
  Co  Co15  1  0.111949  0.611949  0.500000  1
  Co  Co16  1  0.888051  0.388051  0.500000  1
  Pd  Pd17  1  0.000000  0.000000  0.000000  1
