# generated using pymatgen
data_SrY2Cu2Rh7
_symmetry_space_group_name_H-M   'P 1'
_cell_length_a   9.02001331
_cell_length_b   9.02001398
_cell_length_c   9.02001400
_cell_angle_alpha   34.65568589
_cell_angle_beta   34.65567973
_cell_angle_gamma   34.65567953
_symmetry_Int_Tables_number   1
_chemical_formula_structural   SrY2Cu2Rh7
_chemical_formula_sum   'Sr1 Y2 Cu2 Rh7'
_cell_volume   211.75843110
_cell_formula_units_Z   1
loop_
 _symmetry_equiv_pos_site_id
 _symmetry_equiv_pos_as_xyz
  1  'x, y, z'
loop_
 _atom_site_type_symbol
 _atom_site_label
 _atom_site_symmetry_multiplicity
 _atom_site_fract_x
 _atom_site_fract_y
 _atom_site_fract_z
 _atom_site_occupancy
  Sr  Sr0  1  0.000000  0.000000  0.000000  1
  Y  Y1  1  0.860117  0.860117  0.860117  1
  Y  Y2  1  0.139883  0.139883  0.139883  1
  Cu  Cu3  1  0.666296  0.666296  0.666296  1
  Cu  Cu4  1  0.333704  0.333704  0.333704  1
  Rh  Rh5  1  0.413910  0.413910  0.920889  1
  Rh  Rh6  1  0.920889  0.413910  0.413910  1
  Rh  Rh7  1  0.413910  0.920889  0.413910  1
  Rh  Rh8  1  0.500000  0.500000  0.500000  1
  Rh  Rh9  1  0.586090  0.079111  0.586090  1
  Rh  Rh10  1  0.079111  0.586090  0.586090  1
  Rh  Rh11  1  0.586090  0.586090  0.079111  1
