# generated using pymatgen
data_Y6Al24Ir4Os3Rh
_symmetry_space_group_name_H-M   'P 1'
_cell_length_a   8.82676404
_cell_length_b   8.78676910
_cell_length_c   9.57246439
_cell_angle_alpha   89.99999636
_cell_angle_beta   89.74694790
_cell_angle_gamma   119.85021373
_symmetry_Int_Tables_number   1
_chemical_formula_structural   Y6Al24Ir4Os3Rh
_chemical_formula_sum   'Y6 Al24 Ir4 Os3 Rh1'
_cell_volume   643.92163166
_cell_formula_units_Z   1
loop_
 _symmetry_equiv_pos_site_id
 _symmetry_equiv_pos_as_xyz
  1  'x, y, z'
loop_
 _atom_site_type_symbol
 _atom_site_label
 _atom_site_symmetry_multiplicity
 _atom_site_fract_x
 _atom_site_fract_y
 _atom_site_fract_z
 _atom_site_occupancy
  Y  Y0  1  0.190477  0.384174  0.251306  1
  Y  Y1  1  0.809523  0.615826  0.748694  1
  Y  Y2  1  0.615262  0.807631  0.250502  1
  Y  Y3  1  0.384738  0.192369  0.749498  1
  Y  Y4  1  0.190477  0.806305  0.251306  1
  Y  Y5  1  0.809523  0.193695  0.748694  1
  Al  Al6  1  0.332601  0.666301  0.029954  1
  Al  Al7  1  0.667399  0.333699  0.970046  1
  Al  Al8  1  0.668505  0.334252  0.528604  1
  Al  Al9  1  0.331495  0.665748  0.471396  1
  Al  Al10  1  0.163316  0.328481  0.575653  1
  Al  Al11  1  0.836684  0.671519  0.424347  1
  Al  Al12  1  0.672949  0.836474  0.575176  1
  Al  Al13  1  0.834903  0.672106  0.076313  1
  Al  Al14  1  0.327051  0.163526  0.424824  1
  Al  Al15  1  0.165097  0.327894  0.923687  1
  Al  Al16  1  0.163316  0.834836  0.575653  1
  Al  Al17  1  0.327163  0.163581  0.075749  1
  Al  Al18  1  0.836684  0.165164  0.424347  1
  Al  Al19  1  0.672837  0.836419  0.924251  1
  Al  Al20  1  0.834903  0.162797  0.076313  1
  Al  Al21  1  0.165097  0.837203  0.923687  1
  Al  Al22  1  0.561336  0.124778  0.249674  1
  Al  Al23  1  0.438664  0.875222  0.750326  1
  Al  Al24  1  0.874776  0.437388  0.250152  1
  Al  Al25  1  0.125224  0.562612  0.749848  1
  Al  Al26  1  0.561336  0.436557  0.249674  1
  Al  Al27  1  0.438664  0.563443  0.750326  1
  Al  Al28  1  0.998330  0.999165  0.250073  1
  Al  Al29  1  0.001670  0.000835  0.749927  1
  Ir  Ir30  1  0.500000  0.000000  0.000000  1
  Ir  Ir31  1  0.500000  0.000000  0.500000  1
  Ir  Ir32  1  0.500000  0.500000  0.000000  1
  Ir  Ir33  1  0.500000  0.500000  0.500000  1
  Os  Os34  1  0.000000  0.500000  0.500000  1
  Os  Os35  1  0.000000  0.000000  0.000000  1
  Os  Os36  1  0.000000  0.000000  0.500000  1
  Rh  Rh37  1  0.000000  0.500000  0.000000  1
