# generated using pymatgen
data_Eu6As13Rh20
_symmetry_space_group_name_H-M   'P 1'
_cell_length_a   14.01201400
_cell_length_b   14.01201343
_cell_length_c   4.04068800
_cell_angle_alpha   90.00000000
_cell_angle_beta   90.00000000
_cell_angle_gamma   119.99999663
_symmetry_Int_Tables_number   1
_chemical_formula_structural   Eu6As13Rh20
_chemical_formula_sum   'Eu6 As13 Rh20'
_cell_volume   687.04798742
_cell_formula_units_Z   1
loop_
 _symmetry_equiv_pos_site_id
 _symmetry_equiv_pos_as_xyz
  1  'x, y, z'
loop_
 _atom_site_type_symbol
 _atom_site_label
 _atom_site_symmetry_multiplicity
 _atom_site_fract_x
 _atom_site_fract_y
 _atom_site_fract_z
 _atom_site_occupancy
  Eu  Eu0  1  0.528091  0.718204  0.249127  1
  Eu  Eu1  1  0.281796  0.809887  0.249127  1
  Eu  Eu2  1  0.190113  0.471909  0.249127  1
  Eu  Eu3  1  0.471909  0.281796  0.750873  1
  Eu  Eu4  1  0.718204  0.190113  0.750873  1
  Eu  Eu5  1  0.809887  0.528091  0.750873  1
  As  As6  1  0.523318  0.136124  0.250905  1
  As  As7  1  0.863876  0.387196  0.250905  1
  As  As8  1  0.612804  0.476682  0.250905  1
  As  As9  1  0.946524  0.718403  0.250740  1
  As  As10  1  0.281597  0.228122  0.250740  1
  As  As11  1  0.771878  0.053476  0.250740  1
  As  As12  1  0.387196  0.523318  0.749095  1
  As  As13  1  0.476682  0.863876  0.749095  1
  As  As14  1  0.136124  0.612804  0.749095  1
  As  As15  1  0.718403  0.771878  0.749260  1
  As  As16  1  0.228122  0.946524  0.749260  1
  As  As17  1  0.053476  0.281597  0.749260  1
  As  As18  1  0.000000  0.000000  0.000000  1
  Rh  Rh19  1  0.333333  0.666667  0.752254  1
  Rh  Rh20  1  0.927394  0.251483  0.252084  1
  Rh  Rh21  1  0.748517  0.675912  0.252084  1
  Rh  Rh22  1  0.324088  0.072606  0.252084  1
  Rh  Rh23  1  0.439797  0.023999  0.750847  1
  Rh  Rh24  1  0.976001  0.415799  0.750847  1
  Rh  Rh25  1  0.584201  0.560203  0.750847  1
  Rh  Rh26  1  0.666667  0.333333  0.247746  1
  Rh  Rh27  1  0.091234  0.185958  0.252461  1
  Rh  Rh28  1  0.814042  0.905276  0.252461  1
  Rh  Rh29  1  0.094724  0.908766  0.252461  1
  Rh  Rh30  1  0.023999  0.584201  0.249153  1
  Rh  Rh31  1  0.415799  0.439797  0.249153  1
  Rh  Rh32  1  0.560203  0.976001  0.249153  1
  Rh  Rh33  1  0.675912  0.927394  0.747916  1
  Rh  Rh34  1  0.072606  0.748517  0.747916  1
  Rh  Rh35  1  0.251483  0.324088  0.747916  1
  Rh  Rh36  1  0.908766  0.814042  0.747539  1
  Rh  Rh37  1  0.185958  0.094724  0.747539  1
  Rh  Rh38  1  0.905276  0.091234  0.747539  1
