# generated using pymatgen
data_Ho12ZnGa(CoNi)2
_symmetry_space_group_name_H-M   'P 1'
_cell_length_a   8.25141653
_cell_length_b   8.25141668
_cell_length_c   8.25141569
_cell_angle_alpha   112.67232734
_cell_angle_beta   109.38826941
_cell_angle_gamma   106.41373676
_symmetry_Int_Tables_number   1
_chemical_formula_structural   Ho12ZnGa(CoNi)2
_chemical_formula_sum   'Ho12 Zn1 Ga1 Co2 Ni2'
_cell_volume   431.18473610
_cell_formula_units_Z   1
loop_
 _symmetry_equiv_pos_site_id
 _symmetry_equiv_pos_as_xyz
  1  'x, y, z'
loop_
 _atom_site_type_symbol
 _atom_site_label
 _atom_site_symmetry_multiplicity
 _atom_site_fract_x
 _atom_site_fract_y
 _atom_site_fract_z
 _atom_site_occupancy
  Ho  Ho0  1  0.957486  0.263231  0.694255  1
  Ho  Ho1  1  0.042514  0.736769  0.305745  1
  Ho  Ho2  1  0.670499  0.860594  0.190095  1
  Ho  Ho3  1  0.329501  0.519598  0.190095  1
  Ho  Ho4  1  0.329501  0.139406  0.809905  1
  Ho  Ho5  1  0.670499  0.480402  0.809905  1
  Ho  Ho6  1  0.568976  0.263231  0.305745  1
  Ho  Ho7  1  0.431024  0.736769  0.694255  1
  Ho  Ho8  1  0.180420  0.778613  0.959033  1
  Ho  Ho9  1  0.819580  0.778613  0.598195  1
  Ho  Ho10  1  0.180420  0.221387  0.401805  1
  Ho  Ho11  1  0.819580  0.221387  0.040967  1
  Zn  Zn12  1  0.000000  0.500000  0.500000  1
  Ga  Ga13  1  0.500000  0.000000  0.500000  1
  Co  Co14  1  0.662675  0.500000  0.162675  1
  Co  Co15  1  0.337325  0.500000  0.837325  1
  Ni  Ni16  1  0.118958  0.118958  0.000000  1
  Ni  Ni17  1  0.881042  0.881042  0.000000  1
