# generated using pymatgen
data_Na20TaNb(AlAs6)2
_symmetry_space_group_name_H-M   'P 1'
_cell_length_a   7.54245709
_cell_length_b   8.38950865
_cell_length_c   15.91416433
_cell_angle_alpha   59.00584707
_cell_angle_beta   90.01567130
_cell_angle_gamma   90.01434307
_symmetry_Int_Tables_number   1
_chemical_formula_structural   Na20TaNb(AlAs6)2
_chemical_formula_sum   'Na20 Ta1 Nb1 Al2 As12'
_cell_volume   863.22779356
_cell_formula_units_Z   1
loop_
 _symmetry_equiv_pos_site_id
 _symmetry_equiv_pos_as_xyz
  1  'x, y, z'
loop_
 _atom_site_type_symbol
 _atom_site_label
 _atom_site_symmetry_multiplicity
 _atom_site_fract_x
 _atom_site_fract_y
 _atom_site_fract_z
 _atom_site_occupancy
  Na  Na0  1  0.738272  0.941946  0.245698  1
  Na  Na1  1  0.261634  0.941954  0.745647  1
  Na  Na2  1  0.771800  0.055193  0.759609  1
  Na  Na3  1  0.228145  0.055215  0.259762  1
  Na  Na4  1  0.267492  0.246719  0.418785  1
  Na  Na5  1  0.732465  0.246923  0.918684  1
  Na  Na6  1  0.219547  0.751389  0.579246  1
  Na  Na7  1  0.780660  0.751464  0.079269  1
  Na  Na8  1  0.088478  0.346788  0.582832  1
  Na  Na9  1  0.911457  0.346708  0.082828  1
  Na  Na10  1  0.405190  0.655533  0.418692  1
  Na  Na11  1  0.594893  0.655468  0.918738  1
  Na  Na12  1  0.596925  0.335335  0.242769  1
  Na  Na13  1  0.403026  0.335308  0.742828  1
  Na  Na14  1  0.908417  0.663788  0.760034  1
  Na  Na15  1  0.091638  0.663734  0.260053  1
  Na  Na16  1  0.770500  0.421512  0.408292  1
  Na  Na17  1  0.229478  0.421797  0.908162  1
  Na  Na18  1  0.740588  0.580252  0.589409  1
  Na  Na19  1  0.259266  0.580104  0.089408  1
  Ta  Ta20  1  0.384111  0.988847  0.078636  1
  Nb  Nb21  1  0.615566  0.988873  0.578661  1
  Al  Al22  1  0.889206  0.012855  0.416350  1
  Al  Al23  1  0.110744  0.012788  0.916311  1
  As  As24  1  0.982811  0.317372  0.272069  1
  As  As25  1  0.017168  0.317303  0.772076  1
  As  As26  1  0.518507  0.690035  0.726207  1
  As  As27  1  0.481367  0.690818  0.225665  1
  As  As28  1  0.948559  0.020172  0.573437  1
  As  As29  1  0.052042  0.020147  0.073593  1
  As  As30  1  0.543934  0.978782  0.427368  1
  As  As31  1  0.456354  0.978747  0.927763  1
  As  As32  1  0.003742  0.726584  0.421408  1
  As  As33  1  0.996154  0.726506  0.921473  1
  As  As34  1  0.491676  0.266948  0.579168  1
  As  As35  1  0.508186  0.266089  0.079070  1
