# generated using pymatgen
data_Rb4Hf6CBr18
_symmetry_space_group_name_H-M   'P 1'
_cell_length_a   10.57952605
_cell_length_b   10.76349237
_cell_length_c   10.87376889
_cell_angle_alpha   118.38051661
_cell_angle_beta   100.17602870
_cell_angle_gamma   104.02196188
_symmetry_Int_Tables_number   1
_chemical_formula_structural   Rb4Hf6CBr18
_chemical_formula_sum   'Rb4 Hf6 C1 Br18'
_cell_volume   993.24792976
_cell_formula_units_Z   1
loop_
 _symmetry_equiv_pos_site_id
 _symmetry_equiv_pos_as_xyz
  1  'x, y, z'
loop_
 _atom_site_type_symbol
 _atom_site_label
 _atom_site_symmetry_multiplicity
 _atom_site_fract_x
 _atom_site_fract_y
 _atom_site_fract_z
 _atom_site_occupancy
  Rb  Rb0  1  0.189462  0.725486  0.563625  1
  Rb  Rb1  1  0.844158  0.962833  0.771636  1
  Rb  Rb2  1  0.155842  0.037167  0.228364  1
  Rb  Rb3  1  0.810538  0.274514  0.436375  1
  Hf  Hf4  1  0.357398  0.446707  0.782713  1
  Hf  Hf5  1  0.368457  0.618299  0.124369  1
  Hf  Hf6  1  0.638504  0.725764  0.042979  1
  Hf  Hf7  1  0.642602  0.553293  0.217287  1
  Hf  Hf8  1  0.361496  0.274236  0.957021  1
  Hf  Hf9  1  0.631543  0.381701  0.875631  1
  C  C10  1  0.500000  0.500000  0.000000  1
  Br  Br11  1  0.814693  0.426607  0.108465  1
  Br  Br12  1  0.514287  0.698576  0.396572  1
  Br  Br13  1  0.187604  0.992038  0.902719  1
  Br  Br14  1  0.185307  0.573393  0.891535  1
  Br  Br15  1  0.823236  0.825175  0.303589  1
  Br  Br16  1  0.503523  0.301277  0.203222  1
  Br  Br17  1  0.790848  0.235295  0.722318  1
  Br  Br18  1  0.176764  0.174825  0.696411  1
  Br  Br19  1  0.507802  0.897857  0.190851  1
  Br  Br20  1  0.811043  0.625833  0.907001  1
  Br  Br21  1  0.209152  0.764705  0.277682  1
  Br  Br22  1  0.176425  0.381337  0.512065  1
  Br  Br23  1  0.496477  0.698723  0.796778  1
  Br  Br24  1  0.812396  0.007962  0.097281  1
  Br  Br25  1  0.485713  0.301424  0.603428  1
  Br  Br26  1  0.188957  0.374167  0.092999  1
  Br  Br27  1  0.823575  0.618663  0.487935  1
  Br  Br28  1  0.492198  0.102143  0.809149  1
