# generated using pymatgen
data_LiEr3(P3Rh4)2
_symmetry_space_group_name_H-M   'P 1'
_cell_length_a   3.91084400
_cell_length_b   11.24239900
_cell_length_c   12.72376300
_cell_angle_alpha   90.00000000
_cell_angle_beta   90.00000000
_cell_angle_gamma   90.00000000
_symmetry_Int_Tables_number   1
_chemical_formula_structural   LiEr3(P3Rh4)2
_chemical_formula_sum   'Li2 Er6 P12 Rh16'
_cell_volume   559.42910637
_cell_formula_units_Z   2
loop_
 _symmetry_equiv_pos_site_id
 _symmetry_equiv_pos_as_xyz
  1  'x, y, z'
loop_
 _atom_site_type_symbol
 _atom_site_label
 _atom_site_symmetry_multiplicity
 _atom_site_fract_x
 _atom_site_fract_y
 _atom_site_fract_z
 _atom_site_occupancy
  Li  Li0  1  0.250000  0.250000  0.842111  1
  Li  Li1  1  0.750000  0.750000  0.157889  1
  Er  Er2  1  0.750000  0.250000  0.483414  1
  Er  Er3  1  0.250000  0.750000  0.516586  1
  Er  Er4  1  0.250000  0.930954  0.795496  1
  Er  Er5  1  0.250000  0.569046  0.795496  1
  Er  Er6  1  0.750000  0.069046  0.204504  1
  Er  Er7  1  0.750000  0.430954  0.204504  1
  P  P8  1  0.250000  0.250000  0.118804  1
  P  P9  1  0.750000  0.750000  0.881196  1
  P  P10  1  0.250000  0.250000  0.652503  1
  P  P11  1  0.750000  0.750000  0.347497  1
  P  P12  1  0.250000  0.435582  0.381504  1
  P  P13  1  0.250000  0.064418  0.381504  1
  P  P14  1  0.750000  0.564418  0.618496  1
  P  P15  1  0.750000  0.935582  0.618496  1
  P  P16  1  0.250000  0.909124  0.108929  1
  P  P17  1  0.250000  0.590876  0.108929  1
  P  P18  1  0.750000  0.090876  0.891071  1
  P  P19  1  0.750000  0.409124  0.891071  1
  Rh  Rh20  1  0.250000  0.250000  0.298461  1
  Rh  Rh21  1  0.750000  0.750000  0.701539  1
  Rh  Rh22  1  0.750000  0.250000  0.016465  1
  Rh  Rh23  1  0.250000  0.750000  0.983535  1
  Rh  Rh24  1  0.250000  0.416798  0.001595  1
  Rh  Rh25  1  0.250000  0.083202  0.001595  1
  Rh  Rh26  1  0.750000  0.583202  0.998405  1
  Rh  Rh27  1  0.750000  0.916798  0.998405  1
  Rh  Rh28  1  0.250000  0.460173  0.570087  1
  Rh  Rh29  1  0.250000  0.039827  0.570087  1
  Rh  Rh30  1  0.750000  0.539827  0.429913  1
  Rh  Rh31  1  0.750000  0.960173  0.429913  1
  Rh  Rh32  1  0.250000  0.875633  0.290310  1
  Rh  Rh33  1  0.250000  0.624367  0.290310  1
  Rh  Rh34  1  0.750000  0.124367  0.709690  1
  Rh  Rh35  1  0.750000  0.375633  0.709690  1
