# generated using pymatgen
data_Y6AlCoNi
_symmetry_space_group_name_H-M   'P 1'
_cell_length_a   8.36083836
_cell_length_b   8.36083868
_cell_length_c   8.36083901
_cell_angle_alpha   112.67796181
_cell_angle_beta   109.52145050
_cell_angle_gamma   106.27745820
_symmetry_Int_Tables_number   1
_chemical_formula_structural   Y6AlCoNi
_chemical_formula_sum   'Y12 Al2 Co2 Ni2'
_cell_volume   448.50931165
_cell_formula_units_Z   2
loop_
 _symmetry_equiv_pos_site_id
 _symmetry_equiv_pos_as_xyz
  1  'x, y, z'
loop_
 _atom_site_type_symbol
 _atom_site_label
 _atom_site_symmetry_multiplicity
 _atom_site_fract_x
 _atom_site_fract_y
 _atom_site_fract_z
 _atom_site_occupancy
  Y  Y0  1  0.041069  0.736870  0.304199  1
  Y  Y1  1  0.958931  0.263130  0.695801  1
  Y  Y2  1  0.567331  0.263130  0.304199  1
  Y  Y3  1  0.432669  0.736870  0.695801  1
  Y  Y4  1  0.670850  0.860433  0.189581  1
  Y  Y5  1  0.329150  0.518731  0.189581  1
  Y  Y6  1  0.329150  0.139567  0.810419  1
  Y  Y7  1  0.670850  0.481269  0.810419  1
  Y  Y8  1  0.181136  0.220974  0.402111  1
  Y  Y9  1  0.818864  0.220974  0.039838  1
  Y  Y10  1  0.181136  0.779026  0.960162  1
  Y  Y11  1  0.818864  0.779026  0.597889  1
  Al  Al12  1  0.000000  0.500000  0.500000  1
  Al  Al13  1  0.500000  0.000000  0.500000  1
  Co  Co14  1  0.664573  0.500000  0.164573  1
  Co  Co15  1  0.335427  0.500000  0.835427  1
  Ni  Ni16  1  0.883140  0.883140  0.000000  1
  Ni  Ni17  1  0.116860  0.116860  0.000000  1
