# generated using pymatgen
data_Ho16MgIn3Pt3Rh
_symmetry_space_group_name_H-M   'P 1'
_cell_length_a   9.64882190
_cell_length_b   9.64882253
_cell_length_c   9.63077123
_cell_angle_alpha   60.32987953
_cell_angle_beta   60.32987958
_cell_angle_gamma   60.26984288
_symmetry_Int_Tables_number   1
_chemical_formula_structural   Ho16MgIn3Pt3Rh
_chemical_formula_sum   'Ho16 Mg1 In3 Pt3 Rh1'
_cell_volume   638.45286571
_cell_formula_units_Z   1
loop_
 _symmetry_equiv_pos_site_id
 _symmetry_equiv_pos_as_xyz
  1  'x, y, z'
loop_
 _atom_site_type_symbol
 _atom_site_label
 _atom_site_symmetry_multiplicity
 _atom_site_fract_x
 _atom_site_fract_y
 _atom_site_fract_z
 _atom_site_occupancy
  Ho  Ho0  1  0.187721  0.187721  0.812575  1
  Ho  Ho1  1  0.601368  0.601368  0.194774  1
  Ho  Ho2  1  0.441623  0.058854  0.441628  1
  Ho  Ho3  1  0.440624  0.440624  0.057218  1
  Ho  Ho4  1  0.814468  0.185516  0.815764  1
  Ho  Ho5  1  0.187500  0.811646  0.188336  1
  Ho  Ho6  1  0.439969  0.064173  0.058450  1
  Ho  Ho7  1  0.185516  0.814468  0.815764  1
  Ho  Ho8  1  0.064173  0.439969  0.058450  1
  Ho  Ho9  1  0.814974  0.814974  0.185303  1
  Ho  Ho10  1  0.198955  0.599258  0.603249  1
  Ho  Ho11  1  0.058854  0.441623  0.441628  1
  Ho  Ho12  1  0.060635  0.060635  0.440851  1
  Ho  Ho13  1  0.811646  0.187500  0.188336  1
  Ho  Ho14  1  0.599258  0.198955  0.603249  1
  Ho  Ho15  1  0.597890  0.597890  0.601713  1
  Mg  Mg16  1  0.827627  0.827627  0.827134  1
  In  In17  1  0.833192  0.833192  0.501173  1
  In  In18  1  0.501333  0.833437  0.832633  1
  In  In19  1  0.833437  0.501333  0.832633  1
  Pt  Pt20  1  0.392065  0.822427  0.391441  1
  Pt  Pt21  1  0.393175  0.393175  0.392495  1
  Pt  Pt22  1  0.822427  0.392065  0.391441  1
  Rh  Rh23  1  0.391572  0.391572  0.823765  1
