# generated using pymatgen
data_HfSc3(BiRh5)2
_symmetry_space_group_name_H-M   'P 1'
_cell_length_a   4.16212800
_cell_length_b   5.66686840
_cell_length_c   11.22893076
_cell_angle_alpha   89.95757347
_cell_angle_beta   90.00000000
_cell_angle_gamma   90.00000000
_symmetry_Int_Tables_number   1
_chemical_formula_structural   HfSc3(BiRh5)2
_chemical_formula_sum   'Hf1 Sc3 Bi2 Rh10'
_cell_volume   264.84808905
_cell_formula_units_Z   1
loop_
 _symmetry_equiv_pos_site_id
 _symmetry_equiv_pos_as_xyz
  1  'x, y, z'
loop_
 _atom_site_type_symbol
 _atom_site_label
 _atom_site_symmetry_multiplicity
 _atom_site_fract_x
 _atom_site_fract_y
 _atom_site_fract_z
 _atom_site_occupancy
  Hf  Hf0  1  0.500000  0.318106  0.142622  1
  Sc  Sc1  1  0.500000  0.184754  0.643021  1
  Sc  Sc2  1  0.500000  0.818690  0.359592  1
  Sc  Sc3  1  0.500000  0.682826  0.856405  1
  Bi  Bi4  1  0.000000  0.499648  0.500700  1
  Bi  Bi5  1  0.000000  0.993128  0.997533  1
  Rh  Rh6  1  0.500000  0.211693  0.882664  1
  Rh  Rh7  1  0.500000  0.789358  0.120557  1
  Rh  Rh8  1  0.500000  0.711574  0.619221  1
  Rh  Rh9  1  0.500000  0.289759  0.378773  1
  Rh  Rh10  1  0.000000  0.448556  0.751692  1
  Rh  Rh11  1  0.000000  0.552775  0.249277  1
  Rh  Rh12  1  0.000000  0.000559  0.499475  1
  Rh  Rh13  1  0.000000  0.493948  0.001581  1
  Rh  Rh14  1  0.000000  0.055973  0.249027  1
  Rh  Rh15  1  0.000000  0.948652  0.747861  1
