# generated using pymatgen
data_ZrNi3As2
_symmetry_space_group_name_H-M   'P 1'
_cell_length_a   3.81120000
_cell_length_b   10.82179200
_cell_length_c   12.63915600
_cell_angle_alpha   90.00000000
_cell_angle_beta   90.00000000
_cell_angle_gamma   90.00000000
_symmetry_Int_Tables_number   1
_chemical_formula_structural   ZrNi3As2
_chemical_formula_sum   'Zr6 Ni18 As12'
_cell_volume   521.28952285
_cell_formula_units_Z   6
loop_
 _symmetry_equiv_pos_site_id
 _symmetry_equiv_pos_as_xyz
  1  'x, y, z'
loop_
 _atom_site_type_symbol
 _atom_site_label
 _atom_site_symmetry_multiplicity
 _atom_site_fract_x
 _atom_site_fract_y
 _atom_site_fract_z
 _atom_site_occupancy
  Zr  Zr0  1  0.752096  0.000000  0.473575  1
  Zr  Zr1  1  0.252096  0.500000  0.526425  1
  Zr  Zr2  1  0.251928  0.677182  0.794118  1
  Zr  Zr3  1  0.251928  0.322818  0.794118  1
  Zr  Zr4  1  0.751928  0.822818  0.205882  1
  Zr  Zr5  1  0.751928  0.177182  0.205882  1
  Ni  Ni6  1  0.751538  0.000000  0.015161  1
  Ni  Ni7  1  0.251538  0.500000  0.984839  1
  Ni  Ni8  1  0.251918  0.198510  0.568823  1
  Ni  Ni9  1  0.251918  0.801490  0.568823  1
  Ni  Ni10  1  0.751918  0.301490  0.431177  1
  Ni  Ni11  1  0.751918  0.698510  0.431177  1
  Ni  Ni12  1  0.251759  0.622735  0.294740  1
  Ni  Ni13  1  0.251759  0.377265  0.294740  1
  Ni  Ni14  1  0.751759  0.877265  0.705260  1
  Ni  Ni15  1  0.751759  0.122735  0.705260  1
  Ni  Ni16  1  0.251589  0.168950  0.004065  1
  Ni  Ni17  1  0.251589  0.831050  0.004065  1
  Ni  Ni18  1  0.751589  0.331050  0.995935  1
  Ni  Ni19  1  0.751589  0.668950  0.995935  1
  Ni  Ni20  1  0.251069  0.000000  0.837662  1
  Ni  Ni21  1  0.751069  0.500000  0.162338  1
  Ni  Ni22  1  0.253028  0.000000  0.300706  1
  Ni  Ni23  1  0.753028  0.500000  0.699294  1
  As  As24  1  0.251960  0.184116  0.383417  1
  As  As25  1  0.251960  0.815884  0.383417  1
  As  As26  1  0.751960  0.315884  0.616583  1
  As  As27  1  0.751960  0.684116  0.616583  1
  As  As28  1  0.251734  0.000000  0.123202  1
  As  As29  1  0.751734  0.500000  0.876798  1
  As  As30  1  0.251589  0.654835  0.113377  1
  As  As31  1  0.251589  0.345165  0.113377  1
  As  As32  1  0.751589  0.845165  0.886623  1
  As  As33  1  0.751589  0.154835  0.886623  1
  As  As34  1  0.251854  0.000000  0.648859  1
  As  As35  1  0.751854  0.500000  0.351141  1
