# generated using pymatgen
data_Y6Al24Os5Pt2Rh
_symmetry_space_group_name_H-M   'P 1'
_cell_length_a   8.85583436
_cell_length_b   8.84848100
_cell_length_c   9.54670905
_cell_angle_alpha   90.33063279
_cell_angle_beta   89.93633841
_cell_angle_gamma   119.72383508
_symmetry_Int_Tables_number   1
_chemical_formula_structural   Y6Al24Os5Pt2Rh
_chemical_formula_sum   'Y6 Al24 Os5 Pt2 Rh1'
_cell_volume   649.64524279
_cell_formula_units_Z   1
loop_
 _symmetry_equiv_pos_site_id
 _symmetry_equiv_pos_as_xyz
  1  'x, y, z'
loop_
 _atom_site_type_symbol
 _atom_site_label
 _atom_site_symmetry_multiplicity
 _atom_site_fract_x
 _atom_site_fract_y
 _atom_site_fract_z
 _atom_site_occupancy
  Y  Y0  1  0.186960  0.386580  0.252701  1
  Y  Y1  1  0.813040  0.613420  0.747299  1
  Y  Y2  1  0.615328  0.810880  0.252096  1
  Y  Y3  1  0.384672  0.189120  0.747904  1
  Y  Y4  1  0.190943  0.804042  0.250156  1
  Y  Y5  1  0.809057  0.195958  0.749844  1
  Al  Al6  1  0.330940  0.662586  0.025315  1
  Al  Al7  1  0.669060  0.337414  0.974685  1
  Al  Al8  1  0.668477  0.330888  0.522723  1
  Al  Al9  1  0.331523  0.669112  0.477277  1
  Al  Al10  1  0.159169  0.325849  0.576445  1
  Al  Al11  1  0.840831  0.674151  0.423555  1
  Al  Al12  1  0.675231  0.841996  0.577355  1
  Al  Al13  1  0.838376  0.674050  0.076020  1
  Al  Al14  1  0.324769  0.158004  0.422645  1
  Al  Al15  1  0.161624  0.325950  0.923980  1
  Al  Al16  1  0.164073  0.836006  0.574630  1
  Al  Al17  1  0.324234  0.166208  0.078026  1
  Al  Al18  1  0.835927  0.163994  0.425370  1
  Al  Al19  1  0.675766  0.833792  0.921974  1
  Al  Al20  1  0.840515  0.167890  0.075225  1
  Al  Al21  1  0.159485  0.832110  0.924775  1
  Al  Al22  1  0.561778  0.125712  0.252678  1
  Al  Al23  1  0.438222  0.874288  0.747322  1
  Al  Al24  1  0.874651  0.438205  0.249631  1
  Al  Al25  1  0.125349  0.561795  0.750369  1
  Al  Al26  1  0.560845  0.438536  0.246724  1
  Al  Al27  1  0.439155  0.561464  0.753276  1
  Al  Al28  1  0.998354  0.000360  0.250112  1
  Al  Al29  1  0.001646  0.999640  0.749888  1
  Os  Os30  1  0.000000  0.500000  0.000000  1
  Os  Os31  1  0.500000  0.000000  0.500000  1
  Os  Os32  1  0.000000  0.500000  0.500000  1
  Os  Os33  1  0.000000  0.000000  0.000000  1
  Os  Os34  1  0.000000  0.000000  0.500000  1
  Pt  Pt35  1  0.500000  0.000000  0.000000  1
  Pt  Pt36  1  0.500000  0.500000  0.500000  1
  Rh  Rh37  1  0.500000  0.500000  0.000000  1
