# generated using pymatgen
data_Zn7Ag6
_symmetry_space_group_name_H-M   'P 1'
_cell_length_a   9.70067717
_cell_length_b   9.70067658
_cell_length_c   9.70067753
_cell_angle_alpha   30.73148241
_cell_angle_beta   30.73148818
_cell_angle_gamma   30.73148321
_symmetry_Int_Tables_number   1
_chemical_formula_structural   Zn7Ag6
_chemical_formula_sum   'Zn7 Ag6'
_cell_volume   211.38645327
_cell_formula_units_Z   1
loop_
 _symmetry_equiv_pos_site_id
 _symmetry_equiv_pos_as_xyz
  1  'x, y, z'
loop_
 _atom_site_type_symbol
 _atom_site_label
 _atom_site_symmetry_multiplicity
 _atom_site_fract_x
 _atom_site_fract_y
 _atom_site_fract_z
 _atom_site_occupancy
  Zn  Zn0  1  0.000000  0.000000  0.000000  1
  Zn  Zn1  1  0.910181  0.414053  0.910181  1
  Zn  Zn2  1  0.910181  0.910181  0.414053  1
  Zn  Zn3  1  0.414053  0.910181  0.910181  1
  Zn  Zn4  1  0.089819  0.585947  0.089819  1
  Zn  Zn5  1  0.089819  0.089819  0.585947  1
  Zn  Zn6  1  0.585947  0.089819  0.089819  1
  Ag  Ag7  1  0.833128  0.833128  0.833128  1
  Ag  Ag8  1  0.166872  0.166872  0.166872  1
  Ag  Ag9  1  0.653515  0.653515  0.653515  1
  Ag  Ag10  1  0.346485  0.346485  0.346485  1
  Ag  Ag11  1  0.548990  0.548990  0.548990  1
  Ag  Ag12  1  0.451010  0.451010  0.451010  1
