# generated using pymatgen
data_Tb6Al24Co7Ru
_symmetry_space_group_name_H-M   'P 1'
_cell_length_a   8.70103700
_cell_length_b   8.70103755
_cell_length_c   9.36472600
_cell_angle_alpha   90.00000000
_cell_angle_beta   90.00000000
_cell_angle_gamma   119.99999412
_symmetry_Int_Tables_number   1
_chemical_formula_structural   Tb6Al24Co7Ru
_chemical_formula_sum   'Tb6 Al24 Co7 Ru1'
_cell_volume   613.99917912
_cell_formula_units_Z   1
loop_
 _symmetry_equiv_pos_site_id
 _symmetry_equiv_pos_as_xyz
  1  'x, y, z'
loop_
 _atom_site_type_symbol
 _atom_site_label
 _atom_site_symmetry_multiplicity
 _atom_site_fract_x
 _atom_site_fract_y
 _atom_site_fract_z
 _atom_site_occupancy
  Tb  Tb0  1  0.193378  0.386754  0.249881  1
  Tb  Tb1  1  0.806622  0.613246  0.750119  1
  Tb  Tb2  1  0.613246  0.806622  0.249881  1
  Tb  Tb3  1  0.386754  0.193378  0.750119  1
  Tb  Tb4  1  0.193378  0.806622  0.249881  1
  Tb  Tb5  1  0.806622  0.193378  0.750119  1
  Al  Al6  1  0.333333  0.666667  0.018577  1
  Al  Al7  1  0.666667  0.333333  0.981423  1
  Al  Al8  1  0.666667  0.333333  0.517713  1
  Al  Al9  1  0.333333  0.666667  0.482287  1
  Al  Al10  1  0.163235  0.326468  0.575201  1
  Al  Al11  1  0.836765  0.673532  0.424799  1
  Al  Al12  1  0.673532  0.836765  0.575201  1
  Al  Al13  1  0.835305  0.670612  0.076066  1
  Al  Al14  1  0.326468  0.163235  0.424799  1
  Al  Al15  1  0.164695  0.329388  0.923934  1
  Al  Al16  1  0.163235  0.836765  0.575201  1
  Al  Al17  1  0.329388  0.164695  0.076066  1
  Al  Al18  1  0.836765  0.163235  0.424799  1
  Al  Al19  1  0.670612  0.835305  0.923934  1
  Al  Al20  1  0.835305  0.164695  0.076066  1
  Al  Al21  1  0.164695  0.835305  0.923934  1
  Al  Al22  1  0.559694  0.119389  0.250248  1
  Al  Al23  1  0.440306  0.880611  0.749752  1
  Al  Al24  1  0.880611  0.440306  0.250248  1
  Al  Al25  1  0.119389  0.559694  0.749752  1
  Al  Al26  1  0.559694  0.440306  0.250248  1
  Al  Al27  1  0.440306  0.559694  0.749752  1
  Al  Al28  1  0.000000  0.000000  0.256207  1
  Al  Al29  1  0.000000  0.000000  0.743793  1
  Co  Co30  1  0.500000  0.000000  0.000000  1
  Co  Co31  1  0.000000  0.500000  0.000000  1
  Co  Co32  1  0.500000  0.000000  0.500000  1
  Co  Co33  1  0.500000  0.500000  0.000000  1
  Co  Co34  1  0.000000  0.500000  0.500000  1
  Co  Co35  1  0.500000  0.500000  0.500000  1
  Co  Co36  1  0.000000  0.000000  0.500000  1
  Ru  Ru37  1  0.000000  0.000000  0.000000  1
