# generated using pymatgen
data_Li2AcCu9
_symmetry_space_group_name_H-M   'P 1'
_cell_length_a   8.43352300
_cell_length_b   8.43352300
_cell_length_c   5.03102300
_cell_angle_alpha   90.00000000
_cell_angle_beta   90.00000000
_cell_angle_gamma   90.00000000
_symmetry_Int_Tables_number   1
_chemical_formula_structural   Li2AcCu9
_chemical_formula_sum   'Li4 Ac2 Cu18'
_cell_volume   357.82804043
_cell_formula_units_Z   2
loop_
 _symmetry_equiv_pos_site_id
 _symmetry_equiv_pos_as_xyz
  1  'x, y, z'
loop_
 _atom_site_type_symbol
 _atom_site_label
 _atom_site_symmetry_multiplicity
 _atom_site_fract_x
 _atom_site_fract_y
 _atom_site_fract_z
 _atom_site_occupancy
  Li  Li0  1  0.111731  0.611731  0.000000  1
  Li  Li1  1  0.888269  0.388269  0.000000  1
  Li  Li2  1  0.611731  0.888269  0.000000  1
  Li  Li3  1  0.388269  0.111731  0.000000  1
  Ac  Ac4  1  0.000000  0.000000  0.000000  1
  Ac  Ac5  1  0.500000  0.500000  0.000000  1
  Cu  Cu6  1  0.500000  0.000000  0.500000  1
  Cu  Cu7  1  0.000000  0.500000  0.500000  1
  Cu  Cu8  1  0.214426  0.065961  0.500000  1
  Cu  Cu9  1  0.785574  0.934039  0.500000  1
  Cu  Cu10  1  0.065961  0.785574  0.500000  1
  Cu  Cu11  1  0.714426  0.434039  0.500000  1
  Cu  Cu12  1  0.934039  0.214426  0.500000  1
  Cu  Cu13  1  0.285574  0.565961  0.500000  1
  Cu  Cu14  1  0.565961  0.714426  0.500000  1
  Cu  Cu15  1  0.434039  0.285574  0.500000  1
  Cu  Cu16  1  0.678404  0.178404  0.245545  1
  Cu  Cu17  1  0.321596  0.821596  0.754455  1
  Cu  Cu18  1  0.321596  0.821596  0.245545  1
  Cu  Cu19  1  0.178404  0.321596  0.245545  1
  Cu  Cu20  1  0.178404  0.321596  0.754455  1
  Cu  Cu21  1  0.678404  0.178404  0.754455  1
  Cu  Cu22  1  0.821596  0.678404  0.754455  1
  Cu  Cu23  1  0.821596  0.678404  0.245545  1
