# generated using pymatgen
data_Tb2Ho6Hf11Si16Tc
_symmetry_space_group_name_H-M   'P 1'
_cell_length_a   7.23948887
_cell_length_b   7.23830071
_cell_length_c   13.25490602
_cell_angle_alpha   89.95474734
_cell_angle_beta   90.05258587
_cell_angle_gamma   90.04941462
_symmetry_Int_Tables_number   1
_chemical_formula_structural   Tb2Ho6Hf11Si16Tc
_chemical_formula_sum   'Tb2 Ho6 Hf11 Si16 Tc1'
_cell_volume   694.57748187
_cell_formula_units_Z   1
loop_
 _symmetry_equiv_pos_site_id
 _symmetry_equiv_pos_as_xyz
  1  'x, y, z'
loop_
 _atom_site_type_symbol
 _atom_site_label
 _atom_site_symmetry_multiplicity
 _atom_site_fract_x
 _atom_site_fract_y
 _atom_site_fract_z
 _atom_site_occupancy
  Tb  Tb0  1  0.343128  0.998385  0.787987  1
  Tb  Tb1  1  0.655735  0.005084  0.282861  1
  Ho  Ho2  1  0.998980  0.343453  0.211965  1
  Ho  Ho3  1  0.004494  0.655342  0.717103  1
  Ho  Ho4  1  0.156084  0.495409  0.465481  1
  Ho  Ho5  1  0.500976  0.845883  0.033459  1
  Ho  Ho6  1  0.845964  0.500973  0.966504  1
  Ho  Ho7  1  0.495369  0.156162  0.534667  1
  Hf  Hf8  1  0.825166  0.824903  0.499973  1
  Hf  Hf9  1  0.324032  0.674905  0.248386  1
  Hf  Hf10  1  0.675262  0.324399  0.751549  1
  Hf  Hf11  1  0.147750  0.997489  0.372956  1
  Hf  Hf12  1  0.853847  0.004633  0.877868  1
  Hf  Hf13  1  0.503615  0.647318  0.625194  1
  Hf  Hf14  1  0.351047  0.494276  0.877026  1
  Hf  Hf15  1  0.494044  0.351079  0.122915  1
  Hf  Hf16  1  0.647372  0.503385  0.374820  1
  Hf  Hf17  1  0.997640  0.147840  0.627022  1
  Hf  Hf18  1  0.004465  0.853677  0.122132  1
  Si  Si19  1  0.359942  0.295948  0.316193  1
  Si  Si20  1  0.639172  0.704485  0.818702  1
  Si  Si21  1  0.204996  0.861107  0.567563  1
  Si  Si22  1  0.136922  0.793892  0.932166  1
  Si  Si23  1  0.795222  0.137857  0.068035  1
  Si  Si24  1  0.861788  0.205708  0.432862  1
  Si  Si25  1  0.295012  0.361408  0.683497  1
  Si  Si26  1  0.705399  0.637679  0.180948  1
  Si  Si27  1  0.293377  0.053209  0.181157  1
  Si  Si28  1  0.704066  0.951252  0.685776  1
  Si  Si29  1  0.449569  0.796559  0.435186  1
  Si  Si30  1  0.204175  0.547739  0.064277  1
  Si  Si31  1  0.548822  0.204883  0.935886  1
  Si  Si32  1  0.797112  0.450282  0.565148  1
  Si  Si33  1  0.052396  0.294750  0.818536  1
  Si  Si34  1  0.951887  0.702868  0.314029  1
  Tc  Tc35  1  0.175173  0.175781  0.000169  1
