# generated using pymatgen
data_Tb3Hf(MoN2)4
_symmetry_space_group_name_H-M   'P 1'
_cell_length_a   3.17377900
_cell_length_b   5.68043206
_cell_length_c   10.59122833
_cell_angle_alpha   90.33966661
_cell_angle_beta   90.00000000
_cell_angle_gamma   90.00000000
_symmetry_Int_Tables_number   1
_chemical_formula_structural   Tb3Hf(MoN2)4
_chemical_formula_sum   'Tb3 Hf1 Mo4 N8'
_cell_volume   190.93992665
_cell_formula_units_Z   1
loop_
 _symmetry_equiv_pos_site_id
 _symmetry_equiv_pos_as_xyz
  1  'x, y, z'
loop_
 _atom_site_type_symbol
 _atom_site_label
 _atom_site_symmetry_multiplicity
 _atom_site_fract_x
 _atom_site_fract_y
 _atom_site_fract_z
 _atom_site_occupancy
  Tb  Tb0  1  0.250000  0.581211  0.648720  1
  Tb  Tb1  1  0.750000  0.919219  0.145735  1
  Tb  Tb2  1  0.750000  0.420470  0.352516  1
  Hf  Hf3  1  0.250000  0.080020  0.849759  1
  Mo  Mo4  1  0.250000  0.430760  0.091433  1
  Mo  Mo5  1  0.250000  0.932427  0.406532  1
  Mo  Mo6  1  0.750000  0.563614  0.909282  1
  Mo  Mo7  1  0.750000  0.069986  0.594267  1
  N  N8  1  0.250000  0.167707  0.246823  1
  N  N9  1  0.250000  0.664128  0.247575  1
  N  N10  1  0.750000  0.851559  0.761849  1
  N  N11  1  0.750000  0.320677  0.755213  1
  N  N12  1  0.250000  0.767820  0.986958  1
  N  N13  1  0.250000  0.258532  0.508552  1
  N  N14  1  0.750000  0.230808  0.997784  1
  N  N15  1  0.750000  0.741062  0.497004  1
