# generated using pymatgen
data_Ce3Th17Os16
_symmetry_space_group_name_H-M   'P 1'
_cell_length_a   7.46326908
_cell_length_b   7.47899140
_cell_length_c   15.37633900
_cell_angle_alpha   90.00000000
_cell_angle_beta   90.00000000
_cell_angle_gamma   89.85195266
_symmetry_Int_Tables_number   1
_chemical_formula_structural   Ce3Th17Os16
_chemical_formula_sum   'Ce3 Th17 Os16'
_cell_volume   858.26939987
_cell_formula_units_Z   1
loop_
 _symmetry_equiv_pos_site_id
 _symmetry_equiv_pos_as_xyz
  1  'x, y, z'
loop_
 _atom_site_type_symbol
 _atom_site_label
 _atom_site_symmetry_multiplicity
 _atom_site_fract_x
 _atom_site_fract_y
 _atom_site_fract_z
 _atom_site_occupancy
  Ce  Ce0  1  0.191067  0.477549  0.750000  1
  Ce  Ce1  1  0.691041  0.023008  0.750000  1
  Ce  Ce2  1  0.806694  0.518855  0.250000  1
  Th  Th3  1  0.355030  0.829292  0.874071  1
  Th  Th4  1  0.854707  0.672285  0.626434  1
  Th  Th5  1  0.646579  0.173110  0.375413  1
  Th  Th6  1  0.143199  0.331065  0.124079  1
  Th  Th7  1  0.646579  0.173110  0.124587  1
  Th  Th8  1  0.143199  0.331065  0.375921  1
  Th  Th9  1  0.355030  0.829292  0.625929  1
  Th  Th10  1  0.854707  0.672285  0.873566  1
  Th  Th11  1  0.496079  0.316855  0.913036  1
  Th  Th12  1  0.997027  0.182477  0.586993  1
  Th  Th13  1  0.504957  0.682302  0.413764  1
  Th  Th14  1  0.001401  0.815432  0.086311  1
  Th  Th15  1  0.504957  0.682302  0.086236  1
  Th  Th16  1  0.001401  0.815432  0.413689  1
  Th  Th17  1  0.496079  0.316855  0.586964  1
  Th  Th18  1  0.997027  0.182477  0.913007  1
  Th  Th19  1  0.311794  0.980251  0.250000  1
  Os  Os20  1  0.309592  0.031637  0.037999  1
  Os  Os21  1  0.808820  0.465540  0.465996  1
  Os  Os22  1  0.690219  0.965347  0.535966  1
  Os  Os23  1  0.191009  0.536863  0.963245  1
  Os  Os24  1  0.690219  0.965347  0.964034  1
  Os  Os25  1  0.191009  0.536863  0.536755  1
  Os  Os26  1  0.309592  0.031637  0.462001  1
  Os  Os27  1  0.808820  0.465540  0.034004  1
  Os  Os28  1  0.557616  0.581323  0.750000  1
  Os  Os29  1  0.056000  0.920004  0.750000  1
  Os  Os30  1  0.440788  0.414767  0.250000  1
  Os  Os31  1  0.941003  0.088587  0.250000  1
  Os  Os32  1  0.329672  0.150938  0.750000  1
  Os  Os33  1  0.830308  0.349270  0.750000  1
  Os  Os34  1  0.681530  0.849215  0.250000  1
  Os  Os35  1  0.165248  0.641822  0.250000  1
