# generated using pymatgen
data_Er7Tm3BiPb5
_symmetry_space_group_name_H-M   'P 1'
_cell_length_a   6.49467601
_cell_length_b   9.00423059
_cell_length_c   8.99908504
_cell_angle_alpha   120.01945140
_cell_angle_beta   90.00278554
_cell_angle_gamma   90.00259140
_symmetry_Int_Tables_number   1
_chemical_formula_structural   Er7Tm3BiPb5
_chemical_formula_sum   'Er7 Tm3 Bi1 Pb5'
_cell_volume   455.66736731
_cell_formula_units_Z   1
loop_
 _symmetry_equiv_pos_site_id
 _symmetry_equiv_pos_as_xyz
  1  'x, y, z'
loop_
 _atom_site_type_symbol
 _atom_site_label
 _atom_site_symmetry_multiplicity
 _atom_site_fract_x
 _atom_site_fract_y
 _atom_site_fract_z
 _atom_site_occupancy
  Er  Er0  1  0.499089  0.331533  0.664472  1
  Er  Er1  1  0.750038  0.235254  0.000025  1
  Er  Er2  1  0.750044  0.764388  0.760761  1
  Er  Er3  1  0.750024  0.003577  0.239217  1
  Er  Er4  1  0.249956  0.763177  0.000014  1
  Er  Er5  1  0.249995  0.236846  0.237409  1
  Er  Er6  1  0.249945  0.999382  0.762540  1
  Tm  Tm7  1  0.499015  0.667068  0.335640  1
  Tm  Tm8  1  0.000969  0.667086  0.335646  1
  Tm  Tm9  1  0.000971  0.331447  0.664347  1
  Bi  Bi10  1  0.750084  0.606796  0.000102  1
  Pb  Pb11  1  0.750132  0.395326  0.394667  1
  Pb  Pb12  1  0.750114  0.000345  0.605181  1
  Pb  Pb13  1  0.249863  0.393947  0.000137  1
  Pb  Pb14  1  0.249871  0.605411  0.606717  1
  Pb  Pb15  1  0.249888  0.998417  0.393125  1
