# generated using pymatgen
data_Er3Th7Tc6
_symmetry_space_group_name_H-M   'P 1'
_cell_length_a   8.26658700
_cell_length_b   8.26658645
_cell_length_c   6.52774200
_cell_angle_alpha   90.00000000
_cell_angle_beta   90.00000000
_cell_angle_gamma   119.99999819
_symmetry_Int_Tables_number   1
_chemical_formula_structural   Er3Th7Tc6
_chemical_formula_sum   'Er3 Th7 Tc6'
_cell_volume   386.31900469
_cell_formula_units_Z   1
loop_
 _symmetry_equiv_pos_site_id
 _symmetry_equiv_pos_as_xyz
  1  'x, y, z'
loop_
 _atom_site_type_symbol
 _atom_site_label
 _atom_site_symmetry_multiplicity
 _atom_site_fract_x
 _atom_site_fract_y
 _atom_site_fract_z
 _atom_site_occupancy
  Er  Er0  1  0.666667  0.333333  0.000000  1
  Er  Er1  1  0.333333  0.666667  0.000000  1
  Er  Er2  1  0.333333  0.666667  0.500000  1
  Th  Th3  1  0.666667  0.333333  0.500000  1
  Th  Th4  1  0.752145  0.755326  0.751845  1
  Th  Th5  1  0.244674  0.996819  0.751845  1
  Th  Th6  1  0.003181  0.247855  0.751845  1
  Th  Th7  1  0.244674  0.247855  0.248155  1
  Th  Th8  1  0.752145  0.996819  0.248155  1
  Th  Th9  1  0.003181  0.755326  0.248155  1
  Tc  Tc10  1  0.387585  0.386250  0.746654  1
  Tc  Tc11  1  0.613750  0.001337  0.746654  1
  Tc  Tc12  1  0.998663  0.612415  0.746654  1
  Tc  Tc13  1  0.613750  0.612415  0.253346  1
  Tc  Tc14  1  0.387585  0.001337  0.253346  1
  Tc  Tc15  1  0.998663  0.386250  0.253346  1
