# generated using pymatgen
data_CsLu3S5
_symmetry_space_group_name_H-M   'P 1'
_cell_length_a   3.91818100
_cell_length_b   11.79570700
_cell_length_c   20.96980900
_cell_angle_alpha   90.00000000
_cell_angle_beta   90.00000000
_cell_angle_gamma   90.00000000
_symmetry_Int_Tables_number   1
_chemical_formula_structural   CsLu3S5
_chemical_formula_sum   'Cs4 Lu12 S20'
_cell_volume   969.17665699
_cell_formula_units_Z   4
loop_
 _symmetry_equiv_pos_site_id
 _symmetry_equiv_pos_as_xyz
  1  'x, y, z'
loop_
 _atom_site_type_symbol
 _atom_site_label
 _atom_site_symmetry_multiplicity
 _atom_site_fract_x
 _atom_site_fract_y
 _atom_site_fract_z
 _atom_site_occupancy
  Cs  Cs0  1  0.250000  0.854616  0.091909  1
  Cs  Cs1  1  0.750000  0.145384  0.908091  1
  Cs  Cs2  1  0.750000  0.354616  0.408091  1
  Cs  Cs3  1  0.250000  0.645384  0.591909  1
  Lu  Lu4  1  0.750000  0.797388  0.825199  1
  Lu  Lu5  1  0.250000  0.202612  0.174801  1
  Lu  Lu6  1  0.250000  0.297388  0.674801  1
  Lu  Lu7  1  0.750000  0.702612  0.325199  1
  Lu  Lu8  1  0.250000  0.956815  0.697682  1
  Lu  Lu9  1  0.750000  0.043185  0.302318  1
  Lu  Lu10  1  0.750000  0.456815  0.802318  1
  Lu  Lu11  1  0.250000  0.543185  0.197682  1
  Lu  Lu12  1  0.750000  0.391570  0.053672  1
  Lu  Lu13  1  0.250000  0.608430  0.946328  1
  Lu  Lu14  1  0.250000  0.891570  0.446328  1
  Lu  Lu15  1  0.750000  0.108430  0.553672  1
  S  S16  1  0.250000  0.950961  0.568704  1
  S  S17  1  0.750000  0.049039  0.431296  1
  S  S18  1  0.750000  0.450961  0.931296  1
  S  S19  1  0.250000  0.549039  0.068704  1
  S  S20  1  0.750000  0.761602  0.950922  1
  S  S21  1  0.250000  0.238398  0.049078  1
  S  S22  1  0.250000  0.261602  0.549078  1
  S  S23  1  0.750000  0.738398  0.450922  1
  S  S24  1  0.250000  0.946205  0.824360  1
  S  S25  1  0.750000  0.053795  0.175640  1
  S  S26  1  0.750000  0.446205  0.675640  1
  S  S27  1  0.250000  0.553795  0.324360  1
  S  S28  1  0.750000  0.125555  0.683460  1
  S  S29  1  0.250000  0.874445  0.316540  1
  S  S30  1  0.250000  0.625555  0.816540  1
  S  S31  1  0.750000  0.374445  0.183460  1
  S  S32  1  0.750000  0.690370  0.198854  1
  S  S33  1  0.250000  0.309630  0.801146  1
  S  S34  1  0.250000  0.190370  0.301146  1
  S  S35  1  0.750000  0.809630  0.698854  1
