# generated using pymatgen
data_Tb5Nd4HoSn8
_symmetry_space_group_name_H-M   'P 1'
_cell_length_a   8.06720800
_cell_length_b   8.40121400
_cell_length_c   15.82621500
_cell_angle_alpha   90.00000000
_cell_angle_beta   90.00000000
_cell_angle_gamma   90.00000000
_symmetry_Int_Tables_number   1
_chemical_formula_structural   Tb5Nd4HoSn8
_chemical_formula_sum   'Tb10 Nd8 Ho2 Sn16'
_cell_volume   1072.61128883
_cell_formula_units_Z   2
loop_
 _symmetry_equiv_pos_site_id
 _symmetry_equiv_pos_as_xyz
  1  'x, y, z'
loop_
 _atom_site_type_symbol
 _atom_site_label
 _atom_site_symmetry_multiplicity
 _atom_site_fract_x
 _atom_site_fract_y
 _atom_site_fract_z
 _atom_site_occupancy
  Tb  Tb0  1  0.337529  0.833332  0.875699  1
  Tb  Tb1  1  0.837529  0.666668  0.624301  1
  Tb  Tb2  1  0.662864  0.166753  0.375450  1
  Tb  Tb3  1  0.162864  0.333247  0.124550  1
  Tb  Tb4  1  0.662864  0.166753  0.124550  1
  Tb  Tb5  1  0.162864  0.333247  0.375450  1
  Tb  Tb6  1  0.337529  0.833332  0.624301  1
  Tb  Tb7  1  0.837529  0.666668  0.875699  1
  Tb  Tb8  1  0.169557  0.500408  0.750000  1
  Tb  Tb9  1  0.669557  0.999592  0.750000  1
  Nd  Nd10  1  0.500639  0.320872  0.902909  1
  Nd  Nd11  1  0.000639  0.179128  0.597091  1
  Nd  Nd12  1  0.499181  0.678422  0.402526  1
  Nd  Nd13  1  0.999181  0.821578  0.097474  1
  Nd  Nd14  1  0.499181  0.678422  0.097474  1
  Nd  Nd15  1  0.999181  0.821578  0.402526  1
  Nd  Nd16  1  0.500639  0.320872  0.597091  1
  Nd  Nd17  1  0.000639  0.179128  0.902909  1
  Ho  Ho18  1  0.829648  0.499767  0.250000  1
  Ho  Ho19  1  0.329648  0.000233  0.250000  1
  Sn  Sn20  1  0.320521  0.038005  0.042122  1
  Sn  Sn21  1  0.820521  0.461995  0.457878  1
  Sn  Sn22  1  0.679684  0.961817  0.541599  1
  Sn  Sn23  1  0.179684  0.538183  0.958401  1
  Sn  Sn24  1  0.679684  0.961817  0.958401  1
  Sn  Sn25  1  0.179684  0.538183  0.541599  1
  Sn  Sn26  1  0.320521  0.038005  0.457878  1
  Sn  Sn27  1  0.820521  0.461995  0.042122  1
  Sn  Sn28  1  0.533859  0.621197  0.750000  1
  Sn  Sn29  1  0.033859  0.878803  0.750000  1
  Sn  Sn30  1  0.467157  0.378972  0.250000  1
  Sn  Sn31  1  0.967157  0.121028  0.250000  1
  Sn  Sn32  1  0.302515  0.145451  0.750000  1
  Sn  Sn33  1  0.802515  0.354549  0.750000  1
  Sn  Sn34  1  0.696431  0.854152  0.250000  1
  Sn  Sn35  1  0.196431  0.645848  0.250000  1
