# generated using pymatgen
data_Ba8Sc5Ga3O20
_symmetry_space_group_name_H-M   'P 1'
_cell_length_a   5.98027100
_cell_length_b   6.12101100
_cell_length_c   15.87421300
_cell_angle_alpha   90.00000000
_cell_angle_beta   90.00000000
_cell_angle_gamma   90.00324810
_symmetry_Int_Tables_number   1
_chemical_formula_structural   Ba8Sc5Ga3O20
_chemical_formula_sum   'Ba8 Sc5 Ga3 O20'
_cell_volume   581.08040127
_cell_formula_units_Z   1
loop_
 _symmetry_equiv_pos_site_id
 _symmetry_equiv_pos_as_xyz
  1  'x, y, z'
loop_
 _atom_site_type_symbol
 _atom_site_label
 _atom_site_symmetry_multiplicity
 _atom_site_fract_x
 _atom_site_fract_y
 _atom_site_fract_z
 _atom_site_occupancy
  Ba  Ba0  1  0.999740  0.508371  0.111636  1
  Ba  Ba1  1  0.999740  0.508371  0.388364  1
  Ba  Ba2  1  0.499813  0.988595  0.111114  1
  Ba  Ba3  1  0.499813  0.988595  0.388886  1
  Ba  Ba4  1  0.495323  0.007875  0.619553  1
  Ba  Ba5  1  0.495323  0.007875  0.880447  1
  Ba  Ba6  1  0.995362  0.495611  0.619392  1
  Ba  Ba7  1  0.995362  0.495611  0.880608  1
  Sc  Sc8  1  0.497581  0.500580  0.997507  1
  Sc  Sc9  1  0.497581  0.500580  0.502493  1
  Sc  Sc10  1  0.997559  0.002349  0.504351  1
  Sc  Sc11  1  0.997559  0.002349  0.995649  1
  Sc  Sc12  1  0.515601  0.431188  0.250000  1
  Ga  Ga13  1  0.492119  0.566388  0.750000  1
  Ga  Ga14  1  0.991812  0.935923  0.750000  1
  Ga  Ga15  1  0.014959  0.060440  0.250000  1
  O  O16  1  0.489384  0.556440  0.134750  1
  O  O17  1  0.489384  0.556440  0.365250  1
  O  O18  1  0.216649  0.718870  0.750000  1
  O  O19  1  0.248228  0.753968  0.512384  1
  O  O20  1  0.248228  0.753968  0.987616  1
  O  O21  1  0.750438  0.750387  0.512350  1
  O  O22  1  0.750438  0.750387  0.987650  1
  O  O23  1  0.716251  0.785340  0.750000  1
  O  O24  1  0.984904  0.940012  0.142875  1
  O  O25  1  0.984904  0.940012  0.357125  1
  O  O26  1  0.007379  0.061845  0.644330  1
  O  O27  1  0.007379  0.061845  0.855670  1
  O  O28  1  0.304374  0.185048  0.250000  1
  O  O29  1  0.245750  0.251802  0.005288  1
  O  O30  1  0.245750  0.251802  0.494712  1
  O  O31  1  0.746804  0.248854  0.005218  1
  O  O32  1  0.746804  0.248854  0.494782  1
  O  O33  1  0.816566  0.302324  0.250000  1
  O  O34  1  0.507569  0.440550  0.644662  1
  O  O35  1  0.507569  0.440550  0.855338  1
