# generated using pymatgen
data_Ti5GaFe6(CoB)4
_symmetry_space_group_name_H-M   'P 1'
_cell_length_a   8.63283800
_cell_length_b   8.63283800
_cell_length_c   2.88441100
_cell_angle_alpha   90.00000000
_cell_angle_beta   90.00000000
_cell_angle_gamma   90.00000000
_symmetry_Int_Tables_number   1
_chemical_formula_structural   Ti5GaFe6(CoB)4
_chemical_formula_sum   'Ti5 Ga1 Fe6 Co4 B4'
_cell_volume   214.96330248
_cell_formula_units_Z   1
loop_
 _symmetry_equiv_pos_site_id
 _symmetry_equiv_pos_as_xyz
  1  'x, y, z'
loop_
 _atom_site_type_symbol
 _atom_site_label
 _atom_site_symmetry_multiplicity
 _atom_site_fract_x
 _atom_site_fract_y
 _atom_site_fract_z
 _atom_site_occupancy
  Ti  Ti0  1  0.000000  0.000000  0.000000  1
  Ti  Ti1  1  0.829301  0.322331  0.000000  1
  Ti  Ti2  1  0.322331  0.170699  0.000000  1
  Ti  Ti3  1  0.677669  0.829301  0.000000  1
  Ti  Ti4  1  0.170699  0.677669  0.000000  1
  Ga  Ga5  1  0.500000  0.500000  0.000000  1
  Fe  Fe6  1  0.500000  0.000000  0.500000  1
  Fe  Fe7  1  0.000000  0.500000  0.500000  1
  Fe  Fe8  1  0.073309  0.218955  0.500000  1
  Fe  Fe9  1  0.218955  0.926691  0.500000  1
  Fe  Fe10  1  0.781045  0.073309  0.500000  1
  Fe  Fe11  1  0.926691  0.781045  0.500000  1
  Co  Co12  1  0.430760  0.718292  0.500000  1
  Co  Co13  1  0.569240  0.281708  0.500000  1
  Co  Co14  1  0.718292  0.569240  0.500000  1
  Co  Co15  1  0.281708  0.430760  0.500000  1
  B  B16  1  0.622347  0.121952  0.000000  1
  B  B17  1  0.121952  0.377653  0.000000  1
  B  B18  1  0.878048  0.622347  0.000000  1
  B  B19  1  0.377653  0.878048  0.000000  1
