# generated using pymatgen
data_Ba2Cd19Ag3
_symmetry_space_group_name_H-M   'P 1'
_cell_length_a   9.46433777
_cell_length_b   9.47556510
_cell_length_c   9.47556469
_cell_angle_alpha   99.74050069
_cell_angle_beta   99.57165474
_cell_angle_gamma   131.72211137
_symmetry_Int_Tables_number   1
_chemical_formula_structural   Ba2Cd19Ag3
_chemical_formula_sum   'Ba2 Cd19 Ag3'
_cell_volume   578.44600292
_cell_formula_units_Z   1
loop_
 _symmetry_equiv_pos_site_id
 _symmetry_equiv_pos_as_xyz
  1  'x, y, z'
loop_
 _atom_site_type_symbol
 _atom_site_label
 _atom_site_symmetry_multiplicity
 _atom_site_fract_x
 _atom_site_fract_y
 _atom_site_fract_z
 _atom_site_occupancy
  Ba  Ba0  1  0.750323  0.249927  0.500396  1
  Ba  Ba1  1  0.499677  0.500073  0.999604  1
  Cd  Cd2  1  0.925573  0.012016  0.325582  1
  Cd  Cd3  1  0.685621  0.605254  0.676934  1
  Cd  Cd4  1  0.251128  0.747794  0.503334  1
  Cd  Cd5  1  0.998872  0.002206  0.996666  1
  Cd  Cd6  1  0.125000  0.875000  0.250000  1
  Cd  Cd7  1  0.925573  0.599992  0.913558  1
  Cd  Cd8  1  0.851814  0.430150  0.175669  1
  Cd  Cd9  1  0.259216  0.678018  0.823498  1
  Cd  Cd10  1  0.685621  0.008687  0.080367  1
  Cd  Cd11  1  0.398186  0.073856  0.078336  1
  Cd  Cd12  1  0.990784  0.314282  0.918803  1
  Cd  Cd13  1  0.564379  0.144746  0.823066  1
  Cd  Cd14  1  0.324427  0.737984  0.174418  1
  Cd  Cd15  1  0.324427  0.150008  0.586442  1
  Cd  Cd16  1  0.398186  0.319850  0.324331  1
  Cd  Cd17  1  0.990784  0.071982  0.676502  1
  Cd  Cd18  1  0.564379  0.741313  0.419633  1
  Cd  Cd19  1  0.851814  0.676144  0.421664  1
  Cd  Cd20  1  0.259216  0.435718  0.581197  1
  Ag  Ag21  1  0.125000  0.375000  0.250000  1
  Ag  Ag22  1  0.125000  0.875000  0.750000  1
  Ag  Ag23  1  0.625000  0.875000  0.750000  1
