# generated using pymatgen
data_Nd4GePd28Se
_symmetry_space_group_name_H-M   'P 1'
_cell_length_a   9.02018200
_cell_length_b   9.02018200
_cell_length_c   7.20394100
_cell_angle_alpha   90.00000000
_cell_angle_beta   90.00000000
_cell_angle_gamma   90.00000000
_symmetry_Int_Tables_number   1
_chemical_formula_structural   Nd4GePd28Se
_chemical_formula_sum   'Nd4 Ge1 Pd28 Se1'
_cell_volume   586.13917413
_cell_formula_units_Z   1
loop_
 _symmetry_equiv_pos_site_id
 _symmetry_equiv_pos_as_xyz
  1  'x, y, z'
loop_
 _atom_site_type_symbol
 _atom_site_label
 _atom_site_symmetry_multiplicity
 _atom_site_fract_x
 _atom_site_fract_y
 _atom_site_fract_z
 _atom_site_occupancy
  Nd  Nd0  1  0.500000  0.000000  0.934949  1
  Nd  Nd1  1  0.000000  0.500000  0.065335  1
  Nd  Nd2  1  0.000000  0.000000  0.499945  1
  Nd  Nd3  1  0.500000  0.500000  0.499945  1
  Ge  Ge4  1  0.000000  0.500000  0.549230  1
  Pd  Pd5  1  0.328414  0.828414  0.624830  1
  Pd  Pd6  1  0.328414  0.171586  0.624830  1
  Pd  Pd7  1  0.671586  0.828414  0.624830  1
  Pd  Pd8  1  0.671586  0.171586  0.624830  1
  Pd  Pd9  1  0.169095  0.669095  0.378023  1
  Pd  Pd10  1  0.169095  0.330905  0.378023  1
  Pd  Pd11  1  0.830905  0.669095  0.378023  1
  Pd  Pd12  1  0.830905  0.330905  0.378023  1
  Pd  Pd13  1  0.500000  0.763812  0.251332  1
  Pd  Pd14  1  0.500000  0.236188  0.251332  1
  Pd  Pd15  1  0.263812  0.000000  0.251332  1
  Pd  Pd16  1  0.736188  0.000000  0.251332  1
  Pd  Pd17  1  0.000000  0.733044  0.746541  1
  Pd  Pd18  1  0.000000  0.266956  0.746541  1
  Pd  Pd19  1  0.233044  0.500000  0.746541  1
  Pd  Pd20  1  0.766956  0.500000  0.746541  1
  Pd  Pd21  1  0.500000  0.347418  0.857595  1
  Pd  Pd22  1  0.500000  0.652582  0.857595  1
  Pd  Pd23  1  0.847418  0.000000  0.857595  1
  Pd  Pd24  1  0.152582  0.000000  0.857595  1
  Pd  Pd25  1  0.000000  0.150757  0.141835  1
  Pd  Pd26  1  0.000000  0.849243  0.141835  1
  Pd  Pd27  1  0.650757  0.500000  0.141835  1
  Pd  Pd28  1  0.349243  0.500000  0.141835  1
  Pd  Pd29  1  0.248362  0.748362  0.999909  1
  Pd  Pd30  1  0.248362  0.251638  0.999909  1
  Pd  Pd31  1  0.751638  0.748362  0.999909  1
  Pd  Pd32  1  0.751638  0.251638  0.999909  1
  Se  Se33  1  0.500000  0.000000  0.450338  1
