# generated using pymatgen
data_CaCr4P8Pb5O32
_symmetry_space_group_name_H-M   'P 1'
_cell_length_a   9.05798533
_cell_length_b   9.08910185
_cell_length_c   9.37830435
_cell_angle_alpha   90.06102432
_cell_angle_beta   116.99433307
_cell_angle_gamma   90.08474149
_symmetry_Int_Tables_number   1
_chemical_formula_structural   CaCr4P8Pb5O32
_chemical_formula_sum   'Ca1 Cr4 P8 Pb5 O32'
_cell_volume   687.98405583
_cell_formula_units_Z   1
loop_
 _symmetry_equiv_pos_site_id
 _symmetry_equiv_pos_as_xyz
  1  'x, y, z'
loop_
 _atom_site_type_symbol
 _atom_site_label
 _atom_site_symmetry_multiplicity
 _atom_site_fract_x
 _atom_site_fract_y
 _atom_site_fract_z
 _atom_site_occupancy
  Ca  Ca0  1  0.000000  0.000000  0.000000  1
  Cr  Cr1  1  0.247431  0.630263  0.243329  1
  Cr  Cr2  1  0.751756  0.131370  0.255683  1
  Cr  Cr3  1  0.248244  0.868632  0.744316  1
  Cr  Cr4  1  0.752570  0.369737  0.756672  1
  P  P5  1  0.419422  0.909536  0.139238  1
  P  P6  1  0.978969  0.357887  0.155324  1
  P  P7  1  0.018247  0.863366  0.338267  1
  P  P8  1  0.575007  0.410187  0.358762  1
  P  P9  1  0.424992  0.589813  0.641237  1
  P  P10  1  0.981752  0.136634  0.661733  1
  P  P11  1  0.021030  0.642113  0.844676  1
  P  P12  1  0.580577  0.090464  0.860763  1
  Pb  Pb13  1  0.295125  0.288713  0.028418  1
  Pb  Pb14  1  0.701230  0.793674  0.469218  1
  Pb  Pb15  1  0.000000  0.500000  0.500001  1
  Pb  Pb16  1  0.298771  0.206326  0.530783  1
  Pb  Pb17  1  0.704874  0.711287  0.971580  1
  O  O18  1  0.158890  0.587481  0.006393  1
  O  O19  1  0.605030  0.152460  0.021972  1
  O  O20  1  0.295200  0.032806  0.119648  1
  O  O21  1  0.087368  0.241212  0.126877  1
  O  O22  1  0.091946  0.797875  0.229590  1
  O  O23  1  0.918221  0.997147  0.234982  1
  O  O24  1  0.603446  0.960505  0.242836  1
  O  O25  1  0.410833  0.781130  0.245285  1
  O  O26  1  0.588765  0.282694  0.254296  1
  O  O27  1  0.388058  0.452692  0.258354  1
  O  O28  1  0.084313  0.490136  0.257893  1
  O  O29  1  0.906611  0.294841  0.266071  1
  O  O30  1  0.898827  0.751977  0.358477  1
  O  O31  1  0.687425  0.541746  0.370572  1
  O  O32  1  0.391161  0.651547  0.477485  1
  O  O33  1  0.845635  0.087544  0.495755  1
  O  O34  1  0.154363  0.912456  0.504245  1
  O  O35  1  0.608838  0.348453  0.522515  1
  O  O36  1  0.312575  0.458254  0.629429  1
  O  O37  1  0.101173  0.248023  0.641522  1
  O  O38  1  0.093389  0.705159  0.733928  1
  O  O39  1  0.915688  0.509864  0.742108  1
  O  O40  1  0.611941  0.547308  0.741646  1
  O  O41  1  0.411235  0.717305  0.745703  1
  O  O42  1  0.589167  0.218870  0.754716  1
  O  O43  1  0.396554  0.039495  0.757164  1
  O  O44  1  0.081779  0.002853  0.765018  1
  O  O45  1  0.908054  0.202125  0.770411  1
  O  O46  1  0.912632  0.758788  0.873123  1
  O  O47  1  0.704799  0.967194  0.880351  1
  O  O48  1  0.394970  0.847540  0.978029  1
  O  O49  1  0.841110  0.412519  0.993607  1
