# generated using pymatgen
data_Zr2Sc2ReTc7
_symmetry_space_group_name_H-M   'P 1'
_cell_length_a   5.25807800
_cell_length_b   5.25807926
_cell_length_c   8.64827000
_cell_angle_alpha   90.00000000
_cell_angle_beta   90.00000000
_cell_angle_gamma   120.00000466
_symmetry_Int_Tables_number   1
_chemical_formula_structural   Zr2Sc2ReTc7
_chemical_formula_sum   'Zr2 Sc2 Re1 Tc7'
_cell_volume   207.06848392
_cell_formula_units_Z   1
loop_
 _symmetry_equiv_pos_site_id
 _symmetry_equiv_pos_as_xyz
  1  'x, y, z'
loop_
 _atom_site_type_symbol
 _atom_site_label
 _atom_site_symmetry_multiplicity
 _atom_site_fract_x
 _atom_site_fract_y
 _atom_site_fract_z
 _atom_site_occupancy
  Zr  Zr0  1  0.333333  0.666667  0.435390  1
  Zr  Zr1  1  0.666667  0.333333  0.935076  1
  Sc  Sc2  1  0.666667  0.333333  0.563426  1
  Sc  Sc3  1  0.333333  0.666667  0.063512  1
  Re  Re4  1  0.000000  0.000000  0.000775  1
  Tc  Tc5  1  0.656351  0.828176  0.750348  1
  Tc  Tc6  1  0.343843  0.171921  0.249897  1
  Tc  Tc7  1  0.828079  0.171921  0.249897  1
  Tc  Tc8  1  0.171824  0.343649  0.750348  1
  Tc  Tc9  1  0.171824  0.828176  0.750348  1
  Tc  Tc10  1  0.828079  0.656157  0.249897  1
  Tc  Tc11  1  0.000000  0.000000  0.501089  1
