# generated using pymatgen
data_CaTm(NiB4)2
_symmetry_space_group_name_H-M   'P 1'
_cell_length_a   6.82379981
_cell_length_b   6.82380058
_cell_length_c   6.82380019
_cell_angle_alpha   112.92018022
_cell_angle_beta   112.92018012
_cell_angle_gamma   102.77384666
_symmetry_Int_Tables_number   1
_chemical_formula_structural   CaTm(NiB4)2
_chemical_formula_sum   'Ca2 Tm2 Ni4 B16'
_cell_volume   242.13424136
_cell_formula_units_Z   2
loop_
 _symmetry_equiv_pos_site_id
 _symmetry_equiv_pos_as_xyz
  1  'x, y, z'
loop_
 _atom_site_type_symbol
 _atom_site_label
 _atom_site_symmetry_multiplicity
 _atom_site_fract_x
 _atom_site_fract_y
 _atom_site_fract_z
 _atom_site_occupancy
  Ca  Ca0  1  0.797502  0.797502  0.000000  1
  Ca  Ca1  1  0.202498  0.202498  0.000000  1
  Tm  Tm2  1  0.750000  0.250000  0.500000  1
  Tm  Tm3  1  0.250000  0.750000  0.500000  1
  Ni  Ni4  1  0.272088  0.500000  0.772088  1
  Ni  Ni5  1  0.727912  0.500000  0.227912  1
  Ni  Ni6  1  0.500000  0.727912  0.227912  1
  Ni  Ni7  1  0.500000  0.272088  0.772088  1
  B  B8  1  0.276850  0.112196  0.389047  1
  B  B9  1  0.723150  0.887804  0.610953  1
  B  B10  1  0.276850  0.887804  0.164653  1
  B  B11  1  0.723150  0.112196  0.835347  1
  B  B12  1  0.112196  0.723150  0.835347  1
  B  B13  1  0.887804  0.276850  0.164653  1
  B  B14  1  0.112196  0.276850  0.389047  1
  B  B15  1  0.887804  0.723150  0.610953  1
  B  B16  1  0.113122  0.113122  0.530258  1
  B  B17  1  0.582865  0.582865  0.469742  1
  B  B18  1  0.113122  0.582865  0.000000  1
  B  B19  1  0.582865  0.113122  0.000000  1
  B  B20  1  0.886878  0.886878  0.469742  1
  B  B21  1  0.417135  0.417135  0.530258  1
  B  B22  1  0.886878  0.417135  0.000000  1
  B  B23  1  0.417135  0.886878  0.000000  1
