# generated using pymatgen
data_Ti4VSe4
_symmetry_space_group_name_H-M   'P 1'
_cell_length_a   7.01806799
_cell_length_b   7.01806804
_cell_length_c   7.01806782
_cell_angle_alpha   93.54257717
_cell_angle_beta   93.54256927
_cell_angle_gamma   151.21344502
_symmetry_Int_Tables_number   1
_chemical_formula_structural   Ti4VSe4
_chemical_formula_sum   'Ti4 V1 Se4'
_cell_volume   161.22867826
_cell_formula_units_Z   1
loop_
 _symmetry_equiv_pos_site_id
 _symmetry_equiv_pos_as_xyz
  1  'x, y, z'
loop_
 _atom_site_type_symbol
 _atom_site_label
 _atom_site_symmetry_multiplicity
 _atom_site_fract_x
 _atom_site_fract_y
 _atom_site_fract_z
 _atom_site_occupancy
  Ti  Ti0  1  0.377823  0.310333  0.688156  1
  Ti  Ti1  1  0.622177  0.689667  0.311844  1
  Ti  Ti2  1  0.689667  0.377823  0.067490  1
  Ti  Ti3  1  0.310333  0.622177  0.932510  1
  V  V4  1  0.000000  0.000000  0.000000  1
  Se  Se5  1  0.273152  0.059249  0.332402  1
  Se  Se6  1  0.726848  0.940751  0.667598  1
  Se  Se7  1  0.940751  0.273152  0.213903  1
  Se  Se8  1  0.059249  0.726848  0.786097  1
