# generated using pymatgen
data_HoLu5OsRh
_symmetry_space_group_name_H-M   'P 1'
_cell_length_a   7.20742400
_cell_length_b   8.91386700
_cell_length_c   6.24180800
_cell_angle_alpha   90.00000000
_cell_angle_beta   90.00000000
_cell_angle_gamma   90.00000000
_symmetry_Int_Tables_number   1
_chemical_formula_structural   HoLu5OsRh
_chemical_formula_sum   'Ho2 Lu10 Os2 Rh2'
_cell_volume   401.01131504
_cell_formula_units_Z   2
loop_
 _symmetry_equiv_pos_site_id
 _symmetry_equiv_pos_as_xyz
  1  'x, y, z'
loop_
 _atom_site_type_symbol
 _atom_site_label
 _atom_site_symmetry_multiplicity
 _atom_site_fract_x
 _atom_site_fract_y
 _atom_site_fract_z
 _atom_site_occupancy
  Ho  Ho0  1  0.537872  0.250000  0.874376  1
  Ho  Ho1  1  0.037872  0.250000  0.625624  1
  Lu  Lu2  1  0.675964  0.057413  0.333133  1
  Lu  Lu3  1  0.175964  0.442587  0.166867  1
  Lu  Lu4  1  0.322164  0.566276  0.674655  1
  Lu  Lu5  1  0.822164  0.933724  0.825345  1
  Lu  Lu6  1  0.322164  0.933724  0.674655  1
  Lu  Lu7  1  0.822164  0.566276  0.825345  1
  Lu  Lu8  1  0.675964  0.442587  0.333133  1
  Lu  Lu9  1  0.175964  0.057413  0.166867  1
  Lu  Lu10  1  0.464520  0.750000  0.123666  1
  Lu  Lu11  1  0.964520  0.750000  0.376334  1
  Os  Os12  1  0.115018  0.750000  0.965553  1
  Os  Os13  1  0.615018  0.750000  0.534447  1
  Rh  Rh14  1  0.886336  0.250000  0.043304  1
  Rh  Rh15  1  0.386336  0.250000  0.456696  1
