# generated using pymatgen
data_Al12CrTcW
_symmetry_space_group_name_H-M   'P 1'
_cell_length_a   9.18541866
_cell_length_b   9.18383754
_cell_length_c   5.16960842
_cell_angle_alpha   87.16040468
_cell_angle_beta   87.08933133
_cell_angle_gamma   146.99845487
_symmetry_Int_Tables_number   1
_chemical_formula_structural   Al12CrTcW
_chemical_formula_sum   'Al12 Cr1 Tc1 W1'
_cell_volume   233.79075748
_cell_formula_units_Z   1
loop_
 _symmetry_equiv_pos_site_id
 _symmetry_equiv_pos_as_xyz
  1  'x, y, z'
loop_
 _atom_site_type_symbol
 _atom_site_label
 _atom_site_symmetry_multiplicity
 _atom_site_fract_x
 _atom_site_fract_y
 _atom_site_fract_z
 _atom_site_occupancy
  Al  Al0  1  0.863646  0.864282  0.501766  1
  Al  Al1  1  0.512236  0.513159  0.137235  1
  Al  Al2  1  0.260605  0.412643  0.687408  1
  Al  Al3  1  0.411035  0.260036  0.689430  1
  Al  Al4  1  0.062939  0.294330  0.213363  1
  Al  Al5  1  0.300182  0.068144  0.211257  1
  Al  Al6  1  0.939468  0.697633  0.812408  1
  Al  Al7  1  0.697165  0.939900  0.815940  1
  Al  Al8  1  0.077761  0.546110  0.586925  1
  Al  Al9  1  0.546175  0.076032  0.589269  1
  Al  Al10  1  0.227814  0.725911  0.071487  1
  Al  Al11  1  0.725953  0.225391  0.074294  1
  Cr  Cr12  1  0.017910  0.019706  0.987237  1
  Tc  Tc13  1  0.528173  0.801298  0.334878  1
  W  W14  1  0.805936  0.532421  0.333104  1
