# generated using pymatgen
data_Tm3ScTc3Os5
_symmetry_space_group_name_H-M   'P 1'
_cell_length_a   5.26096526
_cell_length_b   5.25653558
_cell_length_c   8.85887441
_cell_angle_alpha   90.00000185
_cell_angle_beta   90.03008288
_cell_angle_gamma   119.97216047
_symmetry_Int_Tables_number   1
_chemical_formula_structural   Tm3ScTc3Os5
_chemical_formula_sum   'Tm3 Sc1 Tc3 Os5'
_cell_volume   212.22468757
_cell_formula_units_Z   1
loop_
 _symmetry_equiv_pos_site_id
 _symmetry_equiv_pos_as_xyz
  1  'x, y, z'
loop_
 _atom_site_type_symbol
 _atom_site_label
 _atom_site_symmetry_multiplicity
 _atom_site_fract_x
 _atom_site_fract_y
 _atom_site_fract_z
 _atom_site_occupancy
  Tm  Tm0  1  0.335080  0.667541  0.432906  1
  Tm  Tm1  1  0.667816  0.333908  0.563869  1
  Tm  Tm2  1  0.668130  0.334065  0.938272  1
  Sc  Sc3  1  0.335080  0.667540  0.067127  1
  Tc  Tc4  1  0.168886  0.341530  0.751769  1
  Tc  Tc5  1  0.168886  0.827354  0.751769  1
  Tc  Tc6  1  0.337098  0.168549  0.247580  1
  Os  Os7  1  0.823840  0.652579  0.247533  1
  Os  Os8  1  0.650696  0.825348  0.751763  1
  Os  Os9  1  0.011091  0.005545  0.001172  1
  Os  Os10  1  0.823840  0.171262  0.247533  1
  Os  Os11  1  0.009560  0.004779  0.498708  1
