# generated using pymatgen
data_Yb5Pr6In9Pd4
_symmetry_space_group_name_H-M   'P 1'
_cell_length_a   13.47008988
_cell_length_b   13.48463944
_cell_length_c   3.81476200
_cell_angle_alpha   90.00000000
_cell_angle_beta   90.00000000
_cell_angle_gamma   112.34287390
_symmetry_Int_Tables_number   1
_chemical_formula_structural   Yb5Pr6In9Pd4
_chemical_formula_sum   'Yb5 Pr6 In9 Pd4'
_cell_volume   640.89080463
_cell_formula_units_Z   1
loop_
 _symmetry_equiv_pos_site_id
 _symmetry_equiv_pos_as_xyz
  1  'x, y, z'
loop_
 _atom_site_type_symbol
 _atom_site_label
 _atom_site_symmetry_multiplicity
 _atom_site_fract_x
 _atom_site_fract_y
 _atom_site_fract_z
 _atom_site_occupancy
  Yb  Yb0  1  0.416414  0.073227  0.000000  1
  Yb  Yb1  1  0.583586  0.926773  0.000000  1
  Yb  Yb2  1  0.073096  0.416326  0.000000  1
  Yb  Yb3  1  0.926904  0.583674  0.000000  1
  Yb  Yb4  1  0.000000  0.000000  0.000000  1
  Pr  Pr5  1  0.160347  0.839836  0.000000  1
  Pr  Pr6  1  0.839653  0.160164  0.000000  1
  Pr  Pr7  1  0.373594  0.626431  0.000000  1
  Pr  Pr8  1  0.626406  0.373569  0.000000  1
  Pr  Pr9  1  0.307401  0.307541  0.000000  1
  Pr  Pr10  1  0.692599  0.692459  0.000000  1
  In  In11  1  0.368349  0.840337  0.500000  1
  In  In12  1  0.631651  0.159663  0.500000  1
  In  In13  1  0.840537  0.368443  0.500000  1
  In  In14  1  0.159463  0.631557  0.500000  1
  In  In15  1  0.218948  0.074828  0.500000  1
  In  In16  1  0.781052  0.925172  0.500000  1
  In  In17  1  0.074595  0.218884  0.500000  1
  In  In18  1  0.925405  0.781116  0.500000  1
  In  In19  1  0.500000  0.500000  0.500000  1
  Pd  Pd20  1  0.450508  0.242259  0.500000  1
  Pd  Pd21  1  0.549492  0.757741  0.500000  1
  Pd  Pd22  1  0.242173  0.450636  0.500000  1
  Pd  Pd23  1  0.757827  0.549364  0.500000  1
