# generated using pymatgen
data_Al5Zn(BRu2)4
_symmetry_space_group_name_H-M   'P 1'
_cell_length_a   8.55671200
_cell_length_b   8.52149100
_cell_length_c   2.94197300
_cell_angle_alpha   90.00000000
_cell_angle_beta   90.00000000
_cell_angle_gamma   90.00000000
_symmetry_Int_Tables_number   1
_chemical_formula_structural   Al5Zn(BRu2)4
_chemical_formula_sum   'Al5 Zn1 B4 Ru8'
_cell_volume   214.51673939
_cell_formula_units_Z   1
loop_
 _symmetry_equiv_pos_site_id
 _symmetry_equiv_pos_as_xyz
  1  'x, y, z'
loop_
 _atom_site_type_symbol
 _atom_site_label
 _atom_site_symmetry_multiplicity
 _atom_site_fract_x
 _atom_site_fract_y
 _atom_site_fract_z
 _atom_site_occupancy
  Al  Al0  1  0.000000  0.999747  0.500000  1
  Al  Al1  1  0.500000  0.499635  0.500000  1
  Al  Al2  1  0.346302  0.000139  0.500000  1
  Al  Al3  1  0.653698  0.000139  0.500000  1
  Al  Al4  1  0.000000  0.652214  0.500000  1
  Zn  Zn5  1  0.000000  0.358866  0.500000  1
  B  B6  1  0.307085  0.303729  0.500000  1
  B  B7  1  0.306859  0.693014  0.500000  1
  B  B8  1  0.692915  0.303729  0.500000  1
  B  B9  1  0.693141  0.693014  0.500000  1
  Ru  Ru10  1  0.823424  0.822281  0.000000  1
  Ru  Ru11  1  0.822770  0.174647  0.000000  1
  Ru  Ru12  1  0.176576  0.822281  0.000000  1
  Ru  Ru13  1  0.177230  0.174647  0.000000  1
  Ru  Ru14  1  0.500000  0.756223  0.000000  1
  Ru  Ru15  1  0.749346  0.500141  0.000000  1
  Ru  Ru16  1  0.250654  0.500141  0.000000  1
  Ru  Ru17  1  0.500000  0.245414  0.000000  1
