# generated using pymatgen
data_CaZr3(Co5As3)4
_symmetry_space_group_name_H-M   'P 1'
_cell_length_a   3.73552800
_cell_length_b   12.11682341
_cell_length_c   10.61384636
_cell_angle_alpha   90.02987659
_cell_angle_beta   90.00000000
_cell_angle_gamma   90.00000000
_symmetry_Int_Tables_number   1
_chemical_formula_structural   CaZr3(Co5As3)4
_chemical_formula_sum   'Ca1 Zr3 Co20 As12'
_cell_volume   480.41162995
_cell_formula_units_Z   1
loop_
 _symmetry_equiv_pos_site_id
 _symmetry_equiv_pos_as_xyz
  1  'x, y, z'
loop_
 _atom_site_type_symbol
 _atom_site_label
 _atom_site_symmetry_multiplicity
 _atom_site_fract_x
 _atom_site_fract_y
 _atom_site_fract_z
 _atom_site_occupancy
  Ca  Ca0  1  0.750000  0.703229  0.082332  1
  Zr  Zr1  1  0.250000  0.298590  0.920993  1
  Zr  Zr2  1  0.250000  0.799178  0.579466  1
  Zr  Zr3  1  0.750000  0.201443  0.421226  1
  Co  Co4  1  0.750000  0.697829  0.388249  1
  Co  Co5  1  0.250000  0.301607  0.613575  1
  Co  Co6  1  0.250000  0.804235  0.880008  1
  Co  Co7  1  0.750000  0.198636  0.114091  1
  Co  Co8  1  0.750000  0.993203  0.216085  1
  Co  Co9  1  0.250000  0.007728  0.783160  1
  Co  Co10  1  0.250000  0.505857  0.715888  1
  Co  Co11  1  0.750000  0.492449  0.285979  1
  Co  Co12  1  0.750000  0.678401  0.781602  1
  Co  Co13  1  0.250000  0.318868  0.218066  1
  Co  Co14  1  0.250000  0.822342  0.287370  1
  Co  Co15  1  0.750000  0.179591  0.716401  1
  Co  Co16  1  0.750000  0.934336  0.967312  1
  Co  Co17  1  0.250000  0.071135  0.030404  1
  Co  Co18  1  0.250000  0.569074  0.470630  1
  Co  Co19  1  0.750000  0.429803  0.530431  1
  Co  Co20  1  0.750000  0.986811  0.590670  1
  Co  Co21  1  0.250000  0.014204  0.409955  1
  Co  Co22  1  0.250000  0.506940  0.089975  1
  Co  Co23  1  0.750000  0.484033  0.905842  1
  As  As24  1  0.750000  0.614792  0.585546  1
  As  As25  1  0.250000  0.384778  0.414333  1
  As  As26  1  0.250000  0.886934  0.085019  1
  As  As27  1  0.750000  0.116747  0.914217  1
  As  As28  1  0.750000  0.888988  0.401152  1
  As  As29  1  0.250000  0.111240  0.599311  1
  As  As30  1  0.250000  0.610598  0.900519  1
  As  As31  1  0.750000  0.389084  0.099474  1
  As  As32  1  0.750000  0.870301  0.765868  1
  As  As33  1  0.250000  0.128940  0.234196  1
  As  As34  1  0.250000  0.628458  0.267594  1
  As  As35  1  0.750000  0.369616  0.733061  1
