# generated using pymatgen
data_Na(GaCu)6
_symmetry_space_group_name_H-M   'P 1'
_cell_length_a   5.23502461
_cell_length_b   6.60066397
_cell_length_c   6.60066459
_cell_angle_alpha   79.66120233
_cell_angle_beta   66.63714813
_cell_angle_gamma   66.63714178
_symmetry_Int_Tables_number   1
_chemical_formula_structural   Na(GaCu)6
_chemical_formula_sum   'Na1 Ga6 Cu6'
_cell_volume   192.14970053
_cell_formula_units_Z   1
loop_
 _symmetry_equiv_pos_site_id
 _symmetry_equiv_pos_as_xyz
  1  'x, y, z'
loop_
 _atom_site_type_symbol
 _atom_site_label
 _atom_site_symmetry_multiplicity
 _atom_site_fract_x
 _atom_site_fract_y
 _atom_site_fract_z
 _atom_site_occupancy
  Na  Na0  1  0.000000  0.000000  0.000000  1
  Ga  Ga1  1  0.000000  0.651708  0.348292  1
  Ga  Ga2  1  0.000000  0.348292  0.651708  1
  Ga  Ga3  1  0.346023  0.653977  0.653977  1
  Ga  Ga4  1  0.653977  0.346023  0.346023  1
  Ga  Ga5  1  0.312191  0.187809  0.187809  1
  Ga  Ga6  1  0.687809  0.812191  0.812191  1
  Cu  Cu7  1  0.500000  0.239415  0.760585  1
  Cu  Cu8  1  0.500000  0.760585  0.239415  1
  Cu  Cu9  1  0.000000  0.500000  0.000000  1
  Cu  Cu10  1  0.500000  0.500000  0.000000  1
  Cu  Cu11  1  0.000000  0.000000  0.500000  1
  Cu  Cu12  1  0.500000  0.000000  0.500000  1
