# generated using pymatgen
data_KNd2(CoH6)2
_symmetry_space_group_name_H-M   'P 1'
_cell_length_a   4.86756700
_cell_length_b   4.86756790
_cell_length_c   8.78987800
_cell_angle_alpha   90.00000000
_cell_angle_beta   90.00000000
_cell_angle_gamma   119.99998711
_symmetry_Int_Tables_number   1
_chemical_formula_structural   KNd2(CoH6)2
_chemical_formula_sum   'K1 Nd2 Co2 H12'
_cell_volume   180.35886414
_cell_formula_units_Z   1
loop_
 _symmetry_equiv_pos_site_id
 _symmetry_equiv_pos_as_xyz
  1  'x, y, z'
loop_
 _atom_site_type_symbol
 _atom_site_label
 _atom_site_symmetry_multiplicity
 _atom_site_fract_x
 _atom_site_fract_y
 _atom_site_fract_z
 _atom_site_occupancy
  K  K0  1  0.000000  0.000000  0.000000  1
  Nd  Nd1  1  0.666667  0.333333  0.361769  1
  Nd  Nd2  1  0.333333  0.666667  0.638231  1
  Co  Co3  1  0.666667  0.333333  0.719526  1
  Co  Co4  1  0.333333  0.666667  0.280474  1
  H  H5  1  0.179901  0.820099  0.383037  1
  H  H6  1  0.640196  0.820099  0.383037  1
  H  H7  1  0.179901  0.359804  0.383037  1
  H  H8  1  0.820099  0.179901  0.616963  1
  H  H9  1  0.359804  0.179901  0.616963  1
  H  H10  1  0.820099  0.640196  0.616963  1
  H  H11  1  0.524822  0.049644  0.830199  1
  H  H12  1  0.524822  0.475178  0.830199  1
  H  H13  1  0.950356  0.475178  0.830199  1
  H  H14  1  0.475178  0.950356  0.169801  1
  H  H15  1  0.475178  0.524822  0.169801  1
  H  H16  1  0.049644  0.524822  0.169801  1
