# generated using pymatgen
data_Y4Ti4AlCo3O20
_symmetry_space_group_name_H-M   'P 1'
_cell_length_a   5.71860900
_cell_length_b   7.40035040
_cell_length_c   8.48984950
_cell_angle_alpha   89.96143024
_cell_angle_beta   90.00000000
_cell_angle_gamma   90.00000000
_symmetry_Int_Tables_number   1
_chemical_formula_structural   Y4Ti4AlCo3O20
_chemical_formula_sum   'Y4 Ti4 Al1 Co3 O20'
_cell_volume   359.28789091
_cell_formula_units_Z   1
loop_
 _symmetry_equiv_pos_site_id
 _symmetry_equiv_pos_as_xyz
  1  'x, y, z'
loop_
 _atom_site_type_symbol
 _atom_site_label
 _atom_site_symmetry_multiplicity
 _atom_site_fract_x
 _atom_site_fract_y
 _atom_site_fract_z
 _atom_site_occupancy
  Y  Y0  1  0.500850  0.360228  0.328715  1
  Y  Y1  1  0.500850  0.639772  0.671285  1
  Y  Y2  1  0.502380  0.141312  0.829132  1
  Y  Y3  1  0.502380  0.858688  0.170868  1
  Ti  Ti4  1  0.001034  0.122025  0.146547  1
  Ti  Ti5  1  0.001034  0.877975  0.853453  1
  Ti  Ti6  1  0.999847  0.377803  0.646395  1
  Ti  Ti7  1  0.999847  0.622197  0.353605  1
  Al  Al8  1  0.255177  0.000000  0.500000  1
  Co  Co9  1  0.745066  0.000000  0.500000  1
  Co  Co10  1  0.747052  0.500000  0.000000  1
  Co  Co11  1  0.253156  0.500000  0.000000  1
  O  O12  1  0.224963  0.000000  0.000000  1
  O  O13  1  0.776689  0.000000  0.000000  1
  O  O14  1  0.777224  0.500000  0.500000  1
  O  O15  1  0.223451  0.500000  0.500000  1
  O  O16  1  0.000031  0.347514  0.071416  1
  O  O17  1  0.000031  0.652486  0.928584  1
  O  O18  1  0.003288  0.151294  0.571871  1
  O  O19  1  0.003288  0.848706  0.428129  1
  O  O20  1  0.248667  0.108823  0.293953  1
  O  O21  1  0.745553  0.892774  0.708047  1
  O  O22  1  0.248667  0.891177  0.706047  1
  O  O23  1  0.747912  0.393104  0.792296  1
  O  O24  1  0.745553  0.107226  0.291953  1
  O  O25  1  0.252131  0.607468  0.207703  1
  O  O26  1  0.747912  0.606896  0.207704  1
  O  O27  1  0.252131  0.392532  0.792297  1
  O  O28  1  0.500247  0.340517  0.057342  1
  O  O29  1  0.500247  0.659483  0.942658  1
  O  O30  1  0.496672  0.160406  0.557713  1
  O  O31  1  0.496672  0.839594  0.442287  1
