# generated using pymatgen
data_Ho3TmSc6(In2Rh)4
_symmetry_space_group_name_H-M   'P 1'
_cell_length_a   3.50029000
_cell_length_b   7.79722422
_cell_length_c   17.80449579
_cell_angle_alpha   90.06408733
_cell_angle_beta   90.00000000
_cell_angle_gamma   90.00000000
_symmetry_Int_Tables_number   1
_chemical_formula_structural   Ho3TmSc6(In2Rh)4
_chemical_formula_sum   'Ho3 Tm1 Sc6 In8 Rh4'
_cell_volume   485.92971557
_cell_formula_units_Z   1
loop_
 _symmetry_equiv_pos_site_id
 _symmetry_equiv_pos_as_xyz
  1  'x, y, z'
loop_
 _atom_site_type_symbol
 _atom_site_label
 _atom_site_symmetry_multiplicity
 _atom_site_fract_x
 _atom_site_fract_y
 _atom_site_fract_z
 _atom_site_occupancy
  Ho  Ho0  1  0.000000  0.746950  0.780089  1
  Ho  Ho1  1  0.000000  0.253163  0.219963  1
  Ho  Ho2  1  0.000000  0.246836  0.719962  1
  Tm  Tm3  1  0.000000  0.753325  0.279843  1
  Sc  Sc4  1  0.000000  0.999977  0.000076  1
  Sc  Sc5  1  0.000000  0.499974  0.499990  1
  Sc  Sc6  1  0.000000  0.878039  0.586089  1
  Sc  Sc7  1  0.000000  0.121741  0.413703  1
  Sc  Sc8  1  0.000000  0.378096  0.913900  1
  Sc  Sc9  1  0.000000  0.622135  0.086296  1
  In  In10  1  0.500000  0.798661  0.437614  1
  In  In11  1  0.500000  0.201160  0.561916  1
  In  In12  1  0.500000  0.299000  0.062014  1
  In  In13  1  0.500000  0.701113  0.938077  1
  In  In14  1  0.500000  0.928315  0.146136  1
  In  In15  1  0.500000  0.071255  0.854237  1
  In  In16  1  0.500000  0.429553  0.354016  1
  In  In17  1  0.500000  0.571192  0.645808  1
  Rh  Rh18  1  0.500000  0.961918  0.691442  1
  Rh  Rh19  1  0.500000  0.036337  0.308314  1
  Rh  Rh20  1  0.500000  0.461938  0.808591  1
  Rh  Rh21  1  0.500000  0.539319  0.191924  1
