# generated using pymatgen
data_CdGaP7Ru12
_symmetry_space_group_name_H-M   'P 1'
_cell_length_a   9.54532700
_cell_length_b   9.54532567
_cell_length_c   3.77479600
_cell_angle_alpha   90.00000000
_cell_angle_beta   90.00000000
_cell_angle_gamma   119.99999421
_symmetry_Int_Tables_number   1
_chemical_formula_structural   CdGaP7Ru12
_chemical_formula_sum   'Cd1 Ga1 P7 Ru12'
_cell_volume   297.85555524
_cell_formula_units_Z   1
loop_
 _symmetry_equiv_pos_site_id
 _symmetry_equiv_pos_as_xyz
  1  'x, y, z'
loop_
 _atom_site_type_symbol
 _atom_site_label
 _atom_site_symmetry_multiplicity
 _atom_site_fract_x
 _atom_site_fract_y
 _atom_site_fract_z
 _atom_site_occupancy
  Cd  Cd0  1  0.333333  0.666667  0.000000  1
  Ga  Ga1  1  0.666667  0.333333  0.500000  1
  P  P2  1  0.613651  0.694261  0.500000  1
  P  P3  1  0.000000  0.000000  0.000000  1
  P  P4  1  0.305739  0.919391  0.500000  1
  P  P5  1  0.080609  0.386349  0.500000  1
  P  P6  1  0.918408  0.614971  0.000000  1
  P  P7  1  0.385029  0.303436  0.000000  1
  P  P8  1  0.696564  0.081592  0.000000  1
  Ru  Ru9  1  0.539636  0.908223  0.500000  1
  Ru  Ru10  1  0.368587  0.460364  0.500000  1
  Ru  Ru11  1  0.867610  0.119192  0.500000  1
  Ru  Ru12  1  0.251582  0.132390  0.500000  1
  Ru  Ru13  1  0.880808  0.748418  0.500000  1
  Ru  Ru14  1  0.731245  0.855953  0.000000  1
  Ru  Ru15  1  0.144047  0.875291  0.000000  1
  Ru  Ru16  1  0.124709  0.268755  0.000000  1
  Ru  Ru17  1  0.469111  0.107461  0.000000  1
  Ru  Ru18  1  0.892539  0.361651  0.000000  1
  Ru  Ru19  1  0.638349  0.530889  0.000000  1
  Ru  Ru20  1  0.091777  0.631413  0.500000  1
