# generated using pymatgen
data_Pa2Al2CuMo
_symmetry_space_group_name_H-M   'P 1'
_cell_length_a   5.15131716
_cell_length_b   5.57970000
_cell_length_c   5.15131654
_cell_angle_alpha   62.44658886
_cell_angle_beta   63.07554692
_cell_angle_gamma   62.44660862
_symmetry_Int_Tables_number   1
_chemical_formula_structural   Pa2Al2CuMo
_chemical_formula_sum   'Pa2 Al2 Cu1 Mo1'
_cell_volume   110.87852230
_cell_formula_units_Z   1
loop_
 _symmetry_equiv_pos_site_id
 _symmetry_equiv_pos_as_xyz
  1  'x, y, z'
loop_
 _atom_site_type_symbol
 _atom_site_label
 _atom_site_symmetry_multiplicity
 _atom_site_fract_x
 _atom_site_fract_y
 _atom_site_fract_z
 _atom_site_occupancy
  Pa  Pa0  1  0.637161  0.582363  0.637161  1
  Pa  Pa1  1  0.362839  0.417637  0.362839  1
  Al  Al2  1  0.500000  0.000000  0.000000  1
  Al  Al3  1  0.000000  0.000000  0.500000  1
  Cu  Cu4  1  0.000000  0.000000  0.000000  1
  Mo  Mo5  1  0.000000  0.500000  0.000000  1
