# generated using pymatgen
data_NdHo3Si6IrRh
_symmetry_space_group_name_H-M   'P 1'
_cell_length_a   8.19005000
_cell_length_b   8.19004969
_cell_length_c   7.99721700
_cell_angle_alpha   90.00000000
_cell_angle_beta   90.00000000
_cell_angle_gamma   120.00000125
_symmetry_Int_Tables_number   1
_chemical_formula_structural   NdHo3Si6IrRh
_chemical_formula_sum   'Nd2 Ho6 Si12 Ir2 Rh2'
_cell_volume   464.56083810
_cell_formula_units_Z   2
loop_
 _symmetry_equiv_pos_site_id
 _symmetry_equiv_pos_as_xyz
  1  'x, y, z'
loop_
 _atom_site_type_symbol
 _atom_site_label
 _atom_site_symmetry_multiplicity
 _atom_site_fract_x
 _atom_site_fract_y
 _atom_site_fract_z
 _atom_site_occupancy
  Nd  Nd0  1  0.000000  0.000000  0.248816  1
  Nd  Nd1  1  0.000000  0.000000  0.751184  1
  Ho  Ho2  1  0.508873  0.491127  0.250481  1
  Ho  Ho3  1  0.508873  0.017747  0.250481  1
  Ho  Ho4  1  0.982253  0.491127  0.250481  1
  Ho  Ho5  1  0.491127  0.508873  0.749519  1
  Ho  Ho6  1  0.491127  0.982253  0.749519  1
  Ho  Ho7  1  0.017747  0.508873  0.749519  1
  Si  Si8  1  0.168096  0.831904  0.500717  1
  Si  Si9  1  0.168096  0.336191  0.500717  1
  Si  Si10  1  0.663809  0.831904  0.500717  1
  Si  Si11  1  0.831904  0.168096  0.499283  1
  Si  Si12  1  0.831904  0.663809  0.499283  1
  Si  Si13  1  0.336191  0.168096  0.499283  1
  Si  Si14  1  0.831521  0.168479  0.001631  1
  Si  Si15  1  0.831521  0.663044  0.001631  1
  Si  Si16  1  0.336956  0.168479  0.001631  1
  Si  Si17  1  0.168479  0.831521  0.998369  1
  Si  Si18  1  0.168479  0.336956  0.998369  1
  Si  Si19  1  0.663044  0.831521  0.998369  1
  Ir  Ir20  1  0.333333  0.666667  0.467249  1
  Ir  Ir21  1  0.666667  0.333333  0.532751  1
  Rh  Rh22  1  0.666667  0.333333  0.962644  1
  Rh  Rh23  1  0.333333  0.666667  0.037356  1
