# generated using pymatgen
data_Li2TbY3(ScSi2)4
_symmetry_space_group_name_H-M   'P 1'
_cell_length_a   6.90774406
_cell_length_b   7.40615313
_cell_length_c   14.08485618
_cell_angle_alpha   90.01700847
_cell_angle_beta   89.99366165
_cell_angle_gamma   90.01333009
_symmetry_Int_Tables_number   1
_chemical_formula_structural   Li2TbY3(ScSi2)4
_chemical_formula_sum   'Li4 Tb2 Y6 Sc8 Si16'
_cell_volume   720.57851421
_cell_formula_units_Z   2
loop_
 _symmetry_equiv_pos_site_id
 _symmetry_equiv_pos_as_xyz
  1  'x, y, z'
loop_
 _atom_site_type_symbol
 _atom_site_label
 _atom_site_symmetry_multiplicity
 _atom_site_fract_x
 _atom_site_fract_y
 _atom_site_fract_z
 _atom_site_occupancy
  Li  Li0  1  0.159193  0.504410  0.750012  1
  Li  Li1  1  0.840807  0.495590  0.249988  1
  Li  Li2  1  0.340762  0.004411  0.249991  1
  Li  Li3  1  0.659238  0.995589  0.750009  1
  Tb  Tb4  1  0.514056  0.318646  0.400457  1
  Tb  Tb5  1  0.485944  0.681354  0.599543  1
  Y  Y6  1  0.014050  0.181348  0.099539  1
  Y  Y7  1  0.985950  0.818652  0.900461  1
  Y  Y8  1  0.485949  0.681353  0.900428  1
  Y  Y9  1  0.985943  0.818641  0.599537  1
  Y  Y10  1  0.514051  0.318647  0.099572  1
  Y  Y11  1  0.014057  0.181359  0.400463  1
  Sc  Sc12  1  0.330342  0.179252  0.626300  1
  Sc  Sc13  1  0.669658  0.820748  0.373700  1
  Sc  Sc14  1  0.169592  0.679292  0.373703  1
  Sc  Sc15  1  0.669644  0.820705  0.126294  1
  Sc  Sc16  1  0.830408  0.320708  0.626297  1
  Sc  Sc17  1  0.330356  0.179295  0.873706  1
  Sc  Sc18  1  0.830369  0.320703  0.873716  1
  Sc  Sc19  1  0.169631  0.679297  0.126284  1
  Si  Si20  1  0.032259  0.105711  0.750020  1
  Si  Si21  1  0.967741  0.894289  0.249980  1
  Si  Si22  1  0.467702  0.605728  0.249964  1
  Si  Si23  1  0.532298  0.394272  0.750036  1
  Si  Si24  1  0.282203  0.883038  0.749996  1
  Si  Si25  1  0.717797  0.116962  0.250004  1
  Si  Si26  1  0.217759  0.383087  0.249957  1
  Si  Si27  1  0.782241  0.616913  0.750043  1
  Si  Si28  1  0.157371  0.462958  0.535254  1
  Si  Si29  1  0.842629  0.537042  0.464746  1
  Si  Si30  1  0.342556  0.962999  0.464725  1
  Si  Si31  1  0.842554  0.537017  0.035283  1
  Si  Si32  1  0.657444  0.037001  0.535275  1
  Si  Si33  1  0.157446  0.462983  0.964717  1
  Si  Si34  1  0.657452  0.037039  0.964721  1
  Si  Si35  1  0.342548  0.962961  0.035279  1
