# generated using pymatgen
data_Be8Co4Cu3Ni
_symmetry_space_group_name_H-M   'P 1'
_cell_length_a   5.18811600
_cell_length_b   5.18836800
_cell_length_c   5.34682500
_cell_angle_alpha   89.99989121
_cell_angle_beta   90.00006528
_cell_angle_gamma   90.00019878
_symmetry_Int_Tables_number   1
_chemical_formula_structural   Be8Co4Cu3Ni
_chemical_formula_sum   'Be8 Co4 Cu3 Ni1'
_cell_volume   143.92506025
_cell_formula_units_Z   1
loop_
 _symmetry_equiv_pos_site_id
 _symmetry_equiv_pos_as_xyz
  1  'x, y, z'
loop_
 _atom_site_type_symbol
 _atom_site_label
 _atom_site_symmetry_multiplicity
 _atom_site_fract_x
 _atom_site_fract_y
 _atom_site_fract_z
 _atom_site_occupancy
  Be  Be0  1  0.995590  0.504485  0.254483  1
  Be  Be1  1  0.995589  0.995507  0.254486  1
  Be  Be2  1  0.504428  0.504504  0.255042  1
  Be  Be3  1  0.504428  0.995500  0.255043  1
  Be  Be4  1  0.504419  0.504494  0.744962  1
  Be  Be5  1  0.504415  0.995503  0.744959  1
  Be  Be6  1  0.995603  0.504490  0.745514  1
  Be  Be7  1  0.995599  0.995511  0.745511  1
  Co  Co8  1  0.749868  0.250000  0.000005  1
  Co  Co9  1  0.250130  0.750000  0.999997  1
  Co  Co10  1  0.249861  0.749999  0.500001  1
  Co  Co11  1  0.750156  0.250000  0.499999  1
  Cu  Cu12  1  0.250189  0.250000  0.999998  1
  Cu  Cu13  1  0.749816  0.749999  0.000003  1
  Cu  Cu14  1  0.249805  0.250000  0.500010  1
  Ni  Ni15  1  0.750095  0.750000  0.499986  1
