# generated using pymatgen
data_YbHoAl3Ir
_symmetry_space_group_name_H-M   'P 1'
_cell_length_a   5.52411400
_cell_length_b   5.52411308
_cell_length_c   8.67007100
_cell_angle_alpha   90.00000000
_cell_angle_beta   90.00000000
_cell_angle_gamma   120.00000548
_symmetry_Int_Tables_number   1
_chemical_formula_structural   YbHoAl3Ir
_chemical_formula_sum   'Yb2 Ho2 Al6 Ir2'
_cell_volume   229.12815315
_cell_formula_units_Z   2
loop_
 _symmetry_equiv_pos_site_id
 _symmetry_equiv_pos_as_xyz
  1  'x, y, z'
loop_
 _atom_site_type_symbol
 _atom_site_label
 _atom_site_symmetry_multiplicity
 _atom_site_fract_x
 _atom_site_fract_y
 _atom_site_fract_z
 _atom_site_occupancy
  Yb  Yb0  1  0.666667  0.333334  0.055578  1
  Yb  Yb1  1  0.666667  0.333334  0.444422  1
  Ho  Ho2  1  0.333334  0.666668  0.552746  1
  Ho  Ho3  1  0.333334  0.666668  0.947254  1
  Al  Al4  1  0.162756  0.325512  0.250000  1
  Al  Al5  1  0.162757  0.837244  0.250000  1
  Al  Al6  1  0.674488  0.837244  0.250000  1
  Al  Al7  1  0.324270  0.162136  0.750000  1
  Al  Al8  1  0.837865  0.162136  0.750000  1
  Al  Al9  1  0.837864  0.675730  0.750000  1
  Ir  Ir10  1  0.000000  0.000000  0.999989  1
  Ir  Ir11  1  0.000000  0.000000  0.500011  1
