# generated using pymatgen
data_LuPaTeN2
_symmetry_space_group_name_H-M   'P 1'
_cell_length_a   6.79915120
_cell_length_b   6.79915213
_cell_length_c   6.79915286
_cell_angle_alpha   146.08238130
_cell_angle_beta   146.08241311
_cell_angle_gamma   48.72439128
_symmetry_Int_Tables_number   1
_chemical_formula_structural   LuPaTeN2
_chemical_formula_sum   'Lu1 Pa1 Te1 N2'
_cell_volume   97.44215418
_cell_formula_units_Z   1
loop_
 _symmetry_equiv_pos_site_id
 _symmetry_equiv_pos_as_xyz
  1  'x, y, z'
loop_
 _atom_site_type_symbol
 _atom_site_label
 _atom_site_symmetry_multiplicity
 _atom_site_fract_x
 _atom_site_fract_y
 _atom_site_fract_z
 _atom_site_occupancy
  Lu  Lu0  1  0.334264  0.334264  0.000000  1
  Pa  Pa1  1  0.669904  0.669904  0.000000  1
  Te  Te2  1  0.001820  0.001820  0.000000  1
  N  N3  1  0.747006  0.247006  0.500000  1
  N  N4  1  0.247006  0.747006  0.500000  1
