# generated using pymatgen
data_U4AlRe5Si6Os
_symmetry_space_group_name_H-M   'P 1'
_cell_length_a   7.14651954
_cell_length_b   7.14538876
_cell_length_c   7.14652000
_cell_angle_alpha   109.18687330
_cell_angle_beta   108.75794678
_cell_angle_gamma   110.48036376
_symmetry_Int_Tables_number   1
_chemical_formula_structural   U4AlRe5Si6Os
_chemical_formula_sum   'U4 Al1 Re5 Si6 Os1'
_cell_volume   280.83509032
_cell_formula_units_Z   1
loop_
 _symmetry_equiv_pos_site_id
 _symmetry_equiv_pos_as_xyz
  1  'x, y, z'
loop_
 _atom_site_type_symbol
 _atom_site_label
 _atom_site_symmetry_multiplicity
 _atom_site_fract_x
 _atom_site_fract_y
 _atom_site_fract_z
 _atom_site_occupancy
  U  U0  1  0.494667  0.506858  0.498683  1
  U  U1  1  0.002898  0.993504  0.499431  1
  U  U2  1  0.494073  0.993504  0.990607  1
  U  U3  1  0.008174  0.506858  0.012189  1
  Al  Al4  1  0.749718  0.249932  0.500213  1
  Re  Re5  1  0.504566  0.757603  0.253037  1
  Re  Re6  1  0.243188  0.495279  0.746516  1
  Re  Re7  1  0.748763  0.495279  0.252090  1
  Re  Re8  1  0.249871  0.750778  0.500907  1
  Re  Re9  1  0.000156  0.999892  0.999736  1
  Si  Si10  1  0.313564  0.312737  0.999172  1
  Si  Si11  1  0.998454  0.303833  0.305379  1
  Si  Si12  1  0.998159  0.692460  0.694301  1
  Si  Si13  1  0.695866  0.002982  0.695458  1
  Si  Si14  1  0.307524  0.002982  0.307115  1
  Si  Si15  1  0.686346  0.684538  0.998192  1
  Os  Os16  1  0.504013  0.250989  0.746974  1
