# generated using pymatgen
data_Ba3US6
_symmetry_space_group_name_H-M   'P 1'
_cell_length_a   7.88285000
_cell_length_b   7.40520759
_cell_length_c   12.88091601
_cell_angle_alpha   55.55392700
_cell_angle_beta   90.00000000
_cell_angle_gamma   90.00000000
_symmetry_Int_Tables_number   1
_chemical_formula_structural   Ba3US6
_chemical_formula_sum   'Ba6 U2 S12'
_cell_volume   620.07127536
_cell_formula_units_Z   2
loop_
 _symmetry_equiv_pos_site_id
 _symmetry_equiv_pos_as_xyz
  1  'x, y, z'
loop_
 _atom_site_type_symbol
 _atom_site_label
 _atom_site_symmetry_multiplicity
 _atom_site_fract_x
 _atom_site_fract_y
 _atom_site_fract_z
 _atom_site_occupancy
  Ba  Ba0  1  0.500000  0.500000  0.000000  1
  Ba  Ba1  1  0.000000  0.500000  0.500000  1
  Ba  Ba2  1  0.064851  0.281396  0.241719  1
  Ba  Ba3  1  0.564851  0.718604  0.258281  1
  Ba  Ba4  1  0.435149  0.281396  0.741719  1
  Ba  Ba5  1  0.935149  0.718604  0.758281  1
  U  U6  1  0.500000  0.000000  0.500000  1
  U  U7  1  0.000000  0.000000  0.000000  1
  S  S8  1  0.232096  0.754257  0.575326  1
  S  S9  1  0.732096  0.245743  0.924674  1
  S  S10  1  0.323480  0.326535  0.452008  1
  S  S11  1  0.823480  0.673465  0.047992  1
  S  S12  1  0.056313  0.106328  0.776325  1
  S  S13  1  0.556313  0.893672  0.723675  1
  S  S14  1  0.267904  0.754257  0.075326  1
  S  S15  1  0.767904  0.245743  0.424674  1
  S  S16  1  0.943687  0.893672  0.223675  1
  S  S17  1  0.443687  0.106328  0.276325  1
  S  S18  1  0.676520  0.673465  0.547992  1
  S  S19  1  0.176520  0.326535  0.952008  1
