# generated using pymatgen
data_DyHo7(ReB6)4
_symmetry_space_group_name_H-M   'P 1'
_cell_length_a   3.67500300
_cell_length_b   9.16064500
_cell_length_c   11.53981500
_cell_angle_alpha   89.99866048
_cell_angle_beta   90.00000000
_cell_angle_gamma   90.00000000
_symmetry_Int_Tables_number   1
_chemical_formula_structural   DyHo7(ReB6)4
_chemical_formula_sum   'Dy1 Ho7 Re4 B24'
_cell_volume   388.49246312
_cell_formula_units_Z   1
loop_
 _symmetry_equiv_pos_site_id
 _symmetry_equiv_pos_as_xyz
  1  'x, y, z'
loop_
 _atom_site_type_symbol
 _atom_site_label
 _atom_site_symmetry_multiplicity
 _atom_site_fract_x
 _atom_site_fract_y
 _atom_site_fract_z
 _atom_site_occupancy
  Dy  Dy0  1  0.000000  0.323582  0.413769  1
  Ho  Ho1  1  0.000000  0.676349  0.586249  1
  Ho  Ho2  1  0.000000  0.823668  0.086185  1
  Ho  Ho3  1  0.000000  0.176322  0.913780  1
  Ho  Ho4  1  0.000000  0.943304  0.370060  1
  Ho  Ho5  1  0.000000  0.056598  0.629993  1
  Ho  Ho6  1  0.000000  0.443366  0.129856  1
  Ho  Ho7  1  0.000000  0.556690  0.870111  1
  Re  Re8  1  0.000000  0.639177  0.320690  1
  Re  Re9  1  0.000000  0.361028  0.679441  1
  Re  Re10  1  0.000000  0.138829  0.179034  1
  Re  Re11  1  0.000000  0.861003  0.820804  1
  B  B12  1  0.500000  0.553550  0.433001  1
  B  B13  1  0.500000  0.446700  0.567141  1
  B  B14  1  0.500000  0.053337  0.066943  1
  B  B15  1  0.500000  0.946624  0.933013  1
  B  B16  1  0.500000  0.749388  0.418922  1
  B  B17  1  0.500000  0.250631  0.581325  1
  B  B18  1  0.500000  0.249340  0.081039  1
  B  B19  1  0.500000  0.750675  0.918902  1
  B  B20  1  0.500000  0.792495  0.265606  1
  B  B21  1  0.500000  0.207508  0.734440  1
  B  B22  1  0.500000  0.292385  0.234208  1
  B  B23  1  0.500000  0.707538  0.765635  1
  B  B24  1  0.500000  0.631255  0.185528  1
  B  B25  1  0.500000  0.368808  0.814464  1
  B  B26  1  0.500000  0.131058  0.314289  1
  B  B27  1  0.500000  0.868785  0.685588  1
  B  B28  1  0.500000  0.982417  0.211951  1
  B  B29  1  0.500000  0.017520  0.788036  1
  B  B30  1  0.500000  0.482681  0.287904  1
  B  B31  1  0.500000  0.517582  0.712035  1
  B  B32  1  0.500000  0.600299  0.028041  1
  B  B33  1  0.500000  0.399740  0.971930  1
  B  B34  1  0.500000  0.100022  0.472023  1
  B  B35  1  0.500000  0.899746  0.528064  1
