# generated using pymatgen
data_Sm3TmCo16(P3Ru)4
_symmetry_space_group_name_H-M   'P 1'
_cell_length_a   3.71394300
_cell_length_b   10.44097440
_cell_length_c   11.81875259
_cell_angle_alpha   90.05944958
_cell_angle_beta   90.00000000
_cell_angle_gamma   90.00000000
_symmetry_Int_Tables_number   1
_chemical_formula_structural   Sm3TmCo16(P3Ru)4
_chemical_formula_sum   'Sm3 Tm1 Co16 P12 Ru4'
_cell_volume   458.29769485
_cell_formula_units_Z   1
loop_
 _symmetry_equiv_pos_site_id
 _symmetry_equiv_pos_as_xyz
  1  'x, y, z'
loop_
 _atom_site_type_symbol
 _atom_site_label
 _atom_site_symmetry_multiplicity
 _atom_site_fract_x
 _atom_site_fract_y
 _atom_site_fract_z
 _atom_site_occupancy
  Sm  Sm0  1  0.250000  0.586334  0.704176  1
  Sm  Sm1  1  0.250000  0.914094  0.204059  1
  Sm  Sm2  1  0.750000  0.413618  0.295783  1
  Tm  Tm3  1  0.750000  0.085751  0.796467  1
  Co  Co4  1  0.250000  0.408032  0.491118  1
  Co  Co5  1  0.250000  0.092330  0.987200  1
  Co  Co6  1  0.750000  0.591759  0.509156  1
  Co  Co7  1  0.750000  0.909697  0.008155  1
  Co  Co8  1  0.250000  0.220024  0.175606  1
  Co  Co9  1  0.250000  0.276860  0.677311  1
  Co  Co10  1  0.750000  0.780171  0.823333  1
  Co  Co11  1  0.750000  0.721018  0.323812  1
  Co  Co12  1  0.250000  0.889206  0.703329  1
  Co  Co13  1  0.250000  0.613711  0.201469  1
  Co  Co14  1  0.750000  0.113533  0.298470  1
  Co  Co15  1  0.750000  0.384693  0.797693  1
  Co  Co16  1  0.250000  0.463636  0.930439  1
  Co  Co17  1  0.250000  0.034914  0.433018  1
  Co  Co18  1  0.750000  0.534283  0.068379  1
  Co  Co19  1  0.750000  0.966729  0.571250  1
  P  P20  1  0.250000  0.419381  0.110235  1
  P  P21  1  0.250000  0.080341  0.613883  1
  P  P22  1  0.750000  0.580035  0.889144  1
  P  P23  1  0.750000  0.920063  0.390545  1
  P  P24  1  0.250000  0.270155  0.866200  1
  P  P25  1  0.250000  0.225836  0.367426  1
  P  P26  1  0.750000  0.726090  0.132329  1
  P  P27  1  0.750000  0.774139  0.632667  1
  P  P28  1  0.250000  0.597882  0.390949  1
  P  P29  1  0.250000  0.905113  0.889857  1
  P  P30  1  0.750000  0.402460  0.609072  1
  P  P31  1  0.750000  0.097817  0.109053  1
  Ru  Ru32  1  0.250000  0.716817  0.990791  1
  Ru  Ru33  1  0.250000  0.784519  0.492483  1
  Ru  Ru34  1  0.750000  0.283124  0.006877  1
  Ru  Ru35  1  0.750000  0.215835  0.508265  1
