# generated using pymatgen
data_Cs4Ba(VTe4)2
_symmetry_space_group_name_H-M   'P 1'
_cell_length_a   13.22575258
_cell_length_b   13.22575400
_cell_length_c   13.22575332
_cell_angle_alpha   132.43963199
_cell_angle_beta   127.60803107
_cell_angle_gamma   73.43701299
_symmetry_Int_Tables_number   1
_chemical_formula_structural   Cs4Ba(VTe4)2
_chemical_formula_sum   'Cs8 Ba2 V4 Te16'
_cell_volume   1320.37011851
_cell_formula_units_Z   2
loop_
 _symmetry_equiv_pos_site_id
 _symmetry_equiv_pos_as_xyz
  1  'x, y, z'
loop_
 _atom_site_type_symbol
 _atom_site_label
 _atom_site_symmetry_multiplicity
 _atom_site_fract_x
 _atom_site_fract_y
 _atom_site_fract_z
 _atom_site_occupancy
  Cs  Cs0  1  0.496722  0.246722  0.250000  1
  Cs  Cs1  1  0.003278  0.753278  0.250000  1
  Cs  Cs2  1  0.577791  0.699228  0.121437  1
  Cs  Cs3  1  0.422209  0.300772  0.878563  1
  Cs  Cs4  1  0.503278  0.753278  0.750000  1
  Cs  Cs5  1  0.077791  0.456355  0.378563  1
  Cs  Cs6  1  0.922209  0.543645  0.621437  1
  Cs  Cs7  1  0.996722  0.246722  0.750000  1
  Ba  Ba8  1  0.250000  0.000000  0.250000  1
  Ba  Ba9  1  0.750000  0.000000  0.750000  1
  V  V10  1  0.127459  0.927210  0.799751  1
  V  V11  1  0.872541  0.072790  0.200249  1
  V  V12  1  0.372541  0.672291  0.299751  1
  V  V13  1  0.627459  0.327709  0.700249  1
  Te  Te14  1  0.596368  0.624215  0.381273  1
  Te  Te15  1  0.756118  0.996762  0.240645  1
  Te  Te16  1  0.895508  0.864392  0.968884  1
  Te  Te17  1  0.757058  0.375785  0.972153  1
  Te  Te18  1  0.742942  0.215095  0.118727  1
  Te  Te19  1  0.743882  0.484526  0.740645  1
  Te  Te20  1  0.243882  0.003238  0.759355  1
  Te  Te21  1  0.242942  0.624215  0.027847  1
  Te  Te22  1  0.256118  0.515474  0.259355  1
  Te  Te23  1  0.257058  0.784905  0.881273  1
  Te  Te24  1  0.104492  0.135608  0.031116  1
  Te  Te25  1  0.903632  0.784905  0.527847  1
  Te  Te26  1  0.096368  0.215095  0.472153  1
  Te  Te27  1  0.604492  0.073374  0.468884  1
  Te  Te28  1  0.403632  0.375785  0.618727  1
  Te  Te29  1  0.395508  0.926626  0.531116  1
