# generated using pymatgen
data_NaCoNi4P3
_symmetry_space_group_name_H-M   'P 1'
_cell_length_a   3.63944300
_cell_length_b   10.28544600
_cell_length_c   11.80643100
_cell_angle_alpha   90.00000000
_cell_angle_beta   90.00000000
_cell_angle_gamma   90.00000000
_symmetry_Int_Tables_number   1
_chemical_formula_structural   NaCoNi4P3
_chemical_formula_sum   'Na4 Co4 Ni16 P12'
_cell_volume   441.95360799
_cell_formula_units_Z   4
loop_
 _symmetry_equiv_pos_site_id
 _symmetry_equiv_pos_as_xyz
  1  'x, y, z'
loop_
 _atom_site_type_symbol
 _atom_site_label
 _atom_site_symmetry_multiplicity
 _atom_site_fract_x
 _atom_site_fract_y
 _atom_site_fract_z
 _atom_site_occupancy
  Na  Na0  1  0.250000  0.582484  0.705800  1
  Na  Na1  1  0.250000  0.917516  0.205800  1
  Na  Na2  1  0.750000  0.417516  0.294200  1
  Na  Na3  1  0.750000  0.082484  0.794200  1
  Co  Co4  1  0.250000  0.465530  0.931826  1
  Co  Co5  1  0.250000  0.034470  0.431826  1
  Co  Co6  1  0.750000  0.534470  0.068174  1
  Co  Co7  1  0.750000  0.965530  0.568174  1
  Ni  Ni8  1  0.250000  0.712350  0.989403  1
  Ni  Ni9  1  0.250000  0.787650  0.489403  1
  Ni  Ni10  1  0.750000  0.287650  0.010597  1
  Ni  Ni11  1  0.750000  0.212350  0.510597  1
  Ni  Ni12  1  0.250000  0.406945  0.486635  1
  Ni  Ni13  1  0.250000  0.093055  0.986635  1
  Ni  Ni14  1  0.750000  0.593055  0.513365  1
  Ni  Ni15  1  0.750000  0.906945  0.013365  1
  Ni  Ni16  1  0.250000  0.220312  0.177014  1
  Ni  Ni17  1  0.250000  0.279688  0.677014  1
  Ni  Ni18  1  0.750000  0.779688  0.822986  1
  Ni  Ni19  1  0.750000  0.720312  0.322986  1
  Ni  Ni20  1  0.250000  0.880533  0.699293  1
  Ni  Ni21  1  0.250000  0.619467  0.199293  1
  Ni  Ni22  1  0.750000  0.119467  0.300707  1
  Ni  Ni23  1  0.750000  0.380533  0.800707  1
  P  P24  1  0.250000  0.420295  0.112116  1
  P  P25  1  0.250000  0.079705  0.612116  1
  P  P26  1  0.750000  0.579705  0.887884  1
  P  P27  1  0.750000  0.920295  0.387884  1
  P  P28  1  0.250000  0.266557  0.869559  1
  P  P29  1  0.250000  0.233443  0.369559  1
  P  P30  1  0.750000  0.733443  0.130441  1
  P  P31  1  0.750000  0.766557  0.630441  1
  P  P32  1  0.250000  0.599603  0.391413  1
  P  P33  1  0.250000  0.900397  0.891413  1
  P  P34  1  0.750000  0.400397  0.608587  1
  P  P35  1  0.750000  0.099603  0.108587  1
