# generated using pymatgen
data_NaTb5NdRhI12
_symmetry_space_group_name_H-M   'P 1'
_cell_length_a   9.92736599
_cell_length_b   9.82977776
_cell_length_c   9.83449042
_cell_angle_alpha   106.40202871
_cell_angle_beta   107.11521035
_cell_angle_gamma   107.29738199
_symmetry_Int_Tables_number   1
_chemical_formula_structural   NaTb5NdRhI12
_chemical_formula_sum   'Na1 Tb5 Nd1 Rh1 I12'
_cell_volume   800.53768880
_cell_formula_units_Z   1
loop_
 _symmetry_equiv_pos_site_id
 _symmetry_equiv_pos_as_xyz
  1  'x, y, z'
loop_
 _atom_site_type_symbol
 _atom_site_label
 _atom_site_symmetry_multiplicity
 _atom_site_fract_x
 _atom_site_fract_y
 _atom_site_fract_z
 _atom_site_occupancy
  Na  Na0  1  0.500156  0.499940  0.500283  1
  Tb  Tb1  1  0.974725  0.699853  0.902054  1
  Tb  Tb2  1  0.690038  0.899816  0.970809  1
  Tb  Tb3  1  0.098178  0.027206  0.297332  1
  Tb  Tb4  1  0.025966  0.300872  0.101044  1
  Tb  Tb5  1  0.309896  0.100267  0.028493  1
  Nd  Nd6  1  0.900349  0.972765  0.694901  1
  Rh  Rh7  1  0.999962  0.000578  0.999339  1
  I  I8  1  0.542316  0.853978  0.627484  1
  I  I9  1  0.856758  0.621090  0.549641  1
  I  I10  1  0.631781  0.552634  0.860010  1
  I  I11  1  0.448928  0.141808  0.372145  1
  I  I12  1  0.142889  0.370130  0.450605  1
  I  I13  1  0.368134  0.447771  0.140866  1
  I  I14  1  0.681009  0.225571  0.075314  1
  I  I15  1  0.231342  0.077426  0.682160  1
  I  I16  1  0.074909  0.682254  0.225206  1
  I  I17  1  0.319491  0.775237  0.926406  1
  I  I18  1  0.775972  0.923866  0.314423  1
  I  I19  1  0.927201  0.326940  0.781486  1
