# generated using pymatgen
data_TmLu(Re2Si)4
_symmetry_space_group_name_H-M   'P 1'
_cell_length_a   7.37942908
_cell_length_b   7.37942871
_cell_length_c   4.12755700
_cell_angle_alpha   90.00000000
_cell_angle_beta   90.00000000
_cell_angle_gamma   90.43844706
_symmetry_Int_Tables_number   1
_chemical_formula_structural   TmLu(Re2Si)4
_chemical_formula_sum   'Tm1 Lu1 Re8 Si4'
_cell_volume   224.76354264
_cell_formula_units_Z   1
loop_
 _symmetry_equiv_pos_site_id
 _symmetry_equiv_pos_as_xyz
  1  'x, y, z'
loop_
 _atom_site_type_symbol
 _atom_site_label
 _atom_site_symmetry_multiplicity
 _atom_site_fract_x
 _atom_site_fract_y
 _atom_site_fract_z
 _atom_site_occupancy
  Tm  Tm0  1  0.000000  0.000000  0.500000  1
  Lu  Lu1  1  0.500000  0.500000  0.000000  1
  Re  Re2  1  0.657578  0.903935  0.000000  1
  Re  Re3  1  0.160026  0.592338  0.500000  1
  Re  Re4  1  0.096065  0.342422  0.000000  1
  Re  Re5  1  0.903935  0.657578  0.000000  1
  Re  Re6  1  0.407662  0.839974  0.500000  1
  Re  Re7  1  0.592338  0.160026  0.500000  1
  Re  Re8  1  0.342422  0.096065  0.000000  1
  Re  Re9  1  0.839974  0.407662  0.500000  1
  Si  Si10  1  0.209116  0.790884  0.000000  1
  Si  Si11  1  0.790884  0.209116  0.000000  1
  Si  Si12  1  0.707227  0.707227  0.500000  1
  Si  Si13  1  0.292773  0.292773  0.500000  1
