# generated using pymatgen
data_YbCl37
_symmetry_space_group_name_H-M   'P 1'
_cell_length_a   12.78763379
_cell_length_b   13.76759013
_cell_length_c   12.98174600
_cell_angle_alpha   103.00376751
_cell_angle_beta   48.80056927
_cell_angle_gamma   81.50743368
_symmetry_Int_Tables_number   1
_chemical_formula_structural   YbCl37
_chemical_formula_sum   'Yb1 Cl37'
_cell_volume   1533.02354663
_cell_formula_units_Z   1
loop_
 _symmetry_equiv_pos_site_id
 _symmetry_equiv_pos_as_xyz
  1  'x, y, z'
loop_
 _atom_site_type_symbol
 _atom_site_label
 _atom_site_symmetry_multiplicity
 _atom_site_fract_x
 _atom_site_fract_y
 _atom_site_fract_z
 _atom_site_occupancy
  Yb  Yb0  1  0.500000  0.000000  0.000000  1
  Cl  Cl1  1  0.776952  0.312571  0.168031  1
  Cl  Cl2  1  0.223048  0.687429  0.831969  1
  Cl  Cl3  1  0.721488  0.076167  0.364562  1
  Cl  Cl4  1  0.278512  0.923833  0.635438  1
  Cl  Cl5  1  0.098105  0.322726  0.151506  1
  Cl  Cl6  1  0.901895  0.677274  0.848494  1
  Cl  Cl7  1  0.864189  0.542179  0.249781  1
  Cl  Cl8  1  0.135811  0.457821  0.750219  1
  Cl  Cl9  1  0.680990  0.288381  0.536890  1
  Cl  Cl10  1  0.319010  0.711619  0.463110  1
  Cl  Cl11  1  0.049692  0.140718  0.484873  1
  Cl  Cl12  1  0.950308  0.859282  0.515127  1
  Cl  Cl13  1  0.991221  0.002980  0.273553  1
  Cl  Cl14  1  0.008779  0.997020  0.726447  1
  Cl  Cl15  1  0.947519  0.367947  0.626805  1
  Cl  Cl16  1  0.052481  0.632053  0.373195  1
  Cl  Cl17  1  0.586042  0.417221  0.243431  1
  Cl  Cl18  1  0.413958  0.582779  0.756569  1
  Cl  Cl19  1  0.175501  0.467301  0.263712  1
  Cl  Cl20  1  0.824499  0.532699  0.736288  1
  Cl  Cl21  1  0.000000  0.500000  0.000000  1
  Cl  Cl22  1  0.568788  0.949426  0.140066  1
  Cl  Cl23  1  0.431212  0.050574  0.859934  1
  Cl  Cl24  1  0.291866  0.048790  0.323857  1
  Cl  Cl25  1  0.708134  0.951210  0.676143  1
  Cl  Cl26  1  0.529615  0.114766  0.409413  1
  Cl  Cl27  1  0.470385  0.885234  0.590587  1
  Cl  Cl28  1  0.071466  0.201416  0.060946  1
  Cl  Cl29  1  0.928534  0.798584  0.939054  1
  Cl  Cl30  1  0.679605  0.695211  0.393181  1
  Cl  Cl31  1  0.320395  0.304789  0.606819  1
  Cl  Cl32  1  0.906033  0.132725  0.914235  1
  Cl  Cl33  1  0.093967  0.867275  0.085765  1
  Cl  Cl34  1  0.452170  0.208846  0.082428  1
  Cl  Cl35  1  0.547830  0.791154  0.917572  1
  Cl  Cl36  1  0.668811  0.425722  0.646008  1
  Cl  Cl37  1  0.331189  0.574278  0.353992  1
