# generated using pymatgen
data_Rb4Dy4Bi7SbSe20
_symmetry_space_group_name_H-M   'P 1'
_cell_length_a   4.16608300
_cell_length_b   12.41752016
_cell_length_c   22.36576406
_cell_angle_alpha   89.88594218
_cell_angle_beta   90.00000000
_cell_angle_gamma   90.00000000
_symmetry_Int_Tables_number   1
_chemical_formula_structural   Rb4Dy4Bi7SbSe20
_chemical_formula_sum   'Rb4 Dy4 Bi7 Sb1 Se20'
_cell_volume   1157.03279952
_cell_formula_units_Z   1
loop_
 _symmetry_equiv_pos_site_id
 _symmetry_equiv_pos_as_xyz
  1  'x, y, z'
loop_
 _atom_site_type_symbol
 _atom_site_label
 _atom_site_symmetry_multiplicity
 _atom_site_fract_x
 _atom_site_fract_y
 _atom_site_fract_z
 _atom_site_occupancy
  Rb  Rb0  1  0.250000  0.488981  0.210324  1
  Rb  Rb1  1  0.750000  0.510848  0.789581  1
  Rb  Rb2  1  0.750000  0.989492  0.289315  1
  Rb  Rb3  1  0.250000  0.010726  0.711071  1
  Dy  Dy4  1  0.250000  0.365088  0.024214  1
  Dy  Dy5  1  0.750000  0.636590  0.976827  1
  Dy  Dy6  1  0.750000  0.863724  0.476043  1
  Dy  Dy7  1  0.250000  0.136384  0.523959  1
  Bi  Bi8  1  0.750000  0.197512  0.874280  1
  Bi  Bi9  1  0.750000  0.301909  0.374397  1
  Bi  Bi10  1  0.250000  0.698060  0.625631  1
  Bi  Bi11  1  0.250000  0.596052  0.423610  1
  Bi  Bi12  1  0.750000  0.403959  0.576422  1
  Bi  Bi13  1  0.750000  0.094983  0.075565  1
  Bi  Bi14  1  0.250000  0.902880  0.924584  1
  Sb  Sb15  1  0.250000  0.805038  0.125575  1
  Se  Se16  1  0.250000  0.812293  0.390350  1
  Se  Se17  1  0.750000  0.187763  0.609549  1
  Se  Se18  1  0.750000  0.311091  0.109752  1
  Se  Se19  1  0.250000  0.687769  0.890620  1
  Se  Se20  1  0.250000  0.247226  0.296037  1
  Se  Se21  1  0.750000  0.752588  0.703922  1
  Se  Se22  1  0.750000  0.751594  0.200288  1
  Se  Se23  1  0.250000  0.252852  0.796064  1
  Se  Se24  1  0.250000  0.355526  0.480903  1
  Se  Se25  1  0.750000  0.644487  0.518903  1
  Se  Se26  1  0.750000  0.855290  0.020026  1
  Se  Se27  1  0.250000  0.144188  0.981743  1
  Se  Se28  1  0.250000  0.019922  0.158619  1
  Se  Se29  1  0.750000  0.974065  0.841429  1
  Se  Se30  1  0.750000  0.526486  0.341106  1
  Se  Se31  1  0.250000  0.473570  0.658751  1
  Se  Se32  1  0.250000  0.583536  0.060360  1
  Se  Se33  1  0.750000  0.417381  0.940262  1
  Se  Se34  1  0.750000  0.082830  0.440076  1
  Se  Se35  1  0.250000  0.917319  0.559841  1
