# generated using pymatgen
data_Pm4Ni(RhO4)3
_symmetry_space_group_name_H-M   'P 1'
_cell_length_a   5.38198737
_cell_length_b   5.85019781
_cell_length_c   7.77294430
_cell_angle_alpha   89.74701634
_cell_angle_beta   89.90762298
_cell_angle_gamma   89.54100541
_symmetry_Int_Tables_number   1
_chemical_formula_structural   Pm4Ni(RhO4)3
_chemical_formula_sum   'Pm4 Ni1 Rh3 O12'
_cell_volume   244.72597753
_cell_formula_units_Z   1
loop_
 _symmetry_equiv_pos_site_id
 _symmetry_equiv_pos_as_xyz
  1  'x, y, z'
loop_
 _atom_site_type_symbol
 _atom_site_label
 _atom_site_symmetry_multiplicity
 _atom_site_fract_x
 _atom_site_fract_y
 _atom_site_fract_z
 _atom_site_occupancy
  Pm  Pm0  1  0.978246  0.073158  0.242936  1
  Pm  Pm1  1  0.526498  0.580381  0.241847  1
  Pm  Pm2  1  0.473503  0.419618  0.758153  1
  Pm  Pm3  1  0.021756  0.926843  0.757064  1
  Ni  Ni4  1  0.500000  0.000000  0.000000  1
  Rh  Rh5  1  0.000000  0.500000  0.000000  1
  Rh  Rh6  1  0.500000  0.000000  0.500000  1
  Rh  Rh7  1  0.000000  0.500000  0.500000  1
  O  O8  1  0.688382  0.306904  0.049914  1
  O  O9  1  0.817189  0.803480  0.052144  1
  O  O10  1  0.115038  0.460561  0.249570  1
  O  O11  1  0.390693  0.964001  0.249953  1
  O  O12  1  0.685806  0.304307  0.440957  1
  O  O13  1  0.815729  0.805302  0.442211  1
  O  O14  1  0.184271  0.194698  0.557790  1
  O  O15  1  0.314194  0.695694  0.559044  1
  O  O16  1  0.609307  0.035998  0.750047  1
  O  O17  1  0.884962  0.539438  0.750430  1
  O  O18  1  0.182811  0.196520  0.947856  1
  O  O19  1  0.311618  0.693097  0.950086  1
