# generated using pymatgen
data_Nd2DyBi(Mo2O7)2
_symmetry_space_group_name_H-M   'P 1'
_cell_length_a   7.52832508
_cell_length_b   7.45521345
_cell_length_c   7.46459024
_cell_angle_alpha   119.46561856
_cell_angle_beta   120.28935248
_cell_angle_gamma   90.13103178
_symmetry_Int_Tables_number   1
_chemical_formula_structural   Nd2DyBi(Mo2O7)2
_chemical_formula_sum   'Nd2 Dy1 Bi1 Mo4 O14'
_cell_volume   296.98564963
_cell_formula_units_Z   1
loop_
 _symmetry_equiv_pos_site_id
 _symmetry_equiv_pos_as_xyz
  1  'x, y, z'
loop_
 _atom_site_type_symbol
 _atom_site_label
 _atom_site_symmetry_multiplicity
 _atom_site_fract_x
 _atom_site_fract_y
 _atom_site_fract_z
 _atom_site_occupancy
  Nd  Nd0  1  0.375000  0.625000  0.250000  1
  Nd  Nd1  1  0.875000  0.625000  0.250000  1
  Dy  Dy2  1  0.375000  0.125000  0.750000  1
  Bi  Bi3  1  0.375000  0.625000  0.750000  1
  Mo  Mo4  1  0.875000  0.625000  0.750000  1
  Mo  Mo5  1  0.375000  0.125000  0.250000  1
  Mo  Mo6  1  0.875000  0.125000  0.250000  1
  Mo  Mo7  1  0.875000  0.125000  0.750000  1
  O  O8  1  0.774168  0.196316  0.988427  1
  O  O9  1  0.547740  0.462955  0.499446  1
  O  O10  1  0.209858  0.206833  0.997977  1
  O  O11  1  0.956230  0.456465  0.496595  1
  O  O12  1  0.796186  0.794805  0.578880  1
  O  O13  1  0.536049  0.034351  0.081756  1
  O  O14  1  0.253234  0.761974  0.505727  1
  O  O15  1  0.953814  0.455195  0.921120  1
  O  O16  1  0.975832  0.053684  0.511573  1
  O  O17  1  0.540142  0.043167  0.502023  1
  O  O18  1  0.213951  0.215649  0.418244  1
  O  O19  1  0.496766  0.488026  0.994273  1
  O  O20  1  0.793770  0.793535  0.003405  1
  O  O21  1  0.202260  0.787045  0.000554  1
