# generated using pymatgen
data_Rb4RuO5
_symmetry_space_group_name_H-M   'P 1'
_cell_length_a   6.48417101
_cell_length_b   10.57801201
_cell_length_c   17.49942800
_cell_angle_alpha   94.28468320
_cell_angle_beta   92.38099524
_cell_angle_gamma   96.46215845
_symmetry_Int_Tables_number   1
_chemical_formula_structural   Rb4RuO5
_chemical_formula_sum   'Rb24 Ru6 O30'
_cell_volume   1187.80777688
_cell_formula_units_Z   6
loop_
 _symmetry_equiv_pos_site_id
 _symmetry_equiv_pos_as_xyz
  1  'x, y, z'
loop_
 _atom_site_type_symbol
 _atom_site_label
 _atom_site_symmetry_multiplicity
 _atom_site_fract_x
 _atom_site_fract_y
 _atom_site_fract_z
 _atom_site_occupancy
  Rb  Rb0  1  0.004532  0.507666  0.180057  1
  Rb  Rb1  1  0.995468  0.492334  0.819943  1
  Rb  Rb2  1  0.538417  0.203895  0.504336  1
  Rb  Rb3  1  0.461583  0.796105  0.495664  1
  Rb  Rb4  1  0.073249  0.688583  0.004986  1
  Rb  Rb5  1  0.926751  0.311417  0.995014  1
  Rb  Rb6  1  0.070900  0.849106  0.219963  1
  Rb  Rb7  1  0.929100  0.150894  0.780037  1
  Rb  Rb8  1  0.543238  0.000210  0.321989  1
  Rb  Rb9  1  0.456762  0.999790  0.678011  1
  Rb  Rb10  1  0.228919  0.036448  0.058594  1
  Rb  Rb11  1  0.771081  0.963552  0.941406  1
  Rb  Rb12  1  0.439273  0.403879  0.093521  1
  Rb  Rb13  1  0.560727  0.596121  0.906479  1
  Rb  Rb14  1  0.722325  0.384316  0.344609  1
  Rb  Rb15  1  0.277675  0.615684  0.655391  1
  Rb  Rb16  1  0.242880  0.455534  0.427158  1
  Rb  Rb17  1  0.757120  0.544466  0.572842  1
  Rb  Rb18  1  0.734985  0.094973  0.145574  1
  Rb  Rb19  1  0.265015  0.905027  0.854426  1
  Rb  Rb20  1  0.055937  0.081804  0.417483  1
  Rb  Rb21  1  0.944063  0.918196  0.582517  1
  Rb  Rb22  1  0.459340  0.662877  0.290096  1
  Rb  Rb23  1  0.540660  0.337123  0.709904  1
  Ru  Ru24  1  0.062264  0.275332  0.593981  1
  Ru  Ru25  1  0.937736  0.724668  0.406019  1
  Ru  Ru26  1  0.597737  0.758296  0.098480  1
  Ru  Ru27  1  0.402263  0.241704  0.901520  1
  Ru  Ru28  1  0.218714  0.235374  0.249291  1
  Ru  Ru29  1  0.781286  0.764626  0.750709  1
  O  O30  1  0.065048  0.684685  0.495271  1
  O  O31  1  0.934952  0.315315  0.504729  1
  O  O32  1  0.141216  0.136098  0.923100  1
  O  O33  1  0.858784  0.863902  0.076900  1
  O  O34  1  0.358211  0.219109  0.350418  1
  O  O35  1  0.641789  0.780891  0.649582  1
  O  O36  1  0.211443  0.137255  0.590464  1
  O  O37  1  0.788557  0.862745  0.409536  1
  O  O38  1  0.090092  0.259407  0.146874  1
  O  O39  1  0.909908  0.740593  0.853126  1
  O  O40  1  0.345445  0.103218  0.207235  1
  O  O41  1  0.654555  0.896782  0.792765  1
  O  O42  1  0.341204  0.656068  0.124996  1
  O  O43  1  0.658796  0.343932  0.875004  1
  O  O44  1  0.384718  0.156424  0.805753  1
  O  O45  1  0.615282  0.843576  0.194247  1
  O  O46  1  0.462233  0.820054  0.017014  1
  O  O47  1  0.537767  0.179946  0.982986  1
  O  O48  1  0.188251  0.837254  0.381493  1
  O  O49  1  0.811749  0.162746  0.618507  1
  O  O50  1  0.319167  0.385338  0.572459  1
  O  O51  1  0.680833  0.614662  0.427541  1
  O  O52  1  0.723247  0.612002  0.078873  1
  O  O53  1  0.276753  0.387998  0.921127  1
  O  O54  1  0.959975  0.196323  0.286090  1
  O  O55  1  0.040025  0.803677  0.713910  1
  O  O56  1  0.041792  0.374254  0.683461  1
  O  O57  1  0.958208  0.625746  0.316539  1
  O  O58  1  0.345126  0.400846  0.253754  1
  O  O59  1  0.654874  0.599154  0.746246  1
