# generated using pymatgen
data_Tb8Er10Sc2Si15Ru
_symmetry_space_group_name_H-M   'P 1'
_cell_length_a   7.26690690
_cell_length_b   7.72404625
_cell_length_c   14.42479400
_cell_angle_alpha   90.00000000
_cell_angle_beta   90.00000000
_cell_angle_gamma   90.06253672
_symmetry_Int_Tables_number   1
_chemical_formula_structural   Tb8Er10Sc2Si15Ru
_chemical_formula_sum   'Tb8 Er10 Sc2 Si15 Ru1'
_cell_volume   809.66212337
_cell_formula_units_Z   1
loop_
 _symmetry_equiv_pos_site_id
 _symmetry_equiv_pos_as_xyz
  1  'x, y, z'
loop_
 _atom_site_type_symbol
 _atom_site_label
 _atom_site_symmetry_multiplicity
 _atom_site_fract_x
 _atom_site_fract_y
 _atom_site_fract_z
 _atom_site_occupancy
  Tb  Tb0  1  0.018487  0.183810  0.098116  1
  Tb  Tb1  1  0.984368  0.824803  0.907396  1
  Tb  Tb2  1  0.482410  0.680976  0.906350  1
  Tb  Tb3  1  0.984368  0.824803  0.592604  1
  Tb  Tb4  1  0.517596  0.318615  0.097678  1
  Tb  Tb5  1  0.018487  0.183810  0.401884  1
  Tb  Tb6  1  0.517596  0.318615  0.402322  1
  Tb  Tb7  1  0.482410  0.680976  0.593650  1
  Er  Er8  1  0.152545  0.515620  0.750000  1
  Er  Er9  1  0.666433  0.988782  0.750000  1
  Er  Er10  1  0.310128  0.173012  0.626663  1
  Er  Er11  1  0.678784  0.824548  0.372722  1
  Er  Er12  1  0.177955  0.679319  0.372435  1
  Er  Er13  1  0.678784  0.824548  0.127278  1
  Er  Er14  1  0.832457  0.316529  0.625020  1
  Er  Er15  1  0.310128  0.173012  0.873337  1
  Er  Er16  1  0.832457  0.316529  0.874980  1
  Er  Er17  1  0.177955  0.679319  0.127565  1
  Sc  Sc18  1  0.842756  0.484378  0.250000  1
  Sc  Sc19  1  0.344248  0.016281  0.250000  1
  Si  Si20  1  0.980515  0.904954  0.250000  1
  Si  Si21  1  0.481828  0.597506  0.250000  1
  Si  Si22  1  0.525211  0.394909  0.750000  1
  Si  Si23  1  0.276183  0.866025  0.750000  1
  Si  Si24  1  0.718588  0.135422  0.250000  1
  Si  Si25  1  0.220603  0.365497  0.250000  1
  Si  Si26  1  0.766743  0.623682  0.750000  1
  Si  Si27  1  0.156549  0.472689  0.536050  1
  Si  Si28  1  0.847516  0.531093  0.459064  1
  Si  Si29  1  0.346675  0.970234  0.458223  1
  Si  Si30  1  0.847516  0.531093  0.040936  1
  Si  Si31  1  0.649201  0.031442  0.536700  1
  Si  Si32  1  0.156549  0.472689  0.963950  1
  Si  Si33  1  0.649201  0.031442  0.963300  1
  Si  Si34  1  0.346675  0.970234  0.041777  1
  Ru  Ru35  1  0.020097  0.092802  0.750000  1
