# generated using pymatgen
data_Ti3Ge3MoIrRh
_symmetry_space_group_name_H-M   'P 1'
_cell_length_a   7.58485819
_cell_length_b   7.56801095
_cell_length_c   7.56801051
_cell_angle_alpha   126.61571976
_cell_angle_beta   124.34737674
_cell_angle_gamma   80.70309752
_symmetry_Int_Tables_number   1
_chemical_formula_structural   Ti3Ge3MoIrRh
_chemical_formula_sum   'Ti6 Ge6 Mo2 Ir2 Rh2'
_cell_volume   277.67387379
_cell_formula_units_Z   2
loop_
 _symmetry_equiv_pos_site_id
 _symmetry_equiv_pos_as_xyz
  1  'x, y, z'
loop_
 _atom_site_type_symbol
 _atom_site_label
 _atom_site_symmetry_multiplicity
 _atom_site_fract_x
 _atom_site_fract_y
 _atom_site_fract_z
 _atom_site_occupancy
  Ti  Ti0  1  0.963887  0.731418  0.265538  1
  Ti  Ti1  1  0.036113  0.301652  0.767530  1
  Ti  Ti2  1  0.246517  0.169617  0.418988  1
  Ti  Ti3  1  0.753483  0.172474  0.923100  1
  Ti  Ti4  1  0.561438  0.349678  0.287400  1
  Ti  Ti5  1  0.438562  0.725962  0.788240  1
  Ge  Ge6  1  0.784073  0.805507  0.516665  1
  Ge  Ge7  1  0.215927  0.732592  0.021434  1
  Ge  Ge8  1  0.336333  0.069947  0.743040  1
  Ge  Ge9  1  0.663667  0.406707  0.733615  1
  Ge  Ge10  1  0.173563  0.410118  0.244809  1
  Ge  Ge11  1  0.826437  0.071246  0.236555  1
  Mo  Mo12  1  0.500000  0.496469  0.996469  1
  Mo  Mo13  1  0.000000  0.497306  0.497306  1
  Ir  Ir14  1  0.172314  0.004194  0.918050  1
  Ir  Ir15  1  0.827686  0.745736  0.831880  1
  Rh  Rh16  1  0.416474  0.746099  0.420157  1
  Rh  Rh17  1  0.583526  0.003682  0.329625  1
