# generated using pymatgen
data_Sm2Lu4CuRh17
_symmetry_space_group_name_H-M   'P 1'
_cell_length_a   5.26430100
_cell_length_b   5.26434526
_cell_length_c   17.34188800
_cell_angle_alpha   90.00000000
_cell_angle_beta   90.00000000
_cell_angle_gamma   120.00034230
_symmetry_Int_Tables_number   1
_chemical_formula_structural   Sm2Lu4CuRh17
_chemical_formula_sum   'Sm2 Lu4 Cu1 Rh17'
_cell_volume   416.20815855
_cell_formula_units_Z   1
loop_
 _symmetry_equiv_pos_site_id
 _symmetry_equiv_pos_as_xyz
  1  'x, y, z'
loop_
 _atom_site_type_symbol
 _atom_site_label
 _atom_site_symmetry_multiplicity
 _atom_site_fract_x
 _atom_site_fract_y
 _atom_site_fract_z
 _atom_site_occupancy
  Sm  Sm0  1  0.333334  0.666661  0.750000  1
  Sm  Sm1  1  0.666670  0.333336  0.250000  1
  Lu  Lu2  1  0.333327  0.666670  0.958451  1
  Lu  Lu3  1  0.666673  0.333337  0.039882  1
  Lu  Lu4  1  0.666673  0.333337  0.460118  1
  Lu  Lu5  1  0.333327  0.666670  0.541549  1
  Cu  Cu6  1  0.333342  0.666659  0.250000  1
  Rh  Rh7  1  0.169253  0.830767  0.374694  1
  Rh  Rh8  1  0.169246  0.338481  0.374698  1
  Rh  Rh9  1  0.661530  0.830765  0.374697  1
  Rh  Rh10  1  0.832496  0.167506  0.622959  1
  Rh  Rh11  1  0.832494  0.664994  0.622963  1
  Rh  Rh12  1  0.335003  0.167502  0.622960  1
  Rh  Rh13  1  0.832496  0.167506  0.877041  1
  Rh  Rh14  1  0.832494  0.664994  0.877037  1
  Rh  Rh15  1  0.335003  0.167502  0.877040  1
  Rh  Rh16  1  0.169253  0.830767  0.125306  1
  Rh  Rh17  1  0.169246  0.338481  0.125302  1
  Rh  Rh18  1  0.661530  0.830765  0.125303  1
  Rh  Rh19  1  0.666658  0.333332  0.750000  1
  Rh  Rh20  1  0.999968  0.000009  0.250000  1
  Rh  Rh21  1  0.000004  0.999980  0.750000  1
  Rh  Rh22  1  0.999989  0.999990  0.497187  1
  Rh  Rh23  1  0.999989  0.999990  0.002813  1
