# generated using pymatgen
data_LiLaNi3Rh
_symmetry_space_group_name_H-M   'P 1'
_cell_length_a   4.99759902
_cell_length_b   4.99759737
_cell_length_c   5.16078920
_cell_angle_alpha   61.04060925
_cell_angle_beta   61.04062195
_cell_angle_gamma   60.00000120
_symmetry_Int_Tables_number   1
_chemical_formula_structural   LiLaNi3Rh
_chemical_formula_sum   'Li1 La1 Ni3 Rh1'
_cell_volume   92.55046922
_cell_formula_units_Z   1
loop_
 _symmetry_equiv_pos_site_id
 _symmetry_equiv_pos_as_xyz
  1  'x, y, z'
loop_
 _atom_site_type_symbol
 _atom_site_label
 _atom_site_symmetry_multiplicity
 _atom_site_fract_x
 _atom_site_fract_y
 _atom_site_fract_z
 _atom_site_occupancy
  Li  Li0  1  0.747599  0.747599  0.757203  1
  La  La1  1  0.499882  0.499882  0.500353  1
  Ni  Ni2  1  0.125210  0.627641  0.121938  1
  Ni  Ni3  1  0.125210  0.125210  0.121938  1
  Ni  Ni4  1  0.627641  0.125210  0.121938  1
  Rh  Rh5  1  0.124457  0.124457  0.626629  1
