# generated using pymatgen
data_TmLuMn5(PIr)7
_symmetry_space_group_name_H-M   'P 1'
_cell_length_a   9.35138023
_cell_length_b   9.39223869
_cell_length_c   3.84515100
_cell_angle_alpha   90.00000000
_cell_angle_beta   90.00000000
_cell_angle_gamma   119.90334669
_symmetry_Int_Tables_number   1
_chemical_formula_structural   TmLuMn5(PIr)7
_chemical_formula_sum   'Tm1 Lu1 Mn5 P7 Ir7'
_cell_volume   292.75951731
_cell_formula_units_Z   1
loop_
 _symmetry_equiv_pos_site_id
 _symmetry_equiv_pos_as_xyz
  1  'x, y, z'
loop_
 _atom_site_type_symbol
 _atom_site_label
 _atom_site_symmetry_multiplicity
 _atom_site_fract_x
 _atom_site_fract_y
 _atom_site_fract_z
 _atom_site_occupancy
  Tm  Tm0  1  0.001243  0.999805  0.000000  1
  Lu  Lu1  1  0.667104  0.332337  0.500000  1
  Mn  Mn2  1  0.225541  0.399699  0.000000  1
  Mn  Mn3  1  0.604299  0.825610  0.000000  1
  Mn  Mn4  1  0.171781  0.774982  0.000000  1
  Mn  Mn5  1  0.431319  0.888671  0.500000  1
  Mn  Mn6  1  0.111072  0.543787  0.500000  1
  P  P7  1  0.442377  0.362115  0.000000  1
  P  P8  1  0.631997  0.074706  0.000000  1
  P  P9  1  0.921015  0.554035  0.000000  1
  P  P10  1  0.055144  0.268595  0.500000  1
  P  P11  1  0.733532  0.791840  0.500000  1
  P  P12  1  0.214862  0.941219  0.500000  1
  P  P13  1  0.335733  0.670933  0.000000  1
  Ir  Ir14  1  0.693011  0.596139  0.000000  1
  Ir  Ir15  1  0.399760  0.094208  0.000000  1
  Ir  Ir16  1  0.904280  0.304516  0.000000  1
  Ir  Ir17  1  0.275443  0.220781  0.500000  1
  Ir  Ir18  1  0.778057  0.055191  0.500000  1
  Ir  Ir19  1  0.942739  0.722869  0.500000  1
  Ir  Ir20  1  0.459688  0.577962  0.500000  1
