# generated using pymatgen
data_CoS23
_symmetry_space_group_name_H-M   'P 1'
_cell_length_a   5.61904016
_cell_length_b   9.54313347
_cell_length_c   15.24647800
_cell_angle_alpha   88.98743582
_cell_angle_beta   87.04387293
_cell_angle_gamma   90.07409885
_symmetry_Int_Tables_number   1
_chemical_formula_structural   CoS23
_chemical_formula_sum   'Co1 S23'
_cell_volume   816.34829686
_cell_formula_units_Z   1
loop_
 _symmetry_equiv_pos_site_id
 _symmetry_equiv_pos_as_xyz
  1  'x, y, z'
loop_
 _atom_site_type_symbol
 _atom_site_label
 _atom_site_symmetry_multiplicity
 _atom_site_fract_x
 _atom_site_fract_y
 _atom_site_fract_z
 _atom_site_occupancy
  Co  Co0  1  0.490999  0.255309  0.425669  1
  S  S1  1  0.510309  0.790355  0.390198  1
  S  S2  1  0.996527  0.303045  0.111946  1
  S  S3  1  0.797317  0.243606  0.507285  1
  S  S4  1  0.304008  0.765061  0.505213  1
  S  S5  1  0.190660  0.260465  0.996862  1
  S  S6  1  0.801045  0.738593  0.004585  1
  S  S7  1  0.230097  0.363529  0.353839  1
  S  S8  1  0.680134  0.599796  0.367242  1
  S  S9  1  0.800341  0.126880  0.150038  1
  S  S10  1  0.200973  0.868062  0.136491  1
  S  S11  1  0.709056  0.627199  0.636022  1
  S  S12  1  0.303851  0.384739  0.618944  1
  S  S13  1  0.201764  0.874880  0.857566  1
  S  S14  1  0.796507  0.130644  0.861951  1
  S  S15  1  0.000832  0.692974  0.111374  1
  S  S16  1  0.511330  0.803749  0.610743  1
  S  S17  1  0.480742  0.199190  0.577765  1
  S  S18  1  0.003677  0.697751  0.891029  1
  S  S19  1  0.989807  0.306966  0.890394  1
  S  S20  1  0.491439  0.482197  0.283080  1
  S  S21  1  0.008627  0.994760  0.222526  1
  S  S22  1  0.495935  0.485193  0.709340  1
  S  S23  1  0.004021  0.005059  0.779901  1
