# generated using pymatgen
data_Hf2Sc2As6Ru7
_symmetry_space_group_name_H-M   'P 1'
_cell_length_a   7.06668353
_cell_length_b   7.08304118
_cell_length_c   7.08304210
_cell_angle_alpha   109.58098914
_cell_angle_beta   109.46312187
_cell_angle_gamma   109.46311982
_symmetry_Int_Tables_number   1
_chemical_formula_structural   Hf2Sc2As6Ru7
_chemical_formula_sum   'Hf2 Sc2 As6 Ru7'
_cell_volume   272.60282881
_cell_formula_units_Z   1
loop_
 _symmetry_equiv_pos_site_id
 _symmetry_equiv_pos_as_xyz
  1  'x, y, z'
loop_
 _atom_site_type_symbol
 _atom_site_label
 _atom_site_symmetry_multiplicity
 _atom_site_fract_x
 _atom_site_fract_y
 _atom_site_fract_z
 _atom_site_occupancy
  Hf  Hf0  1  0.500000  0.000000  0.000000  1
  Hf  Hf1  1  0.500000  0.500000  0.500000  1
  Sc  Sc2  1  0.000000  0.000000  0.500000  1
  Sc  Sc3  1  0.000000  0.500000  0.000000  1
  As  As4  1  0.308953  0.996642  0.312312  1
  As  As5  1  0.000000  0.312120  0.312120  1
  As  As6  1  0.000000  0.687880  0.687880  1
  As  As7  1  0.308953  0.312312  0.996642  1
  As  As8  1  0.691047  0.687688  0.003358  1
  As  As9  1  0.691047  0.003358  0.687688  1
  Ru  Ru10  1  0.746180  0.496318  0.249861  1
  Ru  Ru11  1  0.500000  0.750000  0.250000  1
  Ru  Ru12  1  0.500000  0.250000  0.750000  1
  Ru  Ru13  1  0.746180  0.249861  0.496318  1
  Ru  Ru14  1  0.253820  0.750139  0.503682  1
  Ru  Ru15  1  0.253820  0.503682  0.750139  1
  Ru  Ru16  1  0.000000  0.000000  0.000000  1
