# generated using pymatgen
data_Sr2H9W
_symmetry_space_group_name_H-M   'P 1'
_cell_length_a   9.08582600
_cell_length_b   9.08582502
_cell_length_c   5.14624500
_cell_angle_alpha   90.00000000
_cell_angle_beta   90.00000000
_cell_angle_gamma   120.00000356
_symmetry_Int_Tables_number   1
_chemical_formula_structural   Sr2H9W
_chemical_formula_sum   'Sr6 H27 W3'
_cell_volume   367.91700258
_cell_formula_units_Z   3
loop_
 _symmetry_equiv_pos_site_id
 _symmetry_equiv_pos_as_xyz
  1  'x, y, z'
loop_
 _atom_site_type_symbol
 _atom_site_label
 _atom_site_symmetry_multiplicity
 _atom_site_fract_x
 _atom_site_fract_y
 _atom_site_fract_z
 _atom_site_occupancy
  Sr  Sr0  1  0.000000  0.266043  0.500000  1
  Sr  Sr1  1  0.733957  0.733957  0.500000  1
  Sr  Sr2  1  0.266043  0.000000  0.500000  1
  Sr  Sr3  1  0.000000  0.608398  0.000000  1
  Sr  Sr4  1  0.391602  0.391602  0.000000  1
  Sr  Sr5  1  0.608398  0.000000  0.000000  1
  H  H6  1  0.803240  0.331178  0.752898  1
  H  H7  1  0.668822  0.472061  0.752898  1
  H  H8  1  0.527939  0.196760  0.752898  1
  H  H9  1  0.196760  0.527939  0.247102  1
  H  H10  1  0.527939  0.196760  0.247102  1
  H  H11  1  0.803240  0.331178  0.247102  1
  H  H12  1  0.668822  0.472061  0.247102  1
  H  H13  1  0.331178  0.803240  0.752898  1
  H  H14  1  0.472061  0.668822  0.752898  1
  H  H15  1  0.198688  0.000000  0.000000  1
  H  H16  1  0.801312  0.801312  0.000000  1
  H  H17  1  0.000000  0.198688  0.000000  1
  H  H18  1  0.857412  0.000000  0.248245  1
  H  H19  1  0.142588  0.142588  0.751755  1
  H  H20  1  0.000000  0.857412  0.751755  1
  H  H21  1  0.000000  0.857412  0.248245  1
  H  H22  1  0.142588  0.142588  0.248245  1
  H  H23  1  0.857412  0.000000  0.751755  1
  H  H24  1  0.138700  0.670533  0.500000  1
  H  H25  1  0.531833  0.861300  0.500000  1
  H  H26  1  0.329467  0.468167  0.500000  1
  H  H27  1  0.468167  0.329467  0.500000  1
  H  H28  1  0.861300  0.531833  0.500000  1
  H  H29  1  0.670533  0.138700  0.500000  1
  H  H30  1  0.196760  0.527939  0.752898  1
  H  H31  1  0.331178  0.803240  0.247102  1
  H  H32  1  0.472061  0.668822  0.247102  1
  W  W33  1  0.666667  0.333333  0.500000  1
  W  W34  1  0.333333  0.666667  0.500000  1
  W  W35  1  0.000000  0.000000  0.000000  1
