# generated using pymatgen
data_Co4CuMo12Pt3N4
_symmetry_space_group_name_H-M   'P 1'
_cell_length_a   6.75214681
_cell_length_b   6.75214701
_cell_length_c   6.75214558
_cell_angle_alpha   90.05158328
_cell_angle_beta   89.94841107
_cell_angle_gamma   90.05159231
_symmetry_Int_Tables_number   1
_chemical_formula_structural   Co4CuMo12Pt3N4
_chemical_formula_sum   'Co4 Cu1 Mo12 Pt3 N4'
_cell_volume   307.83998922
_cell_formula_units_Z   1
loop_
 _symmetry_equiv_pos_site_id
 _symmetry_equiv_pos_as_xyz
  1  'x, y, z'
loop_
 _atom_site_type_symbol
 _atom_site_label
 _atom_site_symmetry_multiplicity
 _atom_site_fract_x
 _atom_site_fract_y
 _atom_site_fract_z
 _atom_site_occupancy
  Co  Co0  1  0.194529  0.181961  0.177752  1
  Co  Co1  1  0.318039  0.822248  0.694529  1
  Co  Co2  1  0.435456  0.064544  0.935456  1
  Co  Co3  1  0.677752  0.305471  0.818039  1
  Cu  Cu4  1  0.811278  0.688722  0.311278  1
  Mo  Mo5  1  0.620025  0.706413  0.949823  1
  Mo  Mo6  1  0.449823  0.879975  0.293587  1
  Mo  Mo7  1  0.693857  0.962436  0.635230  1
  Mo  Mo8  1  0.537564  0.364770  0.193857  1
  Mo  Mo9  1  0.373113  0.193018  0.550341  1
  Mo  Mo10  1  0.199245  0.538152  0.373178  1
  Mo  Mo11  1  0.873178  0.300755  0.461848  1
  Mo  Mo12  1  0.050341  0.126887  0.806982  1
  Mo  Mo13  1  0.306982  0.449659  0.873113  1
  Mo  Mo14  1  0.135230  0.806143  0.037564  1
  Mo  Mo15  1  0.793587  0.050177  0.120025  1
  Mo  Mo16  1  0.961848  0.626822  0.699245  1
  Pt  Pt17  1  0.563398  0.563826  0.565208  1
  Pt  Pt18  1  0.065208  0.936602  0.436174  1
  Pt  Pt19  1  0.936174  0.434792  0.063398  1
  N  N20  1  0.375526  0.623433  0.125000  1
  N  N21  1  0.876567  0.875000  0.875526  1
  N  N22  1  0.126278  0.373722  0.626278  1
  N  N23  1  0.625000  0.124474  0.376567  1
