# generated using pymatgen
data_TbDy6CoI12
_symmetry_space_group_name_H-M   'P 1'
_cell_length_a   9.75648096
_cell_length_b   9.75357884
_cell_length_c   9.75452011
_cell_angle_alpha   106.85505724
_cell_angle_beta   106.86169707
_cell_angle_gamma   106.86696535
_symmetry_Int_Tables_number   1
_chemical_formula_structural   TbDy6CoI12
_chemical_formula_sum   'Tb1 Dy6 Co1 I12'
_cell_volume   775.95976228
_cell_formula_units_Z   1
loop_
 _symmetry_equiv_pos_site_id
 _symmetry_equiv_pos_as_xyz
  1  'x, y, z'
loop_
 _atom_site_type_symbol
 _atom_site_label
 _atom_site_symmetry_multiplicity
 _atom_site_fract_x
 _atom_site_fract_y
 _atom_site_fract_z
 _atom_site_occupancy
  Tb  Tb0  1  0.711460  0.977784  0.907727  1
  Dy  Dy1  1  0.500023  0.499988  0.499994  1
  Dy  Dy2  1  0.022261  0.091939  0.287875  1
  Dy  Dy3  1  0.092122  0.287854  0.022157  1
  Dy  Dy4  1  0.287694  0.022096  0.091886  1
  Dy  Dy5  1  0.978038  0.908074  0.712223  1
  Dy  Dy6  1  0.908203  0.712192  0.977941  1
  Co  Co7  1  0.000235  0.000022  0.000081  1
  I  I8  1  0.161053  0.463821  0.386754  1
  I  I9  1  0.463823  0.386770  0.161072  1
  I  I10  1  0.386758  0.161070  0.463830  1
  I  I11  1  0.838955  0.536183  0.613249  1
  I  I12  1  0.536143  0.613036  0.838945  1
  I  I13  1  0.613251  0.838865  0.535941  1
  I  I14  1  0.678190  0.071981  0.225449  1
  I  I15  1  0.071877  0.225096  0.678145  1
  I  I16  1  0.225099  0.678109  0.071875  1
  I  I17  1  0.321671  0.928085  0.774840  1
  I  I18  1  0.928123  0.774906  0.321856  1
  I  I19  1  0.775022  0.322131  0.928158  1
