# generated using pymatgen
data_ZnNi3(WO3)8
_symmetry_space_group_name_H-M   'P 1'
_cell_length_a   4.67992780
_cell_length_b   10.68076485
_cell_length_c   9.36098438
_cell_angle_alpha   64.01489824
_cell_angle_beta   90.09889822
_cell_angle_gamma   90.04410369
_symmetry_Int_Tables_number   1
_chemical_formula_structural   ZnNi3(WO3)8
_chemical_formula_sum   'Zn1 Ni3 W8 O24'
_cell_volume   420.60809473
_cell_formula_units_Z   1
loop_
 _symmetry_equiv_pos_site_id
 _symmetry_equiv_pos_as_xyz
  1  'x, y, z'
loop_
 _atom_site_type_symbol
 _atom_site_label
 _atom_site_symmetry_multiplicity
 _atom_site_fract_x
 _atom_site_fract_y
 _atom_site_fract_z
 _atom_site_occupancy
  Zn  Zn0  1  0.499981  0.499967  0.000020  1
  Ni  Ni1  1  0.000027  0.999904  0.500197  1
  Ni  Ni2  1  0.499797  0.500198  0.500196  1
  Ni  Ni3  1  0.000011  0.999948  0.999858  1
  W  W4  1  0.500047  0.162821  0.168600  1
  W  W5  1  0.500060  0.164408  0.667741  1
  W  W6  1  0.999827  0.664454  0.168219  1
  W  W7  1  0.000071  0.664492  0.667339  1
  W  W8  1  0.499973  0.837137  0.831427  1
  W  W9  1  0.499982  0.835748  0.332098  1
  W  W10  1  0.999843  0.335507  0.332701  1
  W  W11  1  0.000212  0.335443  0.831855  1
  O  O12  1  0.190753  0.500025  0.845621  1
  O  O13  1  0.192282  0.500049  0.345817  1
  O  O14  1  0.809305  0.499986  0.154322  1
  O  O15  1  0.807774  0.500003  0.654228  1
  O  O16  1  0.308103  0.999451  0.346209  1
  O  O17  1  0.308181  0.000559  0.845574  1
  O  O18  1  0.691895  0.999419  0.154327  1
  O  O19  1  0.691829  0.000518  0.653838  1
  O  O20  1  0.206644  0.172299  0.016038  1
  O  O21  1  0.204662  0.172358  0.517060  1
  O  O22  1  0.793465  0.172281  0.311623  1
  O  O23  1  0.795427  0.172343  0.810545  1
  O  O24  1  0.292210  0.675832  0.015847  1
  O  O25  1  0.294651  0.672725  0.516259  1
  O  O26  1  0.707710  0.675808  0.808292  1
  O  O27  1  0.705250  0.672695  0.311038  1
  O  O28  1  0.793408  0.827673  0.983875  1
  O  O29  1  0.795317  0.827609  0.482975  1
  O  O30  1  0.206522  0.827692  0.688412  1
  O  O31  1  0.204635  0.827644  0.189376  1
  O  O32  1  0.707840  0.324153  0.984110  1
  O  O33  1  0.705286  0.327343  0.483731  1
  O  O34  1  0.292226  0.324163  0.191700  1
  O  O35  1  0.294794  0.327352  0.688933  1
