# generated using pymatgen
data_Y3Tm(Ga8Pt3)3
_symmetry_space_group_name_H-M   'P 1'
_cell_length_a   7.50810383
_cell_length_b   7.59365827
_cell_length_c   13.37271264
_cell_angle_alpha   84.76553960
_cell_angle_beta   79.55986821
_cell_angle_gamma   60.14200508
_symmetry_Int_Tables_number   1
_chemical_formula_structural   Y3Tm(Ga8Pt3)3
_chemical_formula_sum   'Y3 Tm1 Ga24 Pt9'
_cell_volume   650.28061690
_cell_formula_units_Z   1
loop_
 _symmetry_equiv_pos_site_id
 _symmetry_equiv_pos_as_xyz
  1  'x, y, z'
loop_
 _atom_site_type_symbol
 _atom_site_label
 _atom_site_symmetry_multiplicity
 _atom_site_fract_x
 _atom_site_fract_y
 _atom_site_fract_z
 _atom_site_occupancy
  Y  Y0  1  0.392648  0.169206  0.811701  1
  Y  Y1  1  0.607097  0.830682  0.188478  1
  Y  Y2  1  0.732380  0.497219  0.811988  1
  Tm  Tm3  1  0.266775  0.502283  0.189325  1
  Ga  Ga4  1  0.685798  0.834106  0.938801  1
  Ga  Ga5  1  0.314450  0.167213  0.062320  1
  Ga  Ga6  1  0.145681  0.832874  0.558724  1
  Ga  Ga7  1  0.854550  0.167166  0.440675  1
  Ga  Ga8  1  0.478401  0.166639  0.555750  1
  Ga  Ga9  1  0.521861  0.833278  0.443736  1
  Ga  Ga10  1  0.221102  0.165379  0.323225  1
  Ga  Ga11  1  0.779383  0.834598  0.675756  1
  Ga  Ga12  1  0.437556  0.503937  0.674722  1
  Ga  Ga13  1  0.562499  0.496165  0.324118  1
  Ga  Ga14  1  0.106763  0.163715  0.674213  1
  Ga  Ga15  1  0.893830  0.836025  0.324676  1
  Ga  Ga16  1  0.356330  0.498882  0.939976  1
  Ga  Ga17  1  0.641044  0.501668  0.062094  1
  Ga  Ga18  1  0.019444  0.169226  0.944344  1
  Ga  Ga19  1  0.981242  0.829572  0.057152  1
  Ga  Ga20  1  0.187424  0.499303  0.442926  1
  Ga  Ga21  1  0.812925  0.500579  0.556546  1
  Ga  Ga22  1  0.733108  0.165241  0.182198  1
  Ga  Ga23  1  0.265987  0.836020  0.817799  1
  Ga  Ga24  1  0.061284  0.631134  0.817089  1
  Ga  Ga25  1  0.940397  0.368404  0.182861  1
  Ga  Ga26  1  0.856410  0.039967  0.816948  1
  Ga  Ga27  1  0.143440  0.958604  0.182953  1
  Pt  Pt28  1  0.117729  0.495483  0.638663  1
  Pt  Pt29  1  0.882925  0.504603  0.360677  1
  Pt  Pt30  1  0.660309  0.169587  0.999501  1
  Pt  Pt31  1  0.339960  0.830912  0.000922  1
  Pt  Pt32  1  0.540438  0.167360  0.360006  1
  Pt  Pt33  1  0.459270  0.833108  0.639367  1
  Pt  Pt34  1  0.779263  0.171943  0.636846  1
  Pt  Pt35  1  0.221049  0.827578  0.362554  1
  Pt  Pt36  1  0.999243  0.500344  0.000368  1
