# generated using pymatgen
data_Tm7Th(HgAu2)4
_symmetry_space_group_name_H-M   'P 1'
_cell_length_a   7.96645849
_cell_length_b   7.96645914
_cell_length_c   7.32064000
_cell_angle_alpha   90.00000000
_cell_angle_beta   90.00000000
_cell_angle_gamma   90.32467518
_symmetry_Int_Tables_number   1
_chemical_formula_structural   Tm7Th(HgAu2)4
_chemical_formula_sum   'Tm7 Th1 Hg4 Au8'
_cell_volume   464.59304933
_cell_formula_units_Z   1
loop_
 _symmetry_equiv_pos_site_id
 _symmetry_equiv_pos_as_xyz
  1  'x, y, z'
loop_
 _atom_site_type_symbol
 _atom_site_label
 _atom_site_symmetry_multiplicity
 _atom_site_fract_x
 _atom_site_fract_y
 _atom_site_fract_z
 _atom_site_occupancy
  Tm  Tm0  1  0.161902  0.838098  0.500000  1
  Tm  Tm1  1  0.338844  0.343106  0.000000  1
  Tm  Tm2  1  0.656894  0.661156  0.000000  1
  Tm  Tm3  1  0.681178  0.681797  0.500000  1
  Tm  Tm4  1  0.318203  0.318822  0.500000  1
  Tm  Tm5  1  0.184321  0.815679  0.000000  1
  Tm  Tm6  1  0.818373  0.181627  0.000000  1
  Th  Th7  1  0.838788  0.161212  0.500000  1
  Hg  Hg8  1  0.498304  0.998276  0.250856  1
  Hg  Hg9  1  0.001724  0.501696  0.749144  1
  Hg  Hg10  1  0.498304  0.998276  0.749144  1
  Hg  Hg11  1  0.001724  0.501696  0.250856  1
  Au  Au12  1  0.625043  0.374957  0.265241  1
  Au  Au13  1  0.371145  0.628855  0.273732  1
  Au  Au14  1  0.131508  0.126976  0.777158  1
  Au  Au15  1  0.873024  0.868492  0.777158  1
  Au  Au16  1  0.371145  0.628855  0.726268  1
  Au  Au17  1  0.625043  0.374957  0.734759  1
  Au  Au18  1  0.873024  0.868492  0.222842  1
  Au  Au19  1  0.131508  0.126976  0.222842  1
