# generated using pymatgen
data_Cs2PtSe16
_symmetry_space_group_name_H-M   'P 1'
_cell_length_a   13.03870200
_cell_length_b   13.03870200
_cell_length_c   7.33125700
_cell_angle_alpha   90.00000000
_cell_angle_beta   90.00000000
_cell_angle_gamma   90.00000000
_symmetry_Int_Tables_number   1
_chemical_formula_structural   Cs2PtSe16
_chemical_formula_sum   'Cs4 Pt2 Se32'
_cell_volume   1246.37050610
_cell_formula_units_Z   2
loop_
 _symmetry_equiv_pos_site_id
 _symmetry_equiv_pos_as_xyz
  1  'x, y, z'
loop_
 _atom_site_type_symbol
 _atom_site_label
 _atom_site_symmetry_multiplicity
 _atom_site_fract_x
 _atom_site_fract_y
 _atom_site_fract_z
 _atom_site_occupancy
  Cs  Cs0  1  0.500000  0.000000  0.000000  1
  Cs  Cs1  1  0.000000  0.500000  0.000000  1
  Cs  Cs2  1  0.500000  0.500000  0.500000  1
  Cs  Cs3  1  0.000000  0.000000  0.500000  1
  Pt  Pt4  1  0.000000  0.000000  0.000000  1
  Pt  Pt5  1  0.500000  0.500000  0.000000  1
  Se  Se6  1  0.190875  0.423224  0.580610  1
  Se  Se7  1  0.809125  0.576776  0.580610  1
  Se  Se8  1  0.576776  0.190875  0.419390  1
  Se  Se9  1  0.423224  0.809125  0.419390  1
  Se  Se10  1  0.309125  0.923224  0.580610  1
  Se  Se11  1  0.076776  0.309125  0.419390  1
  Se  Se12  1  0.815042  0.963914  0.970449  1
  Se  Se13  1  0.036086  0.815042  0.029551  1
  Se  Se14  1  0.963914  0.184958  0.029551  1
  Se  Se15  1  0.184958  0.036086  0.970449  1
  Se  Se16  1  0.536086  0.684958  0.029551  1
  Se  Se17  1  0.463914  0.315042  0.029551  1
  Se  Se18  1  0.684958  0.463914  0.970449  1
  Se  Se19  1  0.315042  0.536086  0.970449  1
  Se  Se20  1  0.789414  0.204613  0.124903  1
  Se  Se21  1  0.795387  0.789414  0.875097  1
  Se  Se22  1  0.204613  0.210586  0.875097  1
  Se  Se23  1  0.210586  0.795387  0.124903  1
  Se  Se24  1  0.295387  0.710586  0.875097  1
  Se  Se25  1  0.704613  0.289414  0.875097  1
  Se  Se26  1  0.710586  0.704613  0.124903  1
  Se  Se27  1  0.289414  0.295387  0.124903  1
  Se  Se28  1  0.919281  0.308650  0.586519  1
  Se  Se29  1  0.691350  0.919281  0.413481  1
  Se  Se30  1  0.308650  0.080719  0.413481  1
  Se  Se31  1  0.080719  0.691350  0.586519  1
  Se  Se32  1  0.191350  0.580719  0.413481  1
  Se  Se33  1  0.808650  0.419281  0.413481  1
  Se  Se34  1  0.580719  0.808650  0.586519  1
  Se  Se35  1  0.419281  0.191350  0.586519  1
  Se  Se36  1  0.690875  0.076776  0.580610  1
  Se  Se37  1  0.923224  0.690875  0.419390  1
