# generated using pymatgen
data_Ta5GaSiGe
_symmetry_space_group_name_H-M   'P 1'
_cell_length_a   7.64665615
_cell_length_b   7.64665587
_cell_length_c   7.64665754
_cell_angle_alpha   128.62831436
_cell_angle_beta   128.63557513
_cell_angle_gamma   75.60351736
_symmetry_Int_Tables_number   1
_chemical_formula_structural   Ta5GaSiGe
_chemical_formula_sum   'Ta10 Ga2 Si2 Ge2'
_cell_volume   265.44239662
_cell_formula_units_Z   2
loop_
 _symmetry_equiv_pos_site_id
 _symmetry_equiv_pos_as_xyz
  1  'x, y, z'
loop_
 _atom_site_type_symbol
 _atom_site_label
 _atom_site_symmetry_multiplicity
 _atom_site_fract_x
 _atom_site_fract_y
 _atom_site_fract_z
 _atom_site_occupancy
  Ta  Ta0  1  0.012578  0.183261  0.495671  1
  Ta  Ta1  1  0.512578  0.016907  0.829319  1
  Ta  Ta2  1  0.184317  0.687588  0.176732  1
  Ta  Ta3  1  0.489145  0.992416  0.176732  1
  Ta  Ta4  1  0.684317  0.507584  0.496729  1
  Ta  Ta5  1  0.989145  0.812412  0.496729  1
  Ta  Ta6  1  0.312411  0.483093  0.495671  1
  Ta  Ta7  1  0.812411  0.316739  0.829319  1
  Ta  Ta8  1  0.502002  0.495039  0.997041  1
  Ta  Ta9  1  0.002002  0.004961  0.006964  1
  Ga  Ga10  1  0.133035  0.633632  0.766668  1
  Ga  Ga11  1  0.633035  0.866368  0.499402  1
  Si  Si12  1  0.369153  0.129771  0.498924  1
  Si  Si13  1  0.869153  0.370229  0.239382  1
  Ge  Ge14  1  0.747359  0.750000  0.997359  1
  Ge  Ge15  1  0.247359  0.250000  0.997359  1
