# generated using pymatgen
data_DyY7Te4
_symmetry_space_group_name_H-M   'P 1'
_cell_length_a   4.08678700
_cell_length_b   11.54644105
_cell_length_c   22.23104710
_cell_angle_alpha   89.98919417
_cell_angle_beta   90.00000000
_cell_angle_gamma   90.00000000
_symmetry_Int_Tables_number   1
_chemical_formula_structural   DyY7Te4
_chemical_formula_sum   'Dy3 Y21 Te12'
_cell_volume   1049.03519014
_cell_formula_units_Z   3
loop_
 _symmetry_equiv_pos_site_id
 _symmetry_equiv_pos_as_xyz
  1  'x, y, z'
loop_
 _atom_site_type_symbol
 _atom_site_label
 _atom_site_symmetry_multiplicity
 _atom_site_fract_x
 _atom_site_fract_y
 _atom_site_fract_z
 _atom_site_occupancy
  Dy  Dy0  1  0.750000  0.386966  0.017037  1
  Dy  Dy1  1  0.750000  0.112731  0.517044  1
  Dy  Dy2  1  0.250000  0.887333  0.482952  1
  Y  Y3  1  0.250000  0.151778  0.391476  1
  Y  Y4  1  0.750000  0.848241  0.608554  1
  Y  Y5  1  0.750000  0.651789  0.108788  1
  Y  Y6  1  0.250000  0.348043  0.891404  1
  Y  Y7  1  0.250000  0.456367  0.339959  1
  Y  Y8  1  0.750000  0.543628  0.660066  1
  Y  Y9  1  0.750000  0.956346  0.160032  1
  Y  Y10  1  0.250000  0.043669  0.839948  1
  Y  Y11  1  0.250000  0.734092  0.233544  1
  Y  Y12  1  0.750000  0.265876  0.766462  1
  Y  Y13  1  0.750000  0.234088  0.266460  1
  Y  Y14  1  0.250000  0.765840  0.733550  1
  Y  Y15  1  0.250000  0.115574  0.034382  1
  Y  Y16  1  0.750000  0.884500  0.965615  1
  Y  Y17  1  0.750000  0.615605  0.465625  1
  Y  Y18  1  0.250000  0.384376  0.534380  1
  Y  Y19  1  0.250000  0.414489  0.146800  1
  Y  Y20  1  0.750000  0.585469  0.853019  1
  Y  Y21  1  0.750000  0.914459  0.353196  1
  Y  Y22  1  0.250000  0.085542  0.646802  1
  Y  Y23  1  0.250000  0.613274  0.982841  1
  Te  Te24  1  0.250000  0.850357  0.069031  1
  Te  Te25  1  0.750000  0.149648  0.930997  1
  Te  Te26  1  0.750000  0.350431  0.430994  1
  Te  Te27  1  0.250000  0.649571  0.569016  1
  Te  Te28  1  0.250000  0.712079  0.372843  1
  Te  Te29  1  0.750000  0.287906  0.627156  1
  Te  Te30  1  0.750000  0.212078  0.127163  1
  Te  Te31  1  0.250000  0.787875  0.872838  1
  Te  Te32  1  0.250000  0.020704  0.261065  1
  Te  Te33  1  0.750000  0.979314  0.738951  1
  Te  Te34  1  0.750000  0.520665  0.238925  1
  Te  Te35  1  0.250000  0.479295  0.761083  1
