# generated using pymatgen
data_Tb5ErAl24(RuRh3)2
_symmetry_space_group_name_H-M   'P 1'
_cell_length_a   8.83555670
_cell_length_b   8.82947419
_cell_length_c   9.50769600
_cell_angle_alpha   90.00000000
_cell_angle_beta   90.00000000
_cell_angle_gamma   119.97722510
_symmetry_Int_Tables_number   1
_chemical_formula_structural   Tb5ErAl24(RuRh3)2
_chemical_formula_sum   'Tb5 Er1 Al24 Ru2 Rh6'
_cell_volume   642.50172902
_cell_formula_units_Z   1
loop_
 _symmetry_equiv_pos_site_id
 _symmetry_equiv_pos_as_xyz
  1  'x, y, z'
loop_
 _atom_site_type_symbol
 _atom_site_label
 _atom_site_symmetry_multiplicity
 _atom_site_fract_x
 _atom_site_fract_y
 _atom_site_fract_z
 _atom_site_occupancy
  Tb  Tb0  1  0.808495  0.191259  0.250000  1
  Tb  Tb1  1  0.808495  0.617235  0.250000  1
  Tb  Tb2  1  0.617894  0.808948  0.750000  1
  Tb  Tb3  1  0.191020  0.808837  0.750000  1
  Tb  Tb4  1  0.191020  0.382184  0.750000  1
  Er  Er5  1  0.383613  0.191806  0.250000  1
  Al  Al6  1  0.437919  0.876454  0.250000  1
  Al  Al7  1  0.123972  0.561986  0.250000  1
  Al  Al8  1  0.437919  0.561465  0.250000  1
  Al  Al9  1  0.562056  0.124000  0.750000  1
  Al  Al10  1  0.876074  0.438037  0.750000  1
  Al  Al11  1  0.562056  0.438055  0.750000  1
  Al  Al12  1  0.163266  0.837155  0.424129  1
  Al  Al13  1  0.163266  0.326113  0.424129  1
  Al  Al14  1  0.673804  0.836903  0.424232  1
  Al  Al15  1  0.836892  0.163133  0.575830  1
  Al  Al16  1  0.836892  0.673757  0.575830  1
  Al  Al17  1  0.326235  0.163116  0.575539  1
  Al  Al18  1  0.836892  0.163133  0.924170  1
  Al  Al19  1  0.836892  0.673757  0.924170  1
  Al  Al20  1  0.326235  0.163116  0.924461  1
  Al  Al21  1  0.163266  0.837155  0.075871  1
  Al  Al22  1  0.163266  0.326113  0.075871  1
  Al  Al23  1  0.673804  0.836903  0.075768  1
  Al  Al24  1  0.333281  0.666641  0.529713  1
  Al  Al25  1  0.666184  0.333092  0.470010  1
  Al  Al26  1  0.666184  0.333092  0.029990  1
  Al  Al27  1  0.333281  0.666641  0.970287  1
  Al  Al28  1  0.000359  0.000179  0.250000  1
  Al  Al29  1  0.000038  0.000019  0.750000  1
  Ru  Ru30  1  0.000039  0.000020  0.499637  1
  Ru  Ru31  1  0.000039  0.000020  0.000363  1
  Rh  Rh32  1  0.499873  0.000070  0.499882  1
  Rh  Rh33  1  0.999931  0.499966  0.499935  1
  Rh  Rh34  1  0.499873  0.499803  0.499882  1
  Rh  Rh35  1  0.499873  0.000070  0.000118  1
  Rh  Rh36  1  0.999931  0.499966  0.000065  1
  Rh  Rh37  1  0.499873  0.499803  0.000118  1
