# generated using pymatgen
data_La4Ga4Pt3Rh
_symmetry_space_group_name_H-M   'P 1'
_cell_length_a   4.55192700
_cell_length_b   7.19451499
_cell_length_c   7.95445636
_cell_angle_alpha   89.89507478
_cell_angle_beta   90.00000000
_cell_angle_gamma   90.00000000
_symmetry_Int_Tables_number   1
_chemical_formula_structural   La4Ga4Pt3Rh
_chemical_formula_sum   'La4 Ga4 Pt3 Rh1'
_cell_volume   260.49931515
_cell_formula_units_Z   1
loop_
 _symmetry_equiv_pos_site_id
 _symmetry_equiv_pos_as_xyz
  1  'x, y, z'
loop_
 _atom_site_type_symbol
 _atom_site_label
 _atom_site_symmetry_multiplicity
 _atom_site_fract_x
 _atom_site_fract_y
 _atom_site_fract_z
 _atom_site_occupancy
  La  La0  1  0.250000  0.034632  0.685539  1
  La  La1  1  0.250000  0.530256  0.809989  1
  La  La2  1  0.750000  0.972578  0.309917  1
  La  La3  1  0.750000  0.468094  0.192741  1
  Ga  Ga4  1  0.250000  0.157398  0.071682  1
  Ga  Ga5  1  0.250000  0.651676  0.430450  1
  Ga  Ga6  1  0.750000  0.843955  0.930910  1
  Ga  Ga7  1  0.750000  0.342198  0.567094  1
  Pt  Pt8  1  0.250000  0.779701  0.108585  1
  Pt  Pt9  1  0.750000  0.722422  0.609129  1
  Pt  Pt10  1  0.750000  0.220479  0.890948  1
  Rh  Rh11  1  0.250000  0.276610  0.393015  1
