# generated using pymatgen
data_Pr2Al3Zn5
_symmetry_space_group_name_H-M   'P 1'
_cell_length_a   6.26136553
_cell_length_b   6.26136725
_cell_length_c   5.95774653
_cell_angle_alpha   89.79054226
_cell_angle_beta   90.20945653
_cell_angle_gamma   123.34621677
_symmetry_Int_Tables_number   1
_chemical_formula_structural   Pr2Al3Zn5
_chemical_formula_sum   'Pr2 Al3 Zn5'
_cell_volume   195.11577661
_cell_formula_units_Z   1
loop_
 _symmetry_equiv_pos_site_id
 _symmetry_equiv_pos_as_xyz
  1  'x, y, z'
loop_
 _atom_site_type_symbol
 _atom_site_label
 _atom_site_symmetry_multiplicity
 _atom_site_fract_x
 _atom_site_fract_y
 _atom_site_fract_z
 _atom_site_occupancy
  Pr  Pr0  1  0.749671  0.249787  0.248568  1
  Pr  Pr1  1  0.249787  0.749671  0.751433  1
  Al  Al2  1  0.249580  0.249580  0.000000  1
  Al  Al3  1  0.750441  0.750441  0.000000  1
  Al  Al4  1  0.245518  0.245518  0.500000  1
  Zn  Zn5  1  0.366727  0.639564  0.255492  1
  Zn  Zn6  1  0.136869  0.856488  0.250692  1
  Zn  Zn7  1  0.755360  0.755360  0.500000  1
  Zn  Zn8  1  0.856488  0.136869  0.749309  1
  Zn  Zn9  1  0.639564  0.366727  0.744509  1
