# generated using pymatgen
data_Pr16Co3Ag4Pt
_symmetry_space_group_name_H-M   'P 1'
_cell_length_a   9.85899124
_cell_length_b   9.85898988
_cell_length_c   9.85899015
_cell_angle_alpha   59.86569958
_cell_angle_beta   59.86570690
_cell_angle_gamma   59.86569795
_symmetry_Int_Tables_number   1
_chemical_formula_structural   Pr16Co3Ag4Pt
_chemical_formula_sum   'Pr16 Co3 Ag4 Pt1'
_cell_volume   675.54895567
_cell_formula_units_Z   1
loop_
 _symmetry_equiv_pos_site_id
 _symmetry_equiv_pos_as_xyz
  1  'x, y, z'
loop_
 _atom_site_type_symbol
 _atom_site_label
 _atom_site_symmetry_multiplicity
 _atom_site_fract_x
 _atom_site_fract_y
 _atom_site_fract_z
 _atom_site_occupancy
  Pr  Pr0  1  0.301244  0.895140  0.895140  1
  Pr  Pr1  1  0.685893  0.685893  0.312795  1
  Pr  Pr2  1  0.895140  0.895140  0.301244  1
  Pr  Pr3  1  0.310587  0.689528  0.310587  1
  Pr  Pr4  1  0.689528  0.310587  0.310587  1
  Pr  Pr5  1  0.060957  0.440252  0.440252  1
  Pr  Pr6  1  0.451363  0.059084  0.059084  1
  Pr  Pr7  1  0.059084  0.059084  0.451363  1
  Pr  Pr8  1  0.310587  0.310587  0.689528  1
  Pr  Pr9  1  0.440252  0.060957  0.440252  1
  Pr  Pr10  1  0.904162  0.904162  0.904162  1
  Pr  Pr11  1  0.440252  0.440252  0.060957  1
  Pr  Pr12  1  0.312795  0.685893  0.685893  1
  Pr  Pr13  1  0.685893  0.312795  0.685893  1
  Pr  Pr14  1  0.059084  0.451363  0.059084  1
  Pr  Pr15  1  0.895140  0.301244  0.895140  1
  Co  Co16  1  0.108693  0.108693  0.674624  1
  Co  Co17  1  0.674624  0.108693  0.108693  1
  Co  Co18  1  0.108693  0.674624  0.108693  1
  Ag  Ag19  1  0.670538  0.670538  0.988704  1
  Ag  Ag20  1  0.988704  0.670538  0.670538  1
  Ag  Ag21  1  0.670538  0.988704  0.670538  1
  Ag  Ag22  1  0.667982  0.667982  0.667982  1
  Pt  Pt23  1  0.108271  0.108271  0.108271  1
