# generated using pymatgen
data_TaCo2SiMoP
_symmetry_space_group_name_H-M   'P 1'
_cell_length_a   6.09219800
_cell_length_b   3.61679800
_cell_length_c   6.93586600
_cell_angle_alpha   90.00000000
_cell_angle_beta   90.00000000
_cell_angle_gamma   90.00000000
_symmetry_Int_Tables_number   1
_chemical_formula_structural   TaCo2SiMoP
_chemical_formula_sum   'Ta2 Co4 Si2 Mo2 P2'
_cell_volume   152.82660223
_cell_formula_units_Z   2
loop_
 _symmetry_equiv_pos_site_id
 _symmetry_equiv_pos_as_xyz
  1  'x, y, z'
loop_
 _atom_site_type_symbol
 _atom_site_label
 _atom_site_symmetry_multiplicity
 _atom_site_fract_x
 _atom_site_fract_y
 _atom_site_fract_z
 _atom_site_occupancy
  Ta  Ta0  1  0.975666  0.750000  0.173523  1
  Ta  Ta1  1  0.475666  0.750000  0.326477  1
  Co  Co2  1  0.145515  0.250000  0.428865  1
  Co  Co3  1  0.645515  0.250000  0.071135  1
  Co  Co4  1  0.853205  0.750000  0.554396  1
  Co  Co5  1  0.353205  0.750000  0.945604  1
  Si  Si6  1  0.221568  0.750000  0.630779  1
  Si  Si7  1  0.721568  0.750000  0.869221  1
  Mo  Mo8  1  0.026953  0.250000  0.833398  1
  Mo  Mo9  1  0.526953  0.250000  0.666602  1
  P  P10  1  0.777093  0.250000  0.385845  1
  P  P11  1  0.277093  0.250000  0.114155  1
