# generated using pymatgen
data_Zr12Ti4Pt7WN4
_symmetry_space_group_name_H-M   'P 1'
_cell_length_a   8.72447228
_cell_length_b   8.71989766
_cell_length_c   8.71989800
_cell_angle_alpha   60.00000629
_cell_angle_beta   60.01734994
_cell_angle_gamma   60.01734436
_symmetry_Int_Tables_number   1
_chemical_formula_structural   Zr12Ti4Pt7WN4
_chemical_formula_sum   'Zr12 Ti4 Pt7 W1 N4'
_cell_volume   469.20302777
_cell_formula_units_Z   1
loop_
 _symmetry_equiv_pos_site_id
 _symmetry_equiv_pos_as_xyz
  1  'x, y, z'
loop_
 _atom_site_type_symbol
 _atom_site_label
 _atom_site_symmetry_multiplicity
 _atom_site_fract_x
 _atom_site_fract_y
 _atom_site_fract_z
 _atom_site_occupancy
  Zr  Zr0  1  0.813296  0.807434  0.189635  1
  Zr  Zr1  1  0.185156  0.187862  0.813491  1
  Zr  Zr2  1  0.813296  0.189635  0.807434  1
  Zr  Zr3  1  0.185156  0.813491  0.187862  1
  Zr  Zr4  1  0.185156  0.813491  0.813491  1
  Zr  Zr5  1  0.813296  0.189635  0.189635  1
  Zr  Zr6  1  0.435160  0.435019  0.064910  1
  Zr  Zr7  1  0.058184  0.070659  0.435579  1
  Zr  Zr8  1  0.435160  0.064910  0.435019  1
  Zr  Zr9  1  0.058184  0.435579  0.070659  1
  Zr  Zr10  1  0.058184  0.435579  0.435579  1
  Zr  Zr11  1  0.435160  0.064910  0.064910  1
  Ti  Ti12  1  0.126206  0.624598  0.624598  1
  Ti  Ti13  1  0.626748  0.116265  0.628493  1
  Ti  Ti14  1  0.626748  0.628493  0.116265  1
  Ti  Ti15  1  0.626748  0.628493  0.628493  1
  Pt  Pt16  1  0.421201  0.755069  0.411865  1
  Pt  Pt17  1  0.421201  0.411865  0.755069  1
  Pt  Pt18  1  0.421201  0.411865  0.411865  1
  Pt  Pt19  1  0.483850  0.838717  0.838717  1
  Pt  Pt20  1  0.841085  0.486866  0.836025  1
  Pt  Pt21  1  0.841085  0.836025  0.486866  1
  Pt  Pt22  1  0.841085  0.836025  0.836025  1
  W  W23  1  0.742089  0.419303  0.419303  1
  N  N24  1  0.622767  0.125744  0.125744  1
  N  N25  1  0.127532  0.624430  0.124019  1
  N  N26  1  0.127532  0.124019  0.624430  1
  N  N27  1  0.127532  0.124019  0.124019  1
