# generated using pymatgen
data_KTlFe2P2(O4F)2
_symmetry_space_group_name_H-M   'P 1'
_cell_length_a   6.44680100
_cell_length_b   10.80440100
_cell_length_c   13.05242200
_cell_angle_alpha   90.00000000
_cell_angle_beta   90.00000000
_cell_angle_gamma   90.00000000
_symmetry_Int_Tables_number   1
_chemical_formula_structural   KTlFe2P2(O4F)2
_chemical_formula_sum   'K4 Tl4 Fe8 P8 O32 F8'
_cell_volume   909.15109394
_cell_formula_units_Z   4
loop_
 _symmetry_equiv_pos_site_id
 _symmetry_equiv_pos_as_xyz
  1  'x, y, z'
loop_
 _atom_site_type_symbol
 _atom_site_label
 _atom_site_symmetry_multiplicity
 _atom_site_fract_x
 _atom_site_fract_y
 _atom_site_fract_z
 _atom_site_occupancy
  K  K0  1  0.696984  0.442614  0.104909  1
  K  K1  1  0.273174  0.703330  0.123750  1
  K  K2  1  0.725277  0.201976  0.876285  1
  K  K3  1  0.225013  0.701176  0.624112  1
  Tl  Tl4  1  0.778929  0.193246  0.382600  1
  Tl  Tl5  1  0.305318  0.941293  0.897614  1
  Tl  Tl6  1  0.806400  0.440910  0.602362  1
  Tl  Tl7  1  0.190876  0.941827  0.398146  1
  Fe  Fe8  1  0.749889  0.747933  0.252188  1
  Fe  Fe9  1  0.249559  0.248574  0.747532  1
  Fe  Fe10  1  0.750115  0.747305  0.753083  1
  Fe  Fe11  1  0.252634  0.250479  0.245394  1
  Fe  Fe12  1  0.491059  0.500282  0.387583  1
  Fe  Fe13  1  0.508857  0.999023  0.612732  1
  Fe  Fe14  1  0.007570  0.499181  0.889626  1
  Fe  Fe15  1  0.991040  0.999490  0.110495  1
  P  P16  1  0.998073  0.497150  0.315602  1
  P  P17  1  0.497756  0.996242  0.182547  1
  P  P18  1  0.502060  0.496400  0.817917  1
  P  P19  1  0.002023  0.996478  0.683940  1
  P  P20  1  0.170286  0.248521  0.999890  1
  P  P21  1  0.828939  0.746239  0.000012  1
  P  P22  1  0.329527  0.249264  0.500876  1
  P  P23  1  0.669792  0.747265  0.499647  1
  O  O24  1  0.305723  0.968208  0.114611  1
  O  O25  1  0.812003  0.023519  0.615432  1
  O  O26  1  0.311384  0.523549  0.885932  1
  O  O27  1  0.687690  0.023898  0.114297  1
  O  O28  1  0.037596  0.382614  0.245384  1
  O  O29  1  0.961546  0.881762  0.753965  1
  O  O30  1  0.462449  0.381823  0.747341  1
  O  O31  1  0.538130  0.881972  0.253078  1
  O  O32  1  0.521487  0.860078  0.513856  1
  O  O33  1  0.479027  0.361628  0.487334  1
  O  O34  1  0.977407  0.859018  0.013855  1
  O  O35  1  0.018583  0.359556  0.987419  1
  O  O36  1  0.804864  0.470916  0.383594  1
  O  O37  1  0.194522  0.968963  0.616153  1
  O  O38  1  0.692654  0.469339  0.887043  1
  O  O39  1  0.187642  0.523920  0.384420  1
  O  O40  1  0.526638  0.631389  0.489001  1
  O  O41  1  0.467620  0.131585  0.513560  1
  O  O42  1  0.971718  0.630369  0.990295  1
  O  O43  1  0.451233  0.108012  0.254643  1
  O  O44  1  0.804693  0.764453  0.403084  1
  O  O45  1  0.191479  0.266969  0.596142  1
  O  O46  1  0.694269  0.764054  0.903500  1
  O  O47  1  0.309406  0.267595  0.094915  1
  O  O48  1  0.691374  0.728562  0.096166  1
  O  O49  1  0.306271  0.231520  0.903020  1
  O  O50  1  0.806672  0.729941  0.596202  1
  O  O51  1  0.200689  0.232936  0.401819  1
  O  O52  1  0.953190  0.608232  0.242900  1
  O  O53  1  0.046807  0.108025  0.756300  1
  O  O54  1  0.547140  0.607378  0.744806  1
  O  O55  1  0.030022  0.131316  0.010371  1
  F  F56  1  0.977001  0.867127  0.223406  1
  F  F57  1  0.021510  0.366834  0.776863  1
  F  F58  1  0.522409  0.866236  0.724171  1
  F  F59  1  0.479733  0.371246  0.271268  1
  F  F60  1  0.029085  0.122752  0.224913  1
  F  F61  1  0.976848  0.621405  0.771926  1
  F  F62  1  0.476515  0.121919  0.729326  1
  F  F63  1  0.523821  0.620387  0.268850  1
