# generated using pymatgen
data_CsBaSbSe3
_symmetry_space_group_name_H-M   'P 1'
_cell_length_a   9.43963900
_cell_length_b   10.25641685
_cell_length_c   9.71229330
_cell_angle_alpha   72.80122308
_cell_angle_beta   90.00000000
_cell_angle_gamma   90.00000000
_symmetry_Int_Tables_number   1
_chemical_formula_structural   CsBaSbSe3
_chemical_formula_sum   'Cs4 Ba4 Sb4 Se12'
_cell_volume   898.26742158
_cell_formula_units_Z   4
loop_
 _symmetry_equiv_pos_site_id
 _symmetry_equiv_pos_as_xyz
  1  'x, y, z'
loop_
 _atom_site_type_symbol
 _atom_site_label
 _atom_site_symmetry_multiplicity
 _atom_site_fract_x
 _atom_site_fract_y
 _atom_site_fract_z
 _atom_site_occupancy
  Cs  Cs0  1  0.080893  0.586676  0.285685  1
  Cs  Cs1  1  0.580893  0.413324  0.214315  1
  Cs  Cs2  1  0.919107  0.413324  0.714315  1
  Cs  Cs3  1  0.419107  0.586676  0.785685  1
  Ba  Ba4  1  0.714363  0.922911  0.033336  1
  Ba  Ba5  1  0.214363  0.077089  0.466664  1
  Ba  Ba6  1  0.285637  0.077089  0.966664  1
  Ba  Ba7  1  0.785637  0.922911  0.533336  1
  Sb  Sb8  1  0.451934  0.763719  0.357602  1
  Sb  Sb9  1  0.951934  0.236281  0.142398  1
  Sb  Sb10  1  0.548066  0.236281  0.642398  1
  Sb  Sb11  1  0.048066  0.763719  0.857602  1
  Se  Se12  1  0.205580  0.334395  0.099253  1
  Se  Se13  1  0.705580  0.665605  0.400747  1
  Se  Se14  1  0.794420  0.665605  0.900747  1
  Se  Se15  1  0.294420  0.334395  0.599253  1
  Se  Se16  1  0.011882  0.975218  0.219904  1
  Se  Se17  1  0.511882  0.024782  0.280096  1
  Se  Se18  1  0.988118  0.024782  0.780096  1
  Se  Se19  1  0.488118  0.975218  0.719904  1
  Se  Se20  1  0.402096  0.750114  0.101064  1
  Se  Se21  1  0.902096  0.249886  0.398936  1
  Se  Se22  1  0.597904  0.249886  0.898936  1
  Se  Se23  1  0.097904  0.750114  0.601064  1
