# generated using pymatgen
data_Y2TmIn3Ag2Ir
_symmetry_space_group_name_H-M   'P 1'
_cell_length_a   7.95243317
_cell_length_b   7.96924781
_cell_length_c   3.75728800
_cell_angle_alpha   90.00000000
_cell_angle_beta   90.00000000
_cell_angle_gamma   120.11993768
_symmetry_Int_Tables_number   1
_chemical_formula_structural   Y2TmIn3Ag2Ir
_chemical_formula_sum   'Y2 Tm1 In3 Ag2 Ir1'
_cell_volume   205.96637766
_cell_formula_units_Z   1
loop_
 _symmetry_equiv_pos_site_id
 _symmetry_equiv_pos_as_xyz
  1  'x, y, z'
loop_
 _atom_site_type_symbol
 _atom_site_label
 _atom_site_symmetry_multiplicity
 _atom_site_fract_x
 _atom_site_fract_y
 _atom_site_fract_z
 _atom_site_occupancy
  Y  Y0  1  0.581403  0.610945  0.000000  1
  Y  Y1  1  0.388616  0.969713  0.000000  1
  Tm  Tm2  1  0.032712  0.421387  0.000000  1
  In  In3  1  0.992248  0.724375  0.500000  1
  In  In4  1  0.274705  0.267961  0.500000  1
  In  In5  1  0.732877  0.008056  0.500000  1
  Ag  Ag6  1  0.000076  0.001631  0.000000  1
  Ag  Ag7  1  0.668844  0.333300  0.500000  1
  Ir  Ir8  1  0.328519  0.662633  0.500000  1
