# generated using pymatgen
data_Tb3Dy2Co(P2Ru3)6
_symmetry_space_group_name_H-M   'P 1'
_cell_length_a   12.49045815
_cell_length_b   12.49045757
_cell_length_c   3.97412900
_cell_angle_alpha   90.00000000
_cell_angle_beta   90.00000000
_cell_angle_gamma   120.01784340
_symmetry_Int_Tables_number   1
_chemical_formula_structural   Tb3Dy2Co(P2Ru3)6
_chemical_formula_sum   'Tb3 Dy2 Co1 P12 Ru18'
_cell_volume   536.84781985
_cell_formula_units_Z   1
loop_
 _symmetry_equiv_pos_site_id
 _symmetry_equiv_pos_as_xyz
  1  'x, y, z'
loop_
 _atom_site_type_symbol
 _atom_site_label
 _atom_site_symmetry_multiplicity
 _atom_site_fract_x
 _atom_site_fract_y
 _atom_site_fract_z
 _atom_site_occupancy
  Tb  Tb0  1  0.333369  0.666655  0.000000  1
  Tb  Tb1  1  0.666655  0.333369  0.000000  1
  Tb  Tb2  1  0.817036  0.817036  0.500000  1
  Dy  Dy3  1  0.182836  0.999996  0.500000  1
  Dy  Dy4  1  0.999996  0.182836  0.500000  1
  Co  Co5  1  0.000177  0.000177  0.000000  1
  P  P6  1  0.372978  0.000021  0.000000  1
  P  P7  1  0.000021  0.372978  0.000000  1
  P  P8  1  0.626934  0.626934  0.000000  1
  P  P9  1  0.306411  0.475961  0.500000  1
  P  P10  1  0.523952  0.830419  0.500000  1
  P  P11  1  0.169676  0.693502  0.500000  1
  P  P12  1  0.830419  0.523952  0.500000  1
  P  P13  1  0.693502  0.169676  0.500000  1
  P  P14  1  0.475961  0.306411  0.500000  1
  P  P15  1  0.822749  0.000272  0.000000  1
  P  P16  1  0.000272  0.822749  0.000000  1
  P  P17  1  0.177257  0.177257  0.000000  1
  Ru  Ru18  1  0.190835  0.374825  0.000000  1
  Ru  Ru19  1  0.624816  0.816107  0.000000  1
  Ru  Ru20  1  0.184143  0.809187  0.000000  1
  Ru  Ru21  1  0.816107  0.624816  0.000000  1
  Ru  Ru22  1  0.809187  0.184143  0.000000  1
  Ru  Ru23  1  0.374825  0.190835  0.000000  1
  Ru  Ru24  1  0.556165  0.000138  0.000000  1
  Ru  Ru25  1  0.000138  0.556165  0.000000  1
  Ru  Ru26  1  0.443792  0.443792  0.000000  1
  Ru  Ru27  1  0.125914  0.491220  0.500000  1
  Ru  Ru28  1  0.508618  0.634545  0.500000  1
  Ru  Ru29  1  0.365388  0.874061  0.500000  1
  Ru  Ru30  1  0.634545  0.508618  0.500000  1
  Ru  Ru31  1  0.874061  0.365388  0.500000  1
  Ru  Ru32  1  0.491220  0.125914  0.500000  1
  Ru  Ru33  1  0.720612  0.000211  0.500000  1
  Ru  Ru34  1  0.000211  0.720612  0.500000  1
  Ru  Ru35  1  0.279221  0.279221  0.500000  1
