# generated using pymatgen
data_Ce2FeSi5Rh2
_symmetry_space_group_name_H-M   'P 1'
_cell_length_a   8.16008970
_cell_length_b   8.16008986
_cell_length_c   8.16008957
_cell_angle_alpha   138.99807896
_cell_angle_beta   105.71113624
_cell_angle_gamma   88.54022695
_symmetry_Int_Tables_number   1
_chemical_formula_structural   Ce2FeSi5Rh2
_chemical_formula_sum   'Ce4 Fe2 Si10 Rh4'
_cell_volume   329.11612237
_cell_formula_units_Z   2
loop_
 _symmetry_equiv_pos_site_id
 _symmetry_equiv_pos_as_xyz
  1  'x, y, z'
loop_
 _atom_site_type_symbol
 _atom_site_label
 _atom_site_symmetry_multiplicity
 _atom_site_fract_x
 _atom_site_fract_y
 _atom_site_fract_z
 _atom_site_occupancy
  Ce  Ce0  1  0.865019  0.630229  0.234790  1
  Ce  Ce1  1  0.134981  0.369771  0.765210  1
  Ce  Ce2  1  0.395439  0.130229  0.265210  1
  Ce  Ce3  1  0.604561  0.869771  0.734790  1
  Fe  Fe4  1  0.000000  0.750000  0.750000  1
  Fe  Fe5  1  0.000000  0.250000  0.250000  1
  Si  Si6  1  0.500000  0.750000  0.250000  1
  Si  Si7  1  0.500000  0.250000  0.750000  1
  Si  Si8  1  0.218700  0.968700  0.750000  1
  Si  Si9  1  0.781300  0.531300  0.750000  1
  Si  Si10  1  0.781300  0.031300  0.250000  1
  Si  Si11  1  0.218700  0.468700  0.250000  1
  Si  Si12  1  0.048030  0.901467  0.146564  1
  Si  Si13  1  0.951970  0.098533  0.853436  1
  Si  Si14  1  0.754903  0.401467  0.353436  1
  Si  Si15  1  0.245097  0.598533  0.646564  1
  Rh  Rh16  1  0.247440  0.859668  0.387771  1
  Rh  Rh17  1  0.752560  0.140332  0.612229  1
  Rh  Rh18  1  0.471898  0.359668  0.112229  1
  Rh  Rh19  1  0.528102  0.640332  0.887771  1
