# generated using pymatgen
data_Dy8YSi4TcB16
_symmetry_space_group_name_H-M   'P 1'
_cell_length_a   7.15512800
_cell_length_b   7.15512800
_cell_length_c   7.85520300
_cell_angle_alpha   90.00000000
_cell_angle_beta   90.00000000
_cell_angle_gamma   90.00000000
_symmetry_Int_Tables_number   1
_chemical_formula_structural   Dy8YSi4TcB16
_chemical_formula_sum   'Dy8 Y1 Si4 Tc1 B16'
_cell_volume   402.15384711
_cell_formula_units_Z   1
loop_
 _symmetry_equiv_pos_site_id
 _symmetry_equiv_pos_as_xyz
  1  'x, y, z'
loop_
 _atom_site_type_symbol
 _atom_site_label
 _atom_site_symmetry_multiplicity
 _atom_site_fract_x
 _atom_site_fract_y
 _atom_site_fract_z
 _atom_site_occupancy
  Dy  Dy0  1  0.682717  0.178803  0.231891  1
  Dy  Dy1  1  0.317283  0.821197  0.768109  1
  Dy  Dy2  1  0.317283  0.821197  0.231891  1
  Dy  Dy3  1  0.821197  0.682717  0.231891  1
  Dy  Dy4  1  0.821197  0.682717  0.768109  1
  Dy  Dy5  1  0.682717  0.178803  0.768109  1
  Dy  Dy6  1  0.178803  0.317283  0.768109  1
  Dy  Dy7  1  0.178803  0.317283  0.231891  1
  Y  Y8  1  0.500000  0.500000  0.500000  1
  Si  Si9  1  0.106184  0.634174  0.500000  1
  Si  Si10  1  0.893816  0.365826  0.500000  1
  Si  Si11  1  0.365826  0.106184  0.500000  1
  Si  Si12  1  0.634174  0.893816  0.500000  1
  Tc  Tc13  1  0.000000  0.000000  0.500000  1
  B  B14  1  0.172754  0.039359  0.000000  1
  B  B15  1  0.827246  0.960641  0.000000  1
  B  B16  1  0.960641  0.172754  0.000000  1
  B  B17  1  0.328148  0.539552  0.000000  1
  B  B18  1  0.039359  0.827246  0.000000  1
  B  B19  1  0.671852  0.460448  0.000000  1
  B  B20  1  0.539552  0.671852  0.000000  1
  B  B21  1  0.460448  0.328148  0.000000  1
  B  B22  1  0.090368  0.589438  0.000000  1
  B  B23  1  0.909632  0.410562  0.000000  1
  B  B24  1  0.410562  0.090368  0.000000  1
  B  B25  1  0.589438  0.909632  0.000000  1
  B  B26  1  0.000000  0.000000  0.169323  1
  B  B27  1  0.000000  0.000000  0.830677  1
  B  B28  1  0.500000  0.500000  0.835341  1
  B  B29  1  0.500000  0.500000  0.164659  1
