# generated using pymatgen
data_Dy6MnAl24Cu3Ru4
_symmetry_space_group_name_H-M   'P 1'
_cell_length_a   8.81339912
_cell_length_b   8.76874622
_cell_length_c   9.45276082
_cell_angle_alpha   90.10244285
_cell_angle_beta   89.86101042
_cell_angle_gamma   119.38207609
_symmetry_Int_Tables_number   1
_chemical_formula_structural   Dy6MnAl24Cu3Ru4
_chemical_formula_sum   'Dy6 Mn1 Al24 Cu3 Ru4'
_cell_volume   636.56023520
_cell_formula_units_Z   1
loop_
 _symmetry_equiv_pos_site_id
 _symmetry_equiv_pos_as_xyz
  1  'x, y, z'
loop_
 _atom_site_type_symbol
 _atom_site_label
 _atom_site_symmetry_multiplicity
 _atom_site_fract_x
 _atom_site_fract_y
 _atom_site_fract_z
 _atom_site_occupancy
  Dy  Dy0  1  0.192250  0.804313  0.251712  1
  Dy  Dy1  1  0.190329  0.384961  0.247304  1
  Dy  Dy2  1  0.616418  0.808232  0.252696  1
  Dy  Dy3  1  0.807750  0.195687  0.748288  1
  Dy  Dy4  1  0.809671  0.615039  0.752696  1
  Dy  Dy5  1  0.383582  0.191768  0.747304  1
  Mn  Mn6  1  0.000000  0.000000  0.500000  1
  Al  Al7  1  0.560878  0.437878  0.250859  1
  Al  Al8  1  0.562574  0.124486  0.249242  1
  Al  Al9  1  0.875721  0.437336  0.251005  1
  Al  Al10  1  0.439122  0.562122  0.749141  1
  Al  Al11  1  0.437426  0.875514  0.750758  1
  Al  Al12  1  0.124279  0.562664  0.748995  1
  Al  Al13  1  0.315690  0.158974  0.421241  1
  Al  Al14  1  0.845611  0.164880  0.420552  1
  Al  Al15  1  0.845797  0.681463  0.423764  1
  Al  Al16  1  0.684310  0.841026  0.578759  1
  Al  Al17  1  0.154389  0.835120  0.579448  1
  Al  Al18  1  0.154203  0.318537  0.576236  1
  Al  Al19  1  0.676105  0.843449  0.924333  1
  Al  Al20  1  0.164961  0.837255  0.922639  1
  Al  Al21  1  0.158139  0.324780  0.922453  1
  Al  Al22  1  0.323895  0.156551  0.075667  1
  Al  Al23  1  0.835039  0.162745  0.077361  1
  Al  Al24  1  0.841861  0.675220  0.077547  1
  Al  Al25  1  0.669762  0.335151  0.523156  1
  Al  Al26  1  0.330238  0.664849  0.476844  1
  Al  Al27  1  0.332236  0.668597  0.024268  1
  Al  Al28  1  0.667764  0.331403  0.975732  1
  Al  Al29  1  0.996753  0.999784  0.254742  1
  Al  Al30  1  0.003247  0.000216  0.745258  1
  Cu  Cu31  1  0.500000  0.500000  0.500000  1
  Cu  Cu32  1  0.500000  0.000000  0.500000  1
  Cu  Cu33  1  0.500000  0.500000  0.000000  1
  Ru  Ru34  1  0.000000  0.000000  0.000000  1
  Ru  Ru35  1  0.000000  0.500000  0.500000  1
  Ru  Ru36  1  0.500000  0.000000  0.000000  1
  Ru  Ru37  1  0.000000  0.500000  0.000000  1
