# generated using pymatgen
data_Y6Er4InPb5
_symmetry_space_group_name_H-M   'P 1'
_cell_length_a   9.04248203
_cell_length_b   9.04248204
_cell_length_c   6.64775800
_cell_angle_alpha   90.00000000
_cell_angle_beta   90.00000000
_cell_angle_gamma   120.03785300
_symmetry_Int_Tables_number   1
_chemical_formula_structural   Y6Er4InPb5
_chemical_formula_sum   'Y6 Er4 In1 Pb5'
_cell_volume   470.56038458
_cell_formula_units_Z   1
loop_
 _symmetry_equiv_pos_site_id
 _symmetry_equiv_pos_as_xyz
  1  'x, y, z'
loop_
 _atom_site_type_symbol
 _atom_site_label
 _atom_site_symmetry_multiplicity
 _atom_site_fract_x
 _atom_site_fract_y
 _atom_site_fract_z
 _atom_site_occupancy
  Y  Y0  1  0.760033  0.760033  0.750000  1
  Y  Y1  1  0.239563  0.004613  0.750000  1
  Y  Y2  1  0.004613  0.239563  0.750000  1
  Y  Y3  1  0.238424  0.238424  0.250000  1
  Y  Y4  1  0.761817  0.999610  0.250000  1
  Y  Y5  1  0.999610  0.761817  0.250000  1
  Er  Er6  1  0.663943  0.333648  0.998143  1
  Er  Er7  1  0.333648  0.663943  0.998143  1
  Er  Er8  1  0.333648  0.663943  0.501857  1
  Er  Er9  1  0.663943  0.333648  0.501857  1
  In  In10  1  0.396308  0.396308  0.750000  1
  Pb  Pb11  1  0.606275  0.000381  0.750000  1
  Pb  Pb12  1  0.000381  0.606275  0.750000  1
  Pb  Pb13  1  0.604688  0.604688  0.250000  1
  Pb  Pb14  1  0.394347  0.998757  0.250000  1
  Pb  Pb15  1  0.998757  0.394347  0.250000  1
