# generated using pymatgen
data_Tb8Cd2CoOs
_symmetry_space_group_name_H-M   'P 1'
_cell_length_a   9.71555127
_cell_length_b   9.61283508
_cell_length_c   9.61283493
_cell_angle_alpha   59.42818289
_cell_angle_beta   59.64589589
_cell_angle_gamma   59.64590285
_symmetry_Int_Tables_number   1
_chemical_formula_structural   Tb8Cd2CoOs
_chemical_formula_sum   'Tb16 Cd4 Co2 Os2'
_cell_volume   628.66351867
_cell_formula_units_Z   2
loop_
 _symmetry_equiv_pos_site_id
 _symmetry_equiv_pos_as_xyz
  1  'x, y, z'
loop_
 _atom_site_type_symbol
 _atom_site_label
 _atom_site_symmetry_multiplicity
 _atom_site_fract_x
 _atom_site_fract_y
 _atom_site_fract_z
 _atom_site_occupancy
  Tb  Tb0  1  0.440625  0.436711  0.057046  1
  Tb  Tb1  1  0.589383  0.599308  0.599308  1
  Tb  Tb2  1  0.186004  0.813996  0.813996  1
  Tb  Tb3  1  0.065617  0.057046  0.436711  1
  Tb  Tb4  1  0.439882  0.060118  0.060118  1
  Tb  Tb5  1  0.814558  0.189602  0.806071  1
  Tb  Tb6  1  0.440625  0.057046  0.436711  1
  Tb  Tb7  1  0.593419  0.210820  0.602342  1
  Tb  Tb8  1  0.814558  0.806071  0.189602  1
  Tb  Tb9  1  0.212000  0.599308  0.599308  1
  Tb  Tb10  1  0.807189  0.192811  0.192811  1
  Tb  Tb11  1  0.060878  0.439122  0.439122  1
  Tb  Tb12  1  0.189768  0.806071  0.189602  1
  Tb  Tb13  1  0.593419  0.602342  0.210820  1
  Tb  Tb14  1  0.189768  0.189602  0.806071  1
  Tb  Tb15  1  0.065617  0.436711  0.057046  1
  Cd  Cd16  1  0.831401  0.829490  0.507707  1
  Cd  Cd17  1  0.831882  0.829711  0.829711  1
  Cd  Cd18  1  0.508695  0.829711  0.829711  1
  Cd  Cd19  1  0.831401  0.507707  0.829490  1
  Co  Co20  1  0.387789  0.831584  0.392840  1
  Co  Co21  1  0.387789  0.392840  0.831584  1
  Os  Os22  1  0.388273  0.391135  0.391135  1
  Os  Os23  1  0.829458  0.391135  0.391135  1
