# generated using pymatgen
data_Hf8FeCo6Si14Pd
_symmetry_space_group_name_H-M   'P 1'
_cell_length_a   9.52273192
_cell_length_b   9.49782385
_cell_length_c   9.50554340
_cell_angle_alpha   94.10070092
_cell_angle_beta   94.24115385
_cell_angle_gamma   148.71555047
_symmetry_Int_Tables_number   1
_chemical_formula_structural   Hf8FeCo6Si14Pd
_chemical_formula_sum   'Hf8 Fe1 Co6 Si14 Pd1'
_cell_volume   429.89755125
_cell_formula_units_Z   1
loop_
 _symmetry_equiv_pos_site_id
 _symmetry_equiv_pos_as_xyz
  1  'x, y, z'
loop_
 _atom_site_type_symbol
 _atom_site_label
 _atom_site_symmetry_multiplicity
 _atom_site_fract_x
 _atom_site_fract_y
 _atom_site_fract_z
 _atom_site_occupancy
  Hf  Hf0  1  0.136642  0.136634  0.273268  1
  Hf  Hf1  1  0.862183  0.862186  0.724344  1
  Hf  Hf2  1  0.133721  0.860479  0.998130  1
  Hf  Hf3  1  0.864371  0.137618  0.998132  1
  Hf  Hf4  1  0.304286  0.499669  0.802448  1
  Hf  Hf5  1  0.695740  0.501696  0.195633  1
  Hf  Hf6  1  0.499852  0.693899  0.195632  1
  Hf  Hf7  1  0.498176  0.302801  0.802449  1
  Fe  Fe8  1  0.394940  0.894935  0.789874  1
  Co  Co9  1  0.904545  0.105554  0.505357  1
  Co  Co10  1  0.600861  0.399858  0.505328  1
  Co  Co11  1  0.603616  0.103597  0.207313  1
  Co  Co12  1  0.900487  0.400513  0.801010  1
  Co  Co13  1  0.099129  0.893710  0.496823  1
  Co  Co14  1  0.397755  0.603168  0.496808  1
  Si  Si15  1  0.290138  0.290138  0.580216  1
  Si  Si16  1  0.709799  0.709800  0.419507  1
  Si  Si17  1  0.308478  0.725665  0.993813  1
  Si  Si18  1  0.685261  0.268078  0.993818  1
  Si  Si19  1  0.097187  0.505916  0.591667  1
  Si  Si20  1  0.878628  0.475306  0.415900  1
  Si  Si21  1  0.537256  0.940562  0.415913  1
  Si  Si22  1  0.494561  0.085831  0.591672  1
  Si  Si23  1  0.250954  0.250928  0.998724  1
  Si  Si24  1  0.747748  0.747777  0.998725  1
  Si  Si25  1  0.309193  0.017110  0.301475  1
  Si  Si26  1  0.700513  0.001011  0.700623  1
  Si  Si27  1  0.000153  0.699668  0.700618  1
  Si  Si28  1  0.992245  0.284313  0.301477  1
  Pd  Pd29  1  0.101582  0.601583  0.203302  1
