# generated using pymatgen
data_YbTm2Al3NiGe2
_symmetry_space_group_name_H-M   'P 1'
_cell_length_a   6.92296600
_cell_length_b   6.89913682
_cell_length_c   4.16752400
_cell_angle_alpha   90.00000000
_cell_angle_beta   90.00000000
_cell_angle_gamma   120.11432122
_symmetry_Int_Tables_number   1
_chemical_formula_structural   YbTm2Al3NiGe2
_chemical_formula_sum   'Yb1 Tm2 Al3 Ni1 Ge2'
_cell_volume   172.18457662
_cell_formula_units_Z   1
loop_
 _symmetry_equiv_pos_site_id
 _symmetry_equiv_pos_as_xyz
  1  'x, y, z'
loop_
 _atom_site_type_symbol
 _atom_site_label
 _atom_site_symmetry_multiplicity
 _atom_site_fract_x
 _atom_site_fract_y
 _atom_site_fract_z
 _atom_site_occupancy
  Yb  Yb0  1  0.407984  0.000000  0.000000  1
  Tm  Tm1  1  0.000776  0.406361  0.000000  1
  Tm  Tm2  1  0.594416  0.593639  0.000000  1
  Al  Al3  1  0.773221  0.000000  0.500000  1
  Al  Al4  1  0.227975  0.233142  0.500000  1
  Al  Al5  1  0.994833  0.766858  0.500000  1
  Ni  Ni6  1  0.996784  0.000000  0.000000  1
  Ge  Ge7  1  0.671042  0.338072  0.500000  1
  Ge  Ge8  1  0.332970  0.661928  0.500000  1
