# generated using pymatgen
data_DyScB6W
_symmetry_space_group_name_H-M   'P 1'
_cell_length_a   3.50634100
_cell_length_b   9.17312700
_cell_length_c   11.56587800
_cell_angle_alpha   90.00000000
_cell_angle_beta   90.00000000
_cell_angle_gamma   90.00000000
_symmetry_Int_Tables_number   1
_chemical_formula_structural   DyScB6W
_chemical_formula_sum   'Dy4 Sc4 B24 W4'
_cell_volume   372.00618725
_cell_formula_units_Z   4
loop_
 _symmetry_equiv_pos_site_id
 _symmetry_equiv_pos_as_xyz
  1  'x, y, z'
loop_
 _atom_site_type_symbol
 _atom_site_label
 _atom_site_symmetry_multiplicity
 _atom_site_fract_x
 _atom_site_fract_y
 _atom_site_fract_z
 _atom_site_occupancy
  Dy  Dy0  1  0.500000  0.320268  0.414281  1
  Dy  Dy1  1  0.500000  0.679732  0.585719  1
  Dy  Dy2  1  0.500000  0.179732  0.914281  1
  Dy  Dy3  1  0.500000  0.820268  0.085719  1
  Sc  Sc4  1  0.500000  0.445491  0.127212  1
  Sc  Sc5  1  0.500000  0.554509  0.872788  1
  Sc  Sc6  1  0.500000  0.054509  0.627212  1
  Sc  Sc7  1  0.500000  0.945491  0.372788  1
  B  B8  1  0.000000  0.095381  0.473829  1
  B  B9  1  0.000000  0.904619  0.526171  1
  B  B10  1  0.000000  0.404619  0.973829  1
  B  B11  1  0.000000  0.595381  0.026171  1
  B  B12  1  0.000000  0.129201  0.319511  1
  B  B13  1  0.000000  0.870799  0.680489  1
  B  B14  1  0.000000  0.370799  0.819511  1
  B  B15  1  0.000000  0.629201  0.180489  1
  B  B16  1  0.000000  0.052552  0.065709  1
  B  B17  1  0.000000  0.947448  0.934291  1
  B  B18  1  0.000000  0.447448  0.565709  1
  B  B19  1  0.000000  0.552552  0.434291  1
  B  B20  1  0.000000  0.478894  0.284927  1
  B  B21  1  0.000000  0.521106  0.715073  1
  B  B22  1  0.000000  0.021106  0.784927  1
  B  B23  1  0.000000  0.978894  0.215073  1
  B  B24  1  0.000000  0.257004  0.079361  1
  B  B25  1  0.000000  0.742996  0.920639  1
  B  B26  1  0.000000  0.242996  0.579361  1
  B  B27  1  0.000000  0.757004  0.420639  1
  B  B28  1  0.000000  0.297974  0.235726  1
  B  B29  1  0.000000  0.702026  0.764274  1
  B  B30  1  0.000000  0.202026  0.735726  1
  B  B31  1  0.000000  0.797974  0.264274  1
  W  W32  1  0.500000  0.141660  0.181475  1
  W  W33  1  0.500000  0.858340  0.818525  1
  W  W34  1  0.500000  0.358340  0.681475  1
  W  W35  1  0.500000  0.641660  0.318525  1
