# generated using pymatgen
data_Th2Ni7B2Pt
_symmetry_space_group_name_H-M   'P 1'
_cell_length_a   5.08410500
_cell_length_b   5.08410518
_cell_length_c   7.20360900
_cell_angle_alpha   90.00000000
_cell_angle_beta   90.00000000
_cell_angle_gamma   120.00000536
_symmetry_Int_Tables_number   1
_chemical_formula_structural   Th2Ni7B2Pt
_chemical_formula_sum   'Th2 Ni7 B2 Pt1'
_cell_volume   161.25373321
_cell_formula_units_Z   1
loop_
 _symmetry_equiv_pos_site_id
 _symmetry_equiv_pos_as_xyz
  1  'x, y, z'
loop_
 _atom_site_type_symbol
 _atom_site_label
 _atom_site_symmetry_multiplicity
 _atom_site_fract_x
 _atom_site_fract_y
 _atom_site_fract_z
 _atom_site_occupancy
  Th  Th0  1  0.000000  0.000000  0.000000  1
  Th  Th1  1  0.000000  0.000000  0.500000  1
  Ni  Ni2  1  0.333333  0.666667  0.000000  1
  Ni  Ni3  1  0.499133  0.500867  0.700971  1
  Ni  Ni4  1  0.499133  0.998266  0.700971  1
  Ni  Ni5  1  0.001734  0.500867  0.700971  1
  Ni  Ni6  1  0.499133  0.500867  0.299029  1
  Ni  Ni7  1  0.499133  0.998266  0.299029  1
  Ni  Ni8  1  0.001734  0.500867  0.299029  1
  B  B9  1  0.666667  0.333333  0.500000  1
  B  B10  1  0.333333  0.666667  0.500000  1
  Pt  Pt11  1  0.666667  0.333333  0.000000  1
