# generated using pymatgen
data_Pr2Pt(SeO3)4
_symmetry_space_group_name_H-M   'P 1'
_cell_length_a   7.13185200
_cell_length_b   8.38560102
_cell_length_c   11.01497227
_cell_angle_alpha   70.63162096
_cell_angle_beta   90.00000000
_cell_angle_gamma   90.00000000
_symmetry_Int_Tables_number   1
_chemical_formula_structural   Pr2Pt(SeO3)4
_chemical_formula_sum   'Pr4 Pt2 Se8 O24'
_cell_volume   621.46758553
_cell_formula_units_Z   2
loop_
 _symmetry_equiv_pos_site_id
 _symmetry_equiv_pos_as_xyz
  1  'x, y, z'
loop_
 _atom_site_type_symbol
 _atom_site_label
 _atom_site_symmetry_multiplicity
 _atom_site_fract_x
 _atom_site_fract_y
 _atom_site_fract_z
 _atom_site_occupancy
  Pr  Pr0  1  0.664704  0.762212  0.082522  1
  Pr  Pr1  1  0.164704  0.737788  0.917478  1
  Pr  Pr2  1  0.335296  0.237788  0.917478  1
  Pr  Pr3  1  0.835296  0.262212  0.082522  1
  Pt  Pt4  1  0.500000  0.500000  0.500000  1
  Pt  Pt5  1  0.000000  0.000000  0.500000  1
  Se  Se6  1  0.679289  0.628476  0.820574  1
  Se  Se7  1  0.179289  0.871524  0.179426  1
  Se  Se8  1  0.320711  0.371524  0.179426  1
  Se  Se9  1  0.820711  0.128476  0.820574  1
  Se  Se10  1  0.325403  0.124236  0.633613  1
  Se  Se11  1  0.825403  0.375764  0.366387  1
  Se  Se12  1  0.674597  0.875764  0.366387  1
  Se  Se13  1  0.174597  0.624236  0.633613  1
  O  O14  1  0.391434  0.316978  0.655748  1
  O  O15  1  0.891434  0.183022  0.344252  1
  O  O16  1  0.608566  0.683022  0.344252  1
  O  O17  1  0.108566  0.816978  0.655748  1
  O  O18  1  0.614281  0.422720  0.852695  1
  O  O19  1  0.114281  0.077280  0.147305  1
  O  O20  1  0.385719  0.577280  0.147305  1
  O  O21  1  0.885719  0.922720  0.852695  1
  O  O22  1  0.842513  0.589006  0.947690  1
  O  O23  1  0.342513  0.910994  0.052310  1
  O  O24  1  0.157487  0.410994  0.052310  1
  O  O25  1  0.657487  0.089006  0.947690  1
  O  O26  1  0.100615  0.180311  0.569825  1
  O  O27  1  0.600615  0.319689  0.430175  1
  O  O28  1  0.899385  0.819689  0.430175  1
  O  O29  1  0.399385  0.680311  0.569825  1
  O  O30  1  0.509377  0.718940  0.889769  1
  O  O31  1  0.009377  0.781060  0.110231  1
  O  O32  1  0.490623  0.281060  0.110231  1
  O  O33  1  0.990623  0.218940  0.889769  1
  O  O34  1  0.285444  0.030376  0.795303  1
  O  O35  1  0.785444  0.469624  0.204697  1
  O  O36  1  0.714556  0.969624  0.204697  1
  O  O37  1  0.214556  0.530376  0.795303  1
