# generated using pymatgen
data_Li3Tm4ScPt4
_symmetry_space_group_name_H-M   'P 1'
_cell_length_a   4.02535800
_cell_length_b   6.99827079
_cell_length_c   8.58968192
_cell_angle_alpha   91.56030350
_cell_angle_beta   90.00000000
_cell_angle_gamma   90.00000000
_symmetry_Int_Tables_number   1
_chemical_formula_structural   Li3Tm4ScPt4
_chemical_formula_sum   'Li3 Tm4 Sc1 Pt4'
_cell_volume   241.88630382
_cell_formula_units_Z   1
loop_
 _symmetry_equiv_pos_site_id
 _symmetry_equiv_pos_as_xyz
  1  'x, y, z'
loop_
 _atom_site_type_symbol
 _atom_site_label
 _atom_site_symmetry_multiplicity
 _atom_site_fract_x
 _atom_site_fract_y
 _atom_site_fract_z
 _atom_site_occupancy
  Li  Li0  1  0.250000  0.126791  0.057343  1
  Li  Li1  1  0.250000  0.640351  0.432135  1
  Li  Li2  1  0.750000  0.876192  0.946057  1
  Tm  Tm3  1  0.250000  0.029791  0.686909  1
  Tm  Tm4  1  0.250000  0.553715  0.833232  1
  Tm  Tm5  1  0.750000  0.946443  0.321555  1
  Tm  Tm6  1  0.750000  0.458192  0.171384  1
  Sc  Sc7  1  0.750000  0.374447  0.554865  1
  Pt  Pt8  1  0.250000  0.240206  0.377700  1
  Pt  Pt9  1  0.250000  0.746839  0.128376  1
  Pt  Pt10  1  0.750000  0.748070  0.626674  1
  Pt  Pt11  1  0.750000  0.258961  0.863768  1
