# generated using pymatgen
data_CeTh5(Ni3As4)2
_symmetry_space_group_name_H-M   'P 1'
_cell_length_a   7.96655530
_cell_length_b   7.96655561
_cell_length_c   7.96655502
_cell_angle_alpha   109.50023109
_cell_angle_beta   109.41320397
_cell_angle_gamma   109.50024119
_symmetry_Int_Tables_number   1
_chemical_formula_structural   CeTh5(Ni3As4)2
_chemical_formula_sum   'Ce1 Th5 Ni6 As8'
_cell_volume   389.21494597
_cell_formula_units_Z   1
loop_
 _symmetry_equiv_pos_site_id
 _symmetry_equiv_pos_as_xyz
  1  'x, y, z'
loop_
 _atom_site_type_symbol
 _atom_site_label
 _atom_site_symmetry_multiplicity
 _atom_site_fract_x
 _atom_site_fract_y
 _atom_site_fract_z
 _atom_site_occupancy
  Ce  Ce0  1  0.875000  0.250000  0.125000  1
  Th  Th1  1  0.625000  0.750000  0.375000  1
  Th  Th2  1  0.249673  0.124971  0.875178  1
  Th  Th3  1  0.750208  0.375029  0.624703  1
  Th  Th4  1  0.124822  0.874495  0.249792  1
  Th  Th5  1  0.375297  0.625505  0.750327  1
  Ni  Ni6  1  0.375000  0.250000  0.625000  1
  Ni  Ni7  1  0.125000  0.750000  0.875000  1
  Ni  Ni8  1  0.247495  0.621906  0.373256  1
  Ni  Ni9  1  0.751350  0.878094  0.125589  1
  Ni  Ni10  1  0.626744  0.374239  0.248650  1
  Ni  Ni11  1  0.874411  0.125761  0.752505  1
  As  As12  1  0.660239  0.499765  0.000382  1
  As  As13  1  0.500617  0.000235  0.660473  1
  As  As14  1  0.999718  0.657890  0.498289  1
  As  As15  1  0.840399  0.842110  0.841828  1
  As  As16  1  0.501711  0.001430  0.159601  1
  As  As17  1  0.158172  0.498570  0.000282  1
  As  As18  1  0.999618  0.159857  0.499383  1
  As  As19  1  0.339527  0.340143  0.339761  1
