# generated using pymatgen
data_Rb2NdF5
_symmetry_space_group_name_H-M   'P 1'
_cell_length_a   7.03765300
_cell_length_b   7.73457500
_cell_length_c   11.59966800
_cell_angle_alpha   90.00000000
_cell_angle_beta   90.00000000
_cell_angle_gamma   90.00000000
_symmetry_Int_Tables_number   1
_chemical_formula_structural   Rb2NdF5
_chemical_formula_sum   'Rb8 Nd4 F20'
_cell_volume   631.40768561
_cell_formula_units_Z   4
loop_
 _symmetry_equiv_pos_site_id
 _symmetry_equiv_pos_as_xyz
  1  'x, y, z'
loop_
 _atom_site_type_symbol
 _atom_site_label
 _atom_site_symmetry_multiplicity
 _atom_site_fract_x
 _atom_site_fract_y
 _atom_site_fract_z
 _atom_site_occupancy
  Rb  Rb0  1  0.529624  0.498047  0.828144  1
  Rb  Rb1  1  0.470376  0.501953  0.171856  1
  Rb  Rb2  1  0.029624  0.501953  0.671856  1
  Rb  Rb3  1  0.470376  0.998047  0.171856  1
  Rb  Rb4  1  0.970376  0.498047  0.328144  1
  Rb  Rb5  1  0.529624  0.001953  0.828144  1
  Rb  Rb6  1  0.970376  0.001953  0.328144  1
  Rb  Rb7  1  0.029624  0.998047  0.671856  1
  Nd  Nd8  1  0.562726  0.750000  0.502057  1
  Nd  Nd9  1  0.437274  0.250000  0.497943  1
  Nd  Nd10  1  0.062726  0.250000  0.997943  1
  Nd  Nd11  1  0.937274  0.750000  0.002057  1
  F  F12  1  0.839001  0.750000  0.811052  1
  F  F13  1  0.160999  0.250000  0.188948  1
  F  F14  1  0.339001  0.250000  0.688948  1
  F  F15  1  0.660999  0.750000  0.311052  1
  F  F16  1  0.369092  0.750000  0.662523  1
  F  F17  1  0.630908  0.250000  0.337477  1
  F  F18  1  0.869092  0.250000  0.837477  1
  F  F19  1  0.130908  0.750000  0.162523  1
  F  F20  1  0.888282  0.750000  0.513658  1
  F  F21  1  0.111718  0.250000  0.486342  1
  F  F22  1  0.388282  0.250000  0.986342  1
  F  F23  1  0.611718  0.750000  0.013658  1
  F  F24  1  0.641465  0.032572  0.575850  1
  F  F25  1  0.358535  0.967428  0.424150  1
  F  F26  1  0.141465  0.967428  0.924150  1
  F  F27  1  0.358535  0.532572  0.424150  1
  F  F28  1  0.858535  0.032572  0.075850  1
  F  F29  1  0.641465  0.467428  0.575850  1
  F  F30  1  0.858535  0.467428  0.075850  1
  F  F31  1  0.141465  0.532572  0.924150  1
