# generated using pymatgen
data_Ti5OF14
_symmetry_space_group_name_H-M   'P 1'
_cell_length_a   5.55339209
_cell_length_b   6.80882181
_cell_length_c   8.80809960
_cell_angle_alpha   105.34622472
_cell_angle_beta   108.22492243
_cell_angle_gamma   89.53836245
_symmetry_Int_Tables_number   1
_chemical_formula_structural   Ti5OF14
_chemical_formula_sum   'Ti5 O1 F14'
_cell_volume   304.04912572
_cell_formula_units_Z   1
loop_
 _symmetry_equiv_pos_site_id
 _symmetry_equiv_pos_as_xyz
  1  'x, y, z'
loop_
 _atom_site_type_symbol
 _atom_site_label
 _atom_site_symmetry_multiplicity
 _atom_site_fract_x
 _atom_site_fract_y
 _atom_site_fract_z
 _atom_site_occupancy
  Ti  Ti0  1  0.403394  0.095521  0.297705  1
  Ti  Ti1  1  0.596606  0.904479  0.702295  1
  Ti  Ti2  1  0.813867  0.685058  0.091783  1
  Ti  Ti3  1  0.000000  0.500000  0.500000  1
  Ti  Ti4  1  0.186133  0.314942  0.908217  1
  O  O5  1  0.000000  0.500000  0.000000  1
  F  F6  1  0.900777  0.099326  0.800055  1
  F  F7  1  0.300957  0.198948  0.099925  1
  F  F8  1  0.201995  0.298855  0.398956  1
  F  F9  1  0.398032  0.102946  0.801356  1
  F  F10  1  0.798005  0.701145  0.601044  1
  F  F11  1  0.500000  0.000000  0.500000  1
  F  F12  1  0.099223  0.900674  0.199945  1
  F  F13  1  0.700589  0.298929  0.399783  1
  F  F14  1  0.299411  0.701071  0.600217  1
  F  F15  1  0.601968  0.897054  0.198644  1
  F  F16  1  0.699043  0.801052  0.900075  1
  F  F17  1  0.101053  0.399273  0.699760  1
  F  F18  1  0.898947  0.600727  0.300240  1
  F  F19  1  0.500000  0.500000  0.000000  1
