# generated using pymatgen
data_Er12Ni4HgBi
_symmetry_space_group_name_H-M   'P 1'
_cell_length_a   8.37698934
_cell_length_b   8.37698806
_cell_length_c   8.37698845
_cell_angle_alpha   108.89901629
_cell_angle_beta   112.56187305
_cell_angle_gamma   107.00276298
_symmetry_Int_Tables_number   1
_chemical_formula_structural   Er12Ni4HgBi
_chemical_formula_sum   'Er12 Ni4 Hg1 Bi1'
_cell_volume   451.41410283
_cell_formula_units_Z   1
loop_
 _symmetry_equiv_pos_site_id
 _symmetry_equiv_pos_as_xyz
  1  'x, y, z'
loop_
 _atom_site_type_symbol
 _atom_site_label
 _atom_site_symmetry_multiplicity
 _atom_site_fract_x
 _atom_site_fract_y
 _atom_site_fract_z
 _atom_site_occupancy
  Er  Er0  1  0.294494  0.178404  0.472898  1
  Er  Er1  1  0.705506  0.821596  0.527102  1
  Er  Er2  1  0.294494  0.821596  0.116089  1
  Er  Er3  1  0.705506  0.178404  0.883911  1
  Er  Er4  1  0.630758  0.323412  0.307347  1
  Er  Er5  1  0.369242  0.676588  0.692653  1
  Er  Er6  1  0.016067  0.323412  0.692653  1
  Er  Er7  1  0.983933  0.676588  0.307347  1
  Er  Er8  1  0.222648  0.431562  0.208914  1
  Er  Er9  1  0.777352  0.568438  0.791086  1
  Er  Er10  1  0.222648  0.013734  0.791086  1
  Er  Er11  1  0.777352  0.986266  0.208914  1
  Ni  Ni12  1  0.000000  0.363138  0.363138  1
  Ni  Ni13  1  0.000000  0.636862  0.636862  1
  Ni  Ni14  1  0.372733  0.872733  0.500000  1
  Ni  Ni15  1  0.627267  0.127267  0.500000  1
  Hg  Hg16  1  0.000000  0.000000  0.000000  1
  Bi  Bi17  1  0.500000  0.500000  0.000000  1
