# generated using pymatgen
data_La11Pa(GePd)12
_symmetry_space_group_name_H-M   'P 1'
_cell_length_a   4.56174700
_cell_length_b   7.74863844
_cell_length_c   22.31616290
_cell_angle_alpha   89.91683316
_cell_angle_beta   90.00000000
_cell_angle_gamma   90.00000000
_symmetry_Int_Tables_number   1
_chemical_formula_structural   La11Pa(GePd)12
_chemical_formula_sum   'La11 Pa1 Ge12 Pd12'
_cell_volume   788.81590245
_cell_formula_units_Z   1
loop_
 _symmetry_equiv_pos_site_id
 _symmetry_equiv_pos_as_xyz
  1  'x, y, z'
loop_
 _atom_site_type_symbol
 _atom_site_label
 _atom_site_symmetry_multiplicity
 _atom_site_fract_x
 _atom_site_fract_y
 _atom_site_fract_z
 _atom_site_occupancy
  La  La0  1  0.250000  0.710954  0.332591  1
  La  La1  1  0.750000  0.288902  0.667031  1
  La  La2  1  0.750000  0.208863  0.166705  1
  La  La3  1  0.250000  0.791383  0.833343  1
  La  La4  1  0.250000  0.790119  0.166070  1
  La  La5  1  0.750000  0.210051  0.834028  1
  La  La6  1  0.750000  0.289855  0.334693  1
  La  La7  1  0.250000  0.710868  0.666610  1
  La  La8  1  0.250000  0.715723  0.002326  1
  La  La9  1  0.750000  0.283800  0.997639  1
  La  La10  1  0.750000  0.216099  0.497841  1
  Pa  Pa11  1  0.250000  0.770843  0.502633  1
  Ge  Ge12  1  0.250000  0.088497  0.071302  1
  Ge  Ge13  1  0.750000  0.911191  0.928893  1
  Ge  Ge14  1  0.750000  0.593824  0.434768  1
  Ge  Ge15  1  0.250000  0.412914  0.570656  1
  Ge  Ge16  1  0.250000  0.083712  0.270684  1
  Ge  Ge17  1  0.750000  0.916195  0.729327  1
  Ge  Ge18  1  0.750000  0.582845  0.230088  1
  Ge  Ge19  1  0.250000  0.416330  0.770097  1
  Ge  Ge20  1  0.250000  0.083310  0.398849  1
  Ge  Ge21  1  0.750000  0.913949  0.599522  1
  Ge  Ge22  1  0.750000  0.583827  0.104385  1
  Ge  Ge23  1  0.250000  0.416177  0.895619  1
  Pd  Pd24  1  0.250000  0.417427  0.239567  1
  Pd  Pd25  1  0.750000  0.582242  0.760800  1
  Pd  Pd26  1  0.750000  0.917061  0.262353  1
  Pd  Pd27  1  0.250000  0.082794  0.737856  1
  Pd  Pd28  1  0.250000  0.425007  0.434660  1
  Pd  Pd29  1  0.750000  0.597604  0.560910  1
  Pd  Pd30  1  0.750000  0.915704  0.065940  1
  Pd  Pd31  1  0.250000  0.084216  0.934262  1
  Pd  Pd32  1  0.250000  0.419977  0.093251  1
  Pd  Pd33  1  0.750000  0.579830  0.906760  1
  Pd  Pd34  1  0.750000  0.918941  0.410976  1
  Pd  Pd35  1  0.250000  0.068967  0.586967  1
