# generated using pymatgen
data_Dy3Ho7Ir3Os
_symmetry_space_group_name_H-M   'P 1'
_cell_length_a   6.47156196
_cell_length_b   7.24055822
_cell_length_c   8.44021952
_cell_angle_alpha   96.49846473
_cell_angle_beta   112.28909258
_cell_angle_gamma   89.95098304
_symmetry_Int_Tables_number   1
_chemical_formula_structural   Dy3Ho7Ir3Os
_chemical_formula_sum   'Dy3 Ho7 Ir3 Os1'
_cell_volume   363.20715212
_cell_formula_units_Z   1
loop_
 _symmetry_equiv_pos_site_id
 _symmetry_equiv_pos_as_xyz
  1  'x, y, z'
loop_
 _atom_site_type_symbol
 _atom_site_label
 _atom_site_symmetry_multiplicity
 _atom_site_fract_x
 _atom_site_fract_y
 _atom_site_fract_z
 _atom_site_occupancy
  Dy  Dy0  1  0.971697  0.916491  0.183478  1
  Dy  Dy1  1  0.790151  0.582574  0.821294  1
  Dy  Dy2  1  0.028557  0.082944  0.817983  1
  Ho  Ho3  1  0.210520  0.417844  0.183418  1
  Ho  Ho4  1  0.655954  0.817017  0.439670  1
  Ho  Ho5  1  0.210900  0.681520  0.557441  1
  Ho  Ho6  1  0.345956  0.181908  0.559381  1
  Ho  Ho7  1  0.785989  0.318960  0.439320  1
  Ho  Ho8  1  0.426976  0.749515  0.000404  1
  Ho  Ho9  1  0.574907  0.251500  0.000684  1
  Ir  Ir10  1  0.605713  0.927063  0.779254  1
  Ir  Ir11  1  0.173491  0.425564  0.780202  1
  Ir  Ir12  1  0.393150  0.073877  0.220118  1
  Os  Os13  1  0.826037  0.573223  0.217351  1
