# generated using pymatgen
data_Nd3(In2Ir)2
_symmetry_space_group_name_H-M   'P 1'
_cell_length_a   7.89792100
_cell_length_b   7.89792279
_cell_length_c   4.06250700
_cell_angle_alpha   90.00000000
_cell_angle_beta   90.00000000
_cell_angle_gamma   119.99999670
_symmetry_Int_Tables_number   1
_chemical_formula_structural   Nd3(In2Ir)2
_chemical_formula_sum   'Nd3 In4 Ir2'
_cell_volume   219.45750504
_cell_formula_units_Z   1
loop_
 _symmetry_equiv_pos_site_id
 _symmetry_equiv_pos_as_xyz
  1  'x, y, z'
loop_
 _atom_site_type_symbol
 _atom_site_label
 _atom_site_symmetry_multiplicity
 _atom_site_fract_x
 _atom_site_fract_y
 _atom_site_fract_z
 _atom_site_occupancy
  Nd  Nd0  1  0.697002  0.949085  0.500000  1
  Nd  Nd1  1  0.252083  0.302998  0.500000  1
  Nd  Nd2  1  0.050915  0.747917  0.500000  1
  In  In3  1  0.915505  0.332431  0.000000  1
  In  In4  1  0.416926  0.084495  0.000000  1
  In  In5  1  0.667569  0.583074  0.000000  1
  In  In6  1  0.333333  0.666667  0.000000  1
  Ir  Ir7  1  0.666667  0.333333  0.500000  1
  Ir  Ir8  1  0.000000  0.000000  0.000000  1
