# generated using pymatgen
data_Ca3Dy(Rh2O7)2
_symmetry_space_group_name_H-M   'P 1'
_cell_length_a   7.24955679
_cell_length_b   7.27222986
_cell_length_c   7.24955700
_cell_angle_alpha   60.10307569
_cell_angle_beta   59.99999449
_cell_angle_gamma   60.10307490
_symmetry_Int_Tables_number   1
_chemical_formula_structural   Ca3Dy(Rh2O7)2
_chemical_formula_sum   'Ca3 Dy1 Rh4 O14'
_cell_volume   270.67639019
_cell_formula_units_Z   1
loop_
 _symmetry_equiv_pos_site_id
 _symmetry_equiv_pos_as_xyz
  1  'x, y, z'
loop_
 _atom_site_type_symbol
 _atom_site_label
 _atom_site_symmetry_multiplicity
 _atom_site_fract_x
 _atom_site_fract_y
 _atom_site_fract_z
 _atom_site_occupancy
  Ca  Ca0  1  0.125000  0.125000  0.125000  1
  Ca  Ca1  1  0.625000  0.125000  0.125000  1
  Ca  Ca2  1  0.125000  0.125000  0.625000  1
  Dy  Dy3  1  0.125000  0.625000  0.125000  1
  Rh  Rh4  1  0.625000  0.625000  0.625000  1
  Rh  Rh5  1  0.625000  0.625000  0.125000  1
  Rh  Rh6  1  0.125000  0.625000  0.625000  1
  Rh  Rh7  1  0.625000  0.125000  0.625000  1
  O  O8  1  0.246987  0.259041  0.246987  1
  O  O9  1  0.296508  0.696010  0.296508  1
  O  O10  1  0.951377  0.949285  0.549669  1
  O  O11  1  0.549669  0.949285  0.549669  1
  O  O12  1  0.710975  0.696010  0.296508  1
  O  O13  1  0.953492  0.553990  0.539025  1
  O  O14  1  0.700331  0.300715  0.700331  1
  O  O15  1  0.298623  0.300715  0.700331  1
  O  O16  1  0.700331  0.300715  0.298623  1
  O  O17  1  0.296508  0.696010  0.710975  1
  O  O18  1  0.953492  0.553990  0.953492  1
  O  O19  1  0.539025  0.553990  0.953492  1
  O  O20  1  0.003013  0.990959  0.003013  1
  O  O21  1  0.549669  0.949285  0.951377  1
