# generated using pymatgen
data_LuCo2(PRu)3
_symmetry_space_group_name_H-M   'P 1'
_cell_length_a   3.76565200
_cell_length_b   10.60125200
_cell_length_c   12.05203600
_cell_angle_alpha   90.00000000
_cell_angle_beta   90.00000000
_cell_angle_gamma   90.00000000
_symmetry_Int_Tables_number   1
_chemical_formula_structural   LuCo2(PRu)3
_chemical_formula_sum   'Lu4 Co8 P12 Ru12'
_cell_volume   481.12481924
_cell_formula_units_Z   4
loop_
 _symmetry_equiv_pos_site_id
 _symmetry_equiv_pos_as_xyz
  1  'x, y, z'
loop_
 _atom_site_type_symbol
 _atom_site_label
 _atom_site_symmetry_multiplicity
 _atom_site_fract_x
 _atom_site_fract_y
 _atom_site_fract_z
 _atom_site_occupancy
  Lu  Lu0  1  0.250000  0.584492  0.706402  1
  Lu  Lu1  1  0.250000  0.915508  0.206402  1
  Lu  Lu2  1  0.750000  0.415508  0.293598  1
  Lu  Lu3  1  0.750000  0.084492  0.793598  1
  Co  Co4  1  0.250000  0.888659  0.696472  1
  Co  Co5  1  0.250000  0.611341  0.196472  1
  Co  Co6  1  0.750000  0.111341  0.303528  1
  Co  Co7  1  0.750000  0.388659  0.803528  1
  Co  Co8  1  0.250000  0.462864  0.934603  1
  Co  Co9  1  0.250000  0.037136  0.434603  1
  Co  Co10  1  0.750000  0.537136  0.065397  1
  Co  Co11  1  0.750000  0.962864  0.565397  1
  P  P12  1  0.250000  0.425895  0.113933  1
  P  P13  1  0.250000  0.074105  0.613933  1
  P  P14  1  0.750000  0.574105  0.886067  1
  P  P15  1  0.750000  0.925895  0.386067  1
  P  P16  1  0.250000  0.270482  0.871955  1
  P  P17  1  0.250000  0.229518  0.371955  1
  P  P18  1  0.750000  0.729518  0.128045  1
  P  P19  1  0.750000  0.770482  0.628045  1
  P  P20  1  0.250000  0.599874  0.385840  1
  P  P21  1  0.250000  0.900126  0.885840  1
  P  P22  1  0.750000  0.400126  0.614160  1
  P  P23  1  0.750000  0.099874  0.114160  1
  Ru  Ru24  1  0.250000  0.706353  0.986298  1
  Ru  Ru25  1  0.250000  0.793647  0.486298  1
  Ru  Ru26  1  0.750000  0.293647  0.013702  1
  Ru  Ru27  1  0.750000  0.206353  0.513702  1
  Ru  Ru28  1  0.250000  0.405739  0.485223  1
  Ru  Ru29  1  0.250000  0.094261  0.985223  1
  Ru  Ru30  1  0.750000  0.594261  0.514777  1
  Ru  Ru31  1  0.750000  0.905739  0.014777  1
  Ru  Ru32  1  0.250000  0.224748  0.181486  1
  Ru  Ru33  1  0.250000  0.275252  0.681486  1
  Ru  Ru34  1  0.750000  0.775252  0.818514  1
  Ru  Ru35  1  0.750000  0.724748  0.318514  1
