# generated using pymatgen
data_Cd2Ag2(MoO4)3
_symmetry_space_group_name_H-M   'P 1'
_cell_length_a   7.38314997
_cell_length_b   9.25856978
_cell_length_c   10.88919025
_cell_angle_alpha   105.45204027
_cell_angle_beta   106.11429203
_cell_angle_gamma   104.42821440
_symmetry_Int_Tables_number   1
_chemical_formula_structural   Cd2Ag2(MoO4)3
_chemical_formula_sum   'Cd4 Ag4 Mo6 O24'
_cell_volume   645.93803218
_cell_formula_units_Z   2
loop_
 _symmetry_equiv_pos_site_id
 _symmetry_equiv_pos_as_xyz
  1  'x, y, z'
loop_
 _atom_site_type_symbol
 _atom_site_label
 _atom_site_symmetry_multiplicity
 _atom_site_fract_x
 _atom_site_fract_y
 _atom_site_fract_z
 _atom_site_occupancy
  Cd  Cd0  1  0.874143  0.451413  0.108205  1
  Cd  Cd1  1  0.128366  0.550734  0.892537  1
  Cd  Cd2  1  0.465704  0.291975  0.484764  1
  Cd  Cd3  1  0.542171  0.709632  0.518290  1
  Ag  Ag4  1  0.795752  0.803058  0.302236  1
  Ag  Ag5  1  0.207037  0.194647  0.702945  1
  Ag  Ag6  1  0.456491  0.997260  0.980051  1
  Ag  Ag7  1  0.963852  0.035208  0.063660  1
  Mo  Mo8  1  0.279052  0.842885  0.230422  1
  Mo  Mo9  1  0.723289  0.159218  0.771607  1
  Mo  Mo10  1  0.914656  0.227736  0.365214  1
  Mo  Mo11  1  0.098351  0.769538  0.631243  1
  Mo  Mo12  1  0.621667  0.598596  0.835657  1
  Mo  Mo13  1  0.373708  0.400323  0.167920  1
  O  O14  1  0.307861  0.046124  0.307393  1
  O  O15  1  0.682615  0.955923  0.688099  1
  O  O16  1  0.036410  0.726572  0.221640  1
  O  O17  1  0.966754  0.273239  0.780588  1
  O  O18  1  0.190431  0.482003  0.090798  1
  O  O19  1  0.817069  0.528183  0.915976  1
  O  O20  1  0.745464  0.276080  0.444677  1
  O  O21  1  0.245810  0.704841  0.538478  1
  O  O22  1  0.603432  0.487969  0.147979  1
  O  O23  1  0.392084  0.497135  0.850021  1
  O  O24  1  0.283465  0.810365  0.058162  1
  O  O25  1  0.724776  0.187971  0.945981  1
  O  O26  1  0.966361  0.352689  0.269753  1
  O  O27  1  0.048713  0.646529  0.728157  1
  O  O28  1  0.279242  0.188071  0.082678  1
  O  O29  1  0.689954  0.807421  0.921791  1
  O  O30  1  0.861570  0.757500  0.511664  1
  O  O31  1  0.147750  0.250027  0.494225  1
  O  O32  1  0.800919  0.025439  0.240589  1
  O  O33  1  0.239813  0.971474  0.752025  1
  O  O34  1  0.477280  0.795639  0.334165  1
  O  O35  1  0.532747  0.217579  0.673063  1
  O  O36  1  0.425685  0.448202  0.349698  1
  O  O37  1  0.581055  0.556203  0.655547  1
