# generated using pymatgen
data_Ti2Fe3B3Mo
_symmetry_space_group_name_H-M   'P 1'
_cell_length_a   5.91369384
_cell_length_b   6.00581411
_cell_length_c   3.03246500
_cell_angle_alpha   90.00000000
_cell_angle_beta   90.00000000
_cell_angle_gamma   120.51666892
_symmetry_Int_Tables_number   1
_chemical_formula_structural   Ti2Fe3B3Mo
_chemical_formula_sum   'Ti2 Fe3 B3 Mo1'
_cell_volume   92.78386493
_cell_formula_units_Z   1
loop_
 _symmetry_equiv_pos_site_id
 _symmetry_equiv_pos_as_xyz
  1  'x, y, z'
loop_
 _atom_site_type_symbol
 _atom_site_label
 _atom_site_symmetry_multiplicity
 _atom_site_fract_x
 _atom_site_fract_y
 _atom_site_fract_z
 _atom_site_occupancy
  Ti  Ti0  1  0.407931  0.412324  0.500000  1
  Ti  Ti1  1  0.592069  0.004394  0.500000  1
  Fe  Fe2  1  0.752368  0.754942  0.000000  1
  Fe  Fe3  1  0.247632  0.002574  0.000000  1
  Fe  Fe4  1  0.000000  0.241716  0.000000  1
  B  B5  1  0.669037  0.336941  0.000000  1
  B  B6  1  0.330963  0.667905  0.000000  1
  B  B7  1  0.000000  0.992287  0.500000  1
  Mo  Mo8  1  0.000000  0.586915  0.500000  1
