# generated using pymatgen
data_Ti5VS8
_symmetry_space_group_name_H-M   'P 1'
_cell_length_a   9.50019993
_cell_length_b   9.37361945
_cell_length_c   3.37895800
_cell_angle_alpha   90.00000000
_cell_angle_beta   90.00000000
_cell_angle_gamma   119.74871652
_symmetry_Int_Tables_number   1
_chemical_formula_structural   Ti5VS8
_chemical_formula_sum   'Ti5 V1 S8'
_cell_volume   261.24477042
_cell_formula_units_Z   1
loop_
 _symmetry_equiv_pos_site_id
 _symmetry_equiv_pos_as_xyz
  1  'x, y, z'
loop_
 _atom_site_type_symbol
 _atom_site_label
 _atom_site_symmetry_multiplicity
 _atom_site_fract_x
 _atom_site_fract_y
 _atom_site_fract_z
 _atom_site_occupancy
  Ti  Ti0  1  0.488045  0.127626  0.249999  1
  Ti  Ti1  1  0.867016  0.351621  0.249999  1
  Ti  Ti2  1  0.647048  0.515994  0.249999  1
  Ti  Ti3  1  0.355157  0.490388  0.750001  1
  Ti  Ti4  1  0.134624  0.647276  0.750001  1
  V  V5  1  0.508874  0.867364  0.750001  1
  S  S6  1  0.688150  0.041505  0.249999  1
  S  S7  1  0.359857  0.308535  0.249999  1
  S  S8  1  0.950471  0.644222  0.249999  1
  S  S9  1  0.334647  0.670492  0.249999  1
  S  S10  1  0.667169  0.332348  0.750001  1
  S  S11  1  0.050520  0.354974  0.750001  1
  S  S12  1  0.641282  0.696849  0.750001  1
  S  S13  1  0.307143  0.950804  0.750001  1
