# generated using pymatgen
data_Ti24Si6AsSe
_symmetry_space_group_name_H-M   'P 1'
_cell_length_a   10.11209782
_cell_length_b   10.15909573
_cell_length_c   5.08341370
_cell_angle_alpha   89.96521062
_cell_angle_beta   89.95106597
_cell_angle_gamma   90.12476610
_symmetry_Int_Tables_number   1
_chemical_formula_structural   Ti24Si6AsSe
_chemical_formula_sum   'Ti24 Si6 As1 Se1'
_cell_volume   522.21639325
_cell_formula_units_Z   1
loop_
 _symmetry_equiv_pos_site_id
 _symmetry_equiv_pos_as_xyz
  1  'x, y, z'
loop_
 _atom_site_type_symbol
 _atom_site_label
 _atom_site_symmetry_multiplicity
 _atom_site_fract_x
 _atom_site_fract_y
 _atom_site_fract_z
 _atom_site_occupancy
  Ti  Ti0  1  0.214886  0.681661  0.990228  1
  Ti  Ti1  1  0.784988  0.318301  0.991810  1
  Ti  Ti2  1  0.184068  0.280496  0.501650  1
  Ti  Ti3  1  0.816498  0.719506  0.501575  1
  Ti  Ti4  1  0.283745  0.819330  0.505461  1
  Ti  Ti5  1  0.716408  0.180934  0.504411  1
  Ti  Ti6  1  0.317010  0.214747  0.000652  1
  Ti  Ti7  1  0.682360  0.784569  0.001334  1
  Ti  Ti8  1  0.639667  0.527644  0.718768  1
  Ti  Ti9  1  0.361342  0.472815  0.718048  1
  Ti  Ti10  1  0.027993  0.857351  0.216174  1
  Ti  Ti11  1  0.972446  0.142302  0.215930  1
  Ti  Ti12  1  0.857813  0.972082  0.783694  1
  Ti  Ti13  1  0.142315  0.027871  0.784161  1
  Ti  Ti14  1  0.471758  0.643474  0.282681  1
  Ti  Ti15  1  0.528080  0.356855  0.282197  1
  Ti  Ti16  1  0.105844  0.583161  0.478893  1
  Ti  Ti17  1  0.894689  0.417718  0.477211  1
  Ti  Ti18  1  0.079262  0.393298  0.956171  1
  Ti  Ti19  1  0.920100  0.606550  0.957286  1
  Ti  Ti20  1  0.392041  0.917783  0.031067  1
  Ti  Ti21  1  0.607554  0.081841  0.031716  1
  Ti  Ti22  1  0.418761  0.105829  0.534783  1
  Ti  Ti23  1  0.581058  0.893947  0.534006  1
  Si  Si24  1  0.041650  0.796374  0.710825  1
  Si  Si25  1  0.958559  0.203768  0.710181  1
  Si  Si26  1  0.794750  0.958011  0.288468  1
  Si  Si27  1  0.205362  0.041698  0.288935  1
  Si  Si28  1  0.458194  0.706172  0.787281  1
  Si  Si29  1  0.541834  0.293882  0.787267  1
  As  As30  1  0.707492  0.541916  0.213630  1
  Se  Se31  1  0.291472  0.458113  0.213507  1
