# generated using pymatgen
data_Tb8Y8Sc4Si15Ru
_symmetry_space_group_name_H-M   'P 1'
_cell_length_a   7.24276769
_cell_length_b   7.72807066
_cell_length_c   14.40876000
_cell_angle_alpha   90.00000000
_cell_angle_beta   90.00000000
_cell_angle_gamma   90.09732304
_symmetry_Int_Tables_number   1
_chemical_formula_structural   Tb8Y8Sc4Si15Ru
_chemical_formula_sum   'Tb8 Y8 Sc4 Si15 Ru1'
_cell_volume   806.49489140
_cell_formula_units_Z   1
loop_
 _symmetry_equiv_pos_site_id
 _symmetry_equiv_pos_as_xyz
  1  'x, y, z'
loop_
 _atom_site_type_symbol
 _atom_site_label
 _atom_site_symmetry_multiplicity
 _atom_site_fract_x
 _atom_site_fract_y
 _atom_site_fract_z
 _atom_site_occupancy
  Tb  Tb0  1  0.018191  0.184577  0.096205  1
  Tb  Tb1  1  0.984757  0.823800  0.903912  1
  Tb  Tb2  1  0.482876  0.683270  0.904106  1
  Tb  Tb3  1  0.984757  0.823800  0.596088  1
  Tb  Tb4  1  0.518436  0.317027  0.096833  1
  Tb  Tb5  1  0.018191  0.184577  0.403795  1
  Tb  Tb6  1  0.518436  0.317027  0.403167  1
  Tb  Tb7  1  0.482876  0.683270  0.595894  1
  Y  Y8  1  0.310479  0.172916  0.629009  1
  Y  Y9  1  0.677994  0.823688  0.373779  1
  Y  Y10  1  0.177166  0.680138  0.373475  1
  Y  Y11  1  0.677994  0.823688  0.126221  1
  Y  Y12  1  0.829873  0.317667  0.628050  1
  Y  Y13  1  0.310479  0.172916  0.870991  1
  Y  Y14  1  0.829873  0.317667  0.871950  1
  Y  Y15  1  0.177166  0.680138  0.126525  1
  Sc  Sc16  1  0.156037  0.520059  0.750000  1
  Sc  Sc17  1  0.842845  0.481744  0.250000  1
  Sc  Sc18  1  0.343315  0.020670  0.250000  1
  Sc  Sc19  1  0.669728  0.983732  0.750000  1
  Si  Si20  1  0.979839  0.909889  0.250000  1
  Si  Si21  1  0.481607  0.592300  0.250000  1
  Si  Si22  1  0.518175  0.406932  0.750000  1
  Si  Si23  1  0.281175  0.859321  0.750000  1
  Si  Si24  1  0.719214  0.135767  0.250000  1
  Si  Si25  1  0.221246  0.365652  0.250000  1
  Si  Si26  1  0.773841  0.630933  0.750000  1
  Si  Si27  1  0.155941  0.472947  0.538612  1
  Si  Si28  1  0.847988  0.529448  0.460584  1
  Si  Si29  1  0.346616  0.971671  0.460003  1
  Si  Si30  1  0.847988  0.529448  0.039416  1
  Si  Si31  1  0.650353  0.030421  0.539410  1
  Si  Si32  1  0.155941  0.472947  0.961388  1
  Si  Si33  1  0.650353  0.030421  0.960590  1
  Si  Si34  1  0.346616  0.971671  0.039997  1
  Ru  Ru35  1  0.011635  0.077859  0.750000  1
