# generated using pymatgen
data_Eu2Th(MgRh)3
_symmetry_space_group_name_H-M   'P 1'
_cell_length_a   7.58100600
_cell_length_b   7.47361420
_cell_length_c   4.18163500
_cell_angle_alpha   90.00000000
_cell_angle_beta   90.00000000
_cell_angle_gamma   120.47648728
_symmetry_Int_Tables_number   1
_chemical_formula_structural   Eu2Th(MgRh)3
_chemical_formula_sum   'Eu2 Th1 Mg3 Rh3'
_cell_volume   204.18740920
_cell_formula_units_Z   1
loop_
 _symmetry_equiv_pos_site_id
 _symmetry_equiv_pos_as_xyz
  1  'x, y, z'
loop_
 _atom_site_type_symbol
 _atom_site_label
 _atom_site_symmetry_multiplicity
 _atom_site_fract_x
 _atom_site_fract_y
 _atom_site_fract_z
 _atom_site_occupancy
  Eu  Eu0  1  0.000726  0.415962  0.000000  1
  Eu  Eu1  1  0.584764  0.584038  0.000000  1
  Th  Th2  1  0.410414  0.000000  0.000000  1
  Mg  Mg3  1  0.769060  0.000000  0.499999  1
  Mg  Mg4  1  0.240216  0.244782  0.499999  1
  Mg  Mg5  1  0.995434  0.755218  0.499999  1
  Rh  Rh6  1  0.018146  0.000000  0.000000  1
  Rh  Rh7  1  0.638650  0.296059  0.499999  1
  Rh  Rh8  1  0.342591  0.703941  0.499999  1
