# generated using pymatgen
data_Y4Si4TcRh3
_symmetry_space_group_name_H-M   'P 1'
_cell_length_a   4.29827200
_cell_length_b   6.97412522
_cell_length_c   7.33468845
_cell_angle_alpha   90.11060857
_cell_angle_beta   90.00000000
_cell_angle_gamma   90.00000000
_symmetry_Int_Tables_number   1
_chemical_formula_structural   Y4Si4TcRh3
_chemical_formula_sum   'Y4 Si4 Tc1 Rh3'
_cell_volume   219.86925128
_cell_formula_units_Z   1
loop_
 _symmetry_equiv_pos_site_id
 _symmetry_equiv_pos_as_xyz
  1  'x, y, z'
loop_
 _atom_site_type_symbol
 _atom_site_label
 _atom_site_symmetry_multiplicity
 _atom_site_fract_x
 _atom_site_fract_y
 _atom_site_fract_z
 _atom_site_occupancy
  Y  Y0  1  0.750000  0.500244  0.313890  1
  Y  Y1  1  0.250000  0.991123  0.810721  1
  Y  Y2  1  0.750000  0.005801  0.190537  1
  Y  Y3  1  0.250000  0.498382  0.685700  1
  Si  Si4  1  0.250000  0.300945  0.101896  1
  Si  Si5  1  0.250000  0.798596  0.387180  1
  Si  Si6  1  0.750000  0.701091  0.902603  1
  Si  Si7  1  0.750000  0.199925  0.608517  1
  Tc  Tc8  1  0.250000  0.654784  0.068948  1
  Rh  Rh9  1  0.250000  0.156247  0.433893  1
  Rh  Rh10  1  0.750000  0.847827  0.566327  1
  Rh  Rh11  1  0.750000  0.345034  0.929787  1
