# generated using pymatgen
data_Zr10ZnGe(Bi2Pb)2
_symmetry_space_group_name_H-M   'P 1'
_cell_length_a   8.86156691
_cell_length_b   8.85542469
_cell_length_c   5.95640956
_cell_angle_alpha   90.04940533
_cell_angle_beta   89.97531495
_cell_angle_gamma   119.97707557
_symmetry_Int_Tables_number   1
_chemical_formula_structural   Zr10ZnGe(Bi2Pb)2
_chemical_formula_sum   'Zr10 Zn1 Ge1 Bi4 Pb2'
_cell_volume   404.88828747
_cell_formula_units_Z   1
loop_
 _symmetry_equiv_pos_site_id
 _symmetry_equiv_pos_as_xyz
  1  'x, y, z'
loop_
 _atom_site_type_symbol
 _atom_site_label
 _atom_site_symmetry_multiplicity
 _atom_site_fract_x
 _atom_site_fract_y
 _atom_site_fract_z
 _atom_site_occupancy
  Zr  Zr0  1  0.334171  0.667086  0.000000  1
  Zr  Zr1  1  0.667210  0.333605  0.500000  1
  Zr  Zr2  1  0.666603  0.333301  0.000000  1
  Zr  Zr3  1  0.333777  0.666889  0.500000  1
  Zr  Zr4  1  0.262855  0.999704  0.248649  1
  Zr  Zr5  1  0.262855  0.263151  0.751351  1
  Zr  Zr6  1  0.000404  0.737363  0.751789  1
  Zr  Zr7  1  0.000404  0.263041  0.248211  1
  Zr  Zr8  1  0.736871  0.736408  0.247701  1
  Zr  Zr9  1  0.736871  0.000463  0.752299  1
  Zn  Zn10  1  0.000229  0.000114  0.500000  1
  Ge  Ge11  1  0.999885  0.999943  0.000000  1
  Bi  Bi12  1  0.610302  0.000210  0.251698  1
  Bi  Bi13  1  0.610302  0.610092  0.748302  1
  Bi  Bi14  1  0.000734  0.390072  0.748738  1
  Bi  Bi15  1  0.000734  0.610661  0.251262  1
  Pb  Pb16  1  0.387896  0.387416  0.251756  1
  Pb  Pb17  1  0.387896  0.000480  0.748244  1
