# generated using pymatgen
data_Tb4Y4Sc12Si15Ge
_symmetry_space_group_name_H-M   'P 1'
_cell_length_a   7.12200710
_cell_length_b   7.40397356
_cell_length_c   14.03652885
_cell_angle_alpha   90.00977094
_cell_angle_beta   89.85826893
_cell_angle_gamma   90.01954055
_symmetry_Int_Tables_number   1
_chemical_formula_structural   Tb4Y4Sc12Si15Ge
_chemical_formula_sum   'Tb4 Y4 Sc12 Si15 Ge1'
_cell_volume   740.16002226
_cell_formula_units_Z   1
loop_
 _symmetry_equiv_pos_site_id
 _symmetry_equiv_pos_as_xyz
  1  'x, y, z'
loop_
 _atom_site_type_symbol
 _atom_site_label
 _atom_site_symmetry_multiplicity
 _atom_site_fract_x
 _atom_site_fract_y
 _atom_site_fract_z
 _atom_site_occupancy
  Tb  Tb0  1  0.512129  0.325045  0.097048  1
  Tb  Tb1  1  0.011098  0.174497  0.402586  1
  Tb  Tb2  1  0.512578  0.324083  0.402217  1
  Tb  Tb3  1  0.490552  0.676429  0.597608  1
  Y  Y4  1  0.012271  0.174966  0.096877  1
  Y  Y5  1  0.987977  0.825052  0.902958  1
  Y  Y6  1  0.488196  0.675077  0.902812  1
  Y  Y7  1  0.987544  0.825885  0.597257  1
  Sc  Sc8  1  0.160684  0.501945  0.751251  1
  Sc  Sc9  1  0.839082  0.498324  0.250039  1
  Sc  Sc10  1  0.339234  0.001723  0.249979  1
  Sc  Sc11  1  0.660638  0.998235  0.750001  1
  Sc  Sc12  1  0.332726  0.174101  0.626259  1
  Sc  Sc13  1  0.668345  0.823766  0.374464  1
  Sc  Sc14  1  0.167841  0.677326  0.374296  1
  Sc  Sc15  1  0.669074  0.823050  0.125118  1
  Sc  Sc16  1  0.829874  0.323530  0.625365  1
  Sc  Sc17  1  0.330933  0.176427  0.874674  1
  Sc  Sc18  1  0.830963  0.323236  0.874599  1
  Sc  Sc19  1  0.168844  0.676912  0.125169  1
  Si  Si20  1  0.033573  0.118257  0.750115  1
  Si  Si21  1  0.966106  0.882498  0.249579  1
  Si  Si22  1  0.465823  0.618088  0.249750  1
  Si  Si23  1  0.533354  0.382155  0.750240  1
  Si  Si24  1  0.285483  0.873922  0.750266  1
  Si  Si25  1  0.714632  0.125213  0.249615  1
  Si  Si26  1  0.214272  0.374697  0.249931  1
  Si  Si27  1  0.786221  0.625679  0.750148  1
  Si  Si28  1  0.837656  0.536896  0.459810  1
  Si  Si29  1  0.342214  0.964324  0.460609  1
  Si  Si30  1  0.842926  0.535413  0.039422  1
  Si  Si31  1  0.657595  0.035980  0.539630  1
  Si  Si32  1  0.157024  0.464514  0.960415  1
  Si  Si33  1  0.657048  0.035530  0.960335  1
  Si  Si34  1  0.342837  0.964337  0.039402  1
  Ge  Ge35  1  0.162650  0.462885  0.540158  1
