# generated using pymatgen
data_Ho3In3PtAu
_symmetry_space_group_name_H-M   'P 1'
_cell_length_a   7.78353000
_cell_length_b   7.78353025
_cell_length_c   3.66167900
_cell_angle_alpha   90.00000000
_cell_angle_beta   90.00000000
_cell_angle_gamma   119.99999894
_symmetry_Int_Tables_number   1
_chemical_formula_structural   Ho3In3PtAu
_chemical_formula_sum   'Ho3 In3 Pt1 Au1'
_cell_volume   192.11626154
_cell_formula_units_Z   1
loop_
 _symmetry_equiv_pos_site_id
 _symmetry_equiv_pos_as_xyz
  1  'x, y, z'
loop_
 _atom_site_type_symbol
 _atom_site_label
 _atom_site_symmetry_multiplicity
 _atom_site_fract_x
 _atom_site_fract_y
 _atom_site_fract_z
 _atom_site_occupancy
  Ho  Ho0  1  0.574826  0.988832  0.500000  1
  Ho  Ho1  1  0.414007  0.425175  0.500000  1
  Ho  Ho2  1  0.011168  0.585994  0.500000  1
  In  In3  1  0.229757  0.999150  0.000000  1
  In  In4  1  0.000850  0.230606  0.000000  1
  In  In5  1  0.769393  0.770243  0.000000  1
  Pt  Pt6  1  0.333333  0.666667  0.000000  1
  Au  Au7  1  0.666667  0.333333  0.000000  1
