# generated using pymatgen
data_Dy6ErCoI12
_symmetry_space_group_name_H-M   'P 1'
_cell_length_a   9.74063960
_cell_length_b   9.74213164
_cell_length_c   9.73796463
_cell_angle_alpha   106.81015604
_cell_angle_beta   106.79950408
_cell_angle_gamma   106.83358236
_symmetry_Int_Tables_number   1
_chemical_formula_structural   Dy6ErCoI12
_chemical_formula_sum   'Dy6 Er1 Co1 I12'
_cell_volume   773.44576906
_cell_formula_units_Z   1
loop_
 _symmetry_equiv_pos_site_id
 _symmetry_equiv_pos_as_xyz
  1  'x, y, z'
loop_
 _atom_site_type_symbol
 _atom_site_label
 _atom_site_symmetry_multiplicity
 _atom_site_fract_x
 _atom_site_fract_y
 _atom_site_fract_z
 _atom_site_occupancy
  Dy  Dy0  1  0.500019  0.500073  0.499893  1
  Dy  Dy1  1  0.287357  0.091856  0.020733  1
  Dy  Dy2  1  0.021182  0.287377  0.091025  1
  Dy  Dy3  1  0.091907  0.021430  0.287862  1
  Dy  Dy4  1  0.712232  0.908103  0.977972  1
  Dy  Dy5  1  0.978349  0.712399  0.907475  1
  Er  Er6  1  0.909556  0.978933  0.715639  1
  Co  Co7  1  0.999953  0.999960  0.999779  1
  I  I8  1  0.462541  0.160537  0.385933  1
  I  I9  1  0.385914  0.462624  0.160522  1
  I  I10  1  0.160505  0.385827  0.462586  1
  I  I11  1  0.538446  0.839696  0.613926  1
  I  I12  1  0.614056  0.537358  0.839422  1
  I  I13  1  0.839353  0.614923  0.537409  1
  I  I14  1  0.323141  0.775859  0.929517  1
  I  I15  1  0.929310  0.322068  0.775180  1
  I  I16  1  0.776141  0.929679  0.323899  1
  I  I17  1  0.676817  0.224146  0.070477  1
  I  I18  1  0.070509  0.677069  0.224164  1
  I  I19  1  0.222712  0.070085  0.676587  1
