# generated using pymatgen
data_Y2CS
_symmetry_space_group_name_H-M   'P 1'
_cell_length_a   6.76822967
_cell_length_b   6.76822972
_cell_length_c   6.76823104
_cell_angle_alpha   31.60605168
_cell_angle_beta   31.60605138
_cell_angle_gamma   31.60605293
_symmetry_Int_Tables_number   1
_chemical_formula_structural   Y2CS
_chemical_formula_sum   'Y2 C1 S1'
_cell_volume   75.61366805
_cell_formula_units_Z   1
loop_
 _symmetry_equiv_pos_site_id
 _symmetry_equiv_pos_as_xyz
  1  'x, y, z'
loop_
 _atom_site_type_symbol
 _atom_site_label
 _atom_site_symmetry_multiplicity
 _atom_site_fract_x
 _atom_site_fract_y
 _atom_site_fract_z
 _atom_site_occupancy
  Y  Y0  1  0.987019  0.987019  0.987019  1
  Y  Y1  1  0.512813  0.512813  0.512813  1
  C  C2  1  0.250033  0.250033  0.250033  1
  S  S3  1  0.750133  0.750133  0.750133  1
