# generated using pymatgen
data_Cs3K(AlI4)4
_symmetry_space_group_name_H-M   'P 1'
_cell_length_a   8.38967727
_cell_length_b   9.14462796
_cell_length_c   17.04441289
_cell_angle_alpha   85.73857418
_cell_angle_beta   90.46436333
_cell_angle_gamma   90.21015030
_symmetry_Int_Tables_number   1
_chemical_formula_structural   Cs3K(AlI4)4
_chemical_formula_sum   'Cs3 K1 Al4 I16'
_cell_volume   1303.99134152
_cell_formula_units_Z   1
loop_
 _symmetry_equiv_pos_site_id
 _symmetry_equiv_pos_as_xyz
  1  'x, y, z'
loop_
 _atom_site_type_symbol
 _atom_site_label
 _atom_site_symmetry_multiplicity
 _atom_site_fract_x
 _atom_site_fract_y
 _atom_site_fract_z
 _atom_site_occupancy
  Cs  Cs0  1  0.506479  0.256997  0.640670  1
  Cs  Cs1  1  0.006909  0.742474  0.860599  1
  Cs  Cs2  1  0.493493  0.743112  0.357707  1
  K  K3  1  0.998697  0.255866  0.138666  1
  Al  Al4  1  0.352323  0.247463  0.359390  1
  Al  Al5  1  0.860311  0.753893  0.139624  1
  Al  Al6  1  0.643837  0.752264  0.639293  1
  Al  Al7  1  0.142509  0.246358  0.862250  1
  I  I8  1  0.868785  0.151486  0.908597  1
  I  I9  1  0.370523  0.847163  0.590966  1
  I  I10  1  0.130279  0.857657  0.092326  1
  I  I11  1  0.626456  0.153924  0.407557  1
  I  I12  1  0.386115  0.397012  0.226486  1
  I  I13  1  0.898347  0.593582  0.268919  1
  I  I14  1  0.602988  0.600729  0.771050  1
  I  I15  1  0.103635  0.400104  0.730819  1
  I  I16  1  0.670513  0.969857  0.157366  1
  I  I17  1  0.152979  0.038951  0.339626  1
  I  I18  1  0.342160  0.039311  0.843095  1
  I  I19  1  0.842884  0.961797  0.657687  1
  I  I20  1  0.234898  0.411365  0.460607  1
  I  I21  1  0.741801  0.583169  0.040670  1
  I  I22  1  0.764997  0.588960  0.538897  1
  I  I23  1  0.258086  0.406507  0.967133  1
