# generated using pymatgen
data_HfSc(TiRe8)3
_symmetry_space_group_name_H-M   'P 1'
_cell_length_a   8.40884145
_cell_length_b   8.40956418
_cell_length_c   8.40956400
_cell_angle_alpha   109.47296901
_cell_angle_beta   109.46947784
_cell_angle_gamma   109.46947504
_symmetry_Int_Tables_number   1
_chemical_formula_structural   HfSc(TiRe8)3
_chemical_formula_sum   'Hf1 Sc1 Ti3 Re24'
_cell_volume   457.79449690
_cell_formula_units_Z   1
loop_
 _symmetry_equiv_pos_site_id
 _symmetry_equiv_pos_as_xyz
  1  'x, y, z'
loop_
 _atom_site_type_symbol
 _atom_site_label
 _atom_site_symmetry_multiplicity
 _atom_site_fract_x
 _atom_site_fract_y
 _atom_site_fract_z
 _atom_site_occupancy
  Hf  Hf0  1  0.000915  0.000000  0.000000  1
  Sc  Sc1  1  0.629702  0.000000  0.000000  1
  Ti  Ti2  1  0.999753  0.629221  0.000000  1
  Ti  Ti3  1  0.999753  0.000000  0.629221  1
  Ti  Ti4  1  0.370533  0.370779  0.370779  1
  Re  Re5  1  0.396637  0.676237  0.000000  1
  Re  Re6  1  0.720400  0.323763  0.323763  1
  Re  Re7  1  0.396637  0.000000  0.676237  1
  Re  Re8  1  0.682566  0.400071  0.000000  1
  Re  Re9  1  0.999110  0.400652  0.681996  1
  Re  Re10  1  0.317113  0.718656  0.318004  1
  Re  Re11  1  0.317113  0.318004  0.718656  1
  Re  Re12  1  0.999110  0.681996  0.400652  1
  Re  Re13  1  0.682566  0.000000  0.400071  1
  Re  Re14  1  0.598459  0.599348  0.281344  1
  Re  Re15  1  0.282494  0.599929  0.599929  1
  Re  Re16  1  0.598459  0.281344  0.599348  1
  Re  Re17  1  0.376693  0.193323  0.000000  1
  Re  Re18  1  0.183370  0.806677  0.806677  1
  Re  Re19  1  0.376693  0.000000  0.193323  1
  Re  Re20  1  0.194060  0.375657  0.000000  1
  Re  Re21  1  0.001523  0.378033  0.193835  1
  Re  Re22  1  0.807688  0.184198  0.806165  1
  Re  Re23  1  0.807688  0.806165  0.184198  1
  Re  Re24  1  0.001523  0.193835  0.378033  1
  Re  Re25  1  0.194060  0.000000  0.375657  1
  Re  Re26  1  0.623491  0.621967  0.815802  1
  Re  Re27  1  0.818402  0.624343  0.624343  1
  Re  Re28  1  0.623491  0.815802  0.621967  1
