# generated using pymatgen
data_Nd2Er3Sn3Sb
_symmetry_space_group_name_H-M   'P 1'
_cell_length_a   8.17525000
_cell_length_b   8.19890700
_cell_length_c   15.45840100
_cell_angle_alpha   90.00000000
_cell_angle_beta   90.00000000
_cell_angle_gamma   90.00000000
_symmetry_Int_Tables_number   1
_chemical_formula_structural   Nd2Er3Sn3Sb
_chemical_formula_sum   'Nd8 Er12 Sn12 Sb4'
_cell_volume   1036.14747147
_cell_formula_units_Z   4
loop_
 _symmetry_equiv_pos_site_id
 _symmetry_equiv_pos_as_xyz
  1  'x, y, z'
loop_
 _atom_site_type_symbol
 _atom_site_label
 _atom_site_symmetry_multiplicity
 _atom_site_fract_x
 _atom_site_fract_y
 _atom_site_fract_z
 _atom_site_occupancy
  Nd  Nd0  1  0.526519  0.323286  0.900049  1
  Nd  Nd1  1  0.026519  0.176714  0.599951  1
  Nd  Nd2  1  0.473481  0.676714  0.400049  1
  Nd  Nd3  1  0.973481  0.823286  0.099951  1
  Nd  Nd4  1  0.479249  0.678679  0.098799  1
  Nd  Nd5  1  0.979249  0.821321  0.401201  1
  Nd  Nd6  1  0.520751  0.321321  0.598799  1
  Nd  Nd7  1  0.020751  0.178679  0.901201  1
  Er  Er8  1  0.368535  0.838302  0.877083  1
  Er  Er9  1  0.868535  0.661698  0.622917  1
  Er  Er10  1  0.631465  0.161698  0.377083  1
  Er  Er11  1  0.131465  0.338302  0.122917  1
  Er  Er12  1  0.634415  0.162994  0.122823  1
  Er  Er13  1  0.134415  0.337006  0.377177  1
  Er  Er14  1  0.365585  0.837006  0.622823  1
  Er  Er15  1  0.865585  0.662994  0.877177  1
  Er  Er16  1  0.195725  0.501692  0.748441  1
  Er  Er17  1  0.695725  0.998308  0.751559  1
  Er  Er18  1  0.804275  0.498308  0.248441  1
  Er  Er19  1  0.304275  0.001692  0.251559  1
  Sn  Sn20  1  0.706905  0.962523  0.956886  1
  Sn  Sn21  1  0.206905  0.537477  0.543114  1
  Sn  Sn22  1  0.293095  0.037477  0.456886  1
  Sn  Sn23  1  0.793095  0.462523  0.043114  1
  Sn  Sn24  1  0.563469  0.625286  0.749275  1
  Sn  Sn25  1  0.063469  0.874714  0.750725  1
  Sn  Sn26  1  0.436531  0.374714  0.249275  1
  Sn  Sn27  1  0.936531  0.125286  0.250725  1
  Sn  Sn28  1  0.330800  0.143219  0.750622  1
  Sn  Sn29  1  0.830800  0.356781  0.749378  1
  Sn  Sn30  1  0.669200  0.856781  0.250622  1
  Sn  Sn31  1  0.169200  0.643219  0.249378  1
  Sb  Sb32  1  0.292371  0.038003  0.043574  1
  Sb  Sb33  1  0.792371  0.461997  0.456426  1
  Sb  Sb34  1  0.707629  0.961997  0.543574  1
  Sb  Sb35  1  0.207629  0.538003  0.956426  1
