# generated using pymatgen
data_Tb3Er3(SiNi3)4
_symmetry_space_group_name_H-M   'P 1'
_cell_length_a   7.58897463
_cell_length_b   7.58897529
_cell_length_c   7.58449200
_cell_angle_alpha   109.45925391
_cell_angle_beta   109.45925568
_cell_angle_gamma   109.48318117
_symmetry_Int_Tables_number   1
_chemical_formula_structural   Tb3Er3(SiNi3)4
_chemical_formula_sum   'Tb3 Er3 Si4 Ni12'
_cell_volume   336.30627700
_cell_formula_units_Z   1
loop_
 _symmetry_equiv_pos_site_id
 _symmetry_equiv_pos_as_xyz
  1  'x, y, z'
loop_
 _atom_site_type_symbol
 _atom_site_label
 _atom_site_symmetry_multiplicity
 _atom_site_fract_x
 _atom_site_fract_y
 _atom_site_fract_z
 _atom_site_occupancy
  Tb  Tb0  1  0.715735  0.715735  0.000646  1
  Tb  Tb1  1  0.284265  0.000000  0.284912  1
  Tb  Tb2  1  0.000000  0.284265  0.284912  1
  Er  Er3  1  0.286848  0.286848  0.000465  1
  Er  Er4  1  0.713152  0.000000  0.713618  1
  Er  Er5  1  0.000000  0.713152  0.713618  1
  Si  Si6  1  0.000000  0.000000  0.501759  1
  Si  Si7  1  0.000000  0.499055  0.999682  1
  Si  Si8  1  0.499055  0.000000  0.999682  1
  Si  Si9  1  0.500945  0.500945  0.500628  1
  Ni  Ni10  1  0.332705  0.332705  0.664698  1
  Ni  Ni11  1  0.667295  0.000000  0.331993  1
  Ni  Ni12  1  0.000000  0.667295  0.331993  1
  Ni  Ni13  1  0.667816  0.328783  0.996852  1
  Ni  Ni14  1  0.332184  0.660967  0.329036  1
  Ni  Ni15  1  0.000000  0.328325  0.670600  1
  Ni  Ni16  1  0.328783  0.667816  0.996852  1
  Ni  Ni17  1  0.328325  0.000000  0.670600  1
  Ni  Ni18  1  0.660967  0.332184  0.329036  1
  Ni  Ni19  1  0.671675  0.671675  0.342275  1
  Ni  Ni20  1  0.671217  0.339033  0.668070  1
  Ni  Ni21  1  0.339033  0.671217  0.668070  1
