# generated using pymatgen
data_La2SmSi5PPd20
_symmetry_space_group_name_H-M   'P 1'
_cell_length_a   8.78273334
_cell_length_b   8.78462515
_cell_length_c   8.78462620
_cell_angle_alpha   59.98575005
_cell_angle_beta   60.00712036
_cell_angle_gamma   60.00712403
_symmetry_Int_Tables_number   1
_chemical_formula_structural   La2SmSi5PPd20
_chemical_formula_sum   'La2 Sm1 Si5 P1 Pd20'
_cell_volume   479.24894045
_cell_formula_units_Z   1
loop_
 _symmetry_equiv_pos_site_id
 _symmetry_equiv_pos_as_xyz
  1  'x, y, z'
loop_
 _atom_site_type_symbol
 _atom_site_label
 _atom_site_symmetry_multiplicity
 _atom_site_fract_x
 _atom_site_fract_y
 _atom_site_fract_z
 _atom_site_occupancy
  La  La0  1  0.249579  0.250421  0.250421  1
  La  La1  1  0.749579  0.750421  0.750421  1
  Sm  Sm2  1  0.000266  0.999734  0.999734  1
  Si  Si3  1  0.266799  0.733201  0.733201  1
  Si  Si4  1  0.265383  0.734617  0.266846  1
  Si  Si5  1  0.733154  0.266846  0.734617  1
  Si  Si6  1  0.265383  0.266846  0.734617  1
  Si  Si7  1  0.733154  0.734617  0.266846  1
  P  P8  1  0.735364  0.264636  0.264636  1
  Pd  Pd9  1  0.386784  0.385262  0.385262  1
  Pd  Pd10  1  0.614690  0.614520  0.614520  1
  Pd  Pd11  1  0.385480  0.385310  0.843728  1
  Pd  Pd12  1  0.385480  0.843728  0.385310  1
  Pd  Pd13  1  0.614738  0.613216  0.157309  1
  Pd  Pd14  1  0.614738  0.157309  0.613216  1
  Pd  Pd15  1  0.842691  0.385262  0.385262  1
  Pd  Pd16  1  0.156272  0.614520  0.614520  1
  Pd  Pd17  1  0.347191  0.999346  0.999346  1
  Pd  Pd18  1  0.654117  0.999346  0.999346  1
  Pd  Pd19  1  0.000654  0.345883  0.652809  1
  Pd  Pd20  1  0.000654  0.652809  0.345883  1
  Pd  Pd21  1  0.998680  0.346076  0.001320  1
  Pd  Pd22  1  0.653924  0.001320  0.346076  1
  Pd  Pd23  1  0.000153  0.653831  0.999847  1
  Pd  Pd24  1  0.346169  0.999847  0.653831  1
  Pd  Pd25  1  0.998680  0.001320  0.346076  1
  Pd  Pd26  1  0.000153  0.999847  0.653831  1
  Pd  Pd27  1  0.653924  0.346076  0.001320  1
  Pd  Pd28  1  0.346169  0.653831  0.999847  1
