# generated using pymatgen
data_Tl7Ru(SO4)6
_symmetry_space_group_name_H-M   'P 1'
_cell_length_a   9.79974504
_cell_length_b   9.79974576
_cell_length_c   9.79974600
_cell_angle_alpha   109.81276725
_cell_angle_beta   109.81276254
_cell_angle_gamma   109.81277417
_symmetry_Int_Tables_number   1
_chemical_formula_structural   Tl7Ru(SO4)6
_chemical_formula_sum   'Tl7 Ru1 S6 O24'
_cell_volume   715.16557952
_cell_formula_units_Z   1
loop_
 _symmetry_equiv_pos_site_id
 _symmetry_equiv_pos_as_xyz
  1  'x, y, z'
loop_
 _atom_site_type_symbol
 _atom_site_label
 _atom_site_symmetry_multiplicity
 _atom_site_fract_x
 _atom_site_fract_y
 _atom_site_fract_z
 _atom_site_occupancy
  Tl  Tl0  1  0.500000  0.500000  0.500000  1
  Tl  Tl1  1  0.834450  0.329988  0.676464  1
  Tl  Tl2  1  0.329988  0.676464  0.834450  1
  Tl  Tl3  1  0.676464  0.834450  0.329988  1
  Tl  Tl4  1  0.165550  0.670012  0.323536  1
  Tl  Tl5  1  0.670012  0.323536  0.165550  1
  Tl  Tl6  1  0.323536  0.165550  0.670012  1
  Ru  Ru7  1  0.000000  0.000000  0.000000  1
  S  S8  1  0.973711  0.761671  0.641163  1
  S  S9  1  0.761671  0.641163  0.973711  1
  S  S10  1  0.641163  0.973711  0.761671  1
  S  S11  1  0.026289  0.238329  0.358837  1
  S  S12  1  0.238329  0.358837  0.026289  1
  S  S13  1  0.358837  0.026289  0.238329  1
  O  O14  1  0.398428  0.901329  0.155356  1
  O  O15  1  0.901329  0.155356  0.398428  1
  O  O16  1  0.155356  0.398428  0.901329  1
  O  O17  1  0.601572  0.098671  0.844644  1
  O  O18  1  0.098671  0.844644  0.601572  1
  O  O19  1  0.844644  0.601572  0.098671  1
  O  O20  1  0.285602  0.984121  0.337055  1
  O  O21  1  0.984121  0.337055  0.285602  1
  O  O22  1  0.337055  0.285602  0.984121  1
  O  O23  1  0.714398  0.015879  0.662945  1
  O  O24  1  0.015879  0.662945  0.714398  1
  O  O25  1  0.662945  0.714398  0.015879  1
  O  O26  1  0.772189  0.974997  0.910396  1
  O  O27  1  0.974997  0.910396  0.772189  1
  O  O28  1  0.659825  0.492742  0.799713  1
  O  O29  1  0.799713  0.659825  0.492742  1
  O  O30  1  0.492742  0.799713  0.659825  1
  O  O31  1  0.340175  0.507258  0.200287  1
  O  O32  1  0.200287  0.340175  0.507258  1
  O  O33  1  0.507258  0.200287  0.340175  1
  O  O34  1  0.089604  0.227811  0.025003  1
  O  O35  1  0.025003  0.089604  0.227811  1
  O  O36  1  0.227811  0.025003  0.089604  1
  O  O37  1  0.910396  0.772189  0.974997  1
