# generated using pymatgen
data_NaZrPa2Bi5
_symmetry_space_group_name_H-M   'P 1'
_cell_length_a   9.44550100
_cell_length_b   9.56768412
_cell_length_c   6.45347500
_cell_angle_alpha   90.00000000
_cell_angle_beta   90.00000000
_cell_angle_gamma   119.57844676
_symmetry_Int_Tables_number   1
_chemical_formula_structural   NaZrPa2Bi5
_chemical_formula_sum   'Na2 Zr2 Pa4 Bi10'
_cell_volume   507.20704772
_cell_formula_units_Z   2
loop_
 _symmetry_equiv_pos_site_id
 _symmetry_equiv_pos_as_xyz
  1  'x, y, z'
loop_
 _atom_site_type_symbol
 _atom_site_label
 _atom_site_symmetry_multiplicity
 _atom_site_fract_x
 _atom_site_fract_y
 _atom_site_fract_z
 _atom_site_occupancy
  Na  Na0  1  0.614959  0.000000  0.250000  1
  Na  Na1  1  0.385041  0.000000  0.750000  1
  Zr  Zr2  1  0.000000  0.000000  0.000000  1
  Zr  Zr3  1  0.000000  0.000000  0.500000  1
  Pa  Pa4  1  0.016620  0.626922  0.250000  1
  Pa  Pa5  1  0.983380  0.373078  0.750000  1
  Pa  Pa6  1  0.389699  0.373078  0.250000  1
  Pa  Pa7  1  0.610301  0.626922  0.750000  1
  Bi  Bi8  1  0.271429  0.000000  0.250000  1
  Bi  Bi9  1  0.728571  0.000000  0.750000  1
  Bi  Bi10  1  0.999681  0.270326  0.250000  1
  Bi  Bi11  1  0.000319  0.729674  0.750000  1
  Bi  Bi12  1  0.729355  0.729674  0.250000  1
  Bi  Bi13  1  0.270645  0.270326  0.750000  1
  Bi  Bi14  1  0.324376  0.648755  0.000000  1
  Bi  Bi15  1  0.675624  0.351245  0.000000  1
  Bi  Bi16  1  0.675624  0.351245  0.500000  1
  Bi  Bi17  1  0.324376  0.648755  0.500000  1
