# generated using pymatgen
data_Zr8In4RuAu7
_symmetry_space_group_name_H-M   'P 1'
_cell_length_a   7.62674754
_cell_length_b   7.62674754
_cell_length_c   7.12508987
_cell_angle_alpha   90.34526150
_cell_angle_beta   90.34526150
_cell_angle_gamma   90.25439154
_symmetry_Int_Tables_number   1
_chemical_formula_structural   Zr8In4RuAu7
_chemical_formula_sum   'Zr8 In4 Ru1 Au7'
_cell_volume   414.42788227
_cell_formula_units_Z   1
loop_
 _symmetry_equiv_pos_site_id
 _symmetry_equiv_pos_as_xyz
  1  'x, y, z'
loop_
 _atom_site_type_symbol
 _atom_site_label
 _atom_site_symmetry_multiplicity
 _atom_site_fract_x
 _atom_site_fract_y
 _atom_site_fract_z
 _atom_site_occupancy
  Zr  Zr0  1  0.157111  0.157111  0.013834  1
  Zr  Zr1  1  0.857346  0.857346  0.995139  1
  Zr  Zr2  1  0.635082  0.346649  0.486841  1
  Zr  Zr3  1  0.346649  0.635082  0.486841  1
  Zr  Zr4  1  0.681377  0.306135  0.007535  1
  Zr  Zr5  1  0.306135  0.681377  0.007535  1
  Zr  Zr6  1  0.806623  0.806623  0.498959  1
  Zr  Zr7  1  0.200508  0.200508  0.491269  1
  In  In8  1  0.499737  0.003856  0.245915  1
  In  In9  1  0.499277  0.996458  0.750312  1
  In  In10  1  0.003856  0.499737  0.245915  1
  In  In11  1  0.996458  0.499277  0.750312  1
  Ru  Ru12  1  0.370749  0.370749  0.223160  1
  Au  Au13  1  0.629728  0.629728  0.787535  1
  Au  Au14  1  0.633296  0.633296  0.202218  1
  Au  Au15  1  0.871129  0.133499  0.709669  1
  Au  Au16  1  0.871329  0.130081  0.295102  1
  Au  Au17  1  0.370031  0.370031  0.797136  1
  Au  Au18  1  0.130081  0.871329  0.295102  1
  Au  Au19  1  0.133499  0.871129  0.709669  1
