# generated using pymatgen
data_Dy4Y2Si5GeRh12
_symmetry_space_group_name_H-M   'P 1'
_cell_length_a   5.58832400
_cell_length_b   5.58833072
_cell_length_c   15.12716700
_cell_angle_alpha   89.99994290
_cell_angle_beta   89.99985627
_cell_angle_gamma   120.00005883
_symmetry_Int_Tables_number   1
_chemical_formula_structural   Dy4Y2Si5GeRh12
_chemical_formula_sum   'Dy4 Y2 Si5 Ge1 Rh12'
_cell_volume   409.12088806
_cell_formula_units_Z   1
loop_
 _symmetry_equiv_pos_site_id
 _symmetry_equiv_pos_as_xyz
  1  'x, y, z'
loop_
 _atom_site_type_symbol
 _atom_site_label
 _atom_site_symmetry_multiplicity
 _atom_site_fract_x
 _atom_site_fract_y
 _atom_site_fract_z
 _atom_site_occupancy
  Dy  Dy0  1  0.666668  0.333338  0.962899  1
  Dy  Dy1  1  0.666668  0.333336  0.537586  1
  Dy  Dy2  1  0.333332  0.666662  0.037101  1
  Dy  Dy3  1  0.333332  0.666664  0.462414  1
  Y  Y4  1  0.666668  0.333327  0.750386  1
  Y  Y5  1  0.333332  0.666673  0.249614  1
  Si  Si6  1  0.666668  0.333336  0.248651  1
  Si  Si7  1  0.000001  0.000000  0.249179  1
  Si  Si8  1  0.999999  0.000000  0.750821  1
  Si  Si9  1  0.333332  0.666664  0.751349  1
  Si  Si10  1  0.000000  0.000000  0.000000  1
  Ge  Ge11  1  0.000000  0.000000  0.500000  1
  Rh  Rh12  1  0.166573  0.333144  0.869733  1
  Rh  Rh13  1  0.167470  0.334939  0.633047  1
  Rh  Rh14  1  0.666854  0.833428  0.869733  1
  Rh  Rh15  1  0.334937  0.167469  0.366953  1
  Rh  Rh16  1  0.832530  0.665061  0.366953  1
  Rh  Rh17  1  0.832528  0.167468  0.366954  1
  Rh  Rh18  1  0.833426  0.166571  0.130268  1
  Rh  Rh19  1  0.333146  0.166572  0.130267  1
  Rh  Rh20  1  0.665063  0.832531  0.633047  1
  Rh  Rh21  1  0.167472  0.832532  0.633046  1
  Rh  Rh22  1  0.833427  0.666856  0.130267  1
  Rh  Rh23  1  0.166574  0.833429  0.869732  1
