# generated using pymatgen
data_Cs3TmSb2
_symmetry_space_group_name_H-M   'P 1'
_cell_length_a   10.51005027
_cell_length_b   10.51005009
_cell_length_c   10.51005113
_cell_angle_alpha   127.74227884
_cell_angle_beta   70.06668052
_cell_angle_gamma   136.78719045
_symmetry_Int_Tables_number   1
_chemical_formula_structural   Cs3TmSb2
_chemical_formula_sum   'Cs6 Tm2 Sb4'
_cell_volume   616.62073903
_cell_formula_units_Z   2
loop_
 _symmetry_equiv_pos_site_id
 _symmetry_equiv_pos_as_xyz
  1  'x, y, z'
loop_
 _atom_site_type_symbol
 _atom_site_label
 _atom_site_symmetry_multiplicity
 _atom_site_fract_x
 _atom_site_fract_y
 _atom_site_fract_z
 _atom_site_occupancy
  Cs  Cs0  1  0.315934  0.703952  0.019885  1
  Cs  Cs1  1  0.184066  0.203952  0.388018  1
  Cs  Cs2  1  0.750000  0.250000  0.500000  1
  Cs  Cs3  1  0.250000  0.749999  0.499999  1
  Cs  Cs4  1  0.815934  0.796049  0.611983  1
  Cs  Cs5  1  0.684066  0.296049  0.980116  1
  Tm  Tm6  1  0.250000  0.250000  0.000000  1
  Tm  Tm7  1  0.750000  0.750000  0.000000  1
  Sb  Sb8  1  0.906388  0.183466  0.089853  1
  Sb  Sb9  1  0.593613  0.683467  0.277079  1
  Sb  Sb10  1  0.406387  0.316533  0.722920  1
  Sb  Sb11  1  0.093613  0.816533  0.910146  1
