# generated using pymatgen
data_Y4Er4Si12Ir3Rh
_symmetry_space_group_name_H-M   'P 1'
_cell_length_a   8.15253108
_cell_length_b   8.15891114
_cell_length_c   7.89495500
_cell_angle_alpha   89.99973279
_cell_angle_beta   89.99771516
_cell_angle_gamma   120.02577106
_symmetry_Int_Tables_number   1
_chemical_formula_structural   Y4Er4Si12Ir3Rh
_chemical_formula_sum   'Y4 Er4 Si12 Ir3 Rh1'
_cell_volume   454.66562197
_cell_formula_units_Z   1
loop_
 _symmetry_equiv_pos_site_id
 _symmetry_equiv_pos_as_xyz
  1  'x, y, z'
loop_
 _atom_site_type_symbol
 _atom_site_label
 _atom_site_symmetry_multiplicity
 _atom_site_fract_x
 _atom_site_fract_y
 _atom_site_fract_z
 _atom_site_occupancy
  Y  Y0  1  0.000159  0.000078  0.250255  1
  Y  Y1  1  0.000107  0.000058  0.749561  1
  Y  Y2  1  0.490908  0.508969  0.249937  1
  Y  Y3  1  0.490911  0.981942  0.249939  1
  Er  Er4  1  0.016138  0.508071  0.249758  1
  Er  Er5  1  0.509458  0.490472  0.750101  1
  Er  Er6  1  0.980988  0.490482  0.750137  1
  Er  Er7  1  0.509468  0.018985  0.750095  1
  Si  Si8  1  0.833432  0.166751  0.501127  1
  Si  Si9  1  0.833432  0.666681  0.501128  1
  Si  Si10  1  0.333765  0.166884  0.501464  1
  Si  Si11  1  0.833284  0.166882  0.998830  1
  Si  Si12  1  0.833286  0.666404  0.998832  1
  Si  Si13  1  0.334047  0.167024  0.998477  1
  Si  Si14  1  0.167159  0.832502  0.999234  1
  Si  Si15  1  0.665394  0.832698  0.998103  1
  Si  Si16  1  0.167161  0.334659  0.999232  1
  Si  Si17  1  0.167375  0.832264  0.500322  1
  Si  Si18  1  0.664996  0.832498  0.501444  1
  Si  Si19  1  0.167377  0.335113  0.500321  1
  Ir  Ir20  1  0.667799  0.333900  0.469495  1
  Ir  Ir21  1  0.667788  0.333895  0.030194  1
  Ir  Ir22  1  0.332782  0.666391  0.963157  1
  Rh  Rh23  1  0.332788  0.666398  0.538857  1
