# generated using pymatgen
data_Tb2Dy6Re3B24Os
_symmetry_space_group_name_H-M   'P 1'
_cell_length_a   3.68353700
_cell_length_b   9.18148167
_cell_length_c   11.56895703
_cell_angle_alpha   90.06995133
_cell_angle_beta   90.00000000
_cell_angle_gamma   90.00000000
_symmetry_Int_Tables_number   1
_chemical_formula_structural   Tb2Dy6Re3B24Os
_chemical_formula_sum   'Tb2 Dy6 Re3 B24 Os1'
_cell_volume   391.26562343
_cell_formula_units_Z   1
loop_
 _symmetry_equiv_pos_site_id
 _symmetry_equiv_pos_as_xyz
  1  'x, y, z'
loop_
 _atom_site_type_symbol
 _atom_site_label
 _atom_site_symmetry_multiplicity
 _atom_site_fract_x
 _atom_site_fract_y
 _atom_site_fract_z
 _atom_site_occupancy
  Tb  Tb0  1  0.000000  0.322090  0.414083  1
  Tb  Tb1  1  0.000000  0.677176  0.587592  1
  Dy  Dy2  1  0.000000  0.824770  0.084464  1
  Dy  Dy3  1  0.000000  0.176443  0.913679  1
  Dy  Dy4  1  0.000000  0.942544  0.369723  1
  Dy  Dy5  1  0.000000  0.056566  0.629633  1
  Dy  Dy6  1  0.000000  0.442691  0.129878  1
  Dy  Dy7  1  0.000000  0.556923  0.870901  1
  Re  Re8  1  0.000000  0.361924  0.678412  1
  Re  Re9  1  0.000000  0.138287  0.179401  1
  Re  Re10  1  0.000000  0.861700  0.821053  1
  B  B11  1  0.500000  0.553955  0.432452  1
  B  B12  1  0.500000  0.446880  0.567193  1
  B  B13  1  0.500000  0.053120  0.066888  1
  B  B14  1  0.500000  0.947014  0.932893  1
  B  B15  1  0.500000  0.748382  0.418040  1
  B  B16  1  0.500000  0.250958  0.581572  1
  B  B17  1  0.500000  0.248801  0.081329  1
  B  B18  1  0.500000  0.751710  0.918772  1
  B  B19  1  0.500000  0.790800  0.265562  1
  B  B20  1  0.500000  0.208283  0.734296  1
  B  B21  1  0.500000  0.291346  0.234393  1
  B  B22  1  0.500000  0.708335  0.766200  1
  B  B23  1  0.500000  0.631511  0.185933  1
  B  B24  1  0.500000  0.369157  0.813969  1
  B  B25  1  0.500000  0.131025  0.314432  1
  B  B26  1  0.500000  0.868856  0.686029  1
  B  B27  1  0.500000  0.982783  0.211720  1
  B  B28  1  0.500000  0.017363  0.787921  1
  B  B29  1  0.500000  0.483879  0.287990  1
  B  B30  1  0.500000  0.517565  0.712171  1
  B  B31  1  0.500000  0.602189  0.028981  1
  B  B32  1  0.500000  0.398019  0.971829  1
  B  B33  1  0.500000  0.100697  0.471487  1
  B  B34  1  0.500000  0.897866  0.528169  1
  Os  Os35  1  0.000000  0.638390  0.320960  1
