# generated using pymatgen
data_Tm3Cd3C
_symmetry_space_group_name_H-M   'P 1'
_cell_length_a   9.45818900
_cell_length_b   9.46160403
_cell_length_c   9.45800000
_cell_angle_alpha   119.98767907
_cell_angle_beta   90.00087231
_cell_angle_gamma   119.98773477
_symmetry_Int_Tables_number   1
_chemical_formula_structural   Tm3Cd3C
_chemical_formula_sum   'Tm12 Cd12 C4'
_cell_volume   598.70802632
_cell_formula_units_Z   4
loop_
 _symmetry_equiv_pos_site_id
 _symmetry_equiv_pos_as_xyz
  1  'x, y, z'
loop_
 _atom_site_type_symbol
 _atom_site_label
 _atom_site_symmetry_multiplicity
 _atom_site_fract_x
 _atom_site_fract_y
 _atom_site_fract_z
 _atom_site_occupancy
  Tm  Tm0  1  0.936047  0.372104  0.186049  1
  Tm  Tm1  1  0.936136  0.750017  0.186118  1
  Tm  Tm2  1  0.313901  0.749994  0.186101  1
  Tm  Tm3  1  0.686117  0.249992  0.436118  1
  Tm  Tm4  1  0.686072  0.872140  0.436067  1
  Tm  Tm5  1  0.063886  0.249995  0.436100  1
  Tm  Tm6  1  0.313926  0.127858  0.563941  1
  Tm  Tm7  1  0.313878  0.750003  0.563879  1
  Tm  Tm8  1  0.936105  0.749989  0.563888  1
  Tm  Tm9  1  0.686106  0.250015  0.813915  1
  Tm  Tm10  1  0.063950  0.627902  0.813947  1
  Tm  Tm11  1  0.063875  0.249995  0.813883  1
  Cd  Cd12  1  0.000001  0.999999  0.999995  1
  Cd  Cd13  1  0.499998  0.999998  0.000003  1
  Cd  Cd14  1  0.499987  0.499995  0.999992  1
  Cd  Cd15  1  0.708843  0.917656  0.126440  1
  Cd  Cd16  1  0.291191  0.082334  0.208801  1
  Cd  Cd17  1  0.291214  0.417687  0.208837  1
  Cd  Cd18  1  0.626480  0.417697  0.208853  1
  Cd  Cd19  1  0.500001  0.500002  0.500003  1
  Cd  Cd20  1  0.373516  0.582305  0.791140  1
  Cd  Cd21  1  0.708787  0.582307  0.791158  1
  Cd  Cd22  1  0.708821  0.917681  0.791216  1
  Cd  Cd23  1  0.291148  0.082329  0.873550  1
  C  C24  1  0.000012  0.500008  0.000004  1
  C  C25  1  0.000003  0.000000  0.499991  1
  C  C26  1  0.500011  0.000010  0.500016  1
  C  C27  1  0.999992  0.499997  0.499999  1
