# generated using pymatgen
data_Ca3Sm2Zr3(Ni4As3)4
_symmetry_space_group_name_H-M   'P 1'
_cell_length_a   12.78070539
_cell_length_b   12.79944826
_cell_length_c   3.96909300
_cell_angle_alpha   90.00000000
_cell_angle_beta   90.00000000
_cell_angle_gamma   119.97442171
_symmetry_Int_Tables_number   1
_chemical_formula_structural   Ca3Sm2Zr3(Ni4As3)4
_chemical_formula_sum   'Ca3 Sm2 Zr3 Ni16 As12'
_cell_volume   562.44473919
_cell_formula_units_Z   1
loop_
 _symmetry_equiv_pos_site_id
 _symmetry_equiv_pos_as_xyz
  1  'x, y, z'
loop_
 _atom_site_type_symbol
 _atom_site_label
 _atom_site_symmetry_multiplicity
 _atom_site_fract_x
 _atom_site_fract_y
 _atom_site_fract_z
 _atom_site_occupancy
  Ca  Ca0  1  0.667251  0.333726  0.000000  1
  Ca  Ca1  1  0.333332  0.666093  0.000000  1
  Ca  Ca2  1  0.186221  0.000202  0.500001  1
  Sm  Sm3  1  0.000017  0.186554  0.500001  1
  Sm  Sm4  1  0.813631  0.813743  0.500001  1
  Zr  Zr5  1  0.565593  0.999874  0.000000  1
  Zr  Zr6  1  0.433235  0.432992  0.000000  1
  Zr  Zr7  1  0.000198  0.566759  0.000000  1
  Ni  Ni8  1  0.999572  0.000174  0.000000  1
  Ni  Ni9  1  0.807064  0.185601  0.000000  1
  Ni  Ni10  1  0.381370  0.192919  0.000000  1
  Ni  Ni11  1  0.192314  0.377202  0.000000  1
  Ni  Ni12  1  0.815497  0.623118  0.000000  1
  Ni  Ni13  1  0.188618  0.807382  0.000000  1
  Ni  Ni14  1  0.621346  0.814204  0.000000  1
  Ni  Ni15  1  0.725204  0.999794  0.500001  1
  Ni  Ni16  1  0.484031  0.121399  0.500001  1
  Ni  Ni17  1  0.274123  0.275874  0.500001  1
  Ni  Ni18  1  0.879173  0.363036  0.500001  1
  Ni  Ni19  1  0.120006  0.483179  0.500001  1
  Ni  Ni20  1  0.636907  0.516890  0.500001  1
  Ni  Ni21  1  0.516066  0.636663  0.500001  1
  Ni  Ni22  1  0.997955  0.724059  0.500001  1
  Ni  Ni23  1  0.362474  0.878545  0.500001  1
  As  As24  1  0.357935  0.000245  0.000000  1
  As  As25  1  0.820106  0.000080  0.000000  1
  As  As26  1  0.180273  0.178443  0.000000  1
  As  As27  1  0.999891  0.359507  0.000000  1
  As  As28  1  0.640360  0.640343  0.000000  1
  As  As29  1  0.001984  0.821837  0.000000  1
  As  As30  1  0.694909  0.171650  0.500001  1
  As  As31  1  0.476958  0.305579  0.500001  1
  As  As32  1  0.304552  0.476757  0.500001  1
  As  As33  1  0.827731  0.523120  0.500001  1
  As  As34  1  0.171206  0.694564  0.500001  1
  As  As35  1  0.523031  0.828030  0.500001  1
