# generated using pymatgen
data_Tb3Ho5Re2(B12Os)2
_symmetry_space_group_name_H-M   'P 1'
_cell_length_a   3.66740800
_cell_length_b   9.16110977
_cell_length_c   11.55308806
_cell_angle_alpha   90.13263100
_cell_angle_beta   90.00000000
_cell_angle_gamma   90.00000000
_symmetry_Int_Tables_number   1
_chemical_formula_structural   Tb3Ho5Re2(B12Os)2
_chemical_formula_sum   'Tb3 Ho5 Re2 B24 Os2'
_cell_volume   388.15415110
_cell_formula_units_Z   1
loop_
 _symmetry_equiv_pos_site_id
 _symmetry_equiv_pos_as_xyz
  1  'x, y, z'
loop_
 _atom_site_type_symbol
 _atom_site_label
 _atom_site_symmetry_multiplicity
 _atom_site_fract_x
 _atom_site_fract_y
 _atom_site_fract_z
 _atom_site_occupancy
  Tb  Tb0  1  0.000000  0.320970  0.412455  1
  Tb  Tb1  1  0.000000  0.679001  0.587589  1
  Tb  Tb2  1  0.000000  0.824430  0.084921  1
  Ho  Ho3  1  0.000000  0.175390  0.915254  1
  Ho  Ho4  1  0.000000  0.943328  0.370613  1
  Ho  Ho5  1  0.000000  0.056810  0.629406  1
  Ho  Ho6  1  0.000000  0.442251  0.128635  1
  Ho  Ho7  1  0.000000  0.557523  0.871223  1
  Re  Re8  1  0.000000  0.138587  0.179532  1
  Re  Re9  1  0.000000  0.861871  0.820290  1
  B  B10  1  0.500000  0.553857  0.432641  1
  B  B11  1  0.500000  0.446056  0.567441  1
  B  B12  1  0.500000  0.053375  0.066845  1
  B  B13  1  0.500000  0.947227  0.932828  1
  B  B14  1  0.500000  0.748723  0.418434  1
  B  B15  1  0.500000  0.251278  0.581688  1
  B  B16  1  0.500000  0.248748  0.080816  1
  B  B17  1  0.500000  0.751303  0.918633  1
  B  B18  1  0.500000  0.790555  0.266177  1
  B  B19  1  0.500000  0.209230  0.734182  1
  B  B20  1  0.500000  0.291455  0.234179  1
  B  B21  1  0.500000  0.708581  0.765706  1
  B  B22  1  0.500000  0.630562  0.186183  1
  B  B23  1  0.500000  0.369053  0.814085  1
  B  B24  1  0.500000  0.131104  0.314617  1
  B  B25  1  0.500000  0.869055  0.685398  1
  B  B26  1  0.500000  0.983014  0.212636  1
  B  B27  1  0.500000  0.017633  0.787495  1
  B  B28  1  0.500000  0.483215  0.287716  1
  B  B29  1  0.500000  0.516633  0.712324  1
  B  B30  1  0.500000  0.602673  0.028666  1
  B  B31  1  0.500000  0.396676  0.971123  1
  B  B32  1  0.500000  0.103117  0.471610  1
  B  B33  1  0.500000  0.896930  0.528432  1
  Os  Os34  1  0.000000  0.637651  0.321458  1
  Os  Os35  1  0.000000  0.362137  0.678770  1
