# generated using pymatgen
data_Ho4Er6IrOs3
_symmetry_space_group_name_H-M   'P 1'
_cell_length_a   6.31135597
_cell_length_b   7.32494266
_cell_length_c   8.37702400
_cell_angle_alpha   96.87474465
_cell_angle_beta   112.24006222
_cell_angle_gamma   90.04617924
_symmetry_Int_Tables_number   1
_chemical_formula_structural   Ho4Er6IrOs3
_chemical_formula_sum   'Ho4 Er6 Ir1 Os3'
_cell_volume   355.43624692
_cell_formula_units_Z   1
loop_
 _symmetry_equiv_pos_site_id
 _symmetry_equiv_pos_as_xyz
  1  'x, y, z'
loop_
 _atom_site_type_symbol
 _atom_site_label
 _atom_site_symmetry_multiplicity
 _atom_site_fract_x
 _atom_site_fract_y
 _atom_site_fract_z
 _atom_site_occupancy
  Ho  Ho0  1  0.791086  0.583554  0.817898  1
  Ho  Ho1  1  0.973075  0.917106  0.183406  1
  Ho  Ho2  1  0.210983  0.417627  0.188559  1
  Ho  Ho3  1  0.026258  0.082290  0.818147  1
  Er  Er4  1  0.206813  0.684811  0.562576  1
  Er  Er5  1  0.644942  0.818066  0.436781  1
  Er  Er6  1  0.791966  0.316728  0.434373  1
  Er  Er7  1  0.358172  0.179816  0.562124  1
  Er  Er8  1  0.421458  0.751035  0.001284  1
  Er  Er9  1  0.578489  0.249696  0.999718  1
  Ir  Ir10  1  0.177090  0.422945  0.776588  1
  Os  Os11  1  0.603252  0.922615  0.781791  1
  Os  Os12  1  0.821346  0.575926  0.218680  1
  Os  Os13  1  0.395069  0.077785  0.218075  1
