# generated using pymatgen
data_Sm6Y2GaPd24
_symmetry_space_group_name_H-M   'P 1'
_cell_length_a   8.43524310
_cell_length_b   8.43524310
_cell_length_c   8.43524310
_cell_angle_alpha   89.95851793
_cell_angle_beta   89.95851793
_cell_angle_gamma   89.95851793
_symmetry_Int_Tables_number   1
_chemical_formula_structural   Sm6Y2GaPd24
_chemical_formula_sum   'Sm6 Y2 Ga1 Pd24'
_cell_volume   600.19513288
_cell_formula_units_Z   1
loop_
 _symmetry_equiv_pos_site_id
 _symmetry_equiv_pos_as_xyz
  1  'x, y, z'
loop_
 _atom_site_type_symbol
 _atom_site_label
 _atom_site_symmetry_multiplicity
 _atom_site_fract_x
 _atom_site_fract_y
 _atom_site_fract_z
 _atom_site_occupancy
  Sm  Sm0  1  0.748015  0.748015  0.251916  1
  Sm  Sm1  1  0.748015  0.251916  0.748015  1
  Sm  Sm2  1  0.251985  0.251985  0.748084  1
  Sm  Sm3  1  0.251985  0.748084  0.251985  1
  Sm  Sm4  1  0.251916  0.748015  0.748015  1
  Sm  Sm5  1  0.748084  0.251985  0.251985  1
  Y  Y6  1  0.251970  0.251970  0.251970  1
  Y  Y7  1  0.748030  0.748030  0.748030  1
  Ga  Ga8  1  0.000000  0.000000  0.000000  1
  Pd  Pd9  1  0.260446  0.499061  0.001227  1
  Pd  Pd10  1  0.739554  0.500939  0.998773  1
  Pd  Pd11  1  0.001227  0.260446  0.499061  1
  Pd  Pd12  1  0.499061  0.260446  0.001227  1
  Pd  Pd13  1  0.998773  0.739554  0.500939  1
  Pd  Pd14  1  0.500939  0.739554  0.998773  1
  Pd  Pd15  1  0.499061  0.001227  0.260446  1
  Pd  Pd16  1  0.260446  0.001227  0.499061  1
  Pd  Pd17  1  0.500939  0.998773  0.739554  1
  Pd  Pd18  1  0.739554  0.998773  0.500939  1
  Pd  Pd19  1  0.001227  0.499061  0.260446  1
  Pd  Pd20  1  0.998773  0.500939  0.739554  1
  Pd  Pd21  1  0.253083  0.498800  0.498800  1
  Pd  Pd22  1  0.746917  0.501200  0.501200  1
  Pd  Pd23  1  0.498800  0.253083  0.498800  1
  Pd  Pd24  1  0.501200  0.746917  0.501200  1
  Pd  Pd25  1  0.498800  0.498800  0.253083  1
  Pd  Pd26  1  0.501200  0.501200  0.746917  1
  Pd  Pd27  1  0.292488  0.001019  0.001019  1
  Pd  Pd28  1  0.707512  0.998981  0.998981  1
  Pd  Pd29  1  0.001019  0.292488  0.001019  1
  Pd  Pd30  1  0.998981  0.707512  0.998981  1
  Pd  Pd31  1  0.001019  0.001019  0.292488  1
  Pd  Pd32  1  0.998981  0.998981  0.707512  1
