# generated using pymatgen
data_NaNd6RuCl12
_symmetry_space_group_name_H-M   'P 1'
_cell_length_a   9.24819620
_cell_length_b   9.25231856
_cell_length_c   9.25736848
_cell_angle_alpha   107.23594027
_cell_angle_beta   107.26142961
_cell_angle_gamma   107.20842374
_symmetry_Int_Tables_number   1
_chemical_formula_structural   NaNd6RuCl12
_chemical_formula_sum   'Na1 Nd6 Ru1 Cl12'
_cell_volume   655.41154007
_cell_formula_units_Z   1
loop_
 _symmetry_equiv_pos_site_id
 _symmetry_equiv_pos_as_xyz
  1  'x, y, z'
loop_
 _atom_site_type_symbol
 _atom_site_label
 _atom_site_symmetry_multiplicity
 _atom_site_fract_x
 _atom_site_fract_y
 _atom_site_fract_z
 _atom_site_occupancy
  Na  Na0  1  0.500000  0.500000  0.500000  1
  Nd  Nd1  1  0.121158  0.326459  0.029193  1
  Nd  Nd2  1  0.326151  0.029092  0.120999  1
  Nd  Nd3  1  0.029102  0.121133  0.326404  1
  Nd  Nd4  1  0.970899  0.878867  0.673597  1
  Nd  Nd5  1  0.673849  0.970909  0.879001  1
  Nd  Nd6  1  0.878842  0.673541  0.970807  1
  Ru  Ru7  1  0.000000  0.000000  0.000000  1
  Cl  Cl8  1  0.207235  0.684306  0.071700  1
  Cl  Cl9  1  0.452379  0.366021  0.162231  1
  Cl  Cl10  1  0.684324  0.071746  0.207285  1
  Cl  Cl11  1  0.928328  0.792802  0.315745  1
  Cl  Cl12  1  0.162230  0.452383  0.366055  1
  Cl  Cl13  1  0.366091  0.162249  0.452430  1
  Cl  Cl14  1  0.633909  0.837751  0.547571  1
  Cl  Cl15  1  0.837771  0.547617  0.633945  1
  Cl  Cl16  1  0.071673  0.207198  0.684256  1
  Cl  Cl17  1  0.315677  0.928255  0.792715  1
  Cl  Cl18  1  0.547621  0.633979  0.837770  1
  Cl  Cl19  1  0.792765  0.315694  0.928300  1
