# generated using pymatgen
data_AcYb(Co3Si2)2
_symmetry_space_group_name_H-M   'P 1'
_cell_length_a   6.37776467
_cell_length_b   6.37776468
_cell_length_c   6.37776468
_cell_angle_alpha   129.81529581
_cell_angle_beta   115.40216864
_cell_angle_gamma   86.02713452
_symmetry_Int_Tables_number   1
_chemical_formula_structural   AcYb(Co3Si2)2
_chemical_formula_sum   'Ac1 Yb1 Co6 Si4'
_cell_volume   171.93251951
_cell_formula_units_Z   1
loop_
 _symmetry_equiv_pos_site_id
 _symmetry_equiv_pos_as_xyz
  1  'x, y, z'
loop_
 _atom_site_type_symbol
 _atom_site_label
 _atom_site_symmetry_multiplicity
 _atom_site_fract_x
 _atom_site_fract_y
 _atom_site_fract_z
 _atom_site_occupancy
  Ac  Ac0  1  0.750000  0.466386  0.716386  1
  Yb  Yb1  1  0.250000  0.545089  0.295089  1
  Co  Co2  1  0.985927  0.998422  0.484349  1
  Co  Co3  1  0.514073  0.998422  0.012495  1
  Co  Co4  1  0.716700  0.997240  0.717732  1
  Co  Co5  1  0.220491  0.501032  0.717732  1
  Co  Co6  1  0.279509  0.997240  0.280541  1
  Co  Co7  1  0.783300  0.501032  0.280541  1
  Si  Si8  1  0.093009  0.890154  0.797145  1
  Si  Si9  1  0.932895  0.133317  0.200422  1
  Si  Si10  1  0.567105  0.767527  0.200422  1
  Si  Si11  1  0.406991  0.204136  0.797145  1
