# generated using pymatgen
data_ThP2Se7
_symmetry_space_group_name_H-M   'P 1'
_cell_length_a   9.66884011
_cell_length_b   9.66896836
_cell_length_c   17.09082872
_cell_angle_alpha   99.20231994
_cell_angle_beta   99.20199615
_cell_angle_gamma   115.92984458
_symmetry_Int_Tables_number   1
_chemical_formula_structural   ThP2Se7
_chemical_formula_sum   'Th4 P8 Se28'
_cell_volume   1370.07538764
_cell_formula_units_Z   4
loop_
 _symmetry_equiv_pos_site_id
 _symmetry_equiv_pos_as_xyz
  1  'x, y, z'
loop_
 _atom_site_type_symbol
 _atom_site_label
 _atom_site_symmetry_multiplicity
 _atom_site_fract_x
 _atom_site_fract_y
 _atom_site_fract_z
 _atom_site_occupancy
  Th  Th0  1  0.513087  0.763196  0.026114  1
  Th  Th1  1  0.736803  0.986908  0.473884  1
  Th  Th2  1  0.263197  0.013091  0.526114  1
  Th  Th3  1  0.486911  0.236797  0.973888  1
  P  P4  1  0.372454  0.009440  0.135582  1
  P  P5  1  0.763518  0.626595  0.135314  1
  P  P6  1  0.873398  0.736479  0.364685  1
  P  P7  1  0.490564  0.127545  0.364416  1
  P  P8  1  0.509442  0.872459  0.635585  1
  P  P9  1  0.126602  0.263520  0.635314  1
  P  P10  1  0.236484  0.373396  0.864683  1
  P  P11  1  0.627542  0.990566  0.864417  1
  Se  Se12  1  0.825848  0.500486  0.038954  1
  Se  Se13  1  0.213401  0.037964  0.038764  1
  Se  Se14  1  0.614631  0.118622  0.112520  1
  Se  Se15  1  0.498223  0.494998  0.112402  1
  Se  Se16  1  0.314596  0.766637  0.143356  1
  Se  Se17  1  0.830552  0.877228  0.142235  1
  Se  Se18  1  0.349583  0.150396  0.249997  1
  Se  Se19  1  0.900034  0.599993  0.250002  1
  Se  Se20  1  0.622754  0.669445  0.357762  1
  Se  Se21  1  0.733363  0.185408  0.356645  1
  Se  Se22  1  0.004990  0.001773  0.387595  1
  Se  Se23  1  0.381366  0.885367  0.387483  1
  Se  Se24  1  0.462039  0.286598  0.461235  1
  Se  Se25  1  0.999507  0.674149  0.461045  1
  Se  Se26  1  0.537960  0.713409  0.538766  1
  Se  Se27  1  0.000490  0.325848  0.538954  1
  Se  Se28  1  0.618637  0.114633  0.612514  1
  Se  Se29  1  0.995006  0.998226  0.612403  1
  Se  Se30  1  0.266644  0.814606  0.643358  1
  Se  Se31  1  0.377245  0.330553  0.642238  1
  Se  Se32  1  0.650420  0.849611  0.750004  1
  Se  Se33  1  0.099975  0.400015  0.750000  1
  Se  Se34  1  0.169449  0.122761  0.857764  1
  Se  Se35  1  0.685388  0.233360  0.856643  1
  Se  Se36  1  0.501780  0.504998  0.887600  1
  Se  Se37  1  0.385366  0.881369  0.887484  1
  Se  Se38  1  0.786602  0.962046  0.961240  1
  Se  Se39  1  0.174147  0.499508  0.961042  1
