# generated using pymatgen
data_Ac4YbIr2Ru
_symmetry_space_group_name_H-M   'P 1'
_cell_length_a   6.88764600
_cell_length_b   11.58594700
_cell_length_c   11.58594700
_cell_angle_alpha   90.00000000
_cell_angle_beta   90.00000000
_cell_angle_gamma   90.00000000
_symmetry_Int_Tables_number   1
_chemical_formula_structural   Ac4YbIr2Ru
_chemical_formula_sum   'Ac16 Yb4 Ir8 Ru4'
_cell_volume   924.55742951
_cell_formula_units_Z   4
loop_
 _symmetry_equiv_pos_site_id
 _symmetry_equiv_pos_as_xyz
  1  'x, y, z'
loop_
 _atom_site_type_symbol
 _atom_site_label
 _atom_site_symmetry_multiplicity
 _atom_site_fract_x
 _atom_site_fract_y
 _atom_site_fract_z
 _atom_site_occupancy
  Ac  Ac0  1  0.392771  0.837673  0.539083  1
  Ac  Ac1  1  0.892771  0.662327  0.539083  1
  Ac  Ac2  1  0.892771  0.837673  0.960917  1
  Ac  Ac3  1  0.392771  0.662327  0.960917  1
  Ac  Ac4  1  0.892771  0.539083  0.837673  1
  Ac  Ac5  1  0.392771  0.960917  0.837673  1
  Ac  Ac6  1  0.392771  0.539083  0.662327  1
  Ac  Ac7  1  0.892771  0.960917  0.662327  1
  Ac  Ac8  1  0.607229  0.162327  0.460918  1
  Ac  Ac9  1  0.107229  0.337673  0.460918  1
  Ac  Ac10  1  0.107229  0.162327  0.039083  1
  Ac  Ac11  1  0.607229  0.337673  0.039083  1
  Ac  Ac12  1  0.107229  0.460918  0.162327  1
  Ac  Ac13  1  0.607229  0.039083  0.162327  1
  Ac  Ac14  1  0.607229  0.460918  0.337673  1
  Ac  Ac15  1  0.107229  0.039083  0.337673  1
  Yb  Yb16  1  0.500000  0.750000  0.250000  1
  Yb  Yb17  1  0.000000  0.750000  0.250000  1
  Yb  Yb18  1  0.000000  0.250000  0.750000  1
  Yb  Yb19  1  0.500000  0.250000  0.750000  1
  Ir  Ir20  1  0.250000  0.901541  0.098459  1
  Ir  Ir21  1  0.750000  0.598459  0.098459  1
  Ir  Ir22  1  0.750000  0.901541  0.401541  1
  Ir  Ir23  1  0.250000  0.598459  0.401541  1
  Ir  Ir24  1  0.750000  0.098459  0.901541  1
  Ir  Ir25  1  0.250000  0.401541  0.901541  1
  Ir  Ir26  1  0.250000  0.098459  0.598459  1
  Ir  Ir27  1  0.750000  0.401541  0.598459  1
  Ru  Ru28  1  0.128171  0.750000  0.750000  1
  Ru  Ru29  1  0.628171  0.750000  0.750000  1
  Ru  Ru30  1  0.871829  0.250000  0.250000  1
  Ru  Ru31  1  0.371829  0.250000  0.250000  1
