# generated using pymatgen
data_HfZr6Nb3Si8
_symmetry_space_group_name_H-M   'P 1'
_cell_length_a   7.02703080
_cell_length_b   7.03026766
_cell_length_c   12.88943247
_cell_angle_alpha   90.02448447
_cell_angle_beta   89.97815978
_cell_angle_gamma   90.00854865
_symmetry_Int_Tables_number   1
_chemical_formula_structural   HfZr6Nb3Si8
_chemical_formula_sum   'Hf2 Zr12 Nb6 Si16'
_cell_volume   636.76243810
_cell_formula_units_Z   2
loop_
 _symmetry_equiv_pos_site_id
 _symmetry_equiv_pos_as_xyz
  1  'x, y, z'
loop_
 _atom_site_type_symbol
 _atom_site_label
 _atom_site_symmetry_multiplicity
 _atom_site_fract_x
 _atom_site_fract_y
 _atom_site_fract_z
 _atom_site_occupancy
  Hf  Hf0  1  0.351458  0.505911  0.376740  1
  Hf  Hf1  1  0.853768  0.999488  0.373003  1
  Zr  Zr2  1  0.648803  0.494880  0.876408  1
  Zr  Zr3  1  0.501803  0.353193  0.622715  1
  Zr  Zr4  1  0.498912  0.646339  0.124472  1
  Zr  Zr5  1  0.146190  0.999694  0.873310  1
  Zr  Zr6  1  0.000198  0.652012  0.033771  1
  Zr  Zr7  1  0.999409  0.346829  0.531746  1
  Zr  Zr8  1  0.655203  0.997470  0.967535  1
  Zr  Zr9  1  0.152427  0.498552  0.781901  1
  Zr  Zr10  1  0.847153  0.502071  0.282030  1
  Zr  Zr11  1  0.501106  0.154159  0.218287  1
  Zr  Zr12  1  0.498858  0.846905  0.716297  1
  Zr  Zr13  1  0.344116  0.001668  0.467738  1
  Nb  Nb14  1  0.007954  0.147310  0.126760  1
  Nb  Nb15  1  0.992823  0.853628  0.624902  1
  Nb  Nb16  1  0.673484  0.676440  0.500407  1
  Nb  Nb17  1  0.827403  0.171208  0.749780  1
  Nb  Nb18  1  0.172868  0.829258  0.250952  1
  Nb  Nb19  1  0.326459  0.323248  0.001425  1
  Si  Si20  1  0.045903  0.702179  0.437228  1
  Si  Si21  1  0.954401  0.298193  0.938282  1
  Si  Si22  1  0.701612  0.046191  0.564252  1
  Si  Si23  1  0.198433  0.450145  0.186125  1
  Si  Si24  1  0.802615  0.549647  0.684676  1
  Si  Si25  1  0.451264  0.197778  0.814354  1
  Si  Si26  1  0.549143  0.802053  0.315231  1
  Si  Si27  1  0.299369  0.954020  0.065639  1
  Si  Si28  1  0.854535  0.795746  0.818356  1
  Si  Si29  1  0.143852  0.206612  0.320947  1
  Si  Si30  1  0.798807  0.862156  0.176644  1
  Si  Si31  1  0.288912  0.645970  0.573387  1
  Si  Si32  1  0.711334  0.353022  0.074297  1
  Si  Si33  1  0.643478  0.296209  0.426262  1
  Si  Si34  1  0.354406  0.701218  0.928444  1
  Si  Si35  1  0.201541  0.138599  0.675696  1
