# generated using pymatgen
data_Sc12Si16TcOs7
_symmetry_space_group_name_H-M   'P 1'
_cell_length_a   10.10362146
_cell_length_b   10.10954383
_cell_length_c   13.65128300
_cell_angle_alpha   55.06183788
_cell_angle_beta   55.09317061
_cell_angle_gamma   31.16621547
_symmetry_Int_Tables_number   1
_chemical_formula_structural   Sc12Si16TcOs7
_chemical_formula_sum   'Sc12 Si16 Tc1 Os7'
_cell_volume   580.35428578
_cell_formula_units_Z   1
loop_
 _symmetry_equiv_pos_site_id
 _symmetry_equiv_pos_as_xyz
  1  'x, y, z'
loop_
 _atom_site_type_symbol
 _atom_site_label
 _atom_site_symmetry_multiplicity
 _atom_site_fract_x
 _atom_site_fract_y
 _atom_site_fract_z
 _atom_site_occupancy
  Sc  Sc0  1  0.749072  0.487510  0.050760  1
  Sc  Sc1  1  0.542638  0.300020  0.154690  1
  Sc  Sc2  1  0.512846  0.250388  0.449954  1
  Sc  Sc3  1  0.457082  0.699752  0.845639  1
  Sc  Sc4  1  0.293518  0.038426  0.135657  1
  Sc  Sc5  1  0.961119  0.707080  0.364170  1
  Sc  Sc6  1  0.706936  0.961675  0.864083  1
  Sc  Sc7  1  0.038736  0.293228  0.635594  1
  Sc  Sc8  1  0.251743  0.512169  0.949472  1
  Sc  Sc9  1  0.487377  0.750150  0.549937  1
  Sc  Sc10  1  0.299339  0.541175  0.656436  1
  Sc  Sc11  1  0.699905  0.459311  0.343976  1
  Si  Si12  1  0.888918  0.110931  0.250198  1
  Si  Si13  1  0.109831  0.890256  0.750155  1
  Si  Si14  1  0.356582  0.643358  0.249892  1
  Si  Si15  1  0.644130  0.356649  0.749825  1
  Si  Si16  1  0.997443  0.231502  0.877297  1
  Si  Si17  1  0.767841  0.001653  0.623937  1
  Si  Si18  1  0.002297  0.768833  0.122828  1
  Si  Si19  1  0.231442  0.997756  0.377514  1
  Si  Si20  1  0.594992  0.054167  0.073683  1
  Si  Si21  1  0.945804  0.404638  0.425176  1
  Si  Si22  1  0.405725  0.945210  0.925808  1
  Si  Si23  1  0.053817  0.595179  0.574313  1
  Si  Si24  1  0.390912  0.155307  0.386218  1
  Si  Si25  1  0.846628  0.609082  0.112054  1
  Si  Si26  1  0.609378  0.844962  0.613263  1
  Si  Si27  1  0.152932  0.391199  0.888236  1
  Tc  Tc28  1  0.912553  0.137688  0.578379  1
  Os  Os29  1  0.638670  0.831218  0.284669  1
  Os  Os30  1  0.829706  0.637571  0.786212  1
  Os  Os31  1  0.361104  0.169068  0.714701  1
  Os  Os32  1  0.170811  0.362590  0.212973  1
  Os  Os33  1  0.138925  0.911979  0.078658  1
  Os  Os34  1  0.089175  0.859237  0.421351  1
  Os  Os35  1  0.860074  0.089081  0.922289  1
