# generated using pymatgen
data_Pr2Lu4CoBr10
_symmetry_space_group_name_H-M   'P 1'
_cell_length_a   7.32047079
_cell_length_b   9.17589788
_cell_length_c   9.30691415
_cell_angle_alpha   106.76944927
_cell_angle_beta   95.29830571
_cell_angle_gamma   106.07231060
_symmetry_Int_Tables_number   1
_chemical_formula_structural   Pr2Lu4CoBr10
_chemical_formula_sum   'Pr2 Lu4 Co1 Br10'
_cell_volume   565.01409805
_cell_formula_units_Z   1
loop_
 _symmetry_equiv_pos_site_id
 _symmetry_equiv_pos_as_xyz
  1  'x, y, z'
loop_
 _atom_site_type_symbol
 _atom_site_label
 _atom_site_symmetry_multiplicity
 _atom_site_fract_x
 _atom_site_fract_y
 _atom_site_fract_z
 _atom_site_occupancy
  Pr  Pr0  1  0.875309  0.951524  0.240048  1
  Pr  Pr1  1  0.124691  0.048476  0.759952  1
  Lu  Lu2  1  0.027810  0.710327  0.911872  1
  Lu  Lu3  1  0.972190  0.289673  0.088128  1
  Lu  Lu4  1  0.651237  0.870810  0.835842  1
  Lu  Lu5  1  0.348763  0.129190  0.164158  1
  Co  Co6  1  0.000000  0.000000  0.000000  1
  Br  Br7  1  0.658854  0.558395  0.736699  1
  Br  Br8  1  0.341146  0.441605  0.263301  1
  Br  Br9  1  0.730629  0.912499  0.554696  1
  Br  Br10  1  0.269371  0.087501  0.445304  1
  Br  Br11  1  0.078940  0.383281  0.834127  1
  Br  Br12  1  0.921060  0.616719  0.165873  1
  Br  Br13  1  0.443547  0.822274  0.082211  1
  Br  Br14  1  0.556453  0.177726  0.917789  1
  Br  Br15  1  0.232814  0.739184  0.670371  1
  Br  Br16  1  0.767186  0.260816  0.329629  1
