# generated using pymatgen
data_TbYMn4Fe8P7
_symmetry_space_group_name_H-M   'P 1'
_cell_length_a   9.18210000
_cell_length_b   9.07180622
_cell_length_c   3.60833700
_cell_angle_alpha   90.00000000
_cell_angle_beta   90.00000000
_cell_angle_gamma   120.16604481
_symmetry_Int_Tables_number   1
_chemical_formula_structural   TbYMn4Fe8P7
_chemical_formula_sum   'Tb1 Y1 Mn4 Fe8 P7'
_cell_volume   259.86298352
_cell_formula_units_Z   1
loop_
 _symmetry_equiv_pos_site_id
 _symmetry_equiv_pos_as_xyz
  1  'x, y, z'
loop_
 _atom_site_type_symbol
 _atom_site_label
 _atom_site_symmetry_multiplicity
 _atom_site_fract_x
 _atom_site_fract_y
 _atom_site_fract_z
 _atom_site_occupancy
  Tb  Tb0  1  0.660461  0.330879  0.000000  1
  Y  Y1  1  0.338301  0.668425  0.500000  1
  Mn  Mn2  1  0.952248  0.389407  0.500000  1
  Mn  Mn3  1  0.107618  0.877001  0.500000  1
  Mn  Mn4  1  0.775872  0.896201  0.500000  1
  Mn  Mn5  1  0.123211  0.227342  0.500000  1
  Fe  Fe6  1  0.052292  0.623214  0.000000  1
  Fe  Fe7  1  0.573680  0.942651  0.000000  1
  Fe  Fe8  1  0.372273  0.425905  0.000000  1
  Fe  Fe9  1  0.270903  0.118008  0.000000  1
  Fe  Fe10  1  0.846905  0.728534  0.000000  1
  Fe  Fe11  1  0.880807  0.158377  0.000000  1
  Fe  Fe12  1  0.432830  0.049075  0.500000  1
  Fe  Fe13  1  0.613266  0.564916  0.500000  1
  P  P14  1  0.303258  0.891045  0.000000  1
  P  P15  1  0.589699  0.698384  0.000000  1
  P  P16  1  0.122597  0.411123  0.000000  1
  P  P17  1  0.404495  0.287722  0.500000  1
  P  P18  1  0.874284  0.597048  0.500000  1
  P  P19  1  0.704792  0.112349  0.500000  1
  P  P20  1  0.000208  0.002397  0.000000  1
