# generated using pymatgen
data_Ce2SmEr(SnRu)4
_symmetry_space_group_name_H-M   'P 1'
_cell_length_a   6.25971289
_cell_length_b   6.25971332
_cell_length_c   10.13629190
_cell_angle_alpha   78.27819194
_cell_angle_beta   78.27819298
_cell_angle_gamma   45.13361880
_symmetry_Int_Tables_number   1
_chemical_formula_structural   Ce2SmEr(SnRu)4
_chemical_formula_sum   'Ce2 Sm1 Er1 Sn4 Ru4'
_cell_volume   274.60606110
_cell_formula_units_Z   1
loop_
 _symmetry_equiv_pos_site_id
 _symmetry_equiv_pos_as_xyz
  1  'x, y, z'
loop_
 _atom_site_type_symbol
 _atom_site_label
 _atom_site_symmetry_multiplicity
 _atom_site_fract_x
 _atom_site_fract_y
 _atom_site_fract_z
 _atom_site_occupancy
  Ce  Ce0  1  0.860688  0.860688  0.912072  1
  Ce  Ce1  1  0.140220  0.140220  0.086662  1
  Sm  Sm2  1  0.879500  0.879500  0.406787  1
  Er  Er3  1  0.122271  0.122271  0.594339  1
  Sn  Sn4  1  0.425446  0.425446  0.158623  1
  Sn  Sn5  1  0.403869  0.403869  0.644386  1
  Sn  Sn6  1  0.574085  0.574085  0.839574  1
  Sn  Sn7  1  0.596485  0.596485  0.358452  1
  Ru  Ru8  1  0.816433  0.816433  0.148337  1
  Ru  Ru9  1  0.196285  0.196285  0.307692  1
  Ru  Ru10  1  0.181744  0.181744  0.849483  1
  Ru  Ru11  1  0.802976  0.802976  0.693592  1
