# generated using pymatgen
data_Ca2Ga12Pt
_symmetry_space_group_name_H-M   'P 1'
_cell_length_a   6.11426900
_cell_length_b   6.11426900
_cell_length_c   16.03096500
_cell_angle_alpha   90.00000000
_cell_angle_beta   90.00000000
_cell_angle_gamma   90.00000000
_symmetry_Int_Tables_number   1
_chemical_formula_structural   Ca2Ga12Pt
_chemical_formula_sum   'Ca4 Ga24 Pt2'
_cell_volume   599.30617087
_cell_formula_units_Z   2
loop_
 _symmetry_equiv_pos_site_id
 _symmetry_equiv_pos_as_xyz
  1  'x, y, z'
loop_
 _atom_site_type_symbol
 _atom_site_label
 _atom_site_symmetry_multiplicity
 _atom_site_fract_x
 _atom_site_fract_y
 _atom_site_fract_z
 _atom_site_occupancy
  Ca  Ca0  1  0.750000  0.250000  0.247641  1
  Ca  Ca1  1  0.250000  0.750000  0.247641  1
  Ca  Ca2  1  0.250000  0.750000  0.752359  1
  Ca  Ca3  1  0.750000  0.250000  0.752359  1
  Ga  Ga4  1  0.250000  0.250000  0.190129  1
  Ga  Ga5  1  0.750000  0.750000  0.190129  1
  Ga  Ga6  1  0.750000  0.750000  0.809871  1
  Ga  Ga7  1  0.250000  0.250000  0.809871  1
  Ga  Ga8  1  0.250000  0.250000  0.345273  1
  Ga  Ga9  1  0.750000  0.750000  0.345273  1
  Ga  Ga10  1  0.750000  0.750000  0.654727  1
  Ga  Ga11  1  0.250000  0.250000  0.654727  1
  Ga  Ga12  1  0.500100  0.000100  0.909863  1
  Ga  Ga13  1  0.000100  0.999900  0.909863  1
  Ga  Ga14  1  0.499900  0.500100  0.909863  1
  Ga  Ga15  1  0.999900  0.499900  0.909863  1
  Ga  Ga16  1  0.499900  0.999900  0.090137  1
  Ga  Ga17  1  0.999900  0.000100  0.090137  1
  Ga  Ga18  1  0.500100  0.499900  0.090137  1
  Ga  Ga19  1  0.000100  0.500100  0.090137  1
  Ga  Ga20  1  0.582273  0.082273  0.432392  1
  Ga  Ga21  1  0.082273  0.917727  0.432392  1
  Ga  Ga22  1  0.417727  0.582273  0.432392  1
  Ga  Ga23  1  0.917727  0.417727  0.432392  1
  Ga  Ga24  1  0.417727  0.917727  0.567608  1
  Ga  Ga25  1  0.917727  0.082273  0.567608  1
  Ga  Ga26  1  0.582273  0.417727  0.567608  1
  Ga  Ga27  1  0.082273  0.582273  0.567608  1
  Pt  Pt28  1  0.750000  0.250000  0.000000  1
  Pt  Pt29  1  0.250000  0.750000  0.000000  1
