# generated using pymatgen
data_Tb4VFe3B16
_symmetry_space_group_name_H-M   'P 1'
_cell_length_a   3.41278100
_cell_length_b   5.93747581
_cell_length_c   11.48968443
_cell_angle_alpha   90.11142422
_cell_angle_beta   90.00000000
_cell_angle_gamma   90.00000000
_symmetry_Int_Tables_number   1
_chemical_formula_structural   Tb4VFe3B16
_chemical_formula_sum   'Tb4 V1 Fe3 B16'
_cell_volume   232.81853539
_cell_formula_units_Z   1
loop_
 _symmetry_equiv_pos_site_id
 _symmetry_equiv_pos_as_xyz
  1  'x, y, z'
loop_
 _atom_site_type_symbol
 _atom_site_label
 _atom_site_symmetry_multiplicity
 _atom_site_fract_x
 _atom_site_fract_y
 _atom_site_fract_z
 _atom_site_occupancy
  Tb  Tb0  1  0.500000  0.373761  0.147646  1
  Tb  Tb1  1  0.500000  0.626669  0.851508  1
  Tb  Tb2  1  0.500000  0.123485  0.653137  1
  Tb  Tb3  1  0.500000  0.874386  0.346312  1
  V  V4  1  0.500000  0.373719  0.417220  1
  Fe  Fe5  1  0.500000  0.624086  0.583572  1
  Fe  Fe6  1  0.500000  0.134140  0.911243  1
  Fe  Fe7  1  0.500000  0.867459  0.086064  1
  B  B8  1  0.000000  0.111104  0.045238  1
  B  B9  1  0.000000  0.888732  0.954064  1
  B  B10  1  0.000000  0.390378  0.549208  1
  B  B11  1  0.000000  0.616422  0.456070  1
  B  B12  1  0.000000  0.134849  0.469326  1
  B  B13  1  0.000000  0.861101  0.533946  1
  B  B14  1  0.000000  0.360162  0.967799  1
  B  B15  1  0.000000  0.640402  0.031987  1
  B  B16  1  0.000000  0.023397  0.188707  1
  B  B17  1  0.000000  0.974587  0.810570  1
  B  B18  1  0.000000  0.477294  0.691754  1
  B  B19  1  0.000000  0.527066  0.307680  1
  B  B20  1  0.000000  0.215168  0.313440  1
  B  B21  1  0.000000  0.780056  0.683743  1
  B  B22  1  0.000000  0.281116  0.817179  1
  B  B23  1  0.000000  0.720461  0.182587  1
