# generated using pymatgen
data_U4Tc7Sn5As
_symmetry_space_group_name_H-M   'P 1'
_cell_length_a   7.50252141
_cell_length_b   7.50252149
_cell_length_c   7.50252229
_cell_angle_alpha   109.64679880
_cell_angle_beta   109.12063878
_cell_angle_gamma   109.64679789
_symmetry_Int_Tables_number   1
_chemical_formula_structural   U4Tc7Sn5As
_chemical_formula_sum   'U4 Tc7 Sn5 As1'
_cell_volume   325.07807361
_cell_formula_units_Z   1
loop_
 _symmetry_equiv_pos_site_id
 _symmetry_equiv_pos_as_xyz
  1  'x, y, z'
loop_
 _atom_site_type_symbol
 _atom_site_label
 _atom_site_symmetry_multiplicity
 _atom_site_fract_x
 _atom_site_fract_y
 _atom_site_fract_z
 _atom_site_occupancy
  U  U0  1  0.517399  0.528921  0.517399  1
  U  U1  1  0.988477  0.471079  0.988477  1
  U  U2  1  0.517399  0.000000  0.988477  1
  U  U3  1  0.988477  0.000000  0.517399  1
  Tc  Tc4  1  0.502042  0.754480  0.256522  1
  Tc  Tc5  1  0.747562  0.245520  0.502042  1
  Tc  Tc6  1  0.256522  0.754480  0.502042  1
  Tc  Tc7  1  0.259419  0.500000  0.759419  1
  Tc  Tc8  1  0.958592  0.000000  0.958592  1
  Tc  Tc9  1  0.502042  0.245520  0.747562  1
  Tc  Tc10  1  0.759419  0.500000  0.259419  1
  Sn  Sn11  1  0.704893  0.693418  0.011475  1
  Sn  Sn12  1  0.318057  0.306582  0.011475  1
  Sn  Sn13  1  0.011475  0.693418  0.704893  1
  Sn  Sn14  1  0.011475  0.306582  0.318057  1
  Sn  Sn15  1  0.285456  0.000000  0.285456  1
  As  As16  1  0.671292  0.000000  0.671292  1
