# generated using pymatgen
data_Hg2Ge(PdSe2)3
_symmetry_space_group_name_H-M   'P 1'
_cell_length_a   7.45446600
_cell_length_b   7.45446570
_cell_length_c   5.56337200
_cell_angle_alpha   90.00000000
_cell_angle_beta   90.00000000
_cell_angle_gamma   120.00001022
_symmetry_Int_Tables_number   1
_chemical_formula_structural   Hg2Ge(PdSe2)3
_chemical_formula_sum   'Hg2 Ge1 Pd3 Se6'
_cell_volume   267.73290250
_cell_formula_units_Z   1
loop_
 _symmetry_equiv_pos_site_id
 _symmetry_equiv_pos_as_xyz
  1  'x, y, z'
loop_
 _atom_site_type_symbol
 _atom_site_label
 _atom_site_symmetry_multiplicity
 _atom_site_fract_x
 _atom_site_fract_y
 _atom_site_fract_z
 _atom_site_occupancy
  Hg  Hg0  1  0.333333  0.666667  0.643734  1
  Hg  Hg1  1  0.666667  0.333333  0.356266  1
  Ge  Ge2  1  0.000000  0.000000  0.000000  1
  Pd  Pd3  1  0.500000  0.500000  0.000000  1
  Pd  Pd4  1  0.000000  0.500000  0.000000  1
  Pd  Pd5  1  0.500000  0.000000  0.000000  1
  Se  Se6  1  0.825530  0.651058  0.758838  1
  Se  Se7  1  0.825530  0.174470  0.758838  1
  Se  Se8  1  0.348942  0.174470  0.758838  1
  Se  Se9  1  0.174470  0.348942  0.241162  1
  Se  Se10  1  0.174470  0.825530  0.241162  1
  Se  Se11  1  0.651058  0.825530  0.241162  1
