# generated using pymatgen
data_Sc6AuSe2
_symmetry_space_group_name_H-M   'P 1'
_cell_length_a   3.73352100
_cell_length_b   19.72031700
_cell_length_c   10.46501900
_cell_angle_alpha   90.00000000
_cell_angle_beta   90.00000000
_cell_angle_gamma   90.00000000
_symmetry_Int_Tables_number   1
_chemical_formula_structural   Sc6AuSe2
_chemical_formula_sum   'Sc24 Au4 Se8'
_cell_volume   770.49976657
_cell_formula_units_Z   4
loop_
 _symmetry_equiv_pos_site_id
 _symmetry_equiv_pos_as_xyz
  1  'x, y, z'
loop_
 _atom_site_type_symbol
 _atom_site_label
 _atom_site_symmetry_multiplicity
 _atom_site_fract_x
 _atom_site_fract_y
 _atom_site_fract_z
 _atom_site_occupancy
  Sc  Sc0  1  0.750000  0.644544  0.931379  1
  Sc  Sc1  1  0.250000  0.355456  0.068621  1
  Sc  Sc2  1  0.250000  0.855456  0.431379  1
  Sc  Sc3  1  0.750000  0.144544  0.568621  1
  Sc  Sc4  1  0.750000  0.989998  0.388408  1
  Sc  Sc5  1  0.250000  0.010002  0.611592  1
  Sc  Sc6  1  0.250000  0.510002  0.888408  1
  Sc  Sc7  1  0.750000  0.489998  0.111592  1
  Sc  Sc8  1  0.750000  0.532072  0.628225  1
  Sc  Sc9  1  0.250000  0.467928  0.371775  1
  Sc  Sc10  1  0.250000  0.967928  0.128225  1
  Sc  Sc11  1  0.750000  0.032072  0.871775  1
  Sc  Sc12  1  0.750000  0.735333  0.254703  1
  Sc  Sc13  1  0.250000  0.264667  0.745297  1
  Sc  Sc14  1  0.250000  0.764667  0.754703  1
  Sc  Sc15  1  0.750000  0.235333  0.245297  1
  Sc  Sc16  1  0.750000  0.889735  0.678771  1
  Sc  Sc17  1  0.250000  0.110265  0.321229  1
  Sc  Sc18  1  0.250000  0.610265  0.178771  1
  Sc  Sc19  1  0.750000  0.389735  0.821229  1
  Sc  Sc20  1  0.750000  0.834403  0.979749  1
  Sc  Sc21  1  0.250000  0.165597  0.020251  1
  Sc  Sc22  1  0.250000  0.665597  0.479749  1
  Sc  Sc23  1  0.750000  0.334403  0.520251  1
  Au  Au24  1  0.750000  0.577826  0.367737  1
  Au  Au25  1  0.250000  0.422174  0.632263  1
  Au  Au26  1  0.250000  0.922174  0.867737  1
  Au  Au27  1  0.750000  0.077826  0.132263  1
  Se  Se28  1  0.750000  0.874311  0.234111  1
  Se  Se29  1  0.250000  0.125689  0.765889  1
  Se  Se30  1  0.250000  0.625689  0.734111  1
  Se  Se31  1  0.750000  0.374311  0.265889  1
  Se  Se32  1  0.750000  0.765948  0.543371  1
  Se  Se33  1  0.250000  0.234052  0.456629  1
  Se  Se34  1  0.250000  0.734052  0.043371  1
  Se  Se35  1  0.750000  0.265948  0.956629  1
