# generated using pymatgen
data_Tb10Al3Bi3Cl2
_symmetry_space_group_name_H-M   'P 1'
_cell_length_a   9.20006600
_cell_length_b   9.25082342
_cell_length_c   6.56276300
_cell_angle_alpha   90.00000000
_cell_angle_beta   90.00000000
_cell_angle_gamma   120.34137873
_symmetry_Int_Tables_number   1
_chemical_formula_structural   Tb10Al3Bi3Cl2
_chemical_formula_sum   'Tb10 Al3 Bi3 Cl2'
_cell_volume   482.04150070
_cell_formula_units_Z   1
loop_
 _symmetry_equiv_pos_site_id
 _symmetry_equiv_pos_as_xyz
  1  'x, y, z'
loop_
 _atom_site_type_symbol
 _atom_site_label
 _atom_site_symmetry_multiplicity
 _atom_site_fract_x
 _atom_site_fract_y
 _atom_site_fract_z
 _atom_site_occupancy
  Tb  Tb0  1  0.743485  0.745575  0.250000  1
  Tb  Tb1  1  0.322142  0.666450  0.496973  1
  Tb  Tb2  1  0.251156  0.264013  0.750000  1
  Tb  Tb3  1  0.987885  0.260183  0.250000  1
  Tb  Tb4  1  0.681489  0.333610  0.497126  1
  Tb  Tb5  1  0.257755  0.987478  0.250000  1
  Tb  Tb6  1  0.750131  0.013109  0.750000  1
  Tb  Tb7  1  0.322142  0.666450  0.003027  1
  Tb  Tb8  1  0.681489  0.333610  0.002874  1
  Tb  Tb9  1  0.998985  0.730289  0.750000  1
  Al  Al10  1  0.999301  0.607217  0.250000  1
  Al  Al11  1  0.607756  0.996202  0.250000  1
  Al  Al12  1  0.001581  0.394461  0.750000  1
  Bi  Bi13  1  0.386038  0.383857  0.250000  1
  Bi  Bi14  1  0.611811  0.614473  0.750000  1
  Bi  Bi15  1  0.391181  0.003471  0.750000  1
  Cl  Cl16  1  0.002837  0.999774  0.998956  1
  Cl  Cl17  1  0.002837  0.999774  0.501044  1
