# generated using pymatgen
data_TbTm7(Si4Mo3)4
_symmetry_space_group_name_H-M   'P 1'
_cell_length_a   6.73321314
_cell_length_b   6.93746511
_cell_length_c   12.87839292
_cell_angle_alpha   90.03109121
_cell_angle_beta   89.99780262
_cell_angle_gamma   90.01458918
_symmetry_Int_Tables_number   1
_chemical_formula_structural   TbTm7(Si4Mo3)4
_chemical_formula_sum   'Tb1 Tm7 Si16 Mo12'
_cell_volume   601.56805607
_cell_formula_units_Z   1
loop_
 _symmetry_equiv_pos_site_id
 _symmetry_equiv_pos_as_xyz
  1  'x, y, z'
loop_
 _atom_site_type_symbol
 _atom_site_label
 _atom_site_symmetry_multiplicity
 _atom_site_fract_x
 _atom_site_fract_y
 _atom_site_fract_z
 _atom_site_occupancy
  Tb  Tb0  1  0.997852  0.166409  0.093406  1
  Tm  Tm1  1  0.497060  0.333189  0.093826  1
  Tm  Tm2  1  0.997110  0.167032  0.406195  1
  Tm  Tm3  1  0.502894  0.667106  0.593816  1
  Tm  Tm4  1  0.003010  0.832921  0.905737  1
  Tm  Tm5  1  0.503019  0.666763  0.905884  1
  Tm  Tm6  1  0.002893  0.833018  0.593810  1
  Tm  Tm7  1  0.497216  0.333017  0.406598  1
  Si  Si8  1  0.660191  0.041069  0.546475  1
  Si  Si9  1  0.160365  0.459632  0.953046  1
  Si  Si10  1  0.341653  0.957802  0.046095  1
  Si  Si11  1  0.839888  0.540992  0.453761  1
  Si  Si12  1  0.339781  0.959042  0.453840  1
  Si  Si13  1  0.839195  0.542685  0.046066  1
  Si  Si14  1  0.659408  0.040971  0.953003  1
  Si  Si15  1  0.160182  0.458816  0.546480  1
  Si  Si16  1  0.534220  0.366924  0.749725  1
  Si  Si17  1  0.034298  0.133245  0.749909  1
  Si  Si18  1  0.465499  0.633013  0.250165  1
  Si  Si19  1  0.965276  0.865719  0.250606  1
  Si  Si20  1  0.802475  0.631410  0.749772  1
  Si  Si21  1  0.302644  0.868778  0.749910  1
  Si  Si22  1  0.198299  0.369860  0.250778  1
  Si  Si23  1  0.696320  0.130958  0.250663  1
  Mo  Mo24  1  0.829483  0.334351  0.624234  1
  Mo  Mo25  1  0.329816  0.165910  0.875326  1
  Mo  Mo26  1  0.170609  0.665639  0.124541  1
  Mo  Mo27  1  0.670239  0.833866  0.375928  1
  Mo  Mo28  1  0.170589  0.665900  0.375930  1
  Mo  Mo29  1  0.669726  0.833839  0.124789  1
  Mo  Mo30  1  0.828860  0.334796  0.875091  1
  Mo  Mo31  1  0.329470  0.165693  0.624349  1
  Mo  Mo32  1  0.666273  0.997257  0.749737  1
  Mo  Mo33  1  0.166146  0.502819  0.749822  1
  Mo  Mo34  1  0.334312  0.002088  0.250445  1
  Mo  Mo35  1  0.833730  0.497475  0.250240  1
