# generated using pymatgen
data_Hf3Ga2Re2SiRu
_symmetry_space_group_name_H-M   'P 1'
_cell_length_a   7.08108300
_cell_length_b   7.10244291
_cell_length_c   3.37453100
_cell_angle_alpha   90.00000000
_cell_angle_beta   90.00000000
_cell_angle_gamma   119.90056102
_symmetry_Int_Tables_number   1
_chemical_formula_structural   Hf3Ga2Re2SiRu
_chemical_formula_sum   'Hf3 Ga2 Re2 Si1 Ru1'
_cell_volume   147.12476680
_cell_formula_units_Z   1
loop_
 _symmetry_equiv_pos_site_id
 _symmetry_equiv_pos_as_xyz
  1  'x, y, z'
loop_
 _atom_site_type_symbol
 _atom_site_label
 _atom_site_symmetry_multiplicity
 _atom_site_fract_x
 _atom_site_fract_y
 _atom_site_fract_z
 _atom_site_occupancy
  Hf  Hf0  1  0.004959  0.400376  0.500000  1
  Hf  Hf1  1  0.604583  0.599624  0.500000  1
  Hf  Hf2  1  0.388614  0.000000  0.500000  1
  Ga  Ga3  1  0.337343  0.669741  0.000000  1
  Ga  Ga4  1  0.667603  0.330259  0.000000  1
  Re  Re5  1  0.999706  0.747613  0.000000  1
  Re  Re6  1  0.252093  0.252387  0.000000  1
  Si  Si7  1  0.996242  0.000000  0.500000  1
  Ru  Ru8  1  0.748855  0.000000  0.000000  1
