# generated using pymatgen
data_Yb3Tm(Al3Ni)6
_symmetry_space_group_name_H-M   'P 1'
_cell_length_a   7.41882046
_cell_length_b   7.41980401
_cell_length_c   9.22728700
_cell_angle_alpha   90.00000000
_cell_angle_beta   90.00000000
_cell_angle_gamma   119.32614783
_symmetry_Int_Tables_number   1
_chemical_formula_structural   Yb3Tm(Al3Ni)6
_chemical_formula_sum   'Yb3 Tm1 Al18 Ni6'
_cell_volume   442.83406848
_cell_formula_units_Z   1
loop_
 _symmetry_equiv_pos_site_id
 _symmetry_equiv_pos_as_xyz
  1  'x, y, z'
loop_
 _atom_site_type_symbol
 _atom_site_label
 _atom_site_symmetry_multiplicity
 _atom_site_fract_x
 _atom_site_fract_y
 _atom_site_fract_z
 _atom_site_occupancy
  Yb  Yb0  1  0.005530  0.326611  0.750000  1
  Yb  Yb1  1  0.671586  0.993785  0.250000  1
  Yb  Yb2  1  0.328705  0.006786  0.750000  1
  Tm  Tm3  1  0.994523  0.671337  0.250000  1
  Al  Al4  1  0.125459  0.123223  0.250000  1
  Al  Al5  1  0.873453  0.873165  0.750000  1
  Al  Al6  1  0.331430  0.331519  0.545312  1
  Al  Al7  1  0.669591  0.669077  0.048138  1
  Al  Al8  1  0.331430  0.331519  0.954688  1
  Al  Al9  1  0.669591  0.669077  0.451862  1
  Al  Al10  1  0.338384  0.552799  0.250000  1
  Al  Al11  1  0.658868  0.447463  0.750000  1
  Al  Al12  1  0.555351  0.344504  0.250000  1
  Al  Al13  1  0.445173  0.658674  0.750000  1
  Al  Al14  1  0.996829  0.335296  0.075034  1
  Al  Al15  1  0.003809  0.665038  0.573955  1
  Al  Al16  1  0.334781  0.996765  0.424946  1
  Al  Al17  1  0.664865  0.003047  0.926324  1
  Al  Al18  1  0.003809  0.665038  0.926045  1
  Al  Al19  1  0.996829  0.335296  0.424966  1
  Al  Al20  1  0.664865  0.003047  0.573676  1
  Al  Al21  1  0.334781  0.996765  0.075054  1
  Ni  Ni22  1  0.999742  0.999483  0.000462  1
  Ni  Ni23  1  0.999742  0.999483  0.499538  1
  Ni  Ni24  1  0.671347  0.329732  0.000259  1
  Ni  Ni25  1  0.329090  0.670868  0.499158  1
  Ni  Ni26  1  0.329090  0.670868  0.000842  1
  Ni  Ni27  1  0.671347  0.329732  0.499741  1
