# generated using pymatgen
data_Mn5Pd10Au
_symmetry_space_group_name_H-M   'P 1'
_cell_length_a   4.05423000
_cell_length_b   5.50694643
_cell_length_c   10.98011919
_cell_angle_alpha   91.97514277
_cell_angle_beta   90.00000000
_cell_angle_gamma   90.00000000
_symmetry_Int_Tables_number   1
_chemical_formula_structural   Mn5Pd10Au
_chemical_formula_sum   'Mn5 Pd10 Au1'
_cell_volume   245.00118592
_cell_formula_units_Z   1
loop_
 _symmetry_equiv_pos_site_id
 _symmetry_equiv_pos_as_xyz
  1  'x, y, z'
loop_
 _atom_site_type_symbol
 _atom_site_label
 _atom_site_symmetry_multiplicity
 _atom_site_fract_x
 _atom_site_fract_y
 _atom_site_fract_z
 _atom_site_occupancy
  Mn  Mn0  1  0.000000  0.000000  0.000000  1
  Mn  Mn1  1  0.500000  0.218361  0.368690  1
  Mn  Mn2  1  0.500000  0.781639  0.631310  1
  Mn  Mn3  1  0.500000  0.698346  0.133640  1
  Mn  Mn4  1  0.500000  0.301654  0.866360  1
  Pd  Pd5  1  0.500000  0.204952  0.112288  1
  Pd  Pd6  1  0.500000  0.795048  0.887712  1
  Pd  Pd7  1  0.500000  0.729811  0.374599  1
  Pd  Pd8  1  0.500000  0.270189  0.625401  1
  Pd  Pd9  1  0.000000  0.000000  0.500000  1
  Pd  Pd10  1  0.000000  0.500000  0.000000  1
  Pd  Pd11  1  0.000000  0.952035  0.241195  1
  Pd  Pd12  1  0.000000  0.047965  0.758805  1
  Pd  Pd13  1  0.000000  0.452032  0.248515  1
  Pd  Pd14  1  0.000000  0.547968  0.751485  1
  Au  Au15  1  0.000000  0.500000  0.500000  1
