# generated using pymatgen
data_Y3Sn3HgRu2
_symmetry_space_group_name_H-M   'P 1'
_cell_length_a   7.73867700
_cell_length_b   7.73867686
_cell_length_c   3.91735600
_cell_angle_alpha   90.00000000
_cell_angle_beta   90.00000000
_cell_angle_gamma   119.99999633
_symmetry_Int_Tables_number   1
_chemical_formula_structural   Y3Sn3HgRu2
_chemical_formula_sum   'Y3 Sn3 Hg1 Ru2'
_cell_volume   203.16884957
_cell_formula_units_Z   1
loop_
 _symmetry_equiv_pos_site_id
 _symmetry_equiv_pos_as_xyz
  1  'x, y, z'
loop_
 _atom_site_type_symbol
 _atom_site_label
 _atom_site_symmetry_multiplicity
 _atom_site_fract_x
 _atom_site_fract_y
 _atom_site_fract_z
 _atom_site_occupancy
  Y  Y0  1  0.974006  0.388177  0.500000  1
  Y  Y1  1  0.611823  0.585828  0.500000  1
  Y  Y2  1  0.414172  0.025994  0.500000  1
  Sn  Sn3  1  0.989426  0.739363  0.000000  1
  Sn  Sn4  1  0.260637  0.250063  0.000000  1
  Sn  Sn5  1  0.749937  0.010574  0.000000  1
  Hg  Hg6  1  0.333333  0.666667  0.000000  1
  Ru  Ru7  1  0.666667  0.333333  0.000000  1
  Ru  Ru8  1  0.000000  0.000000  0.500000  1
