# generated using pymatgen
data_LaPrPa2(Al3Ir)6
_symmetry_space_group_name_H-M   'P 1'
_cell_length_a   7.64835802
_cell_length_b   7.64237653
_cell_length_c   9.44966200
_cell_angle_alpha   90.00000000
_cell_angle_beta   90.00000000
_cell_angle_gamma   119.61597263
_symmetry_Int_Tables_number   1
_chemical_formula_structural   LaPrPa2(Al3Ir)6
_chemical_formula_sum   'La1 Pr1 Pa2 Al18 Ir6'
_cell_volume   480.18785121
_cell_formula_units_Z   1
loop_
 _symmetry_equiv_pos_site_id
 _symmetry_equiv_pos_as_xyz
  1  'x, y, z'
loop_
 _atom_site_type_symbol
 _atom_site_label
 _atom_site_symmetry_multiplicity
 _atom_site_fract_x
 _atom_site_fract_y
 _atom_site_fract_z
 _atom_site_occupancy
  La  La0  1  0.669590  0.994260  0.250000  1
  Pr  Pr1  1  0.330564  0.006366  0.750000  1
  Pa  Pa2  1  0.997643  0.671184  0.250000  1
  Pa  Pa3  1  0.002211  0.328737  0.750000  1
  Al  Al4  1  0.133087  0.128549  0.250000  1
  Al  Al5  1  0.868504  0.871913  0.750000  1
  Al  Al6  1  0.003166  0.334761  0.075138  1
  Al  Al7  1  0.997824  0.666295  0.924517  1
  Al  Al8  1  0.997824  0.666295  0.575483  1
  Al  Al9  1  0.335329  0.003308  0.425428  1
  Al  Al10  1  0.003166  0.334761  0.424862  1
  Al  Al11  1  0.663626  0.996422  0.575658  1
  Al  Al12  1  0.663626  0.996422  0.924342  1
  Al  Al13  1  0.335329  0.003308  0.074572  1
  Al  Al14  1  0.335019  0.334725  0.551237  1
  Al  Al15  1  0.664904  0.664389  0.449523  1
  Al  Al16  1  0.664904  0.664389  0.050477  1
  Al  Al17  1  0.335019  0.334725  0.948763  1
  Al  Al18  1  0.337068  0.544306  0.250000  1
  Al  Al19  1  0.662063  0.454313  0.750000  1
  Al  Al20  1  0.549313  0.345521  0.250000  1
  Al  Al21  1  0.450179  0.655269  0.750000  1
  Ir  Ir22  1  0.676088  0.331125  0.999672  1
  Ir  Ir23  1  0.323851  0.668769  0.000342  1
  Ir  Ir24  1  0.323851  0.668769  0.499658  1
  Ir  Ir25  1  0.676088  0.331125  0.500328  1
  Ir  Ir26  1  0.000081  0.999997  0.000059  1
  Ir  Ir27  1  0.000081  0.999997  0.499941  1
