# generated using pymatgen
data_Ho4LuOsRu
_symmetry_space_group_name_H-M   'P 1'
_cell_length_a   6.29800242
_cell_length_b   7.27745356
_cell_length_c   8.39991627
_cell_angle_alpha   96.93306115
_cell_angle_beta   112.13764251
_cell_angle_gamma   89.86537528
_symmetry_Int_Tables_number   1
_chemical_formula_structural   Ho4LuOsRu
_chemical_formula_sum   'Ho8 Lu2 Os2 Ru2'
_cell_volume   353.61799541
_cell_formula_units_Z   2
loop_
 _symmetry_equiv_pos_site_id
 _symmetry_equiv_pos_as_xyz
  1  'x, y, z'
loop_
 _atom_site_type_symbol
 _atom_site_label
 _atom_site_symmetry_multiplicity
 _atom_site_fract_x
 _atom_site_fract_y
 _atom_site_fract_z
 _atom_site_occupancy
  Ho  Ho0  1  0.522026  0.083396  0.814764  1
  Ho  Ho1  1  0.477974  0.916604  0.185236  1
  Ho  Ho2  1  0.708383  0.416283  0.184195  1
  Ho  Ho3  1  0.291617  0.583717  0.815805  1
  Ho  Ho4  1  0.298946  0.314274  0.433952  1
  Ho  Ho5  1  0.701054  0.685726  0.566048  1
  Ho  Ho6  1  0.864931  0.187014  0.567783  1
  Ho  Ho7  1  0.135069  0.812986  0.432217  1
  Lu  Lu8  1  0.077559  0.251111  0.999966  1
  Lu  Lu9  1  0.922441  0.748889  0.000034  1
  Os  Os10  1  0.318296  0.576628  0.217042  1
  Os  Os11  1  0.681704  0.423372  0.782958  1
  Ru  Ru12  1  0.101441  0.924855  0.781207  1
  Ru  Ru13  1  0.898559  0.075145  0.218793  1
