# generated using pymatgen
data_Y4Tm3Lu3Ru4
_symmetry_space_group_name_H-M   'P 1'
_cell_length_a   6.25673022
_cell_length_b   7.27168678
_cell_length_c   8.39750240
_cell_angle_alpha   97.06641602
_cell_angle_beta   111.84989495
_cell_angle_gamma   89.95233771
_symmetry_Int_Tables_number   1
_chemical_formula_structural   Y4Tm3Lu3Ru4
_chemical_formula_sum   'Y4 Tm3 Lu3 Ru4'
_cell_volume   351.50163004
_cell_formula_units_Z   1
loop_
 _symmetry_equiv_pos_site_id
 _symmetry_equiv_pos_as_xyz
  1  'x, y, z'
loop_
 _atom_site_type_symbol
 _atom_site_label
 _atom_site_symmetry_multiplicity
 _atom_site_fract_x
 _atom_site_fract_y
 _atom_site_fract_z
 _atom_site_occupancy
  Y  Y0  1  0.522279  0.082298  0.810645  1
  Y  Y1  1  0.477040  0.917299  0.189376  1
  Y  Y2  1  0.712367  0.417738  0.189609  1
  Y  Y3  1  0.288341  0.582685  0.810216  1
  Tm  Tm4  1  0.299381  0.314509  0.432876  1
  Tm  Tm5  1  0.700051  0.685586  0.566902  1
  Tm  Tm6  1  0.866670  0.185260  0.566416  1
  Lu  Lu7  1  0.133132  0.814993  0.433356  1
  Lu  Lu8  1  0.079843  0.250416  0.000071  1
  Lu  Lu9  1  0.920357  0.749670  0.000273  1
  Ru  Ru10  1  0.313831  0.576190  0.222265  1
  Ru  Ru11  1  0.686029  0.424092  0.778437  1
  Ru  Ru12  1  0.092587  0.924777  0.777470  1
  Ru  Ru13  1  0.908091  0.074487  0.222086  1
