# generated using pymatgen
data_Lu3Al3ZnCoGe
_symmetry_space_group_name_H-M   'P 1'
_cell_length_a   6.86403500
_cell_length_b   6.86403416
_cell_length_c   4.09586100
_cell_angle_alpha   90.00000000
_cell_angle_beta   90.00000000
_cell_angle_gamma   119.99999923
_symmetry_Int_Tables_number   1
_chemical_formula_structural   Lu3Al3ZnCoGe
_chemical_formula_sum   'Lu3 Al3 Zn1 Co1 Ge1'
_cell_volume   167.12244094
_cell_formula_units_Z   1
loop_
 _symmetry_equiv_pos_site_id
 _symmetry_equiv_pos_as_xyz
  1  'x, y, z'
loop_
 _atom_site_type_symbol
 _atom_site_label
 _atom_site_symmetry_multiplicity
 _atom_site_fract_x
 _atom_site_fract_y
 _atom_site_fract_z
 _atom_site_occupancy
  Lu  Lu0  1  0.405586  0.001256  0.000000  1
  Lu  Lu1  1  0.998744  0.404331  0.000000  1
  Lu  Lu2  1  0.595670  0.594414  0.000000  1
  Al  Al3  1  0.772700  0.004345  0.500000  1
  Al  Al4  1  0.231644  0.227300  0.500000  1
  Al  Al5  1  0.995655  0.768357  0.500000  1
  Zn  Zn6  1  0.666667  0.333334  0.500000  1
  Co  Co7  1  0.000000  0.000000  0.000000  1
  Ge  Ge8  1  0.333333  0.666667  0.500000  1
