# generated using pymatgen
data_Pr4HfAl3Ir4
_symmetry_space_group_name_H-M   'P 1'
_cell_length_a   4.43443000
_cell_length_b   7.19774495
_cell_length_c   8.09977044
_cell_angle_alpha   89.54972190
_cell_angle_beta   90.00000000
_cell_angle_gamma   90.00000000
_symmetry_Int_Tables_number   1
_chemical_formula_structural   Pr4HfAl3Ir4
_chemical_formula_sum   'Pr4 Hf1 Al3 Ir4'
_cell_volume   258.51964827
_cell_formula_units_Z   1
loop_
 _symmetry_equiv_pos_site_id
 _symmetry_equiv_pos_as_xyz
  1  'x, y, z'
loop_
 _atom_site_type_symbol
 _atom_site_label
 _atom_site_symmetry_multiplicity
 _atom_site_fract_x
 _atom_site_fract_y
 _atom_site_fract_z
 _atom_site_occupancy
  Pr  Pr0  1  0.250000  0.962029  0.310393  1
  Pr  Pr1  1  0.250000  0.473354  0.177073  1
  Pr  Pr2  1  0.750000  0.018058  0.686033  1
  Pr  Pr3  1  0.750000  0.537636  0.830192  1
  Hf  Hf4  1  0.250000  0.368455  0.568123  1
  Al  Al5  1  0.250000  0.858492  0.934672  1
  Al  Al6  1  0.750000  0.638335  0.435709  1
  Al  Al7  1  0.750000  0.141138  0.061385  1
  Ir  Ir8  1  0.250000  0.220890  0.883581  1
  Ir  Ir9  1  0.250000  0.724379  0.614489  1
  Ir  Ir10  1  0.750000  0.782287  0.110304  1
  Ir  Ir11  1  0.750000  0.274947  0.388047  1
