# generated using pymatgen
data_Hf6TaAl6W3N2
_symmetry_space_group_name_H-M   'P 1'
_cell_length_a   7.91038100
_cell_length_b   7.91038134
_cell_length_c   5.37149100
_cell_angle_alpha   90.00000000
_cell_angle_beta   90.00000000
_cell_angle_gamma   120.00000277
_symmetry_Int_Tables_number   1
_chemical_formula_structural   Hf6TaAl6W3N2
_chemical_formula_sum   'Hf6 Ta1 Al6 W3 N2'
_cell_volume   291.08531329
_cell_formula_units_Z   1
loop_
 _symmetry_equiv_pos_site_id
 _symmetry_equiv_pos_as_xyz
  1  'x, y, z'
loop_
 _atom_site_type_symbol
 _atom_site_label
 _atom_site_symmetry_multiplicity
 _atom_site_fract_x
 _atom_site_fract_y
 _atom_site_fract_z
 _atom_site_occupancy
  Hf  Hf0  1  0.231845  0.000395  0.249922  1
  Hf  Hf1  1  0.999605  0.231451  0.249922  1
  Hf  Hf2  1  0.768549  0.768155  0.249922  1
  Hf  Hf3  1  0.768549  0.000395  0.750078  1
  Hf  Hf4  1  0.999605  0.768155  0.750078  1
  Hf  Hf5  1  0.231845  0.231451  0.750078  1
  Ta  Ta6  1  0.666667  0.333333  0.000000  1
  Al  Al7  1  0.584834  0.996707  0.254371  1
  Al  Al8  1  0.003293  0.588127  0.254371  1
  Al  Al9  1  0.411873  0.415166  0.254371  1
  Al  Al10  1  0.411873  0.996707  0.745629  1
  Al  Al11  1  0.003293  0.415166  0.745629  1
  Al  Al12  1  0.584834  0.588127  0.745629  1
  W  W13  1  0.333333  0.666667  0.000000  1
  W  W14  1  0.666667  0.333333  0.500000  1
  W  W15  1  0.333333  0.666667  0.500000  1
  N  N16  1  0.000000  0.000000  0.000000  1
  N  N17  1  0.000000  0.000000  0.500000  1
