# generated using pymatgen
data_DyY3Al18(PtRh2)2
_symmetry_space_group_name_H-M   'P 1'
_cell_length_a   7.57764084
_cell_length_b   7.57819705
_cell_length_c   9.46746415
_cell_angle_alpha   89.97205167
_cell_angle_beta   89.97111046
_cell_angle_gamma   119.53334360
_symmetry_Int_Tables_number   1
_chemical_formula_structural   DyY3Al18(PtRh2)2
_chemical_formula_sum   'Dy1 Y3 Al18 Pt2 Rh4'
_cell_volume   473.02822432
_cell_formula_units_Z   1
loop_
 _symmetry_equiv_pos_site_id
 _symmetry_equiv_pos_as_xyz
  1  'x, y, z'
loop_
 _atom_site_type_symbol
 _atom_site_label
 _atom_site_symmetry_multiplicity
 _atom_site_fract_x
 _atom_site_fract_y
 _atom_site_fract_z
 _atom_site_occupancy
  Dy  Dy0  1  0.329397  0.004892  0.249950  1
  Y  Y1  1  0.994951  0.670515  0.750053  1
  Y  Y2  1  0.004959  0.329481  0.249938  1
  Y  Y3  1  0.670430  0.994865  0.750057  1
  Al  Al4  1  0.127139  0.127064  0.750896  1
  Al  Al5  1  0.873029  0.872825  0.249111  1
  Al  Al6  1  0.000923  0.331252  0.577548  1
  Al  Al7  1  0.999193  0.668795  0.422268  1
  Al  Al8  1  0.000342  0.665104  0.074629  1
  Al  Al9  1  0.334962  0.999805  0.925749  1
  Al  Al10  1  0.999808  0.334967  0.925508  1
  Al  Al11  1  0.664897  0.000264  0.074613  1
  Al  Al12  1  0.668595  0.999115  0.422272  1
  Al  Al13  1  0.331256  0.000942  0.577337  1
  Al  Al14  1  0.332032  0.331954  0.050146  1
  Al  Al15  1  0.667954  0.667946  0.950252  1
  Al  Al16  1  0.669629  0.669623  0.554495  1
  Al  Al17  1  0.330399  0.330338  0.445146  1
  Al  Al18  1  0.340662  0.547621  0.753847  1
  Al  Al19  1  0.659066  0.452180  0.246159  1
  Al  Al20  1  0.547684  0.340572  0.753856  1
  Al  Al21  1  0.452433  0.659667  0.246151  1
  Pt  Pt22  1  0.672283  0.327737  0.499900  1
  Pt  Pt23  1  0.327730  0.672273  0.499912  1
  Rh  Rh24  1  0.327950  0.672142  0.000087  1
  Rh  Rh25  1  0.672123  0.327931  0.000111  1
  Rh  Rh26  1  0.000081  0.000088  0.499849  1
  Rh  Rh27  1  0.000092  0.000041  0.000161  1
