# generated using pymatgen
data_BaHgP2O7
_symmetry_space_group_name_H-M   'P 1'
_cell_length_a   5.79336929
_cell_length_b   7.34607271
_cell_length_c   7.75585086
_cell_angle_alpha   102.10685014
_cell_angle_beta   90.75638860
_cell_angle_gamma   93.02927554
_symmetry_Int_Tables_number   1
_chemical_formula_structural   BaHgP2O7
_chemical_formula_sum   'Ba2 Hg2 P4 O14'
_cell_volume   322.18527277
_cell_formula_units_Z   2
loop_
 _symmetry_equiv_pos_site_id
 _symmetry_equiv_pos_as_xyz
  1  'x, y, z'
loop_
 _atom_site_type_symbol
 _atom_site_label
 _atom_site_symmetry_multiplicity
 _atom_site_fract_x
 _atom_site_fract_y
 _atom_site_fract_z
 _atom_site_occupancy
  Ba  Ba0  1  0.232617  0.765366  0.437640  1
  Ba  Ba1  1  0.767383  0.234634  0.562360  1
  Hg  Hg2  1  0.216150  0.655865  0.904062  1
  Hg  Hg3  1  0.783850  0.344135  0.095938  1
  P  P4  1  0.724081  0.832498  0.102159  1
  P  P5  1  0.275919  0.167502  0.897841  1
  P  P6  1  0.720379  0.736191  0.704599  1
  P  P7  1  0.279621  0.263809  0.295401  1
  O  O8  1  0.481874  0.742074  0.126009  1
  O  O9  1  0.518126  0.257926  0.873991  1
  O  O10  1  0.770460  0.023282  0.219592  1
  O  O11  1  0.229540  0.976718  0.780408  1
  O  O12  1  0.913281  0.693628  0.119495  1
  O  O13  1  0.086719  0.306372  0.880505  1
  O  O14  1  0.496033  0.610103  0.684994  1
  O  O15  1  0.503967  0.389897  0.315006  1
  O  O16  1  0.068033  0.387810  0.314447  1
  O  O17  1  0.931967  0.612190  0.685553  1
  O  O18  1  0.266779  0.132228  0.098916  1
  O  O19  1  0.733221  0.867772  0.901084  1
  O  O20  1  0.272219  0.135139  0.425858  1
  O  O21  1  0.727781  0.864861  0.574142  1
