# generated using pymatgen
data_Rb4As2PtS8
_symmetry_space_group_name_H-M   'P 1'
_cell_length_a   6.82328194
_cell_length_b   7.35306581
_cell_length_c   9.56854300
_cell_angle_alpha   86.75038866
_cell_angle_beta   82.09527703
_cell_angle_gamma   84.78524670
_symmetry_Int_Tables_number   1
_chemical_formula_structural   Rb4As2PtS8
_chemical_formula_sum   'Rb4 As2 Pt1 S8'
_cell_volume   473.06825155
_cell_formula_units_Z   1
loop_
 _symmetry_equiv_pos_site_id
 _symmetry_equiv_pos_as_xyz
  1  'x, y, z'
loop_
 _atom_site_type_symbol
 _atom_site_label
 _atom_site_symmetry_multiplicity
 _atom_site_fract_x
 _atom_site_fract_y
 _atom_site_fract_z
 _atom_site_occupancy
  Rb  Rb0  1  0.286119  0.336004  0.137884  1
  Rb  Rb1  1  0.745495  0.218521  0.479194  1
  Rb  Rb2  1  0.254505  0.781479  0.520806  1
  Rb  Rb3  1  0.713881  0.663996  0.862116  1
  As  As4  1  0.827261  0.732638  0.260563  1
  As  As5  1  0.172739  0.267362  0.739437  1
  Pt  Pt6  1  0.000000  0.000000  0.000000  1
  S  S7  1  0.690244  0.967754  0.136433  1
  S  S8  1  0.774763  0.472895  0.185383  1
  S  S9  1  0.133924  0.813461  0.177262  1
  S  S10  1  0.759563  0.746106  0.488179  1
  S  S11  1  0.240437  0.253894  0.511821  1
  S  S12  1  0.866076  0.186539  0.822738  1
  S  S13  1  0.225237  0.527105  0.814617  1
  S  S14  1  0.309756  0.032246  0.863567  1
