# generated using pymatgen
data_Pr16Mg3Ir4Au
_symmetry_space_group_name_H-M   'P 1'
_cell_length_a   10.01439788
_cell_length_b   10.01439840
_cell_length_c   10.01439859
_cell_angle_alpha   60.43547718
_cell_angle_beta   60.43547664
_cell_angle_gamma   60.43547882
_symmetry_Int_Tables_number   1
_chemical_formula_structural   Pr16Mg3Ir4Au
_chemical_formula_sum   'Pr16 Mg3 Ir4 Au1'
_cell_volume   717.15772685
_cell_formula_units_Z   1
loop_
 _symmetry_equiv_pos_site_id
 _symmetry_equiv_pos_as_xyz
  1  'x, y, z'
loop_
 _atom_site_type_symbol
 _atom_site_label
 _atom_site_symmetry_multiplicity
 _atom_site_fract_x
 _atom_site_fract_y
 _atom_site_fract_z
 _atom_site_occupancy
  Pr  Pr0  1  0.346588  0.346588  0.346588  1
  Pr  Pr1  1  0.347527  0.347527  0.957592  1
  Pr  Pr2  1  0.347527  0.957592  0.347527  1
  Pr  Pr3  1  0.957592  0.347527  0.347527  1
  Pr  Pr4  1  0.810951  0.188564  0.188564  1
  Pr  Pr5  1  0.190476  0.808375  0.808375  1
  Pr  Pr6  1  0.188564  0.810951  0.188564  1
  Pr  Pr7  1  0.808375  0.190476  0.808375  1
  Pr  Pr8  1  0.188564  0.188564  0.810951  1
  Pr  Pr9  1  0.808375  0.808375  0.190476  1
  Pr  Pr10  1  0.932439  0.560755  0.560755  1
  Pr  Pr11  1  0.561022  0.937551  0.937551  1
  Pr  Pr12  1  0.560755  0.932439  0.560755  1
  Pr  Pr13  1  0.937551  0.561022  0.937551  1
  Pr  Pr14  1  0.560755  0.560755  0.932439  1
  Pr  Pr15  1  0.937551  0.937551  0.561022  1
  Mg  Mg16  1  0.579646  0.579646  0.270637  1
  Mg  Mg17  1  0.579646  0.270637  0.579646  1
  Mg  Mg18  1  0.270637  0.579646  0.579646  1
  Ir  Ir19  1  0.141302  0.141302  0.141302  1
  Ir  Ir20  1  0.142148  0.142148  0.575876  1
  Ir  Ir21  1  0.142148  0.575876  0.142148  1
  Ir  Ir22  1  0.575876  0.142148  0.142148  1
  Au  Au23  1  0.583988  0.583988  0.583988  1
