# generated using pymatgen
data_Pr3TlInPt3Pb
_symmetry_space_group_name_H-M   'P 1'
_cell_length_a   7.89519464
_cell_length_b   7.88325573
_cell_length_c   4.07251400
_cell_angle_alpha   90.00000000
_cell_angle_beta   90.00000000
_cell_angle_gamma   120.26952641
_symmetry_Int_Tables_number   1
_chemical_formula_structural   Pr3TlInPt3Pb
_chemical_formula_sum   'Pr3 Tl1 In1 Pt3 Pb1'
_cell_volume   218.91511251
_cell_formula_units_Z   1
loop_
 _symmetry_equiv_pos_site_id
 _symmetry_equiv_pos_as_xyz
  1  'x, y, z'
loop_
 _atom_site_type_symbol
 _atom_site_label
 _atom_site_symmetry_multiplicity
 _atom_site_fract_x
 _atom_site_fract_y
 _atom_site_fract_z
 _atom_site_occupancy
  Pr  Pr0  1  0.595271  0.999496  0.000000  1
  Pr  Pr1  1  0.997109  0.588103  0.000000  1
  Pr  Pr2  1  0.408299  0.411077  0.000000  1
  Tl  Tl3  1  0.000125  0.258853  0.500000  1
  In  In4  1  0.744158  0.743057  0.500000  1
  Pt  Pt5  1  0.344881  0.669716  0.500000  1
  Pt  Pt6  1  0.668824  0.342945  0.500000  1
  Pt  Pt7  1  0.987423  0.988000  0.000000  1
  Pb  Pb8  1  0.253909  0.998753  0.500000  1
