# generated using pymatgen
data_NaScSiO4
_symmetry_space_group_name_H-M   'P 1'
_cell_length_a   5.07235500
_cell_length_b   6.20142800
_cell_length_c   10.72342000
_cell_angle_alpha   90.00000000
_cell_angle_beta   90.00000000
_cell_angle_gamma   90.00000000
_symmetry_Int_Tables_number   1
_chemical_formula_structural   NaScSiO4
_chemical_formula_sum   'Na4 Sc4 Si4 O16'
_cell_volume   337.31423013
_cell_formula_units_Z   4
loop_
 _symmetry_equiv_pos_site_id
 _symmetry_equiv_pos_as_xyz
  1  'x, y, z'
loop_
 _atom_site_type_symbol
 _atom_site_label
 _atom_site_symmetry_multiplicity
 _atom_site_fract_x
 _atom_site_fract_y
 _atom_site_fract_z
 _atom_site_occupancy
  Na  Na0  1  0.500000  0.500000  0.500000  1
  Na  Na1  1  0.000000  0.500000  0.000000  1
  Na  Na2  1  0.500000  0.000000  0.500000  1
  Na  Na3  1  0.000000  0.000000  0.000000  1
  Sc  Sc4  1  0.503768  0.250000  0.222189  1
  Sc  Sc5  1  0.003768  0.750000  0.277811  1
  Sc  Sc6  1  0.496232  0.750000  0.777811  1
  Sc  Sc7  1  0.996232  0.250000  0.722189  1
  Si  Si8  1  0.947889  0.250000  0.396563  1
  Si  Si9  1  0.447889  0.750000  0.103437  1
  Si  Si10  1  0.052111  0.750000  0.603437  1
  Si  Si11  1  0.552111  0.250000  0.896563  1
  O  O12  1  0.299425  0.954057  0.177639  1
  O  O13  1  0.799425  0.045943  0.322361  1
  O  O14  1  0.700575  0.454057  0.822361  1
  O  O15  1  0.200575  0.545943  0.677639  1
  O  O16  1  0.700575  0.045943  0.822361  1
  O  O17  1  0.200575  0.954057  0.677639  1
  O  O18  1  0.299425  0.545943  0.177639  1
  O  O19  1  0.799425  0.454057  0.322361  1
  O  O20  1  0.233934  0.250000  0.881879  1
  O  O21  1  0.733934  0.750000  0.618121  1
  O  O22  1  0.766066  0.750000  0.118121  1
  O  O23  1  0.266066  0.250000  0.381879  1
  O  O24  1  0.849545  0.250000  0.542601  1
  O  O25  1  0.349545  0.750000  0.957399  1
  O  O26  1  0.150455  0.750000  0.457399  1
  O  O27  1  0.650455  0.250000  0.042601  1
