# generated using pymatgen
data_TbPr5Al21Si3Os8
_symmetry_space_group_name_H-M   'P 1'
_cell_length_a   8.79472000
_cell_length_b   8.82568731
_cell_length_c   9.74863103
_cell_angle_alpha   90.00707364
_cell_angle_beta   90.00000000
_cell_angle_gamma   119.88399854
_symmetry_Int_Tables_number   1
_chemical_formula_structural   TbPr5Al21Si3Os8
_chemical_formula_sum   'Tb1 Pr5 Al21 Si3 Os8'
_cell_volume   656.07166031
_cell_formula_units_Z   1
loop_
 _symmetry_equiv_pos_site_id
 _symmetry_equiv_pos_as_xyz
  1  'x, y, z'
loop_
 _atom_site_type_symbol
 _atom_site_label
 _atom_site_symmetry_multiplicity
 _atom_site_fract_x
 _atom_site_fract_y
 _atom_site_fract_z
 _atom_site_occupancy
  Tb  Tb0  1  0.196001  0.392001  0.248717  1
  Pr  Pr1  1  0.806317  0.612634  0.751459  1
  Pr  Pr2  1  0.615588  0.808254  0.249105  1
  Pr  Pr3  1  0.384788  0.191395  0.751629  1
  Pr  Pr4  1  0.192668  0.808254  0.249105  1
  Pr  Pr5  1  0.806607  0.191395  0.751629  1
  Al  Al6  1  0.332827  0.665654  0.480144  1
  Al  Al7  1  0.164508  0.329016  0.569715  1
  Al  Al8  1  0.834349  0.668698  0.425025  1
  Al  Al9  1  0.670707  0.835597  0.571716  1
  Al  Al10  1  0.834726  0.669454  0.075618  1
  Al  Al11  1  0.330212  0.166125  0.424901  1
  Al  Al12  1  0.165199  0.330399  0.927314  1
  Al  Al13  1  0.164891  0.835597  0.571716  1
  Al  Al14  1  0.329695  0.166107  0.075704  1
  Al  Al15  1  0.835913  0.166125  0.424901  1
  Al  Al16  1  0.668278  0.833868  0.926125  1
  Al  Al17  1  0.836411  0.166107  0.075704  1
  Al  Al18  1  0.165591  0.833868  0.926125  1
  Al  Al19  1  0.565134  0.130267  0.249379  1
  Al  Al20  1  0.435195  0.870391  0.748225  1
  Al  Al21  1  0.872737  0.435985  0.249236  1
  Al  Al22  1  0.127823  0.562515  0.748131  1
  Al  Al23  1  0.563248  0.435985  0.249236  1
  Al  Al24  1  0.434690  0.562515  0.748131  1
  Al  Al25  1  0.003932  0.007864  0.249110  1
  Al  Al26  1  0.998754  0.997507  0.749273  1
  Si  Si27  1  0.332457  0.664915  0.033185  1
  Si  Si28  1  0.666297  0.332592  0.969611  1
  Si  Si29  1  0.666284  0.332567  0.532025  1
  Os  Os30  1  0.499664  0.999326  0.999637  1
  Os  Os31  1  0.000776  0.499395  0.000091  1
  Os  Os32  1  0.504008  0.008017  0.500500  1
  Os  Os33  1  0.498619  0.499395  0.000091  1
  Os  Os34  1  0.992201  0.495187  0.499764  1
  Os  Os35  1  0.502986  0.495187  0.499764  1
  Os  Os36  1  0.999894  0.999788  0.999514  1
  Os  Os37  1  0.000025  0.000051  0.498748  1
