# generated using pymatgen
data_Er4Ta(Pd2Pt)5
_symmetry_space_group_name_H-M   'P 1'
_cell_length_a   4.09386600
_cell_length_b   4.11103700
_cell_length_c   20.52245100
_cell_angle_alpha   90.00000000
_cell_angle_beta   90.00000000
_cell_angle_gamma   90.00000000
_symmetry_Int_Tables_number   1
_chemical_formula_structural   Er4Ta(Pd2Pt)5
_chemical_formula_sum   'Er4 Ta1 Pd10 Pt5'
_cell_volume   345.39356039
_cell_formula_units_Z   1
loop_
 _symmetry_equiv_pos_site_id
 _symmetry_equiv_pos_as_xyz
  1  'x, y, z'
loop_
 _atom_site_type_symbol
 _atom_site_label
 _atom_site_symmetry_multiplicity
 _atom_site_fract_x
 _atom_site_fract_y
 _atom_site_fract_z
 _atom_site_occupancy
  Er  Er0  1  0.000000  0.000000  0.198912  1
  Er  Er1  1  0.000000  0.000000  0.398314  1
  Er  Er2  1  0.000000  0.000000  0.601759  1
  Er  Er3  1  0.000000  0.000000  0.801293  1
  Ta  Ta4  1  0.000000  0.000000  0.000392  1
  Pd  Pd5  1  0.500000  0.500000  0.999648  1
  Pd  Pd6  1  0.500000  0.500000  0.193661  1
  Pd  Pd7  1  0.500000  0.500000  0.398004  1
  Pd  Pd8  1  0.500000  0.500000  0.601961  1
  Pd  Pd9  1  0.500000  0.500000  0.806528  1
  Pd  Pd10  1  0.500000  0.000000  0.499965  1
  Pd  Pd11  1  0.000000  0.500000  0.296663  1
  Pd  Pd12  1  0.000000  0.500000  0.499961  1
  Pd  Pd13  1  0.000000  0.500000  0.703442  1
  Pd  Pd14  1  0.000000  0.500000  0.908348  1
  Pt  Pt15  1  0.500000  0.000000  0.091002  1
  Pt  Pt16  1  0.500000  0.000000  0.296981  1
  Pt  Pt17  1  0.500000  0.000000  0.703210  1
  Pt  Pt18  1  0.500000  0.000000  0.909230  1
  Pt  Pt19  1  0.000000  0.500000  0.090727  1
