# generated using pymatgen
data_PrNd4MnRuO12
_symmetry_space_group_name_H-M   'P 1'
_cell_length_a   7.07955885
_cell_length_b   7.07955860
_cell_length_c   7.57412602
_cell_angle_alpha   74.53068642
_cell_angle_beta   74.53069157
_cell_angle_gamma   50.15152135
_symmetry_Int_Tables_number   1
_chemical_formula_structural   PrNd4MnRuO12
_chemical_formula_sum   'Pr1 Nd4 Mn1 Ru1 O12'
_cell_volume   278.52406867
_cell_formula_units_Z   1
loop_
 _symmetry_equiv_pos_site_id
 _symmetry_equiv_pos_as_xyz
  1  'x, y, z'
loop_
 _atom_site_type_symbol
 _atom_site_label
 _atom_site_symmetry_multiplicity
 _atom_site_fract_x
 _atom_site_fract_y
 _atom_site_fract_z
 _atom_site_occupancy
  Pr  Pr0  1  0.998476  0.001524  0.500000  1
  Nd  Nd1  1  0.310147  0.299766  0.356939  1
  Nd  Nd2  1  0.700234  0.689853  0.643061  1
  Nd  Nd3  1  0.694897  0.694837  0.163286  1
  Nd  Nd4  1  0.305163  0.305103  0.836714  1
  Mn  Mn5  1  0.749298  0.250702  0.000000  1
  Ru  Ru6  1  0.239104  0.760896  0.000000  1
  O  O7  1  0.098162  0.594757  0.577196  1
  O  O8  1  0.995604  0.002978  0.172261  1
  O  O9  1  0.405243  0.901838  0.422804  1
  O  O10  1  0.503132  0.497712  0.172145  1
  O  O11  1  0.098956  0.581836  0.078932  1
  O  O12  1  0.906688  0.404100  0.421451  1
  O  O13  1  0.997022  0.004396  0.827739  1
  O  O14  1  0.595900  0.093311  0.578549  1
  O  O15  1  0.502288  0.496868  0.827855  1
  O  O16  1  0.584192  0.102670  0.077332  1
  O  O17  1  0.418164  0.901044  0.921068  1
  O  O18  1  0.897330  0.415808  0.922668  1
