# generated using pymatgen
data_Yb6UTcO12
_symmetry_space_group_name_H-M   'P 1'
_cell_length_a   6.57741854
_cell_length_b   6.57742005
_cell_length_c   6.57741858
_cell_angle_alpha   92.85208646
_cell_angle_beta   92.85208565
_cell_angle_gamma   92.85207752
_symmetry_Int_Tables_number   1
_chemical_formula_structural   Yb6UTcO12
_chemical_formula_sum   'Yb6 U1 Tc1 O12'
_cell_volume   283.46128490
_cell_formula_units_Z   1
loop_
 _symmetry_equiv_pos_site_id
 _symmetry_equiv_pos_as_xyz
  1  'x, y, z'
loop_
 _atom_site_type_symbol
 _atom_site_label
 _atom_site_symmetry_multiplicity
 _atom_site_fract_x
 _atom_site_fract_y
 _atom_site_fract_z
 _atom_site_occupancy
  Yb  Yb0  1  0.927307  0.434423  0.737886  1
  Yb  Yb1  1  0.737886  0.927307  0.434423  1
  Yb  Yb2  1  0.565577  0.262114  0.072693  1
  Yb  Yb3  1  0.262114  0.072693  0.565577  1
  Yb  Yb4  1  0.072693  0.565577  0.262114  1
  Yb  Yb5  1  0.434423  0.737886  0.927307  1
  U  U6  1  0.000000  0.000000  0.000000  1
  Tc  Tc7  1  0.500000  0.500000  0.500000  1
  O  O8  1  0.301187  0.065411  0.924568  1
  O  O9  1  0.065411  0.924568  0.301187  1
  O  O10  1  0.924568  0.301187  0.065411  1
  O  O11  1  0.698813  0.934589  0.075432  1
  O  O12  1  0.934589  0.075432  0.698813  1
  O  O13  1  0.075432  0.698813  0.934589  1
  O  O14  1  0.217308  0.419315  0.545231  1
  O  O15  1  0.419315  0.545231  0.217308  1
  O  O16  1  0.454769  0.782692  0.580685  1
  O  O17  1  0.580685  0.454769  0.782692  1
  O  O18  1  0.782692  0.580685  0.454769  1
  O  O19  1  0.545231  0.217308  0.419315  1
