# generated using pymatgen
data_Cs3CeI6
_symmetry_space_group_name_H-M   'P 1'
_cell_length_a   10.74694300
_cell_length_b   10.74694300
_cell_length_c   8.91282500
_cell_angle_alpha   90.00000000
_cell_angle_beta   90.00000000
_cell_angle_gamma   90.00000000
_symmetry_Int_Tables_number   1
_chemical_formula_structural   Cs3CeI6
_chemical_formula_sum   'Cs6 Ce2 I12'
_cell_volume   1029.40262248
_cell_formula_units_Z   2
loop_
 _symmetry_equiv_pos_site_id
 _symmetry_equiv_pos_as_xyz
  1  'x, y, z'
loop_
 _atom_site_type_symbol
 _atom_site_label
 _atom_site_symmetry_multiplicity
 _atom_site_fract_x
 _atom_site_fract_y
 _atom_site_fract_z
 _atom_site_occupancy
  Cs  Cs0  1  0.000000  0.000000  0.500000  1
  Cs  Cs1  1  0.000000  0.000000  0.000000  1
  Cs  Cs2  1  0.233115  0.587988  0.500000  1
  Cs  Cs3  1  0.766885  0.412012  0.500000  1
  Cs  Cs4  1  0.412012  0.233115  0.000000  1
  Cs  Cs5  1  0.587988  0.766885  0.000000  1
  Ce  Ce6  1  0.500000  0.000000  0.500000  1
  Ce  Ce7  1  0.000000  0.500000  0.000000  1
  I  I8  1  0.699522  0.061302  0.749447  1
  I  I9  1  0.300478  0.938698  0.749447  1
  I  I10  1  0.938698  0.699522  0.249447  1
  I  I11  1  0.061302  0.300478  0.249447  1
  I  I12  1  0.300478  0.938698  0.250553  1
  I  I13  1  0.699522  0.061302  0.250553  1
  I  I14  1  0.061302  0.300478  0.750553  1
  I  I15  1  0.938698  0.699522  0.750553  1
  I  I16  1  0.570878  0.717142  0.500000  1
  I  I17  1  0.429122  0.282858  0.500000  1
  I  I18  1  0.282858  0.570878  0.000000  1
  I  I19  1  0.717142  0.429122  0.000000  1
