# generated using pymatgen
data_Ho5(FeO6)2
_symmetry_space_group_name_H-M   'P 1'
_cell_length_a   6.73093905
_cell_length_b   6.73093814
_cell_length_c   7.21412035
_cell_angle_alpha   74.42257726
_cell_angle_beta   74.42257889
_cell_angle_gamma   51.18944570
_symmetry_Int_Tables_number   1
_chemical_formula_structural   Ho5(FeO6)2
_chemical_formula_sum   'Ho5 Fe2 O12'
_cell_volume   243.12874598
_cell_formula_units_Z   1
loop_
 _symmetry_equiv_pos_site_id
 _symmetry_equiv_pos_as_xyz
  1  'x, y, z'
loop_
 _atom_site_type_symbol
 _atom_site_label
 _atom_site_symmetry_multiplicity
 _atom_site_fract_x
 _atom_site_fract_y
 _atom_site_fract_z
 _atom_site_occupancy
  Ho  Ho0  1  0.304254  0.304254  0.359181  1
  Ho  Ho1  1  0.695746  0.695746  0.640819  1
  Ho  Ho2  1  0.307434  0.307434  0.831892  1
  Ho  Ho3  1  0.692566  0.692566  0.168108  1
  Ho  Ho4  1  0.000000  0.000000  0.500000  1
  Fe  Fe5  1  0.756924  0.243076  0.000000  1
  Fe  Fe6  1  0.243076  0.756924  0.000000  1
  O  O7  1  0.899266  0.422271  0.919810  1
  O  O8  1  0.422271  0.899266  0.919810  1
  O  O9  1  0.100734  0.577729  0.080190  1
  O  O10  1  0.577729  0.100734  0.080190  1
  O  O11  1  0.096792  0.596364  0.576677  1
  O  O12  1  0.596364  0.096792  0.576677  1
  O  O13  1  0.903208  0.403636  0.423323  1
  O  O14  1  0.403636  0.903208  0.423323  1
  O  O15  1  0.999960  0.999960  0.817401  1
  O  O16  1  0.000040  0.000040  0.182599  1
  O  O17  1  0.499876  0.499876  0.815820  1
  O  O18  1  0.500124  0.500124  0.184180  1
