# generated using pymatgen
data_Sc2SeS
_symmetry_space_group_name_H-M   'P 1'
_cell_length_a   6.61832527
_cell_length_b   6.61832553
_cell_length_c   6.61832556
_cell_angle_alpha   33.05130271
_cell_angle_beta   33.05129584
_cell_angle_gamma   33.05131325
_symmetry_Int_Tables_number   1
_chemical_formula_structural   Sc2SeS
_chemical_formula_sum   'Sc2 Se1 S1'
_cell_volume   76.74363953
_cell_formula_units_Z   1
loop_
 _symmetry_equiv_pos_site_id
 _symmetry_equiv_pos_as_xyz
  1  'x, y, z'
loop_
 _atom_site_type_symbol
 _atom_site_label
 _atom_site_symmetry_multiplicity
 _atom_site_fract_x
 _atom_site_fract_y
 _atom_site_fract_z
 _atom_site_occupancy
  Sc  Sc0  1  0.489903  0.489903  0.489903  1
  Sc  Sc1  1  0.010166  0.010166  0.010166  1
  Se  Se2  1  0.249841  0.249841  0.249841  1
  S  S3  1  0.750090  0.750090  0.750090  1
