# generated using pymatgen
data_YbPrGa9CoPd2
_symmetry_space_group_name_H-M   'P 1'
_cell_length_a   7.61328650
_cell_length_b   7.62130984
_cell_length_c   9.57133800
_cell_angle_alpha   90.00000000
_cell_angle_beta   90.00000000
_cell_angle_gamma   119.44841388
_symmetry_Int_Tables_number   1
_chemical_formula_structural   YbPrGa9CoPd2
_chemical_formula_sum   'Yb2 Pr2 Ga18 Co2 Pd4'
_cell_volume   483.60659482
_cell_formula_units_Z   2
loop_
 _symmetry_equiv_pos_site_id
 _symmetry_equiv_pos_as_xyz
  1  'x, y, z'
loop_
 _atom_site_type_symbol
 _atom_site_label
 _atom_site_symmetry_multiplicity
 _atom_site_fract_x
 _atom_site_fract_y
 _atom_site_fract_z
 _atom_site_occupancy
  Yb  Yb0  1  0.313622  0.989386  0.250000  1
  Yb  Yb1  1  0.014891  0.332119  0.250000  1
  Pr  Pr2  1  0.008153  0.679957  0.750000  1
  Pr  Pr3  1  0.667268  0.990319  0.750000  1
  Ga  Ga4  1  0.347484  0.018643  0.929339  1
  Ga  Ga5  1  0.985589  0.651229  0.083917  1
  Ga  Ga6  1  0.347484  0.018643  0.570661  1
  Ga  Ga7  1  0.985589  0.651229  0.416083  1
  Ga  Ga8  1  0.664788  0.020902  0.085519  1
  Ga  Ga9  1  0.988593  0.335177  0.929189  1
  Ga  Ga10  1  0.664788  0.020902  0.414481  1
  Ga  Ga11  1  0.988593  0.335177  0.570811  1
  Ga  Ga12  1  0.664428  0.654820  0.942430  1
  Ga  Ga13  1  0.342541  0.332757  0.068089  1
  Ga  Ga14  1  0.664428  0.654820  0.557570  1
  Ga  Ga15  1  0.342541  0.332757  0.431911  1
  Ga  Ga16  1  0.134862  0.138694  0.750000  1
  Ga  Ga17  1  0.861392  0.865838  0.250000  1
  Ga  Ga18  1  0.461864  0.661911  0.250000  1
  Ga  Ga19  1  0.336104  0.535137  0.750000  1
  Ga  Ga20  1  0.561935  0.338586  0.750000  1
  Ga  Ga21  1  0.658853  0.422009  0.250000  1
  Co  Co22  1  0.669545  0.333573  0.000252  1
  Co  Co23  1  0.669545  0.333573  0.499748  1
  Pd  Pd24  1  0.998828  0.002121  0.002561  1
  Pd  Pd25  1  0.998828  0.002121  0.497439  1
  Pd  Pd26  1  0.328734  0.673798  0.001870  1
  Pd  Pd27  1  0.328734  0.673798  0.498130  1
