# generated using pymatgen
data_AlV12Ir2Pt
_symmetry_space_group_name_H-M   'P 1'
_cell_length_a   4.79264000
_cell_length_b   4.79009600
_cell_length_c   9.62472600
_cell_angle_alpha   90.00000000
_cell_angle_beta   90.00000000
_cell_angle_gamma   90.00000000
_symmetry_Int_Tables_number   1
_chemical_formula_structural   AlV12Ir2Pt
_chemical_formula_sum   'Al1 V12 Ir2 Pt1'
_cell_volume   220.95681452
_cell_formula_units_Z   1
loop_
 _symmetry_equiv_pos_site_id
 _symmetry_equiv_pos_as_xyz
  1  'x, y, z'
loop_
 _atom_site_type_symbol
 _atom_site_label
 _atom_site_symmetry_multiplicity
 _atom_site_fract_x
 _atom_site_fract_y
 _atom_site_fract_z
 _atom_site_occupancy
  Al  Al0  1  0.500000  0.500000  0.500000  1
  V  V1  1  0.500000  0.000000  0.630000  1
  V  V2  1  0.500000  0.000000  0.122610  1
  V  V3  1  0.752690  0.500000  0.252386  1
  V  V4  1  0.752690  0.500000  0.747614  1
  V  V5  1  0.000000  0.752566  0.500000  1
  V  V6  1  0.000000  0.751955  0.000000  1
  V  V7  1  0.500000  0.000000  0.370000  1
  V  V8  1  0.500000  0.000000  0.877390  1
  V  V9  1  0.247310  0.500000  0.252386  1
  V  V10  1  0.247310  0.500000  0.747614  1
  V  V11  1  0.000000  0.247434  0.500000  1
  V  V12  1  0.000000  0.248045  0.000000  1
  Ir  Ir13  1  0.000000  0.000000  0.248350  1
  Ir  Ir14  1  0.000000  0.000000  0.751650  1
  Pt  Pt15  1  0.500000  0.500000  0.000000  1
