# generated using pymatgen
data_Ho4In(CoB3)2
_symmetry_space_group_name_H-M   'P 1'
_cell_length_a   5.36984930
_cell_length_b   5.36984864
_cell_length_c   8.17094979
_cell_angle_alpha   70.81653748
_cell_angle_beta   70.81654071
_cell_angle_gamma   59.99999947
_symmetry_Int_Tables_number   1
_chemical_formula_structural   Ho4In(CoB3)2
_chemical_formula_sum   'Ho4 In1 Co2 B6'
_cell_volume   188.78738826
_cell_formula_units_Z   1
loop_
 _symmetry_equiv_pos_site_id
 _symmetry_equiv_pos_as_xyz
  1  'x, y, z'
loop_
 _atom_site_type_symbol
 _atom_site_label
 _atom_site_symmetry_multiplicity
 _atom_site_fract_x
 _atom_site_fract_y
 _atom_site_fract_z
 _atom_site_occupancy
  Ho  Ho0  1  0.251162  0.251162  0.246516  1
  Ho  Ho1  1  0.748838  0.748838  0.753484  1
  Ho  Ho2  1  0.414947  0.414947  0.755159  1
  Ho  Ho3  1  0.585053  0.585053  0.244841  1
  In  In4  1  0.000000  0.000000  0.000000  1
  Co  Co5  1  0.117312  0.117312  0.648064  1
  Co  Co6  1  0.882688  0.882688  0.351936  1
  B  B7  1  0.169073  0.830927  0.500000  1
  B  B8  1  0.830927  0.500000  0.500000  1
  B  B9  1  0.500000  0.169073  0.500000  1
  B  B10  1  0.169073  0.500000  0.500000  1
  B  B11  1  0.500000  0.830927  0.500000  1
  B  B12  1  0.830927  0.169073  0.500000  1
