# generated using pymatgen
data_La5SmSn7Hg3
_symmetry_space_group_name_H-M   'P 1'
_cell_length_a   6.69141661
_cell_length_b   6.69141606
_cell_length_c   10.52464474
_cell_angle_alpha   90.48965214
_cell_angle_beta   90.48965346
_cell_angle_gamma   102.72562862
_symmetry_Int_Tables_number   1
_chemical_formula_structural   La5SmSn7Hg3
_chemical_formula_sum   'La5 Sm1 Sn7 Hg3'
_cell_volume   459.62293874
_cell_formula_units_Z   1
loop_
 _symmetry_equiv_pos_site_id
 _symmetry_equiv_pos_as_xyz
  1  'x, y, z'
loop_
 _atom_site_type_symbol
 _atom_site_label
 _atom_site_symmetry_multiplicity
 _atom_site_fract_x
 _atom_site_fract_y
 _atom_site_fract_z
 _atom_site_occupancy
  La  La0  1  0.371929  0.371929  0.745937  1
  La  La1  1  0.205904  0.797628  0.499196  1
  La  La2  1  0.206312  0.792463  0.000736  1
  La  La3  1  0.797628  0.205904  0.499196  1
  La  La4  1  0.792463  0.206312  0.000736  1
  Sm  Sm5  1  0.630389  0.630389  0.251849  1
  Sn  Sn6  1  0.017182  0.017182  0.245865  1
  Sn  Sn7  1  0.980188  0.980188  0.752463  1
  Sn  Sn8  1  0.691886  0.691886  0.546224  1
  Sn  Sn9  1  0.491488  0.070715  0.248371  1
  Sn  Sn10  1  0.928412  0.510305  0.751978  1
  Sn  Sn11  1  0.510305  0.928412  0.751978  1
  Sn  Sn12  1  0.070715  0.491488  0.248371  1
  Hg  Hg13  1  0.309244  0.309244  0.043147  1
  Hg  Hg14  1  0.689329  0.689329  0.961450  1
  Hg  Hg15  1  0.306627  0.306627  0.452506  1
