# generated using pymatgen
data_RhSIF18
_symmetry_space_group_name_H-M   'P 1'
_cell_length_a   8.87774572
_cell_length_b   8.87802965
_cell_length_c   5.26839413
_cell_angle_alpha   85.42388509
_cell_angle_beta   85.42220289
_cell_angle_gamma   60.92842110
_symmetry_Int_Tables_number   1
_chemical_formula_structural   RhSIF18
_chemical_formula_sum   'Rh1 S1 I1 F18'
_cell_volume   361.36531152
_cell_formula_units_Z   1
loop_
 _symmetry_equiv_pos_site_id
 _symmetry_equiv_pos_as_xyz
  1  'x, y, z'
loop_
 _atom_site_type_symbol
 _atom_site_label
 _atom_site_symmetry_multiplicity
 _atom_site_fract_x
 _atom_site_fract_y
 _atom_site_fract_z
 _atom_site_occupancy
  Rh  Rh0  1  0.999927  0.999945  0.999680  1
  S  S1  1  0.331576  0.331569  0.590267  1
  I  I2  1  0.668363  0.668377  0.409683  1
  F  F3  1  0.259357  0.510760  0.427007  1
  F  F4  1  0.925025  0.925034  0.303085  1
  F  F5  1  0.074919  0.074910  0.696926  1
  F  F6  1  0.783320  0.078253  0.865794  1
  F  F7  1  0.921668  0.216805  0.134144  1
  F  F8  1  0.216818  0.921663  0.134145  1
  F  F9  1  0.078256  0.783318  0.865781  1
  F  F10  1  0.455400  0.754383  0.604326  1
  F  F11  1  0.754382  0.455403  0.604327  1
  F  F12  1  0.258853  0.258854  0.391091  1
  F  F13  1  0.754811  0.754813  0.647288  1
  F  F14  1  0.404342  0.404342  0.789394  1
  F  F15  1  0.581907  0.581903  0.172264  1
  F  F16  1  0.403736  0.152443  0.753619  1
  F  F17  1  0.881203  0.582937  0.215274  1
  F  F18  1  0.582940  0.881192  0.215281  1
  F  F19  1  0.152437  0.403738  0.753622  1
  F  F20  1  0.510762  0.259358  0.427005  1
