# generated using pymatgen
data_HoCo5As3
_symmetry_space_group_name_H-M   'P 1'
_cell_length_a   3.79335300
_cell_length_b   12.20641300
_cell_length_c   10.70136300
_cell_angle_alpha   90.00000000
_cell_angle_beta   90.00000000
_cell_angle_gamma   90.00000000
_symmetry_Int_Tables_number   1
_chemical_formula_structural   HoCo5As3
_chemical_formula_sum   'Ho4 Co20 As12'
_cell_volume   495.50770840
_cell_formula_units_Z   4
loop_
 _symmetry_equiv_pos_site_id
 _symmetry_equiv_pos_as_xyz
  1  'x, y, z'
loop_
 _atom_site_type_symbol
 _atom_site_label
 _atom_site_symmetry_multiplicity
 _atom_site_fract_x
 _atom_site_fract_y
 _atom_site_fract_z
 _atom_site_occupancy
  Ho  Ho0  1  0.750000  0.701892  0.081322  1
  Ho  Ho1  1  0.250000  0.298108  0.918678  1
  Ho  Ho2  1  0.250000  0.798108  0.581322  1
  Ho  Ho3  1  0.750000  0.201892  0.418678  1
  Co  Co4  1  0.750000  0.697073  0.383558  1
  Co  Co5  1  0.250000  0.302927  0.616442  1
  Co  Co6  1  0.250000  0.802927  0.883558  1
  Co  Co7  1  0.750000  0.197073  0.116442  1
  Co  Co8  1  0.750000  0.991110  0.212317  1
  Co  Co9  1  0.250000  0.008890  0.787683  1
  Co  Co10  1  0.250000  0.508890  0.712317  1
  Co  Co11  1  0.750000  0.491110  0.287683  1
  Co  Co12  1  0.750000  0.677305  0.783597  1
  Co  Co13  1  0.250000  0.322695  0.216403  1
  Co  Co14  1  0.250000  0.822695  0.283597  1
  Co  Co15  1  0.750000  0.177305  0.716403  1
  Co  Co16  1  0.750000  0.931983  0.969014  1
  Co  Co17  1  0.250000  0.068017  0.030986  1
  Co  Co18  1  0.250000  0.568017  0.469014  1
  Co  Co19  1  0.750000  0.431983  0.530986  1
  Co  Co20  1  0.750000  0.987727  0.592679  1
  Co  Co21  1  0.250000  0.012273  0.407321  1
  Co  Co22  1  0.250000  0.512273  0.092679  1
  Co  Co23  1  0.750000  0.487726  0.907321  1
  As  As24  1  0.750000  0.613882  0.584271  1
  As  As25  1  0.250000  0.386118  0.415729  1
  As  As26  1  0.250000  0.886118  0.084271  1
  As  As27  1  0.750000  0.113882  0.915729  1
  As  As28  1  0.750000  0.890601  0.399418  1
  As  As29  1  0.250000  0.109399  0.600582  1
  As  As30  1  0.250000  0.609399  0.899418  1
  As  As31  1  0.750000  0.390601  0.100582  1
  As  As32  1  0.750000  0.870167  0.768718  1
  As  As33  1  0.250000  0.129833  0.231282  1
  As  As34  1  0.250000  0.629833  0.268718  1
  As  As35  1  0.750000  0.370167  0.731282  1
