# generated using pymatgen
data_ErTmBe3Fe14C3
_symmetry_space_group_name_H-M   'P 1'
_cell_length_a   6.33545834
_cell_length_b   6.33545830
_cell_length_c   6.33545801
_cell_angle_alpha   83.29476081
_cell_angle_beta   83.29475216
_cell_angle_gamma   83.29476098
_symmetry_Int_Tables_number   1
_chemical_formula_structural   ErTmBe3Fe14C3
_chemical_formula_sum   'Er1 Tm1 Be3 Fe14 C3'
_cell_volume   249.45125661
_cell_formula_units_Z   1
loop_
 _symmetry_equiv_pos_site_id
 _symmetry_equiv_pos_as_xyz
  1  'x, y, z'
loop_
 _atom_site_type_symbol
 _atom_site_label
 _atom_site_symmetry_multiplicity
 _atom_site_fract_x
 _atom_site_fract_y
 _atom_site_fract_z
 _atom_site_occupancy
  Er  Er0  1  0.344928  0.344928  0.344928  1
  Tm  Tm1  1  0.655771  0.655771  0.655771  1
  Be  Be2  1  0.999955  0.999955  0.500091  1
  Be  Be3  1  0.500091  0.999955  0.999955  1
  Be  Be4  1  0.999955  0.500091  0.999955  1
  Fe  Fe5  1  0.719504  0.280719  0.999671  1
  Fe  Fe6  1  0.999671  0.719504  0.280719  1
  Fe  Fe7  1  0.280719  0.999671  0.719504  1
  Fe  Fe8  1  0.999671  0.280719  0.719504  1
  Fe  Fe9  1  0.719504  0.999671  0.280719  1
  Fe  Fe10  1  0.280719  0.719504  0.999671  1
  Fe  Fe11  1  0.338643  0.860336  0.338643  1
  Fe  Fe12  1  0.338643  0.338643  0.860336  1
  Fe  Fe13  1  0.860336  0.338643  0.338643  1
  Fe  Fe14  1  0.661707  0.138985  0.661707  1
  Fe  Fe15  1  0.661707  0.661707  0.138985  1
  Fe  Fe16  1  0.138985  0.661707  0.661707  1
  Fe  Fe17  1  0.901405  0.901405  0.901405  1
  Fe  Fe18  1  0.098245  0.098245  0.098245  1
  C  C19  1  0.500709  0.500709  0.998422  1
  C  C20  1  0.998422  0.500709  0.500709  1
  C  C21  1  0.500709  0.998422  0.500709  1
