# generated using pymatgen
data_SrCl37
_symmetry_space_group_name_H-M   'P 1'
_cell_length_a   14.09725416
_cell_length_b   12.14363581
_cell_length_c   12.97193080
_cell_angle_alpha   106.17471949
_cell_angle_beta   63.07659490
_cell_angle_gamma   80.37170140
_symmetry_Int_Tables_number   1
_chemical_formula_structural   SrCl37
_chemical_formula_sum   'Sr1 Cl37'
_cell_volume   1786.52417939
_cell_formula_units_Z   1
loop_
 _symmetry_equiv_pos_site_id
 _symmetry_equiv_pos_as_xyz
  1  'x, y, z'
loop_
 _atom_site_type_symbol
 _atom_site_label
 _atom_site_symmetry_multiplicity
 _atom_site_fract_x
 _atom_site_fract_y
 _atom_site_fract_z
 _atom_site_occupancy
  Sr  Sr0  1  0.500000  0.000000  0.000000  1
  Cl  Cl1  1  0.782257  0.295486  0.079532  1
  Cl  Cl2  1  0.217743  0.704514  0.920468  1
  Cl  Cl3  1  0.763057  0.041080  0.299769  1
  Cl  Cl4  1  0.236943  0.958920  0.700231  1
  Cl  Cl5  1  0.174802  0.227597  0.070992  1
  Cl  Cl6  1  0.825198  0.772403  0.929008  1
  Cl  Cl7  1  0.856874  0.595299  0.228819  1
  Cl  Cl8  1  0.143126  0.404701  0.771181  1
  Cl  Cl9  1  0.669715  0.300817  0.520413  1
  Cl  Cl10  1  0.330285  0.699183  0.479587  1
  Cl  Cl11  1  0.038173  0.135704  0.503398  1
  Cl  Cl12  1  0.961827  0.864296  0.496602  1
  Cl  Cl13  1  0.918305  0.989052  0.271840  1
  Cl  Cl14  1  0.081695  0.010948  0.728160  1
  Cl  Cl15  1  0.956001  0.367929  0.598586  1
  Cl  Cl16  1  0.043999  0.632071  0.401414  1
  Cl  Cl17  1  0.615074  0.386989  0.185322  1
  Cl  Cl18  1  0.384926  0.613011  0.814678  1
  Cl  Cl19  1  0.135094  0.448753  0.315692  1
  Cl  Cl20  1  0.864906  0.551247  0.684308  1
  Cl  Cl21  1  0.000000  0.500000  0.000000  1
  Cl  Cl22  1  0.559277  0.947491  0.177506  1
  Cl  Cl23  1  0.440723  0.052509  0.822494  1
  Cl  Cl24  1  0.176638  0.027794  0.303798  1
  Cl  Cl25  1  0.823362  0.972206  0.696202  1
  Cl  Cl26  1  0.518100  0.107917  0.329854  1
  Cl  Cl27  1  0.481900  0.892083  0.670146  1
  Cl  Cl28  1  0.044152  0.187367  0.060590  1
  Cl  Cl29  1  0.955848  0.812633  0.939410  1
  Cl  Cl30  1  0.710094  0.716225  0.394033  1
  Cl  Cl31  1  0.289906  0.283775  0.605967  1
  Cl  Cl32  1  0.683164  0.096389  0.903124  1
  Cl  Cl33  1  0.316836  0.903611  0.096876  1
  Cl  Cl34  1  0.379651  0.233927  0.031129  1
  Cl  Cl35  1  0.620349  0.766073  0.968871  1
  Cl  Cl36  1  0.643940  0.457195  0.650752  1
  Cl  Cl37  1  0.356060  0.542805  0.349248  1
