# generated using pymatgen
data_Ta13Sn3
_symmetry_space_group_name_H-M   'P 1'
_cell_length_a   5.33831300
_cell_length_b   5.32197700
_cell_length_c   10.57669700
_cell_angle_alpha   90.00000000
_cell_angle_beta   90.00000000
_cell_angle_gamma   90.00000000
_symmetry_Int_Tables_number   1
_chemical_formula_structural   Ta13Sn3
_chemical_formula_sum   'Ta13 Sn3'
_cell_volume   300.48797039
_cell_formula_units_Z   1
loop_
 _symmetry_equiv_pos_site_id
 _symmetry_equiv_pos_as_xyz
  1  'x, y, z'
loop_
 _atom_site_type_symbol
 _atom_site_label
 _atom_site_symmetry_multiplicity
 _atom_site_fract_x
 _atom_site_fract_y
 _atom_site_fract_z
 _atom_site_occupancy
  Ta  Ta0  1  0.000000  0.500000  0.376974  1
  Ta  Ta1  1  0.000000  0.500000  0.874625  1
  Ta  Ta2  1  0.500000  0.247667  0.000000  1
  Ta  Ta3  1  0.500000  0.244123  0.500000  1
  Ta  Ta4  1  0.752643  0.000000  0.255736  1
  Ta  Ta5  1  0.752643  0.000000  0.744264  1
  Ta  Ta6  1  0.000000  0.500000  0.125375  1
  Ta  Ta7  1  0.000000  0.500000  0.623026  1
  Ta  Ta8  1  0.500000  0.752333  0.000000  1
  Ta  Ta9  1  0.500000  0.755877  0.500000  1
  Ta  Ta10  1  0.247357  0.000000  0.255736  1
  Ta  Ta11  1  0.247357  0.000000  0.744264  1
  Ta  Ta12  1  0.000000  0.000000  0.500000  1
  Sn  Sn13  1  0.500000  0.500000  0.249692  1
  Sn  Sn14  1  0.500000  0.500000  0.750308  1
  Sn  Sn15  1  0.000000  0.000000  0.000000  1
