# generated using pymatgen
data_V2GaSi3Rh10
_symmetry_space_group_name_H-M   'P 1'
_cell_length_a   3.94741800
_cell_length_b   5.36839342
_cell_length_c   10.31242077
_cell_angle_alpha   89.30470416
_cell_angle_beta   90.00000000
_cell_angle_gamma   90.00000000
_symmetry_Int_Tables_number   1
_chemical_formula_structural   V2GaSi3Rh10
_chemical_formula_sum   'V2 Ga1 Si3 Rh10'
_cell_volume   218.51743715
_cell_formula_units_Z   1
loop_
 _symmetry_equiv_pos_site_id
 _symmetry_equiv_pos_as_xyz
  1  'x, y, z'
loop_
 _atom_site_type_symbol
 _atom_site_label
 _atom_site_symmetry_multiplicity
 _atom_site_fract_x
 _atom_site_fract_y
 _atom_site_fract_z
 _atom_site_occupancy
  V  V0  1  0.500000  0.855436  0.356996  1
  V  V1  1  0.500000  0.651946  0.855522  1
  Ga  Ga2  1  0.500000  0.159433  0.646257  1
  Si  Si3  1  0.500000  0.354784  0.148009  1
  Si  Si4  1  0.000000  0.515375  0.498188  1
  Si  Si5  1  0.000000  0.954607  0.992798  1
  Rh  Rh6  1  0.500000  0.326069  0.391920  1
  Rh  Rh7  1  0.500000  0.681355  0.604172  1
  Rh  Rh8  1  0.500000  0.802405  0.107997  1
  Rh  Rh9  1  0.500000  0.175834  0.904486  1
  Rh  Rh10  1  0.000000  0.419295  0.740243  1
  Rh  Rh11  1  0.000000  0.613039  0.269921  1
  Rh  Rh12  1  0.000000  0.904188  0.764132  1
  Rh  Rh13  1  0.000000  0.103210  0.219735  1
  Rh  Rh14  1  0.000000  0.475724  0.007442  1
  Rh  Rh15  1  0.000000  0.007299  0.492184  1
