# generated using pymatgen
data_Sr2SmEu(BO4)2
_symmetry_space_group_name_H-M   'P 1'
_cell_length_a   3.77671500
_cell_length_b   9.91672006
_cell_length_c   11.04247420
_cell_angle_alpha   90.05329611
_cell_angle_beta   90.00000000
_cell_angle_gamma   90.00000000
_symmetry_Int_Tables_number   1
_chemical_formula_structural   Sr2SmEu(BO4)2
_chemical_formula_sum   'Sr4 Sm2 Eu2 B4 O16'
_cell_volume   413.56947111
_cell_formula_units_Z   2
loop_
 _symmetry_equiv_pos_site_id
 _symmetry_equiv_pos_as_xyz
  1  'x, y, z'
loop_
 _atom_site_type_symbol
 _atom_site_label
 _atom_site_symmetry_multiplicity
 _atom_site_fract_x
 _atom_site_fract_y
 _atom_site_fract_z
 _atom_site_occupancy
  Sr  Sr0  1  0.250000  0.666176  0.082332  1
  Sr  Sr1  1  0.750000  0.333824  0.917668  1
  Sr  Sr2  1  0.750000  0.164886  0.419581  1
  Sr  Sr3  1  0.250000  0.835114  0.580419  1
  Sm  Sm4  1  0.250000  0.083928  0.113464  1
  Sm  Sm5  1  0.750000  0.916072  0.886536  1
  Eu  Eu6  1  0.750000  0.577103  0.382259  1
  Eu  Eu7  1  0.250000  0.422897  0.617741  1
  B  B8  1  0.250000  0.363960  0.201420  1
  B  B9  1  0.750000  0.636040  0.798580  1
  B  B10  1  0.750000  0.866824  0.299176  1
  B  B11  1  0.250000  0.133176  0.700824  1
  O  O12  1  0.250000  0.492661  0.251042  1
  O  O13  1  0.750000  0.507339  0.748958  1
  O  O14  1  0.750000  0.993477  0.245126  1
  O  O15  1  0.250000  0.006523  0.754874  1
  O  O16  1  0.250000  0.248795  0.274318  1
  O  O17  1  0.750000  0.751205  0.725682  1
  O  O18  1  0.750000  0.749387  0.228794  1
  O  O19  1  0.250000  0.250613  0.771206  1
  O  O20  1  0.250000  0.348185  0.074960  1
  O  O21  1  0.750000  0.651815  0.925040  1
  O  O22  1  0.750000  0.855924  0.425625  1
  O  O23  1  0.250000  0.144076  0.574375  1
  O  O24  1  0.250000  0.609033  0.497835  1
  O  O25  1  0.750000  0.390967  0.502165  1
  O  O26  1  0.750000  0.111384  0.999906  1
  O  O27  1  0.250000  0.888616  0.000094  1
