# generated using pymatgen
data_YbSc7(FeB6)4
_symmetry_space_group_name_H-M   'P 1'
_cell_length_a   8.82619125
_cell_length_b   11.14974331
_cell_length_c   3.34809500
_cell_angle_alpha   90.00000000
_cell_angle_beta   90.00000000
_cell_angle_gamma   89.97283792
_symmetry_Int_Tables_number   1
_chemical_formula_structural   YbSc7(FeB6)4
_chemical_formula_sum   'Yb1 Sc7 Fe4 B24'
_cell_volume   329.48521131
_cell_formula_units_Z   1
loop_
 _symmetry_equiv_pos_site_id
 _symmetry_equiv_pos_as_xyz
  1  'x, y, z'
loop_
 _atom_site_type_symbol
 _atom_site_label
 _atom_site_symmetry_multiplicity
 _atom_site_fract_x
 _atom_site_fract_y
 _atom_site_fract_z
 _atom_site_occupancy
  Yb  Yb0  1  0.676982  0.085502  0.000000  1
  Sc  Sc1  1  0.057365  0.130555  0.000000  1
  Sc  Sc2  1  0.556831  0.370385  0.000000  1
  Sc  Sc3  1  0.178007  0.414720  0.000000  1
  Sc  Sc4  1  0.821252  0.584939  0.000000  1
  Sc  Sc5  1  0.443191  0.629294  0.000000  1
  Sc  Sc6  1  0.943114  0.869386  0.000000  1
  Sc  Sc7  1  0.322043  0.914952  0.000000  1
  Fe  Fe8  1  0.357700  0.181895  0.000000  1
  Fe  Fe9  1  0.862358  0.322247  0.000000  1
  Fe  Fe10  1  0.139583  0.680166  0.000000  1
  Fe  Fe11  1  0.640030  0.816022  0.000000  1
  B  B12  1  0.902192  0.026558  0.499999  1
  B  B13  1  0.443755  0.066675  0.499999  1
  B  B14  1  0.249911  0.080961  0.499999  1
  B  B15  1  0.871174  0.186080  0.499999  1
  B  B16  1  0.515153  0.213309  0.499999  1
  B  B17  1  0.206650  0.236293  0.499999  1
  B  B18  1  0.709026  0.266836  0.499999  1
  B  B19  1  0.018278  0.289572  0.499999  1
  B  B20  1  0.368406  0.316817  0.499999  1
  B  B21  1  0.750946  0.420190  0.499999  1
  B  B22  1  0.946818  0.434896  0.499999  1
  B  B23  1  0.397368  0.472303  0.499999  1
  B  B24  1  0.601931  0.527489  0.499999  1
  B  B25  1  0.054477  0.566542  0.499999  1
  B  B26  1  0.249670  0.580619  0.499999  1
  B  B27  1  0.630461  0.682557  0.499999  1
  B  B28  1  0.982771  0.711578  0.499999  1
  B  B29  1  0.292567  0.735315  0.499999  1
  B  B30  1  0.792692  0.762640  0.499999  1
  B  B31  1  0.482035  0.787186  0.499999  1
  B  B32  1  0.131078  0.816179  0.499999  1
  B  B33  1  0.749424  0.915812  0.499999  1
  B  B34  1  0.553205  0.931160  0.499999  1
  B  B35  1  0.101569  0.972384  0.499999  1
