# generated using pymatgen
data_DyHoCo3P7Ru9
_symmetry_space_group_name_H-M   'P 1'
_cell_length_a   9.32458200
_cell_length_b   9.32458123
_cell_length_c   3.82889000
_cell_angle_alpha   90.00000000
_cell_angle_beta   90.00000000
_cell_angle_gamma   120.00000274
_symmetry_Int_Tables_number   1
_chemical_formula_structural   DyHoCo3P7Ru9
_chemical_formula_sum   'Dy1 Ho1 Co3 P7 Ru9'
_cell_volume   288.31166781
_cell_formula_units_Z   1
loop_
 _symmetry_equiv_pos_site_id
 _symmetry_equiv_pos_as_xyz
  1  'x, y, z'
loop_
 _atom_site_type_symbol
 _atom_site_label
 _atom_site_symmetry_multiplicity
 _atom_site_fract_x
 _atom_site_fract_y
 _atom_site_fract_z
 _atom_site_occupancy
  Dy  Dy0  1  0.333333  0.666667  0.000000  1
  Ho  Ho1  1  0.666667  0.333333  0.500000  1
  Co  Co2  1  0.158017  0.888893  0.000000  1
  Co  Co3  1  0.111107  0.269124  0.000000  1
  Co  Co4  1  0.730876  0.841983  0.000000  1
  P  P5  1  0.411292  0.109971  0.000000  1
  P  P6  1  0.890029  0.301321  0.000000  1
  P  P7  1  0.698679  0.588708  0.000000  1
  P  P8  1  0.115335  0.714322  0.500000  1
  P  P9  1  0.285678  0.401013  0.500000  1
  P  P10  1  0.598987  0.884665  0.500000  1
  P  P11  1  0.000000  0.000000  0.000000  1
  Ru  Ru12  1  0.425355  0.363810  0.000000  1
  Ru  Ru13  1  0.636190  0.061545  0.000000  1
  Ru  Ru14  1  0.938455  0.574645  0.000000  1
  Ru  Ru15  1  0.382443  0.947439  0.500000  1
  Ru  Ru16  1  0.052561  0.435004  0.500000  1
  Ru  Ru17  1  0.564996  0.617557  0.500000  1
  Ru  Ru18  1  0.205772  0.120778  0.500000  1
  Ru  Ru19  1  0.879222  0.084993  0.500000  1
  Ru  Ru20  1  0.915007  0.794228  0.500000  1
