# generated using pymatgen
data_HoCo4P3Rh
_symmetry_space_group_name_H-M   'P 1'
_cell_length_a   3.69556900
_cell_length_b   10.40201000
_cell_length_c   11.82361300
_cell_angle_alpha   90.00000000
_cell_angle_beta   90.00000000
_cell_angle_gamma   90.00000000
_symmetry_Int_Tables_number   1
_chemical_formula_structural   HoCo4P3Rh
_chemical_formula_sum   'Ho4 Co16 P12 Rh4'
_cell_volume   454.51559468
_cell_formula_units_Z   4
loop_
 _symmetry_equiv_pos_site_id
 _symmetry_equiv_pos_as_xyz
  1  'x, y, z'
loop_
 _atom_site_type_symbol
 _atom_site_label
 _atom_site_symmetry_multiplicity
 _atom_site_fract_x
 _atom_site_fract_y
 _atom_site_fract_z
 _atom_site_occupancy
  Ho  Ho0  1  0.250000  0.584586  0.704032  1
  Ho  Ho1  1  0.250000  0.915414  0.204032  1
  Ho  Ho2  1  0.750000  0.415414  0.295968  1
  Ho  Ho3  1  0.750000  0.084586  0.795968  1
  Co  Co4  1  0.250000  0.409059  0.487485  1
  Co  Co5  1  0.250000  0.090941  0.987485  1
  Co  Co6  1  0.750000  0.590941  0.512515  1
  Co  Co7  1  0.750000  0.909059  0.012515  1
  Co  Co8  1  0.250000  0.221600  0.176231  1
  Co  Co9  1  0.250000  0.278400  0.676231  1
  Co  Co10  1  0.750000  0.778400  0.823769  1
  Co  Co11  1  0.750000  0.721600  0.323769  1
  Co  Co12  1  0.250000  0.885137  0.701810  1
  Co  Co13  1  0.250000  0.614863  0.201810  1
  Co  Co14  1  0.750000  0.114863  0.298190  1
  Co  Co15  1  0.750000  0.385137  0.798190  1
  Co  Co16  1  0.250000  0.464678  0.930283  1
  Co  Co17  1  0.250000  0.035322  0.430283  1
  Co  Co18  1  0.750000  0.535322  0.069717  1
  Co  Co19  1  0.750000  0.964678  0.569717  1
  P  P20  1  0.250000  0.421589  0.112822  1
  P  P21  1  0.250000  0.078411  0.612822  1
  P  P22  1  0.750000  0.578411  0.887178  1
  P  P23  1  0.750000  0.921589  0.387178  1
  P  P24  1  0.250000  0.270719  0.865344  1
  P  P25  1  0.250000  0.229281  0.365344  1
  P  P26  1  0.750000  0.729281  0.134656  1
  P  P27  1  0.750000  0.770719  0.634656  1
  P  P28  1  0.250000  0.594752  0.389189  1
  P  P29  1  0.250000  0.905248  0.889189  1
  P  P30  1  0.750000  0.405248  0.610811  1
  P  P31  1  0.750000  0.094752  0.110811  1
  Rh  Rh32  1  0.250000  0.717045  0.991082  1
  Rh  Rh33  1  0.250000  0.782955  0.491082  1
  Rh  Rh34  1  0.750000  0.282955  0.008918  1
  Rh  Rh35  1  0.750000  0.217045  0.508918  1
