# generated using pymatgen
data_La7GdH24
_symmetry_space_group_name_H-M   'P 1'
_cell_length_a   7.02086800
_cell_length_b   7.02086800
_cell_length_c   7.02086800
_cell_angle_alpha   90.00000000
_cell_angle_beta   90.00000000
_cell_angle_gamma   90.00000000
_symmetry_Int_Tables_number   1
_chemical_formula_structural   La7GdH24
_chemical_formula_sum   'La7 Gd1 H24'
_cell_volume   346.07675003
_cell_formula_units_Z   1
loop_
 _symmetry_equiv_pos_site_id
 _symmetry_equiv_pos_as_xyz
  1  'x, y, z'
loop_
 _atom_site_type_symbol
 _atom_site_label
 _atom_site_symmetry_multiplicity
 _atom_site_fract_x
 _atom_site_fract_y
 _atom_site_fract_z
 _atom_site_occupancy
  La  La0  1  0.000000  0.000000  0.000000  1
  La  La1  1  0.253494  0.000000  0.500000  1
  La  La2  1  0.746506  0.000000  0.500000  1
  La  La3  1  0.000000  0.500000  0.253494  1
  La  La4  1  0.000000  0.500000  0.746506  1
  La  La5  1  0.500000  0.746506  0.000000  1
  La  La6  1  0.500000  0.253494  0.000000  1
  Gd  Gd7  1  0.500000  0.500000  0.500000  1
  H  H8  1  0.000000  0.154844  0.308539  1
  H  H9  1  0.500000  0.203442  0.652082  1
  H  H10  1  0.500000  0.796558  0.347918  1
  H  H11  1  0.796558  0.652082  0.500000  1
  H  H12  1  0.203442  0.652082  0.500000  1
  H  H13  1  0.347918  0.500000  0.796558  1
  H  H14  1  0.652082  0.500000  0.796558  1
  H  H15  1  0.308539  0.000000  0.154844  1
  H  H16  1  0.154844  0.308539  0.000000  1
  H  H17  1  0.845156  0.691461  0.000000  1
  H  H18  1  0.308539  0.000000  0.845156  1
  H  H19  1  0.845156  0.308539  0.000000  1
  H  H20  1  0.691461  0.000000  0.154844  1
  H  H21  1  0.691461  0.000000  0.845156  1
  H  H22  1  0.154844  0.691461  0.000000  1
  H  H23  1  0.000000  0.845156  0.691461  1
  H  H24  1  0.000000  0.154844  0.691461  1
  H  H25  1  0.000000  0.845156  0.308539  1
  H  H26  1  0.652082  0.500000  0.203442  1
  H  H27  1  0.347918  0.500000  0.203442  1
  H  H28  1  0.796558  0.347918  0.500000  1
  H  H29  1  0.203442  0.347918  0.500000  1
  H  H30  1  0.500000  0.796558  0.652082  1
  H  H31  1  0.500000  0.203442  0.347918  1
