# generated using pymatgen
data_Er16Zn3Co4Hg
_symmetry_space_group_name_H-M   'P 1'
_cell_length_a   9.28365471
_cell_length_b   9.27387422
_cell_length_c   9.27387400
_cell_angle_alpha   60.00000078
_cell_angle_beta   60.03484475
_cell_angle_gamma   60.03483627
_symmetry_Int_Tables_number   1
_chemical_formula_structural   Er16Zn3Co4Hg
_chemical_formula_sum   'Er16 Zn3 Co4 Hg1'
_cell_volume   564.87828688
_cell_formula_units_Z   1
loop_
 _symmetry_equiv_pos_site_id
 _symmetry_equiv_pos_as_xyz
  1  'x, y, z'
loop_
 _atom_site_type_symbol
 _atom_site_label
 _atom_site_symmetry_multiplicity
 _atom_site_fract_x
 _atom_site_fract_y
 _atom_site_fract_z
 _atom_site_occupancy
  Er  Er0  1  0.599611  0.598511  0.598511  1
  Er  Er1  1  0.599611  0.598511  0.203368  1
  Er  Er2  1  0.599611  0.203368  0.598511  1
  Er  Er3  1  0.197428  0.600858  0.600858  1
  Er  Er4  1  0.059343  0.440482  0.440482  1
  Er  Er5  1  0.439846  0.060618  0.060618  1
  Er  Er6  1  0.439846  0.060618  0.438918  1
  Er  Er7  1  0.059343  0.440482  0.059693  1
  Er  Er8  1  0.439846  0.438918  0.060618  1
  Er  Er9  1  0.059343  0.059693  0.440482  1
  Er  Er10  1  0.185840  0.811930  0.811930  1
  Er  Er11  1  0.811726  0.187447  0.187447  1
  Er  Er12  1  0.811726  0.187447  0.813380  1
  Er  Er13  1  0.185840  0.811930  0.190301  1
  Er  Er14  1  0.811726  0.813380  0.187447  1
  Er  Er15  1  0.185840  0.190301  0.811930  1
  Zn  Zn16  1  0.834456  0.827988  0.827988  1
  Zn  Zn17  1  0.834456  0.827988  0.509568  1
  Zn  Zn18  1  0.834456  0.509568  0.827988  1
  Co  Co19  1  0.389364  0.393016  0.393016  1
  Co  Co20  1  0.389364  0.393016  0.824606  1
  Co  Co21  1  0.389364  0.824606  0.393016  1
  Co  Co22  1  0.824974  0.391676  0.391676  1
  Hg  Hg23  1  0.517039  0.827654  0.827654  1
