# generated using pymatgen
data_Y2Lu2AlCo4
_symmetry_space_group_name_H-M   'P 1'
_cell_length_a   5.46250070
_cell_length_b   5.46250048
_cell_length_c   8.80795733
_cell_angle_alpha   71.57690886
_cell_angle_beta   71.57690816
_cell_angle_gamma   42.92248585
_symmetry_Int_Tables_number   1
_chemical_formula_structural   Y2Lu2AlCo4
_chemical_formula_sum   'Y2 Lu2 Al1 Co4'
_cell_volume   168.34713706
_cell_formula_units_Z   1
loop_
 _symmetry_equiv_pos_site_id
 _symmetry_equiv_pos_as_xyz
  1  'x, y, z'
loop_
 _atom_site_type_symbol
 _atom_site_label
 _atom_site_symmetry_multiplicity
 _atom_site_fract_x
 _atom_site_fract_y
 _atom_site_fract_z
 _atom_site_occupancy
  Y  Y0  1  0.746036  0.746036  0.665580  1
  Y  Y1  1  0.253964  0.253964  0.334420  1
  Lu  Lu2  1  0.391652  0.391652  0.888383  1
  Lu  Lu3  1  0.608348  0.608348  0.111617  1
  Al  Al4  1  0.500000  0.500000  0.500000  1
  Co  Co5  1  0.036720  0.036720  0.647854  1
  Co  Co6  1  0.963280  0.963280  0.352146  1
  Co  Co7  1  0.093375  0.093375  0.883794  1
  Co  Co8  1  0.906625  0.906625  0.116206  1
