# generated using pymatgen
data_Y3Er3Al24Os5Rh3
_symmetry_space_group_name_H-M   'P 1'
_cell_length_a   8.77178399
_cell_length_b   8.79409914
_cell_length_c   9.56685926
_cell_angle_alpha   90.00705118
_cell_angle_beta   89.81492623
_cell_angle_gamma   119.34739361
_symmetry_Int_Tables_number   1
_chemical_formula_structural   Y3Er3Al24Os5Rh3
_chemical_formula_sum   'Y3 Er3 Al24 Os5 Rh3'
_cell_volume   643.27250655
_cell_formula_units_Z   1
loop_
 _symmetry_equiv_pos_site_id
 _symmetry_equiv_pos_as_xyz
  1  'x, y, z'
loop_
 _atom_site_type_symbol
 _atom_site_label
 _atom_site_symmetry_multiplicity
 _atom_site_fract_x
 _atom_site_fract_y
 _atom_site_fract_z
 _atom_site_occupancy
  Y  Y0  1  0.186692  0.383104  0.251518  1
  Y  Y1  1  0.813363  0.617186  0.748451  1
  Y  Y2  1  0.615024  0.814718  0.251436  1
  Er  Er3  1  0.387401  0.185211  0.748336  1
  Er  Er4  1  0.196888  0.809372  0.252224  1
  Er  Er5  1  0.802819  0.190583  0.747749  1
  Al  Al6  1  0.333472  0.667949  0.024519  1
  Al  Al7  1  0.666511  0.332337  0.974808  1
  Al  Al8  1  0.667839  0.333015  0.523122  1
  Al  Al9  1  0.332508  0.667507  0.477464  1
  Al  Al10  1  0.162069  0.325577  0.577316  1
  Al  Al11  1  0.838112  0.674042  0.423307  1
  Al  Al12  1  0.672839  0.836633  0.576624  1
  Al  Al13  1  0.835858  0.674057  0.077093  1
  Al  Al14  1  0.326745  0.163392  0.424327  1
  Al  Al15  1  0.164337  0.325435  0.922238  1
  Al  Al16  1  0.163889  0.834300  0.575625  1
  Al  Al17  1  0.326450  0.162995  0.075935  1
  Al  Al18  1  0.835970  0.166202  0.425035  1
  Al  Al19  1  0.673290  0.837085  0.923121  1
  Al  Al20  1  0.833565  0.163182  0.075468  1
  Al  Al21  1  0.166329  0.837377  0.923804  1
  Al  Al22  1  0.561229  0.126310  0.249620  1
  Al  Al23  1  0.438542  0.873754  0.750466  1
  Al  Al24  1  0.875827  0.439778  0.250212  1
  Al  Al25  1  0.124266  0.560257  0.749875  1
  Al  Al26  1  0.560505  0.439998  0.249712  1
  Al  Al27  1  0.439460  0.559271  0.750394  1
  Al  Al28  1  0.000138  0.001241  0.250084  1
  Al  Al29  1  0.002383  0.000160  0.749913  1
  Os  Os30  1  0.499545  0.000968  0.998816  1
  Os  Os31  1  0.499495  0.001036  0.501310  1
  Os  Os32  1  0.999878  0.499943  0.500061  1
  Os  Os33  1  0.999611  0.999813  0.000002  1
  Os  Os34  1  0.999473  0.999796  0.500001  1
  Rh  Rh35  1  0.999167  0.499503  0.999856  1
  Rh  Rh36  1  0.499301  0.498489  0.999113  1
  Rh  Rh37  1  0.499211  0.498425  0.501042  1
