# generated using pymatgen
data_Eu2SnAu3
_symmetry_space_group_name_H-M   'P 1'
_cell_length_a   6.22876182
_cell_length_b   5.95837702
_cell_length_c   5.95837695
_cell_angle_alpha   132.61793237
_cell_angle_beta   105.16066017
_cell_angle_gamma   92.71399922
_symmetry_Int_Tables_number   1
_chemical_formula_structural   Eu2SnAu3
_chemical_formula_sum   'Eu2 Sn1 Au3'
_cell_volume   149.01930863
_cell_formula_units_Z   1
loop_
 _symmetry_equiv_pos_site_id
 _symmetry_equiv_pos_as_xyz
  1  'x, y, z'
loop_
 _atom_site_type_symbol
 _atom_site_label
 _atom_site_symmetry_multiplicity
 _atom_site_fract_x
 _atom_site_fract_y
 _atom_site_fract_z
 _atom_site_occupancy
  Eu  Eu0  1  0.197796  0.455563  0.742233  1
  Eu  Eu1  1  0.794856  0.543890  0.250966  1
  Sn  Sn2  1  0.388201  0.831446  0.556755  1
  Au  Au3  1  0.622727  0.160376  0.462350  1
  Au  Au4  1  0.204048  0.165967  0.038081  1
  Au  Au5  1  0.792372  0.842758  0.949614  1
