# generated using pymatgen
data_Zr10CuSn2GeSb4
_symmetry_space_group_name_H-M   'P 1'
_cell_length_a   8.67263755
_cell_length_b   8.68357529
_cell_length_c   5.87694164
_cell_angle_alpha   90.05371800
_cell_angle_beta   89.97310499
_cell_angle_gamma   120.04171842
_symmetry_Int_Tables_number   1
_chemical_formula_structural   Zr10CuSn2GeSb4
_chemical_formula_sum   'Zr10 Cu1 Sn2 Ge1 Sb4'
_cell_volume   383.13238840
_cell_formula_units_Z   1
loop_
 _symmetry_equiv_pos_site_id
 _symmetry_equiv_pos_as_xyz
  1  'x, y, z'
loop_
 _atom_site_type_symbol
 _atom_site_label
 _atom_site_symmetry_multiplicity
 _atom_site_fract_x
 _atom_site_fract_y
 _atom_site_fract_z
 _atom_site_occupancy
  Zr  Zr0  1  0.668046  0.334268  0.999110  1
  Zr  Zr1  1  0.331954  0.666224  0.999110  1
  Zr  Zr2  1  0.332154  0.666253  0.501103  1
  Zr  Zr3  1  0.667846  0.334098  0.501103  1
  Zr  Zr4  1  0.735120  0.734607  0.751001  1
  Zr  Zr5  1  0.264880  0.999487  0.751001  1
  Zr  Zr6  1  0.000000  0.266751  0.751300  1
  Zr  Zr7  1  0.262295  0.261942  0.249485  1
  Zr  Zr8  1  0.737705  0.999647  0.249485  1
  Zr  Zr9  1  0.000000  0.736871  0.249388  1
  Cu  Cu10  1  0.000000  0.001364  0.994331  1
  Sn  Sn11  1  0.386998  0.386960  0.751580  1
  Sn  Sn12  1  0.613002  0.999962  0.751580  1
  Ge  Ge13  1  0.000000  0.000609  0.504161  1
  Sb  Sb14  1  0.000000  0.612433  0.751665  1
  Sb  Sb15  1  0.608903  0.609489  0.248089  1
  Sb  Sb16  1  0.391097  0.000587  0.248089  1
  Sb  Sb17  1  0.000000  0.388447  0.248419  1
