# generated using pymatgen
data_Al(ZnPd2)5
_symmetry_space_group_name_H-M   'P 1'
_cell_length_a   4.15115700
_cell_length_b   5.43040760
_cell_length_c   10.52043099
_cell_angle_alpha   90.11183747
_cell_angle_beta   90.00000000
_cell_angle_gamma   90.00000000
_symmetry_Int_Tables_number   1
_chemical_formula_structural   Al(ZnPd2)5
_chemical_formula_sum   'Al1 Zn5 Pd10'
_cell_volume   237.15609562
_cell_formula_units_Z   1
loop_
 _symmetry_equiv_pos_site_id
 _symmetry_equiv_pos_as_xyz
  1  'x, y, z'
loop_
 _atom_site_type_symbol
 _atom_site_label
 _atom_site_symmetry_multiplicity
 _atom_site_fract_x
 _atom_site_fract_y
 _atom_site_fract_z
 _atom_site_occupancy
  Al  Al0  1  0.000000  0.500000  0.500000  1
  Zn  Zn1  1  0.000000  0.000000  0.000000  1
  Zn  Zn2  1  0.500000  0.160161  0.361184  1
  Zn  Zn3  1  0.500000  0.839839  0.638816  1
  Zn  Zn4  1  0.500000  0.666924  0.136500  1
  Zn  Zn5  1  0.500000  0.333076  0.863500  1
  Pd  Pd6  1  0.500000  0.182429  0.110389  1
  Pd  Pd7  1  0.500000  0.817571  0.889611  1
  Pd  Pd8  1  0.500000  0.677799  0.393012  1
  Pd  Pd9  1  0.500000  0.322201  0.606988  1
  Pd  Pd10  1  0.000000  0.000000  0.500000  1
  Pd  Pd11  1  0.000000  0.500000  0.000000  1
  Pd  Pd12  1  0.000000  0.893910  0.236664  1
  Pd  Pd13  1  0.000000  0.106090  0.763336  1
  Pd  Pd14  1  0.000000  0.395139  0.267310  1
  Pd  Pd15  1  0.000000  0.604861  0.732690  1
