# generated using pymatgen
data_La4N3
_symmetry_space_group_name_H-M   'P 1'
_cell_length_a   3.73100397
_cell_length_b   3.73100335
_cell_length_c   13.11759722
_cell_angle_alpha   80.34696713
_cell_angle_beta   80.34696617
_cell_angle_gamma   59.95545951
_symmetry_Int_Tables_number   1
_chemical_formula_structural   La4N3
_chemical_formula_sum   'La4 N3'
_cell_volume   155.07712493
_cell_formula_units_Z   1
loop_
 _symmetry_equiv_pos_site_id
 _symmetry_equiv_pos_as_xyz
  1  'x, y, z'
loop_
 _atom_site_type_symbol
 _atom_site_label
 _atom_site_symmetry_multiplicity
 _atom_site_fract_x
 _atom_site_fract_y
 _atom_site_fract_z
 _atom_site_occupancy
  La  La0  1  0.379896  0.379896  0.385952  1
  La  La1  1  0.620104  0.620104  0.614048  1
  La  La2  1  0.136649  0.136649  0.155562  1
  La  La3  1  0.863351  0.863351  0.844438  1
  N  N4  1  0.768212  0.768212  0.246702  1
  N  N5  1  0.231788  0.231788  0.753298  1
  N  N6  1  0.000000  0.000000  0.500000  1
