# generated using pymatgen
data_Tb7Ho3Si5Ge
_symmetry_space_group_name_H-M   'P 1'
_cell_length_a   8.49040300
_cell_length_b   8.49349506
_cell_length_c   6.38816800
_cell_angle_alpha   89.99987152
_cell_angle_beta   89.99912188
_cell_angle_gamma   119.98838143
_symmetry_Int_Tables_number   1
_chemical_formula_structural   Tb7Ho3Si5Ge
_chemical_formula_sum   'Tb7 Ho3 Si5 Ge1'
_cell_volume   398.99967081
_cell_formula_units_Z   1
loop_
 _symmetry_equiv_pos_site_id
 _symmetry_equiv_pos_as_xyz
  1  'x, y, z'
loop_
 _atom_site_type_symbol
 _atom_site_label
 _atom_site_symmetry_multiplicity
 _atom_site_fract_x
 _atom_site_fract_y
 _atom_site_fract_z
 _atom_site_occupancy
  Tb  Tb0  1  0.333074  0.665225  0.499209  1
  Tb  Tb1  1  0.243461  0.000157  0.249714  1
  Tb  Tb2  1  0.243751  0.245089  0.750246  1
  Tb  Tb3  1  0.998278  0.754686  0.750222  1
  Tb  Tb4  1  0.999628  0.243674  0.249706  1
  Tb  Tb5  1  0.756110  0.756102  0.249714  1
  Tb  Tb6  1  0.757371  0.000153  0.750233  1
  Ho  Ho7  1  0.333074  0.665156  0.000784  1
  Ho  Ho8  1  0.667877  0.334782  0.499172  1
  Ho  Ho9  1  0.667867  0.334756  0.000747  1
  Si  Si10  1  0.606037  0.000619  0.249304  1
  Si  Si11  1  0.605790  0.605284  0.750661  1
  Si  Si12  1  0.999197  0.394031  0.750651  1
  Si  Si13  1  0.999503  0.605446  0.249301  1
  Si  Si14  1  0.394684  0.393865  0.249279  1
  Ge  Ge15  1  0.394296  0.000976  0.751056  1
