# generated using pymatgen
data_Tb4Fe(NiO4)3
_symmetry_space_group_name_H-M   'P 1'
_cell_length_a   5.25471180
_cell_length_b   5.67122049
_cell_length_c   7.55345396
_cell_angle_alpha   90.39388178
_cell_angle_beta   90.13871377
_cell_angle_gamma   90.05158155
_symmetry_Int_Tables_number   1
_chemical_formula_structural   Tb4Fe(NiO4)3
_chemical_formula_sum   'Tb4 Fe1 Ni3 O12'
_cell_volume   225.09160748
_cell_formula_units_Z   1
loop_
 _symmetry_equiv_pos_site_id
 _symmetry_equiv_pos_as_xyz
  1  'x, y, z'
loop_
 _atom_site_type_symbol
 _atom_site_label
 _atom_site_symmetry_multiplicity
 _atom_site_fract_x
 _atom_site_fract_y
 _atom_site_fract_z
 _atom_site_occupancy
  Tb  Tb0  1  0.478949  0.420177  0.744735  1
  Tb  Tb1  1  0.020056  0.926134  0.744788  1
  Tb  Tb2  1  0.521051  0.579823  0.255265  1
  Tb  Tb3  1  0.979944  0.073866  0.255212  1
  Fe  Fe4  1  0.000000  0.500000  0.000000  1
  Ni  Ni5  1  0.500000  0.000000  0.500000  1
  Ni  Ni6  1  0.000000  0.500000  0.500000  1
  Ni  Ni7  1  0.500000  0.000000  0.000000  1
  O  O8  1  0.700197  0.311654  0.447919  1
  O  O9  1  0.807879  0.800809  0.055227  1
  O  O10  1  0.299803  0.688346  0.552081  1
  O  O11  1  0.192121  0.199191  0.944773  1
  O  O12  1  0.195854  0.192073  0.550830  1
  O  O13  1  0.296787  0.686373  0.947477  1
  O  O14  1  0.804146  0.807927  0.449170  1
  O  O15  1  0.703213  0.313627  0.052523  1
  O  O16  1  0.105921  0.467859  0.249046  1
  O  O17  1  0.395718  0.969499  0.251373  1
  O  O18  1  0.894079  0.532141  0.750954  1
  O  O19  1  0.604282  0.030501  0.748627  1
