# generated using pymatgen
data_Pr3EuTh2(Co3P2)6
_symmetry_space_group_name_H-M   'P 1'
_cell_length_a   3.79156200
_cell_length_b   10.67477207
_cell_length_c   12.40184109
_cell_angle_alpha   90.01358570
_cell_angle_beta   90.00000000
_cell_angle_gamma   90.00000000
_symmetry_Int_Tables_number   1
_chemical_formula_structural   Pr3EuTh2(Co3P2)6
_chemical_formula_sum   'Pr3 Eu1 Th2 Co18 P12'
_cell_volume   501.95284812
_cell_formula_units_Z   1
loop_
 _symmetry_equiv_pos_site_id
 _symmetry_equiv_pos_as_xyz
  1  'x, y, z'
loop_
 _atom_site_type_symbol
 _atom_site_label
 _atom_site_symmetry_multiplicity
 _atom_site_fract_x
 _atom_site_fract_y
 _atom_site_fract_z
 _atom_site_occupancy
  Pr  Pr0  1  0.500000  0.183563  0.205589  1
  Pr  Pr1  1  0.000000  0.684361  0.794319  1
  Pr  Pr2  1  0.000000  0.315607  0.794693  1
  Eu  Eu3  1  0.500000  0.816345  0.205367  1
  Th  Th4  1  0.000000  0.499652  0.523390  1
  Th  Th5  1  0.500000  0.999954  0.476070  1
  Co  Co6  1  0.500000  0.499998  0.155836  1
  Co  Co7  1  0.000000  0.000169  0.843689  1
  Co  Co8  1  0.500000  0.500281  0.699732  1
  Co  Co9  1  0.000000  0.999357  0.300415  1
  Co  Co10  1  0.000000  0.500824  0.987412  1
  Co  Co11  1  0.500000  0.999620  0.013666  1
  Co  Co12  1  0.500000  0.334010  0.996091  1
  Co  Co13  1  0.500000  0.666471  0.996252  1
  Co  Co14  1  0.000000  0.165504  0.004374  1
  Co  Co15  1  0.000000  0.833619  0.004100  1
  Co  Co16  1  0.500000  0.299566  0.430584  1
  Co  Co17  1  0.500000  0.700575  0.430046  1
  Co  Co18  1  0.000000  0.200387  0.569432  1
  Co  Co19  1  0.000000  0.799864  0.569144  1
  Co  Co20  1  0.500000  0.882597  0.711075  1
  Co  Co21  1  0.500000  0.117434  0.711218  1
  Co  Co22  1  0.000000  0.617338  0.288780  1
  Co  Co23  1  0.000000  0.382344  0.288838  1
  P  P24  1  0.500000  0.500350  0.886055  1
  P  P25  1  0.000000  0.997964  0.115198  1
  P  P26  1  0.500000  0.500486  0.337555  1
  P  P27  1  0.000000  0.999971  0.661822  1
  P  P28  1  0.500000  0.303978  0.614063  1
  P  P29  1  0.500000  0.696441  0.613537  1
  P  P30  1  0.000000  0.195957  0.385909  1
  P  P31  1  0.000000  0.803681  0.383649  1
  P  P32  1  0.500000  0.848931  0.897071  1
  P  P33  1  0.500000  0.150758  0.897243  1
  P  P34  1  0.000000  0.653085  0.104647  1
  P  P35  1  0.000000  0.348959  0.103140  1
