# generated using pymatgen
data_Lu12Fe2ReBi2
_symmetry_space_group_name_H-M   'P 1'
_cell_length_a   8.28568224
_cell_length_b   8.28568244
_cell_length_c   8.28568142
_cell_angle_alpha   108.38135206
_cell_angle_beta   108.38136080
_cell_angle_gamma   111.67365203
_symmetry_Int_Tables_number   1
_chemical_formula_structural   Lu12Fe2ReBi2
_chemical_formula_sum   'Lu12 Fe2 Re1 Bi2'
_cell_volume   437.40051933
_cell_formula_units_Z   1
loop_
 _symmetry_equiv_pos_site_id
 _symmetry_equiv_pos_as_xyz
  1  'x, y, z'
loop_
 _atom_site_type_symbol
 _atom_site_label
 _atom_site_symmetry_multiplicity
 _atom_site_fract_x
 _atom_site_fract_y
 _atom_site_fract_z
 _atom_site_occupancy
  Lu  Lu0  1  0.308873  0.308873  0.617747  1
  Lu  Lu1  1  0.691127  0.691127  0.382253  1
  Lu  Lu2  1  0.691127  0.308873  0.000000  1
  Lu  Lu3  1  0.308873  0.691127  0.000000  1
  Lu  Lu4  1  0.195321  0.427874  0.232553  1
  Lu  Lu5  1  0.804679  0.572126  0.767447  1
  Lu  Lu6  1  0.195321  0.962769  0.767447  1
  Lu  Lu7  1  0.962769  0.195321  0.767447  1
  Lu  Lu8  1  0.804679  0.037231  0.232553  1
  Lu  Lu9  1  0.037231  0.804679  0.232553  1
  Lu  Lu10  1  0.427874  0.195321  0.232553  1
  Lu  Lu11  1  0.572126  0.804679  0.767447  1
  Fe  Fe12  1  0.383855  0.383855  0.000000  1
  Fe  Fe13  1  0.616145  0.616145  0.000000  1
  Re  Re14  1  0.000000  0.000000  0.000000  1
  Bi  Bi15  1  0.000000  0.500000  0.500000  1
  Bi  Bi16  1  0.500000  0.000000  0.500000  1
