# generated using pymatgen
data_Tm2Hf9Ta9Si16
_symmetry_space_group_name_H-M   'P 1'
_cell_length_a   6.91271746
_cell_length_b   6.90501387
_cell_length_c   12.73047000
_cell_angle_alpha   90.06745207
_cell_angle_beta   89.81389889
_cell_angle_gamma   89.99112485
_symmetry_Int_Tables_number   1
_chemical_formula_structural   Tm2Hf9Ta9Si16
_chemical_formula_sum   'Tm2 Hf9 Ta9 Si16'
_cell_volume   607.65237923
_cell_formula_units_Z   1
loop_
 _symmetry_equiv_pos_site_id
 _symmetry_equiv_pos_as_xyz
  1  'x, y, z'
loop_
 _atom_site_type_symbol
 _atom_site_label
 _atom_site_symmetry_multiplicity
 _atom_site_fract_x
 _atom_site_fract_y
 _atom_site_fract_z
 _atom_site_occupancy
  Tm  Tm0  1  0.496823  0.838429  0.718384  1
  Tm  Tm1  1  0.338556  0.004653  0.467973  1
  Hf  Hf2  1  0.502807  0.350634  0.623115  1
  Hf  Hf3  1  0.501211  0.648735  0.124002  1
  Hf  Hf4  1  0.147417  0.000528  0.875509  1
  Hf  Hf5  1  0.000955  0.655809  0.032356  1
  Hf  Hf6  1  0.996012  0.344883  0.528842  1
  Hf  Hf7  1  0.660759  0.999510  0.969698  1
  Hf  Hf8  1  0.152268  0.497786  0.781489  1
  Hf  Hf9  1  0.843623  0.501349  0.279816  1
  Hf  Hf10  1  0.501174  0.159732  0.219697  1
  Ta  Ta11  1  0.349613  0.506603  0.373858  1
  Ta  Ta12  1  0.852619  0.998403  0.372388  1
  Ta  Ta13  1  0.005700  0.151356  0.125760  1
  Ta  Ta14  1  0.993269  0.848016  0.627438  1
  Ta  Ta15  1  0.653535  0.491581  0.877786  1
  Ta  Ta16  1  0.673568  0.670613  0.498263  1
  Ta  Ta17  1  0.829046  0.171872  0.751177  1
  Ta  Ta18  1  0.171746  0.831424  0.250316  1
  Ta  Ta19  1  0.330100  0.327436  0.001689  1
  Si  Si20  1  0.042430  0.700085  0.435290  1
  Si  Si21  1  0.955988  0.301655  0.936941  1
  Si  Si22  1  0.704787  0.045367  0.562724  1
  Si  Si23  1  0.199051  0.455369  0.185773  1
  Si  Si24  1  0.801338  0.544360  0.685892  1
  Si  Si25  1  0.454965  0.200947  0.816070  1
  Si  Si26  1  0.549507  0.801393  0.314437  1
  Si  Si27  1  0.302605  0.955654  0.065634  1
  Si  Si28  1  0.858863  0.788518  0.823656  1
  Si  Si29  1  0.135967  0.212249  0.321170  1
  Si  Si30  1  0.798571  0.863392  0.177680  1
  Si  Si31  1  0.285865  0.636490  0.570373  1
  Si  Si32  1  0.709938  0.356280  0.073211  1
  Si  Si33  1  0.640931  0.296702  0.424805  1
  Si  Si34  1  0.360972  0.699795  0.928237  1
  Si  Si35  1  0.197422  0.142389  0.678547  1
