# generated using pymatgen
data_CaNd7(GePd)8
_symmetry_space_group_name_H-M   'P 1'
_cell_length_a   4.48081000
_cell_length_b   7.76436431
_cell_length_c   14.53707966
_cell_angle_alpha   90.08479326
_cell_angle_beta   90.00000000
_cell_angle_gamma   90.00000000
_symmetry_Int_Tables_number   1
_chemical_formula_structural   CaNd7(GePd)8
_chemical_formula_sum   'Ca1 Nd7 Ge8 Pd8'
_cell_volume   505.75376894
_cell_formula_units_Z   1
loop_
 _symmetry_equiv_pos_site_id
 _symmetry_equiv_pos_as_xyz
  1  'x, y, z'
loop_
 _atom_site_type_symbol
 _atom_site_label
 _atom_site_symmetry_multiplicity
 _atom_site_fract_x
 _atom_site_fract_y
 _atom_site_fract_z
 _atom_site_occupancy
  Ca  Ca0  1  0.500000  0.787444  0.251081  1
  Nd  Nd1  1  0.000000  0.213178  0.751187  1
  Nd  Nd2  1  0.000000  0.206562  0.248770  1
  Nd  Nd3  1  0.500000  0.786718  0.748696  1
  Nd  Nd4  1  0.000000  0.289054  0.499521  1
  Nd  Nd5  1  0.500000  0.711571  0.002378  1
  Nd  Nd6  1  0.000000  0.297707  0.000787  1
  Nd  Nd7  1  0.500000  0.703576  0.497653  1
  Ge  Ge8  1  0.000000  0.591462  0.857060  1
  Ge  Ge9  1  0.000000  0.592941  0.143506  1
  Ge  Ge10  1  0.500000  0.409685  0.643482  1
  Ge  Ge11  1  0.500000  0.409013  0.354623  1
  Ge  Ge12  1  0.000000  0.911106  0.403983  1
  Ge  Ge13  1  0.000000  0.910464  0.594684  1
  Ge  Ge14  1  0.500000  0.089442  0.096101  1
  Ge  Ge15  1  0.500000  0.089522  0.905414  1
  Pd  Pd16  1  0.000000  0.923051  0.892104  1
  Pd  Pd17  1  0.000000  0.921230  0.108421  1
  Pd  Pd18  1  0.500000  0.078022  0.608056  1
  Pd  Pd19  1  0.500000  0.078266  0.391239  1
  Pd  Pd20  1  0.000000  0.579593  0.344552  1
  Pd  Pd21  1  0.000000  0.581041  0.653051  1
  Pd  Pd22  1  0.500000  0.419390  0.157768  1
  Pd  Pd23  1  0.500000  0.419961  0.845886  1
