# generated using pymatgen
data_PrTm2Th3Si4
_symmetry_space_group_name_H-M   'P 1'
_cell_length_a   7.60517357
_cell_length_b   7.60517422
_cell_length_c   4.29431700
_cell_angle_alpha   90.00000000
_cell_angle_beta   90.00000000
_cell_angle_gamma   90.29119900
_symmetry_Int_Tables_number   1
_chemical_formula_structural   PrTm2Th3Si4
_chemical_formula_sum   'Pr1 Tm2 Th3 Si4'
_cell_volume   248.37437572
_cell_formula_units_Z   1
loop_
 _symmetry_equiv_pos_site_id
 _symmetry_equiv_pos_as_xyz
  1  'x, y, z'
loop_
 _atom_site_type_symbol
 _atom_site_label
 _atom_site_symmetry_multiplicity
 _atom_site_fract_x
 _atom_site_fract_y
 _atom_site_fract_z
 _atom_site_occupancy
  Pr  Pr0  1  0.822795  0.677205  0.500000  1
  Tm  Tm1  1  0.999079  0.000574  0.000000  1
  Tm  Tm2  1  0.499426  0.500921  0.000000  1
  Th  Th3  1  0.677915  0.179000  0.500000  1
  Th  Th4  1  0.321000  0.822085  0.500000  1
  Th  Th5  1  0.178620  0.321380  0.500000  1
  Si  Si6  1  0.120527  0.615552  0.000000  1
  Si  Si7  1  0.884448  0.379473  0.000000  1
  Si  Si8  1  0.614529  0.885471  0.000000  1
  Si  Si9  1  0.381660  0.118340  0.000000  1
