# generated using pymatgen
data_Eu10Ir3Pt
_symmetry_space_group_name_H-M   'P 1'
_cell_length_a   8.87763585
_cell_length_b   8.85693275
_cell_length_c   7.93982900
_cell_angle_alpha   82.87106746
_cell_angle_beta   82.98353334
_cell_angle_gamma   44.17680672
_symmetry_Int_Tables_number   1
_chemical_formula_structural   Eu10Ir3Pt
_chemical_formula_sum   'Eu10 Ir3 Pt1'
_cell_volume   431.19786099
_cell_formula_units_Z   1
loop_
 _symmetry_equiv_pos_site_id
 _symmetry_equiv_pos_as_xyz
  1  'x, y, z'
loop_
 _atom_site_type_symbol
 _atom_site_label
 _atom_site_symmetry_multiplicity
 _atom_site_fract_x
 _atom_site_fract_y
 _atom_site_fract_z
 _atom_site_occupancy
  Eu  Eu0  1  0.032713  0.792321  0.916785  1
  Eu  Eu1  1  0.202199  0.976307  0.582268  1
  Eu  Eu2  1  0.978542  0.202768  0.081855  1
  Eu  Eu3  1  0.800260  0.024444  0.422903  1
  Eu  Eu4  1  0.362681  0.199729  0.818092  1
  Eu  Eu5  1  0.797368  0.636284  0.677356  1
  Eu  Eu6  1  0.634839  0.795682  0.176828  1
  Eu  Eu7  1  0.195775  0.367410  0.326873  1
  Eu  Eu8  1  0.577545  0.425430  0.744909  1
  Eu  Eu9  1  0.421581  0.579785  0.253487  1
  Ir  Ir10  1  0.179428  0.600439  0.584349  1
  Ir  Ir11  1  0.397051  0.821087  0.916959  1
  Ir  Ir12  1  0.821461  0.397538  0.415162  1
  Pt  Pt13  1  0.598559  0.180775  0.082172  1
