# generated using pymatgen
data_Dy5HoBi2(AuO5)4
_symmetry_space_group_name_H-M   'P 1'
_cell_length_a   8.53862927
_cell_length_b   8.53770868
_cell_length_c   5.72066899
_cell_angle_alpha   88.86921317
_cell_angle_beta   91.14121089
_cell_angle_gamma   89.94227406
_symmetry_Int_Tables_number   1
_chemical_formula_structural   Dy5HoBi2(AuO5)4
_chemical_formula_sum   'Dy5 Ho1 Bi2 Au4 O20'
_cell_volume   416.87432047
_cell_formula_units_Z   1
loop_
 _symmetry_equiv_pos_site_id
 _symmetry_equiv_pos_as_xyz
  1  'x, y, z'
loop_
 _atom_site_type_symbol
 _atom_site_label
 _atom_site_symmetry_multiplicity
 _atom_site_fract_x
 _atom_site_fract_y
 _atom_site_fract_z
 _atom_site_occupancy
  Dy  Dy0  1  0.353755  0.656052  0.247331  1
  Dy  Dy1  1  0.844319  0.145712  0.747442  1
  Dy  Dy2  1  0.651877  0.651788  0.749943  1
  Dy  Dy3  1  0.655794  0.354096  0.252585  1
  Dy  Dy4  1  0.848427  0.848086  0.249811  1
  Ho  Ho5  1  0.145602  0.843956  0.752544  1
  Bi  Bi6  1  0.358481  0.358561  0.750180  1
  Bi  Bi7  1  0.141640  0.141179  0.250190  1
  Au  Au8  1  0.496517  0.999827  0.408394  1
  Au  Au9  1  0.499770  0.003550  0.908206  1
  Au  Au10  1  0.000120  0.496386  0.091596  1
  Au  Au11  1  0.003565  0.500293  0.591726  1
  O  O12  1  0.106760  0.289290  0.599248  1
  O  O13  1  0.910701  0.279237  0.111022  1
  O  O14  1  0.908983  0.717016  0.609924  1
  O  O15  1  0.716334  0.908369  0.890794  1
  O  O16  1  0.220277  0.590415  0.610957  1
  O  O17  1  0.403962  0.788518  0.893646  1
  O  O18  1  0.393354  0.210795  0.400596  1
  O  O19  1  0.783554  0.591475  0.109391  1
  O  O20  1  0.279366  0.910313  0.390756  1
  O  O21  1  0.589525  0.220554  0.889225  1
  O  O22  1  0.493757  0.499494  0.998231  1
  O  O23  1  0.499000  0.493670  0.501796  1
  O  O24  1  0.788082  0.405428  0.605949  1
  O  O25  1  0.094690  0.712045  0.104239  1
  O  O26  1  0.288928  0.106709  0.900491  1
  O  O27  1  0.591653  0.783257  0.390529  1
  O  O28  1  0.211064  0.393309  0.099393  1
  O  O29  1  0.006911  0.000243  0.001164  1
  O  O30  1  0.001189  0.005784  0.498834  1
  O  O31  1  0.712042  0.094593  0.393868  1
