# generated using pymatgen
data_ThU(AlC)6
_symmetry_space_group_name_H-M   'P 1'
_cell_length_a   3.41902200
_cell_length_b   3.41902208
_cell_length_c   17.66031100
_cell_angle_alpha   90.00000000
_cell_angle_beta   90.00000000
_cell_angle_gamma   119.99999923
_symmetry_Int_Tables_number   1
_chemical_formula_structural   ThU(AlC)6
_chemical_formula_sum   'Th1 U1 Al6 C6'
_cell_volume   178.78570159
_cell_formula_units_Z   1
loop_
 _symmetry_equiv_pos_site_id
 _symmetry_equiv_pos_as_xyz
  1  'x, y, z'
loop_
 _atom_site_type_symbol
 _atom_site_label
 _atom_site_symmetry_multiplicity
 _atom_site_fract_x
 _atom_site_fract_y
 _atom_site_fract_z
 _atom_site_occupancy
  Th  Th0  1  0.000000  0.000000  0.003155  1
  U  U1  1  0.000000  0.000000  0.503115  1
  Al  Al2  1  0.333333  0.666667  0.142246  1
  Al  Al3  1  0.666667  0.333333  0.864170  1
  Al  Al4  1  0.666667  0.333333  0.635586  1
  Al  Al5  1  0.333333  0.666667  0.758588  1
  Al  Al6  1  0.333333  0.666667  0.370848  1
  Al  Al7  1  0.666667  0.333333  0.248759  1
  C  C8  1  0.333333  0.666667  0.591087  1
  C  C9  1  0.666667  0.333333  0.414789  1
  C  C10  1  0.333333  0.666667  0.896182  1
  C  C11  1  0.666667  0.333333  0.109669  1
  C  C12  1  0.666667  0.333333  0.748173  1
  C  C13  1  0.333333  0.666667  0.258234  1
