# generated using pymatgen
data_Ca3Sm(ReB4)4
_symmetry_space_group_name_H-M   'P 1'
_cell_length_a   3.59826400
_cell_length_b   6.03086541
_cell_length_c   11.66308680
_cell_angle_alpha   90.04245577
_cell_angle_beta   90.00000000
_cell_angle_gamma   90.00000000
_symmetry_Int_Tables_number   1
_chemical_formula_structural   Ca3Sm(ReB4)4
_chemical_formula_sum   'Ca3 Sm1 Re4 B16'
_cell_volume   253.09644736
_cell_formula_units_Z   1
loop_
 _symmetry_equiv_pos_site_id
 _symmetry_equiv_pos_as_xyz
  1  'x, y, z'
loop_
 _atom_site_type_symbol
 _atom_site_label
 _atom_site_symmetry_multiplicity
 _atom_site_fract_x
 _atom_site_fract_y
 _atom_site_fract_z
 _atom_site_occupancy
  Ca  Ca0  1  0.500000  0.374314  0.148775  1
  Ca  Ca1  1  0.500000  0.626081  0.850011  1
  Ca  Ca2  1  0.500000  0.126458  0.651535  1
  Sm  Sm3  1  0.500000  0.873159  0.349058  1
  Re  Re4  1  0.500000  0.371568  0.415533  1
  Re  Re5  1  0.500000  0.630373  0.583867  1
  Re  Re6  1  0.500000  0.130187  0.916364  1
  Re  Re7  1  0.500000  0.871169  0.083325  1
  B  B8  1  0.000000  0.114342  0.047032  1
  B  B9  1  0.000000  0.885529  0.952778  1
  B  B10  1  0.000000  0.385123  0.548026  1
  B  B11  1  0.000000  0.611212  0.453753  1
  B  B12  1  0.000000  0.137277  0.468705  1
  B  B13  1  0.000000  0.862817  0.532990  1
  B  B14  1  0.000000  0.364249  0.967580  1
  B  B15  1  0.000000  0.635166  0.031775  1
  B  B16  1  0.000000  0.025810  0.190848  1
  B  B17  1  0.000000  0.975542  0.807999  1
  B  B18  1  0.000000  0.475686  0.692270  1
  B  B19  1  0.000000  0.523998  0.308101  1
  B  B20  1  0.000000  0.218429  0.315280  1
  B  B21  1  0.000000  0.782164  0.685392  1
  B  B22  1  0.000000  0.283056  0.815380  1
  B  B23  1  0.000000  0.716289  0.183625  1
