# generated using pymatgen
data_TbHo10TmCo4
_symmetry_space_group_name_H-M   'P 1'
_cell_length_a   6.16579384
_cell_length_b   6.92113555
_cell_length_c   9.39371267
_cell_angle_alpha   90.02729423
_cell_angle_beta   89.78531640
_cell_angle_gamma   89.95099390
_symmetry_Int_Tables_number   1
_chemical_formula_structural   TbHo10TmCo4
_chemical_formula_sum   'Tb1 Ho10 Tm1 Co4'
_cell_volume   400.86705871
_cell_formula_units_Z   1
loop_
 _symmetry_equiv_pos_site_id
 _symmetry_equiv_pos_as_xyz
  1  'x, y, z'
loop_
 _atom_site_type_symbol
 _atom_site_label
 _atom_site_symmetry_multiplicity
 _atom_site_fract_x
 _atom_site_fract_y
 _atom_site_fract_z
 _atom_site_occupancy
  Tb  Tb0  1  0.358563  0.958798  0.750342  1
  Ho  Ho1  1  0.174835  0.175701  0.431694  1
  Ho  Ho2  1  0.674689  0.324837  0.568629  1
  Ho  Ho3  1  0.825264  0.824242  0.933868  1
  Ho  Ho4  1  0.675932  0.324303  0.933485  1
  Ho  Ho5  1  0.823798  0.823761  0.568232  1
  Ho  Ho6  1  0.323647  0.674650  0.430030  1
  Ho  Ho7  1  0.176560  0.176568  0.067977  1
  Ho  Ho8  1  0.858472  0.542438  0.249673  1
  Ho  Ho9  1  0.641484  0.041888  0.250281  1
  Ho  Ho10  1  0.140484  0.458393  0.750134  1
  Tm  Tm11  1  0.325321  0.674994  0.067087  1
  Co  Co12  1  0.051469  0.885346  0.248333  1
  Co  Co13  1  0.451098  0.385568  0.247416  1
  Co  Co14  1  0.947981  0.114625  0.748995  1
  Co  Co15  1  0.550398  0.613889  0.753823  1
