# generated using pymatgen
data_Ti8Si6MoWN2
_symmetry_space_group_name_H-M   'P 1'
_cell_length_a   7.40209100
_cell_length_b   7.40209138
_cell_length_c   5.16538200
_cell_angle_alpha   90.00000000
_cell_angle_beta   90.00000000
_cell_angle_gamma   120.00000276
_symmetry_Int_Tables_number   1
_chemical_formula_structural   Ti8Si6MoWN2
_chemical_formula_sum   'Ti8 Si6 Mo1 W1 N2'
_cell_volume   245.09921862
_cell_formula_units_Z   1
loop_
 _symmetry_equiv_pos_site_id
 _symmetry_equiv_pos_as_xyz
  1  'x, y, z'
loop_
 _atom_site_type_symbol
 _atom_site_label
 _atom_site_symmetry_multiplicity
 _atom_site_fract_x
 _atom_site_fract_y
 _atom_site_fract_z
 _atom_site_occupancy
  Ti  Ti0  1  0.666667  0.333333  0.500000  1
  Ti  Ti1  1  0.333333  0.666667  0.500000  1
  Ti  Ti2  1  0.227968  0.999302  0.250070  1
  Ti  Ti3  1  0.771334  0.999302  0.749930  1
  Ti  Ti4  1  0.000698  0.228666  0.250070  1
  Ti  Ti5  1  0.000698  0.772032  0.749930  1
  Ti  Ti6  1  0.771334  0.772032  0.250070  1
  Ti  Ti7  1  0.227968  0.228666  0.749930  1
  Si  Si8  1  0.591213  0.000472  0.244241  1
  Si  Si9  1  0.409258  0.000472  0.755759  1
  Si  Si10  1  0.999528  0.590742  0.244241  1
  Si  Si11  1  0.999528  0.408787  0.755759  1
  Si  Si12  1  0.409258  0.408787  0.244241  1
  Si  Si13  1  0.591213  0.590742  0.755759  1
  Mo  Mo14  1  0.666667  0.333333  0.000000  1
  W  W15  1  0.333333  0.666667  0.000000  1
  N  N16  1  0.000000  0.000000  0.000000  1
  N  N17  1  0.000000  0.000000  0.500000  1
