# generated using pymatgen
data_Y4Zn8InHg3
_symmetry_space_group_name_H-M   'P 1'
_cell_length_a   4.46377900
_cell_length_b   7.11044084
_cell_length_c   10.20570184
_cell_angle_alpha   90.16114089
_cell_angle_beta   90.00000000
_cell_angle_gamma   90.00000000
_symmetry_Int_Tables_number   1
_chemical_formula_structural   Y4Zn8InHg3
_chemical_formula_sum   'Y4 Zn8 In1 Hg3'
_cell_volume   323.92194458
_cell_formula_units_Z   1
loop_
 _symmetry_equiv_pos_site_id
 _symmetry_equiv_pos_as_xyz
  1  'x, y, z'
loop_
 _atom_site_type_symbol
 _atom_site_label
 _atom_site_symmetry_multiplicity
 _atom_site_fract_x
 _atom_site_fract_y
 _atom_site_fract_z
 _atom_site_occupancy
  Y  Y0  1  0.250000  0.299544  0.672670  1
  Y  Y1  1  0.750000  0.701548  0.325012  1
  Y  Y2  1  0.250000  0.794894  0.833831  1
  Y  Y3  1  0.750000  0.203573  0.168683  1
  Zn  Zn4  1  0.750000  0.313739  0.460509  1
  Zn  Zn5  1  0.250000  0.690671  0.539680  1
  Zn  Zn6  1  0.750000  0.813267  0.037961  1
  Zn  Zn7  1  0.250000  0.187466  0.962338  1
  Zn  Zn8  1  0.750000  0.582759  0.641651  1
  Zn  Zn9  1  0.250000  0.416387  0.359155  1
  Zn  Zn10  1  0.750000  0.083386  0.857796  1
  Zn  Zn11  1  0.250000  0.914326  0.143206  1
  In  In12  1  0.750000  0.969226  0.601286  1
  Hg  Hg13  1  0.250000  0.528740  0.105259  1
  Hg  Hg14  1  0.750000  0.468654  0.895797  1
  Hg  Hg15  1  0.250000  0.031818  0.395168  1
