# generated using pymatgen
data_Ba4IrO7
_symmetry_space_group_name_H-M   'P 1'
_cell_length_a   6.18457700
_cell_length_b   7.41487166
_cell_length_c   9.65418377
_cell_angle_alpha   103.07498995
_cell_angle_beta   90.00000000
_cell_angle_gamma   90.00000000
_symmetry_Int_Tables_number   1
_chemical_formula_structural   Ba4IrO7
_chemical_formula_sum   'Ba8 Ir2 O14'
_cell_volume   431.24245834
_cell_formula_units_Z   2
loop_
 _symmetry_equiv_pos_site_id
 _symmetry_equiv_pos_as_xyz
  1  'x, y, z'
loop_
 _atom_site_type_symbol
 _atom_site_label
 _atom_site_symmetry_multiplicity
 _atom_site_fract_x
 _atom_site_fract_y
 _atom_site_fract_z
 _atom_site_occupancy
  Ba  Ba0  1  0.181927  0.626891  0.084121  1
  Ba  Ba1  1  0.681927  0.373109  0.915879  1
  Ba  Ba2  1  0.649451  0.012460  0.139354  1
  Ba  Ba3  1  0.149451  0.987540  0.860646  1
  Ba  Ba4  1  0.183753  0.912786  0.437096  1
  Ba  Ba5  1  0.683753  0.087214  0.562904  1
  Ba  Ba6  1  0.156489  0.478136  0.619023  1
  Ba  Ba7  1  0.656489  0.521864  0.380977  1
  Ir  Ir8  1  0.158867  0.264216  0.244121  1
  Ir  Ir9  1  0.658867  0.735784  0.755879  1
  O  O10  1  0.398739  0.319883  0.119424  1
  O  O11  1  0.898739  0.680117  0.880576  1
  O  O12  1  0.953485  0.305682  0.097040  1
  O  O13  1  0.453485  0.694318  0.902960  1
  O  O14  1  0.922982  0.207142  0.362587  1
  O  O15  1  0.422982  0.792858  0.637413  1
  O  O16  1  0.371823  0.234275  0.387457  1
  O  O17  1  0.871823  0.765725  0.612543  1
  O  O18  1  0.132234  0.531749  0.336826  1
  O  O19  1  0.632234  0.468251  0.663174  1
  O  O20  1  0.172132  0.997065  0.155121  1
  O  O21  1  0.672132  0.002935  0.844879  1
  O  O22  1  0.072389  0.173743  0.679177  1
  O  O23  1  0.572389  0.826257  0.320823  1
