# generated using pymatgen
data_DyY3(ErGa5)2
_symmetry_space_group_name_H-M   'P 1'
_cell_length_a   6.09427200
_cell_length_b   9.61864801
_cell_length_c   11.54366800
_cell_angle_alpha   90.00000000
_cell_angle_beta   90.00000000
_cell_angle_gamma   90.00415636
_symmetry_Int_Tables_number   1
_chemical_formula_structural   DyY3(ErGa5)2
_chemical_formula_sum   'Dy2 Y6 Er4 Ga20'
_cell_volume   676.67431625
_cell_formula_units_Z   2
loop_
 _symmetry_equiv_pos_site_id
 _symmetry_equiv_pos_as_xyz
  1  'x, y, z'
loop_
 _atom_site_type_symbol
 _atom_site_label
 _atom_site_symmetry_multiplicity
 _atom_site_fract_x
 _atom_site_fract_y
 _atom_site_fract_z
 _atom_site_occupancy
  Dy  Dy0  1  0.890803  0.990313  0.351279  1
  Dy  Dy1  1  0.609197  0.509687  0.851279  1
  Y  Y2  1  0.890607  0.509655  0.351228  1
  Y  Y3  1  0.609393  0.990345  0.851228  1
  Y  Y4  1  0.109375  0.009727  0.648755  1
  Y  Y5  1  0.390625  0.490273  0.148755  1
  Y  Y6  1  0.109324  0.490271  0.648712  1
  Y  Y7  1  0.390676  0.009729  0.148712  1
  Er  Er8  1  0.848813  0.750018  0.075085  1
  Er  Er9  1  0.651187  0.749982  0.575085  1
  Er  Er10  1  0.151193  0.249977  0.924890  1
  Er  Er11  1  0.348807  0.250023  0.424890  1
  Ga  Ga12  1  0.875323  0.053403  0.089997  1
  Ga  Ga13  1  0.624677  0.446597  0.589997  1
  Ga  Ga14  1  0.124753  0.553306  0.910215  1
  Ga  Ga15  1  0.375247  0.946694  0.410215  1
  Ga  Ga16  1  0.124587  0.946488  0.910273  1
  Ga  Ga17  1  0.375413  0.553512  0.410273  1
  Ga  Ga18  1  0.875312  0.446601  0.089510  1
  Ga  Ga19  1  0.624688  0.053399  0.589510  1
  Ga  Ga20  1  0.172006  0.750268  0.252098  1
  Ga  Ga21  1  0.327994  0.749732  0.752098  1
  Ga  Ga22  1  0.827444  0.250351  0.748253  1
  Ga  Ga23  1  0.672556  0.249649  0.248253  1
  Ga  Ga24  1  0.373641  0.749899  0.004082  1
  Ga  Ga25  1  0.126359  0.750101  0.504082  1
  Ga  Ga26  1  0.626773  0.250223  0.995452  1
  Ga  Ga27  1  0.873227  0.249777  0.495452  1
  Ga  Ga28  1  0.601584  0.750345  0.299607  1
  Ga  Ga29  1  0.898416  0.749655  0.799607  1
  Ga  Ga30  1  0.399001  0.250109  0.700563  1
  Ga  Ga31  1  0.100999  0.249891  0.200563  1
