# generated using pymatgen
data_TbY3InIr
_symmetry_space_group_name_H-M   'P 1'
_cell_length_a   9.71019341
_cell_length_b   9.71019286
_cell_length_c   9.71019400
_cell_angle_alpha   59.99999611
_cell_angle_beta   59.99999799
_cell_angle_gamma   59.99999874
_symmetry_Int_Tables_number   1
_chemical_formula_structural   TbY3InIr
_chemical_formula_sum   'Tb4 Y12 In4 Ir4'
_cell_volume   647.39392769
_cell_formula_units_Z   4
loop_
 _symmetry_equiv_pos_site_id
 _symmetry_equiv_pos_as_xyz
  1  'x, y, z'
loop_
 _atom_site_type_symbol
 _atom_site_label
 _atom_site_symmetry_multiplicity
 _atom_site_fract_x
 _atom_site_fract_y
 _atom_site_fract_z
 _atom_site_occupancy
  Tb  Tb0  1  0.349392  0.349392  0.349392  1
  Tb  Tb1  1  0.349392  0.349392  0.951824  1
  Tb  Tb2  1  0.349392  0.951824  0.349392  1
  Tb  Tb3  1  0.951824  0.349392  0.349392  1
  Y  Y4  1  0.809768  0.190232  0.190232  1
  Y  Y5  1  0.190232  0.809768  0.809768  1
  Y  Y6  1  0.190232  0.809768  0.190232  1
  Y  Y7  1  0.809768  0.190232  0.809768  1
  Y  Y8  1  0.190232  0.190232  0.809768  1
  Y  Y9  1  0.809768  0.809768  0.190232  1
  Y  Y10  1  0.939473  0.560527  0.560527  1
  Y  Y11  1  0.560527  0.939473  0.939473  1
  Y  Y12  1  0.560527  0.939473  0.560527  1
  Y  Y13  1  0.939473  0.560527  0.939473  1
  Y  Y14  1  0.560527  0.560527  0.939473  1
  Y  Y15  1  0.939473  0.939473  0.560527  1
  In  In16  1  0.583329  0.583329  0.583329  1
  In  In17  1  0.583329  0.583329  0.250014  1
  In  In18  1  0.583329  0.250014  0.583329  1
  In  In19  1  0.250014  0.583329  0.583329  1
  Ir  Ir20  1  0.141969  0.141969  0.141969  1
  Ir  Ir21  1  0.141969  0.141969  0.574091  1
  Ir  Ir22  1  0.141969  0.574091  0.141969  1
  Ir  Ir23  1  0.574091  0.141969  0.141969  1
