# generated using pymatgen
data_Tb2Ce5Y(AlRu)8
_symmetry_space_group_name_H-M   'P 1'
_cell_length_a   4.01006400
_cell_length_b   7.23883416
_cell_length_c   16.06995849
_cell_angle_alpha   90.68694902
_cell_angle_beta   90.00000000
_cell_angle_gamma   90.00000000
_symmetry_Int_Tables_number   1
_chemical_formula_structural   Tb2Ce5Y(AlRu)8
_chemical_formula_sum   'Tb2 Ce5 Y1 Al8 Ru8'
_cell_volume   466.44825243
_cell_formula_units_Z   1
loop_
 _symmetry_equiv_pos_site_id
 _symmetry_equiv_pos_as_xyz
  1  'x, y, z'
loop_
 _atom_site_type_symbol
 _atom_site_label
 _atom_site_symmetry_multiplicity
 _atom_site_fract_x
 _atom_site_fract_y
 _atom_site_fract_z
 _atom_site_occupancy
  Tb  Tb0  1  0.250000  0.162800  0.561033  1
  Tb  Tb1  1  0.250000  0.667715  0.938968  1
  Ce  Ce2  1  0.750000  0.823736  0.437680  1
  Ce  Ce3  1  0.750000  0.455485  0.281772  1
  Ce  Ce4  1  0.750000  0.331159  0.061928  1
  Ce  Ce5  1  0.250000  0.043115  0.780622  1
  Ce  Ce6  1  0.250000  0.541296  0.720356  1
  Y  Y7  1  0.750000  0.960744  0.218289  1
  Al  Al8  1  0.750000  0.491842  0.562549  1
  Al  Al9  1  0.750000  0.370246  0.853884  1
  Al  Al10  1  0.750000  0.995588  0.937347  1
  Al  Al11  1  0.750000  0.869349  0.647619  1
  Al  Al12  1  0.250000  0.485251  0.437418  1
  Al  Al13  1  0.250000  0.994405  0.065695  1
  Al  Al14  1  0.250000  0.640221  0.153636  1
  Al  Al15  1  0.250000  0.123264  0.344127  1
  Ru  Ru16  1  0.750000  0.756832  0.806959  1
  Ru  Ru17  1  0.250000  0.235652  0.938535  1
  Ru  Ru18  1  0.750000  0.261938  0.425980  1
  Ru  Ru19  1  0.250000  0.750432  0.325597  1
  Ru  Ru20  1  0.750000  0.764938  0.066572  1
  Ru  Ru21  1  0.750000  0.262938  0.692909  1
  Ru  Ru22  1  0.250000  0.276307  0.178512  1
  Ru  Ru23  1  0.250000  0.734746  0.562012  1
