# generated using pymatgen
data_Cs2Sn(BrCl)2
_symmetry_space_group_name_H-M   'P 1'
_cell_length_a   9.96838819
_cell_length_b   9.96838809
_cell_length_c   7.95768700
_cell_angle_alpha   90.00000000
_cell_angle_beta   90.00000000
_cell_angle_gamma   132.78534546
_symmetry_Int_Tables_number   1
_chemical_formula_structural   Cs2Sn(BrCl)2
_chemical_formula_sum   'Cs4 Sn2 Br4 Cl4'
_cell_volume   580.33099062
_cell_formula_units_Z   2
loop_
 _symmetry_equiv_pos_site_id
 _symmetry_equiv_pos_as_xyz
  1  'x, y, z'
loop_
 _atom_site_type_symbol
 _atom_site_label
 _atom_site_symmetry_multiplicity
 _atom_site_fract_x
 _atom_site_fract_y
 _atom_site_fract_z
 _atom_site_occupancy
  Cs  Cs0  1  0.137922  0.862078  0.500000  1
  Cs  Cs1  1  0.637922  0.362078  0.000000  1
  Cs  Cs2  1  0.862078  0.137922  0.500000  1
  Cs  Cs3  1  0.362078  0.637922  0.000000  1
  Sn  Sn4  1  0.500000  0.500000  0.500000  1
  Sn  Sn5  1  0.000000  0.000000  0.000000  1
  Br  Br6  1  0.336774  0.663226  0.500000  1
  Br  Br7  1  0.836774  0.163226  0.000000  1
  Br  Br8  1  0.663226  0.336774  0.500000  1
  Br  Br9  1  0.163226  0.836774  0.000000  1
  Cl  Cl10  1  0.250431  0.250431  0.249586  1
  Cl  Cl11  1  0.749569  0.749569  0.750414  1
  Cl  Cl12  1  0.249569  0.249569  0.749586  1
  Cl  Cl13  1  0.750431  0.750431  0.250414  1
