# generated using pymatgen
data_Nd2Y3In4PdRu
_symmetry_space_group_name_H-M   'P 1'
_cell_length_a   3.67794700
_cell_length_b   8.20742617
_cell_length_c   18.58000897
_cell_angle_alpha   89.78943586
_cell_angle_beta   90.00000000
_cell_angle_gamma   90.00000000
_symmetry_Int_Tables_number   1
_chemical_formula_structural   Nd2Y3In4PdRu
_chemical_formula_sum   'Nd4 Y6 In8 Pd2 Ru2'
_cell_volume   560.86125278
_cell_formula_units_Z   2
loop_
 _symmetry_equiv_pos_site_id
 _symmetry_equiv_pos_as_xyz
  1  'x, y, z'
loop_
 _atom_site_type_symbol
 _atom_site_label
 _atom_site_symmetry_multiplicity
 _atom_site_fract_x
 _atom_site_fract_y
 _atom_site_fract_z
 _atom_site_occupancy
  Nd  Nd0  1  0.500000  0.229576  0.778998  1
  Nd  Nd1  1  0.500000  0.770424  0.221002  1
  Nd  Nd2  1  0.500000  0.000000  0.000000  1
  Nd  Nd3  1  0.500000  0.500000  0.500000  1
  Y  Y4  1  0.500000  0.247368  0.279889  1
  Y  Y5  1  0.500000  0.752632  0.720111  1
  Y  Y6  1  0.500000  0.117523  0.587494  1
  Y  Y7  1  0.500000  0.882477  0.412506  1
  Y  Y8  1  0.500000  0.378796  0.085131  1
  Y  Y9  1  0.500000  0.621204  0.914869  1
  In  In10  1  0.000000  0.079145  0.152027  1
  In  In11  1  0.000000  0.920855  0.847973  1
  In  In12  1  0.000000  0.427162  0.651091  1
  In  In13  1  0.000000  0.572838  0.348909  1
  In  In14  1  0.000000  0.202130  0.429622  1
  In  In15  1  0.000000  0.797870  0.570378  1
  In  In16  1  0.000000  0.301241  0.933907  1
  In  In17  1  0.000000  0.698759  0.066093  1
  Pd  Pd18  1  0.000000  0.473605  0.196063  1
  Pd  Pd19  1  0.000000  0.526395  0.803937  1
  Ru  Ru20  1  0.000000  0.015151  0.694539  1
  Ru  Ru21  1  0.000000  0.984849  0.305461  1
