# generated using pymatgen
data_Zr4Nb2Fe16Si6Ge
_symmetry_space_group_name_H-M   'P 1'
_cell_length_a   8.04607190
_cell_length_b   8.08193830
_cell_length_c   8.08193771
_cell_angle_alpha   59.70661020
_cell_angle_beta   60.14669305
_cell_angle_gamma   60.14668897
_symmetry_Int_Tables_number   1
_chemical_formula_structural   Zr4Nb2Fe16Si6Ge
_chemical_formula_sum   'Zr4 Nb2 Fe16 Si6 Ge1'
_cell_volume   371.60614263
_cell_formula_units_Z   1
loop_
 _symmetry_equiv_pos_site_id
 _symmetry_equiv_pos_as_xyz
  1  'x, y, z'
loop_
 _atom_site_type_symbol
 _atom_site_label
 _atom_site_symmetry_multiplicity
 _atom_site_fract_x
 _atom_site_fract_y
 _atom_site_fract_z
 _atom_site_occupancy
  Zr  Zr0  1  0.795467  0.204533  0.795467  1
  Zr  Zr1  1  0.795467  0.795467  0.204533  1
  Zr  Zr2  1  0.204533  0.795467  0.204533  1
  Zr  Zr3  1  0.204533  0.204533  0.795467  1
  Nb  Nb4  1  0.210885  0.789115  0.789115  1
  Nb  Nb5  1  0.789115  0.210885  0.210885  1
  Fe  Fe6  1  0.867797  0.374981  0.374981  1
  Fe  Fe7  1  0.625019  0.617759  0.132203  1
  Fe  Fe8  1  0.374981  0.382241  0.867797  1
  Fe  Fe9  1  0.824037  0.526722  0.825205  1
  Fe  Fe10  1  0.825205  0.824037  0.824037  1
  Fe  Fe11  1  0.824037  0.825205  0.526722  1
  Fe  Fe12  1  0.382241  0.374981  0.374981  1
  Fe  Fe13  1  0.132203  0.625019  0.625019  1
  Fe  Fe14  1  0.617759  0.625019  0.625019  1
  Fe  Fe15  1  0.174795  0.175963  0.175963  1
  Fe  Fe16  1  0.175963  0.473278  0.174795  1
  Fe  Fe17  1  0.526722  0.824037  0.824037  1
  Fe  Fe18  1  0.625019  0.132203  0.617759  1
  Fe  Fe19  1  0.175963  0.174795  0.473278  1
  Fe  Fe20  1  0.374981  0.867797  0.382241  1
  Fe  Fe21  1  0.473278  0.175963  0.175963  1
  Si  Si22  1  0.500000  0.000000  0.000000  1
  Si  Si23  1  0.000000  0.500000  0.000000  1
  Si  Si24  1  0.500000  0.500000  0.000000  1
  Si  Si25  1  0.000000  0.500000  0.500000  1
  Si  Si26  1  0.000000  0.000000  0.500000  1
  Si  Si27  1  0.500000  0.000000  0.500000  1
  Ge  Ge28  1  0.500000  0.500000  0.500000  1
