# generated using pymatgen
data_Tb3NdHo(FeB3)2
_symmetry_space_group_name_H-M   'P 1'
_cell_length_a   8.31339223
_cell_length_b   8.31339234
_cell_length_c   8.31339168
_cell_angle_alpha   38.03723401
_cell_angle_beta   38.03723291
_cell_angle_gamma   38.03722581
_symmetry_Int_Tables_number   1
_chemical_formula_structural   Tb3NdHo(FeB3)2
_chemical_formula_sum   'Tb3 Nd1 Ho1 Fe2 B6'
_cell_volume   195.82810950
_cell_formula_units_Z   1
loop_
 _symmetry_equiv_pos_site_id
 _symmetry_equiv_pos_as_xyz
  1  'x, y, z'
loop_
 _atom_site_type_symbol
 _atom_site_label
 _atom_site_symmetry_multiplicity
 _atom_site_fract_x
 _atom_site_fract_y
 _atom_site_fract_z
 _atom_site_occupancy
  Tb  Tb0  1  0.583271  0.583271  0.583271  1
  Tb  Tb1  1  0.416835  0.416835  0.416835  1
  Tb  Tb2  1  0.749583  0.749583  0.749583  1
  Nd  Nd3  1  0.999646  0.999646  0.999646  1
  Ho  Ho4  1  0.249599  0.249599  0.249599  1
  Fe  Fe5  1  0.883080  0.883080  0.883080  1
  Fe  Fe6  1  0.117047  0.117047  0.117047  1
  B  B7  1  0.499907  0.832592  0.167970  1
  B  B8  1  0.167970  0.499907  0.832592  1
  B  B9  1  0.832592  0.167970  0.499907  1
  B  B10  1  0.499907  0.167970  0.832592  1
  B  B11  1  0.832592  0.499907  0.167970  1
  B  B12  1  0.167970  0.832592  0.499907  1
