# generated using pymatgen
data_Zr10AlNiSn2Bi3Pb
_symmetry_space_group_name_H-M   'P 1'
_cell_length_a   8.77868309
_cell_length_b   8.77641000
_cell_length_c   5.89370200
_cell_angle_alpha   90.00417164
_cell_angle_beta   89.99165236
_cell_angle_gamma   120.00856428
_symmetry_Int_Tables_number   1
_chemical_formula_structural   Zr10AlNiSn2Bi3Pb
_chemical_formula_sum   'Zr10 Al1 Ni1 Sn2 Bi3 Pb1'
_cell_volume   393.21274800
_cell_formula_units_Z   1
loop_
 _symmetry_equiv_pos_site_id
 _symmetry_equiv_pos_as_xyz
  1  'x, y, z'
loop_
 _atom_site_type_symbol
 _atom_site_label
 _atom_site_symmetry_multiplicity
 _atom_site_fract_x
 _atom_site_fract_y
 _atom_site_fract_z
 _atom_site_occupancy
  Zr  Zr0  1  0.333165  0.666872  0.000639  1
  Zr  Zr1  1  0.662909  0.331736  0.499367  1
  Zr  Zr2  1  0.662475  0.331765  0.000607  1
  Zr  Zr3  1  0.333557  0.666832  0.499358  1
  Zr  Zr4  1  0.262822  0.003040  0.240232  1
  Zr  Zr5  1  0.261416  0.256774  0.759576  1
  Zr  Zr6  1  0.004471  0.744858  0.759168  1
  Zr  Zr7  1  0.004478  0.263137  0.241731  1
  Zr  Zr8  1  0.737089  0.735849  0.241953  1
  Zr  Zr9  1  0.738411  0.999718  0.757527  1
  Al  Al10  1  0.000223  0.000035  0.496630  1
  Ni  Ni11  1  0.000893  0.999516  0.004201  1
  Sn  Sn12  1  0.386336  0.386872  0.252644  1
  Sn  Sn13  1  0.387995  0.999505  0.746921  1
  Bi  Bi14  1  0.613099  0.000233  0.251958  1
  Bi  Bi15  1  0.611374  0.611288  0.747281  1
  Bi  Bi16  1  0.999664  0.388016  0.747451  1
  Pb  Pb17  1  0.999620  0.613953  0.252758  1
