# generated using pymatgen
data_Ca6MgHg12Pb5
_symmetry_space_group_name_H-M   'P 1'
_cell_length_a   5.28687400
_cell_length_b   7.61088500
_cell_length_c   16.01189700
_cell_angle_alpha   90.00000000
_cell_angle_beta   89.99883877
_cell_angle_gamma   90.00004426
_symmetry_Int_Tables_number   1
_chemical_formula_structural   Ca6MgHg12Pb5
_chemical_formula_sum   'Ca6 Mg1 Hg12 Pb5'
_cell_volume   644.28334930
_cell_formula_units_Z   1
loop_
 _symmetry_equiv_pos_site_id
 _symmetry_equiv_pos_as_xyz
  1  'x, y, z'
loop_
 _atom_site_type_symbol
 _atom_site_label
 _atom_site_symmetry_multiplicity
 _atom_site_fract_x
 _atom_site_fract_y
 _atom_site_fract_z
 _atom_site_occupancy
  Ca  Ca0  1  0.000013  0.000000  0.002516  1
  Ca  Ca1  1  0.499872  0.500000  0.159722  1
  Ca  Ca2  1  0.999853  0.000000  0.333339  1
  Ca  Ca3  1  0.500001  0.500000  0.506920  1
  Ca  Ca4  1  0.000114  0.000000  0.664136  1
  Ca  Ca5  1  0.500152  0.500000  0.833344  1
  Mg  Mg6  1  0.500139  0.000000  0.833332  1
  Hg  Hg7  1  0.500015  0.236149  0.988035  1
  Hg  Hg8  1  0.500015  0.763852  0.988035  1
  Hg  Hg9  1  0.999877  0.249644  0.167566  1
  Hg  Hg10  1  0.999876  0.750356  0.167566  1
  Hg  Hg11  1  0.499860  0.250490  0.333326  1
  Hg  Hg12  1  0.499860  0.749509  0.333326  1
  Hg  Hg13  1  0.999995  0.249678  0.499107  1
  Hg  Hg14  1  0.999995  0.750322  0.499107  1
  Hg  Hg15  1  0.500110  0.236154  0.678644  1
  Hg  Hg16  1  0.500109  0.763845  0.678644  1
  Hg  Hg17  1  0.000121  0.238892  0.833330  1
  Hg  Hg18  1  0.000121  0.761108  0.833330  1
  Pb  Pb19  1  0.000001  0.500000  0.999628  1
  Pb  Pb20  1  0.499952  0.000000  0.164092  1
  Pb  Pb21  1  0.999841  0.500000  0.333320  1
  Pb  Pb22  1  0.499998  0.000000  0.502580  1
  Pb  Pb23  1  0.000115  0.499999  0.667059  1
