# generated using pymatgen
data_YHo4IrPb3
_symmetry_space_group_name_H-M   'P 1'
_cell_length_a   9.18786900
_cell_length_b   9.18786878
_cell_length_c   6.84286500
_cell_angle_alpha   90.00000000
_cell_angle_beta   90.00000000
_cell_angle_gamma   119.99999718
_symmetry_Int_Tables_number   1
_chemical_formula_structural   YHo4IrPb3
_chemical_formula_sum   'Y2 Ho8 Ir2 Pb6'
_cell_volume   500.26278297
_cell_formula_units_Z   2
loop_
 _symmetry_equiv_pos_site_id
 _symmetry_equiv_pos_as_xyz
  1  'x, y, z'
loop_
 _atom_site_type_symbol
 _atom_site_label
 _atom_site_symmetry_multiplicity
 _atom_site_fract_x
 _atom_site_fract_y
 _atom_site_fract_z
 _atom_site_occupancy
  Y  Y0  1  0.333333  0.666667  0.500000  1
  Y  Y1  1  0.666667  0.333333  0.500000  1
  Ho  Ho2  1  0.000000  0.764349  0.750114  1
  Ho  Ho3  1  0.764349  0.764349  0.249886  1
  Ho  Ho4  1  0.764349  0.000000  0.750114  1
  Ho  Ho5  1  0.235651  0.000000  0.249886  1
  Ho  Ho6  1  0.235651  0.235651  0.750114  1
  Ho  Ho7  1  0.333333  0.666667  0.000000  1
  Ho  Ho8  1  0.000000  0.235651  0.249886  1
  Ho  Ho9  1  0.666667  0.333333  0.000000  1
  Ir  Ir10  1  0.000000  0.000000  0.000000  1
  Ir  Ir11  1  0.000000  0.000000  0.500000  1
  Pb  Pb12  1  0.405233  0.405233  0.249546  1
  Pb  Pb13  1  0.594767  0.594767  0.750454  1
  Pb  Pb14  1  0.594767  0.000000  0.249546  1
  Pb  Pb15  1  0.405233  0.000000  0.750454  1
  Pb  Pb16  1  0.000000  0.594767  0.249546  1
  Pb  Pb17  1  0.000000  0.405233  0.750454  1
