# generated using pymatgen
data_PrGd6CoI12
_symmetry_space_group_name_H-M   'P 1'
_cell_length_a   9.79723124
_cell_length_b   9.79723165
_cell_length_c   9.79723200
_cell_angle_alpha   106.35538919
_cell_angle_beta   106.35538380
_cell_angle_gamma   106.35540312
_symmetry_Int_Tables_number   1
_chemical_formula_structural   PrGd6CoI12
_chemical_formula_sum   'Pr1 Gd6 Co1 I12'
_cell_volume   796.53992925
_cell_formula_units_Z   1
loop_
 _symmetry_equiv_pos_site_id
 _symmetry_equiv_pos_as_xyz
  1  'x, y, z'
loop_
 _atom_site_type_symbol
 _atom_site_label
 _atom_site_symmetry_multiplicity
 _atom_site_fract_x
 _atom_site_fract_y
 _atom_site_fract_z
 _atom_site_occupancy
  Pr  Pr0  1  0.996729  0.996729  0.996729  1
  Gd  Gd1  1  0.517692  0.591476  0.788622  1
  Gd  Gd2  1  0.788622  0.517692  0.591476  1
  Gd  Gd3  1  0.591476  0.788622  0.517692  1
  Gd  Gd4  1  0.478937  0.406226  0.207242  1
  Gd  Gd5  1  0.207242  0.478937  0.406226  1
  Gd  Gd6  1  0.406226  0.207242  0.478937  1
  Co  Co7  1  0.498391  0.498391  0.498391  1
  I  I8  1  0.273499  0.823824  0.426109  1
  I  I9  1  0.426109  0.273499  0.823824  1
  I  I10  1  0.823824  0.426109  0.273499  1
  I  I11  1  0.725678  0.174664  0.573826  1
  I  I12  1  0.573826  0.725678  0.174664  1
  I  I13  1  0.174664  0.573826  0.725678  1
  I  I14  1  0.040616  0.119894  0.347912  1
  I  I15  1  0.347912  0.040616  0.119894  1
  I  I16  1  0.119894  0.347912  0.040616  1
  I  I17  1  0.958498  0.878174  0.647357  1
  I  I18  1  0.647357  0.958498  0.878174  1
  I  I19  1  0.878174  0.647357  0.958498  1
