# generated using pymatgen
data_Tb4Nd2NbCo17P12
_symmetry_space_group_name_H-M   'P 1'
_cell_length_a   3.74297100
_cell_length_b   10.64447600
_cell_length_c   12.37326300
_cell_angle_alpha   90.00000000
_cell_angle_beta   90.00000000
_cell_angle_gamma   90.00000000
_symmetry_Int_Tables_number   1
_chemical_formula_structural   Tb4Nd2NbCo17P12
_chemical_formula_sum   'Tb4 Nd2 Nb1 Co17 P12'
_cell_volume   492.97511111
_cell_formula_units_Z   1
loop_
 _symmetry_equiv_pos_site_id
 _symmetry_equiv_pos_as_xyz
  1  'x, y, z'
loop_
 _atom_site_type_symbol
 _atom_site_label
 _atom_site_symmetry_multiplicity
 _atom_site_fract_x
 _atom_site_fract_y
 _atom_site_fract_z
 _atom_site_occupancy
  Tb  Tb0  1  0.500000  0.819318  0.206428  1
  Tb  Tb1  1  0.500000  0.180682  0.206428  1
  Tb  Tb2  1  0.000000  0.683353  0.796413  1
  Tb  Tb3  1  0.000000  0.316647  0.796413  1
  Nd  Nd4  1  0.000000  0.500000  0.527618  1
  Nd  Nd5  1  0.500000  0.000000  0.477469  1
  Nb  Nb6  1  0.500000  0.500000  0.152796  1
  Co  Co7  1  0.000000  0.000000  0.840016  1
  Co  Co8  1  0.500000  0.500000  0.704991  1
  Co  Co9  1  0.000000  0.000000  0.293573  1
  Co  Co10  1  0.000000  0.500000  0.984500  1
  Co  Co11  1  0.500000  0.000000  0.013795  1
  Co  Co12  1  0.500000  0.329615  0.989848  1
  Co  Co13  1  0.500000  0.670385  0.989848  1
  Co  Co14  1  0.000000  0.163855  0.003839  1
  Co  Co15  1  0.000000  0.836145  0.003839  1
  Co  Co16  1  0.500000  0.294830  0.431649  1
  Co  Co17  1  0.500000  0.705170  0.431649  1
  Co  Co18  1  0.000000  0.203309  0.570778  1
  Co  Co19  1  0.000000  0.796691  0.570778  1
  Co  Co20  1  0.500000  0.880364  0.710229  1
  Co  Co21  1  0.500000  0.119636  0.710229  1
  Co  Co22  1  0.000000  0.622201  0.292739  1
  Co  Co23  1  0.000000  0.377799  0.292739  1
  P  P24  1  0.500000  0.500000  0.882425  1
  P  P25  1  0.000000  0.000000  0.115640  1
  P  P26  1  0.500000  0.500000  0.351604  1
  P  P27  1  0.000000  0.000000  0.659773  1
  P  P28  1  0.500000  0.305983  0.618080  1
  P  P29  1  0.500000  0.694017  0.618080  1
  P  P30  1  0.000000  0.191854  0.384872  1
  P  P31  1  0.000000  0.808146  0.384872  1
  P  P32  1  0.500000  0.851082  0.891208  1
  P  P33  1  0.500000  0.148918  0.891208  1
  P  P34  1  0.000000  0.660566  0.101819  1
  P  P35  1  0.000000  0.339434  0.101819  1
