# generated using pymatgen
data_TbPr3(B2Ir5)2
_symmetry_space_group_name_H-M   'P 1'
_cell_length_a   11.14197056
_cell_length_b   11.14197026
_cell_length_c   11.14197153
_cell_angle_alpha   28.77615662
_cell_angle_beta   28.77615649
_cell_angle_gamma   28.77615841
_symmetry_Int_Tables_number   1
_chemical_formula_structural   TbPr3(B2Ir5)2
_chemical_formula_sum   'Tb1 Pr3 B4 Ir10'
_cell_volume   283.42119913
_cell_formula_units_Z   1
loop_
 _symmetry_equiv_pos_site_id
 _symmetry_equiv_pos_as_xyz
  1  'x, y, z'
loop_
 _atom_site_type_symbol
 _atom_site_label
 _atom_site_symmetry_multiplicity
 _atom_site_fract_x
 _atom_site_fract_y
 _atom_site_fract_z
 _atom_site_occupancy
  Tb  Tb0  1  0.049774  0.049774  0.049774  1
  Pr  Pr1  1  0.151507  0.151507  0.151507  1
  Pr  Pr2  1  0.950636  0.950636  0.950636  1
  Pr  Pr3  1  0.848410  0.848410  0.848410  1
  B  B4  1  0.618447  0.618447  0.618447  1
  B  B5  1  0.716232  0.716232  0.716232  1
  B  B6  1  0.381595  0.381595  0.381595  1
  B  B7  1  0.283905  0.283905  0.283905  1
  Ir  Ir8  1  0.408545  0.898212  0.408545  1
  Ir  Ir9  1  0.898212  0.408545  0.408545  1
  Ir  Ir10  1  0.500501  0.500501  0.000356  1
  Ir  Ir11  1  0.500501  0.000356  0.500501  1
  Ir  Ir12  1  0.000356  0.500501  0.500501  1
  Ir  Ir13  1  0.499797  0.499797  0.499797  1
  Ir  Ir14  1  0.590854  0.101327  0.590854  1
  Ir  Ir15  1  0.590854  0.590854  0.101327  1
  Ir  Ir16  1  0.101327  0.590854  0.590854  1
  Ir  Ir17  1  0.408545  0.408545  0.898212  1
