# generated using pymatgen
data_Y3Lu7Al3Rh
_symmetry_space_group_name_H-M   'P 1'
_cell_length_a   9.40774200
_cell_length_b   9.40774324
_cell_length_c   9.48029100
_cell_angle_alpha   90.00000000
_cell_angle_beta   90.00000000
_cell_angle_gamma   119.99999563
_symmetry_Int_Tables_number   1
_chemical_formula_structural   Y3Lu7Al3Rh
_chemical_formula_sum   'Y6 Lu14 Al6 Rh2'
_cell_volume   726.64647979
_cell_formula_units_Z   2
loop_
 _symmetry_equiv_pos_site_id
 _symmetry_equiv_pos_as_xyz
  1  'x, y, z'
loop_
 _atom_site_type_symbol
 _atom_site_label
 _atom_site_symmetry_multiplicity
 _atom_site_fract_x
 _atom_site_fract_y
 _atom_site_fract_z
 _atom_site_occupancy
  Y  Y0  1  0.539922  0.460078  0.250000  1
  Y  Y1  1  0.539922  0.079845  0.250000  1
  Y  Y2  1  0.920155  0.460078  0.250000  1
  Y  Y3  1  0.460078  0.539922  0.750000  1
  Y  Y4  1  0.460078  0.920155  0.750000  1
  Y  Y5  1  0.079845  0.539922  0.750000  1
  Lu  Lu6  1  0.000000  0.000000  0.500000  1
  Lu  Lu7  1  0.000000  0.000000  0.000000  1
  Lu  Lu8  1  0.206896  0.793104  0.440157  1
  Lu  Lu9  1  0.206896  0.413795  0.440157  1
  Lu  Lu10  1  0.586205  0.793104  0.440157  1
  Lu  Lu11  1  0.793104  0.206896  0.559843  1
  Lu  Lu12  1  0.793104  0.586205  0.559843  1
  Lu  Lu13  1  0.413795  0.206896  0.559843  1
  Lu  Lu14  1  0.793104  0.206896  0.940157  1
  Lu  Lu15  1  0.793104  0.586205  0.940157  1
  Lu  Lu16  1  0.413795  0.206896  0.940157  1
  Lu  Lu17  1  0.206896  0.793104  0.059843  1
  Lu  Lu18  1  0.206896  0.413795  0.059843  1
  Lu  Lu19  1  0.586205  0.793104  0.059843  1
  Al  Al20  1  0.890243  0.109757  0.250000  1
  Al  Al21  1  0.890243  0.780485  0.250000  1
  Al  Al22  1  0.219515  0.109757  0.250000  1
  Al  Al23  1  0.109757  0.890243  0.750000  1
  Al  Al24  1  0.109757  0.219515  0.750000  1
  Al  Al25  1  0.780485  0.890243  0.750000  1
  Rh  Rh26  1  0.333333  0.666667  0.250000  1
  Rh  Rh27  1  0.666667  0.333333  0.750000  1
