# generated using pymatgen
data_K(NbTe2)3
_symmetry_space_group_name_H-M   'P 1'
_cell_length_a   6.43895100
_cell_length_b   6.43895150
_cell_length_c   18.73173800
_cell_angle_alpha   90.00000000
_cell_angle_beta   90.00000000
_cell_angle_gamma   119.99999232
_symmetry_Int_Tables_number   1
_chemical_formula_structural   K(NbTe2)3
_chemical_formula_sum   'K2 Nb6 Te12'
_cell_volume   672.57235705
_cell_formula_units_Z   2
loop_
 _symmetry_equiv_pos_site_id
 _symmetry_equiv_pos_as_xyz
  1  'x, y, z'
loop_
 _atom_site_type_symbol
 _atom_site_label
 _atom_site_symmetry_multiplicity
 _atom_site_fract_x
 _atom_site_fract_y
 _atom_site_fract_z
 _atom_site_occupancy
  K  K0  1  0.000000  0.000000  0.000000  1
  K  K1  1  0.000000  0.000000  0.500000  1
  Nb  Nb2  1  0.000000  0.000000  0.750000  1
  Nb  Nb3  1  0.000000  0.000000  0.250000  1
  Nb  Nb4  1  0.333333  0.666667  0.250000  1
  Nb  Nb5  1  0.666667  0.333333  0.750000  1
  Nb  Nb6  1  0.666667  0.333333  0.250000  1
  Nb  Nb7  1  0.333333  0.666667  0.750000  1
  Te  Te8  1  0.334793  0.000000  0.152273  1
  Te  Te9  1  0.000000  0.334793  0.152273  1
  Te  Te10  1  0.665207  0.665207  0.152273  1
  Te  Te11  1  0.334793  0.334793  0.652273  1
  Te  Te12  1  0.665207  0.665207  0.347727  1
  Te  Te13  1  0.665207  0.000000  0.652273  1
  Te  Te14  1  0.000000  0.665207  0.652273  1
  Te  Te15  1  0.000000  0.665207  0.847727  1
  Te  Te16  1  0.334793  0.334793  0.847727  1
  Te  Te17  1  0.000000  0.334793  0.347727  1
  Te  Te18  1  0.334793  0.000000  0.347727  1
  Te  Te19  1  0.665207  0.000000  0.847727  1
