# generated using pymatgen
data_Eu2TaH9
_symmetry_space_group_name_H-M   'P 1'
_cell_length_a   9.01983300
_cell_length_b   9.01983317
_cell_length_c   5.14301600
_cell_angle_alpha   90.00000000
_cell_angle_beta   90.00000000
_cell_angle_gamma   119.99999571
_symmetry_Int_Tables_number   1
_chemical_formula_structural   Eu2TaH9
_chemical_formula_sum   'Eu6 Ta3 H27'
_cell_volume   362.36440261
_cell_formula_units_Z   3
loop_
 _symmetry_equiv_pos_site_id
 _symmetry_equiv_pos_as_xyz
  1  'x, y, z'
loop_
 _atom_site_type_symbol
 _atom_site_label
 _atom_site_symmetry_multiplicity
 _atom_site_fract_x
 _atom_site_fract_y
 _atom_site_fract_z
 _atom_site_occupancy
  Eu  Eu0  1  0.263774  0.000000  0.500000  1
  Eu  Eu1  1  0.000000  0.263774  0.500000  1
  Eu  Eu2  1  0.736226  0.736226  0.500000  1
  Eu  Eu3  1  0.601548  0.000000  0.000000  1
  Eu  Eu4  1  0.000000  0.601548  0.000000  1
  Eu  Eu5  1  0.398452  0.398452  0.000000  1
  Ta  Ta6  1  0.000000  0.000000  0.000000  1
  Ta  Ta7  1  0.333333  0.666667  0.500000  1
  Ta  Ta8  1  0.666667  0.333333  0.500000  1
  H  H9  1  0.849713  0.000000  0.250860  1
  H  H10  1  0.000000  0.849713  0.250860  1
  H  H11  1  0.849713  0.000000  0.749140  1
  H  H12  1  0.000000  0.849713  0.749140  1
  H  H13  1  0.150287  0.150287  0.250860  1
  H  H14  1  0.150287  0.150287  0.749140  1
  H  H15  1  0.207811  0.000000  0.000000  1
  H  H16  1  0.000000  0.207811  0.000000  1
  H  H17  1  0.792189  0.792189  0.000000  1
  H  H18  1  0.183623  0.520437  0.241990  1
  H  H19  1  0.479563  0.663185  0.241990  1
  H  H20  1  0.183623  0.520437  0.758010  1
  H  H21  1  0.520437  0.183623  0.758010  1
  H  H22  1  0.336815  0.816377  0.241990  1
  H  H23  1  0.479563  0.663185  0.758010  1
  H  H24  1  0.663185  0.479563  0.758010  1
  H  H25  1  0.520437  0.183623  0.241990  1
  H  H26  1  0.336815  0.816377  0.758010  1
  H  H27  1  0.663185  0.479563  0.241990  1
  H  H28  1  0.816377  0.336815  0.758010  1
  H  H29  1  0.816377  0.336815  0.241990  1
  H  H30  1  0.315835  0.453951  0.500000  1
  H  H31  1  0.546049  0.861884  0.500000  1
  H  H32  1  0.453951  0.315835  0.500000  1
  H  H33  1  0.138116  0.684165  0.500000  1
  H  H34  1  0.861884  0.546049  0.500000  1
  H  H35  1  0.684165  0.138116  0.500000  1
