# generated using pymatgen
data_Sc5Ta3(Co4As3)4
_symmetry_space_group_name_H-M   'P 1'
_cell_length_a   12.51026700
_cell_length_b   12.51026636
_cell_length_c   3.73757100
_cell_angle_alpha   90.00000000
_cell_angle_beta   90.00000000
_cell_angle_gamma   120.00000434
_symmetry_Int_Tables_number   1
_chemical_formula_structural   Sc5Ta3(Co4As3)4
_chemical_formula_sum   'Sc5 Ta3 Co16 As12'
_cell_volume   506.58601837
_cell_formula_units_Z   1
loop_
 _symmetry_equiv_pos_site_id
 _symmetry_equiv_pos_as_xyz
  1  'x, y, z'
loop_
 _atom_site_type_symbol
 _atom_site_label
 _atom_site_symmetry_multiplicity
 _atom_site_fract_x
 _atom_site_fract_y
 _atom_site_fract_z
 _atom_site_occupancy
  Sc  Sc0  1  0.820282  0.000000  0.500000  1
  Sc  Sc1  1  0.000000  0.820282  0.500000  1
  Sc  Sc2  1  0.179718  0.179718  0.500000  1
  Sc  Sc3  1  0.333333  0.666667  0.000000  1
  Sc  Sc4  1  0.666667  0.333333  0.000000  1
  Ta  Ta5  1  0.443559  0.000000  0.000000  1
  Ta  Ta6  1  0.000000  0.443559  0.000000  1
  Ta  Ta7  1  0.556441  0.556441  0.000000  1
  Co  Co8  1  0.284824  0.000000  0.500000  1
  Co  Co9  1  0.000000  0.284824  0.500000  1
  Co  Co10  1  0.715176  0.715176  0.500000  1
  Co  Co11  1  0.626131  0.801133  0.000000  1
  Co  Co12  1  0.198867  0.824998  0.000000  1
  Co  Co13  1  0.175002  0.373869  0.000000  1
  Co  Co14  1  0.373869  0.175002  0.000000  1
  Co  Co15  1  0.801133  0.626131  0.000000  1
  Co  Co16  1  0.824998  0.198867  0.000000  1
  Co  Co17  1  0.520138  0.875936  0.500000  1
  Co  Co18  1  0.124064  0.644202  0.500000  1
  Co  Co19  1  0.355798  0.479862  0.500000  1
  Co  Co20  1  0.479862  0.355798  0.500000  1
  Co  Co21  1  0.875936  0.520138  0.500000  1
  Co  Co22  1  0.644202  0.124064  0.500000  1
  Co  Co23  1  0.000000  0.000000  0.000000  1
  As  As24  1  0.174457  0.000000  0.000000  1
  As  As25  1  0.000000  0.174457  0.000000  1
  As  As26  1  0.825543  0.825543  0.000000  1
  As  As27  1  0.513113  0.686449  0.500000  1
  As  As28  1  0.313551  0.826664  0.500000  1
  As  As29  1  0.173336  0.486887  0.500000  1
  As  As30  1  0.486887  0.173336  0.500000  1
  As  As31  1  0.686449  0.513113  0.500000  1
  As  As32  1  0.826664  0.313551  0.500000  1
  As  As33  1  0.652182  0.000000  0.000000  1
  As  As34  1  0.000000  0.652182  0.000000  1
  As  As35  1  0.347818  0.347818  0.000000  1
