# generated using pymatgen
data_AcB4Os3Ru
_symmetry_space_group_name_H-M   'P 1'
_cell_length_a   7.73427675
_cell_length_b   7.73634497
_cell_length_c   4.00378489
_cell_angle_alpha   90.05717449
_cell_angle_beta   90.05017976
_cell_angle_gamma   90.00702426
_symmetry_Int_Tables_number   1
_chemical_formula_structural   AcB4Os3Ru
_chemical_formula_sum   'Ac2 B8 Os6 Ru2'
_cell_volume   239.56638813
_cell_formula_units_Z   2
loop_
 _symmetry_equiv_pos_site_id
 _symmetry_equiv_pos_as_xyz
  1  'x, y, z'
loop_
 _atom_site_type_symbol
 _atom_site_label
 _atom_site_symmetry_multiplicity
 _atom_site_fract_x
 _atom_site_fract_y
 _atom_site_fract_z
 _atom_site_occupancy
  Ac  Ac0  1  0.500581  0.501145  0.995708  1
  Ac  Ac1  1  0.997166  0.999604  0.495741  1
  B  B2  1  0.663428  0.781678  0.607242  1
  B  B3  1  0.282999  0.836072  0.107286  1
  B  B4  1  0.833694  0.715500  0.893174  1
  B  B5  1  0.219242  0.665944  0.393651  1
  B  B6  1  0.785022  0.334400  0.392988  1
  B  B7  1  0.165397  0.281450  0.893248  1
  B  B8  1  0.714532  0.167101  0.108380  1
  B  B9  1  0.332826  0.213480  0.608309  1
  Os  Os10  1  0.356702  0.106492  0.108084  1
  Os  Os11  1  0.394928  0.857222  0.607183  1
  Os  Os12  1  0.105265  0.646149  0.893374  1
  Os  Os13  1  0.146059  0.395154  0.393282  1
  Os  Os14  1  0.854841  0.605106  0.393167  1
  Os  Os15  1  0.895397  0.355017  0.892965  1
  Ru  Ru16  1  0.644260  0.893980  0.107797  1
  Ru  Ru17  1  0.607659  0.144507  0.608421  1
