# generated using pymatgen
data_La4InRh
_symmetry_space_group_name_H-M   'P 1'
_cell_length_a   10.14211864
_cell_length_b   10.14211898
_cell_length_c   10.14211800
_cell_angle_alpha   59.99999666
_cell_angle_beta   59.99999557
_cell_angle_gamma   59.99999437
_symmetry_Int_Tables_number   1
_chemical_formula_structural   La4InRh
_chemical_formula_sum   'La16 In4 Rh4'
_cell_volume   737.68508870
_cell_formula_units_Z   4
loop_
 _symmetry_equiv_pos_site_id
 _symmetry_equiv_pos_as_xyz
  1  'x, y, z'
loop_
 _atom_site_type_symbol
 _atom_site_label
 _atom_site_symmetry_multiplicity
 _atom_site_fract_x
 _atom_site_fract_y
 _atom_site_fract_z
 _atom_site_occupancy
  La  La0  1  0.347899  0.347899  0.347899  1
  La  La1  1  0.347899  0.347899  0.956303  1
  La  La2  1  0.347899  0.956303  0.347899  1
  La  La3  1  0.956303  0.347899  0.347899  1
  La  La4  1  0.809630  0.190370  0.190370  1
  La  La5  1  0.190370  0.809630  0.809630  1
  La  La6  1  0.190370  0.809629  0.190370  1
  La  La7  1  0.809630  0.190371  0.809630  1
  La  La8  1  0.190370  0.190370  0.809630  1
  La  La9  1  0.809629  0.809630  0.190371  1
  La  La10  1  0.938448  0.561552  0.561552  1
  La  La11  1  0.561552  0.938448  0.938448  1
  La  La12  1  0.561552  0.938448  0.561552  1
  La  La13  1  0.938448  0.561552  0.938448  1
  La  La14  1  0.561552  0.561552  0.938448  1
  La  La15  1  0.938448  0.938448  0.561552  1
  In  In16  1  0.579685  0.579685  0.579685  1
  In  In17  1  0.579685  0.579685  0.260946  1
  In  In18  1  0.579685  0.260946  0.579685  1
  In  In19  1  0.260946  0.579685  0.579685  1
  Rh  Rh20  1  0.141394  0.141394  0.141394  1
  Rh  Rh21  1  0.141394  0.141394  0.575820  1
  Rh  Rh22  1  0.141394  0.575820  0.141394  1
  Rh  Rh23  1  0.575820  0.141394  0.141394  1
