# generated using pymatgen
data_Tb3Er3Th2(MgRu)2
_symmetry_space_group_name_H-M   'P 1'
_cell_length_a   9.74442920
_cell_length_b   9.74442947
_cell_length_c   9.74442900
_cell_angle_alpha   59.99999819
_cell_angle_beta   59.99999728
_cell_angle_gamma   59.99999518
_symmetry_Int_Tables_number   1
_chemical_formula_structural   Tb3Er3Th2(MgRu)2
_chemical_formula_sum   'Tb6 Er6 Th4 Mg4 Ru4'
_cell_volume   654.26575281
_cell_formula_units_Z   2
loop_
 _symmetry_equiv_pos_site_id
 _symmetry_equiv_pos_as_xyz
  1  'x, y, z'
loop_
 _atom_site_type_symbol
 _atom_site_label
 _atom_site_symmetry_multiplicity
 _atom_site_fract_x
 _atom_site_fract_y
 _atom_site_fract_z
 _atom_site_occupancy
  Tb  Tb0  1  0.185996  0.814004  0.814004  1
  Tb  Tb1  1  0.814004  0.185996  0.185996  1
  Tb  Tb2  1  0.814004  0.185996  0.814004  1
  Tb  Tb3  1  0.185996  0.814004  0.185996  1
  Tb  Tb4  1  0.814004  0.814004  0.185996  1
  Tb  Tb5  1  0.185996  0.185996  0.814004  1
  Er  Er6  1  0.063922  0.436078  0.436078  1
  Er  Er7  1  0.436078  0.063922  0.063922  1
  Er  Er8  1  0.436078  0.063922  0.436078  1
  Er  Er9  1  0.063922  0.436078  0.063922  1
  Er  Er10  1  0.436078  0.436078  0.063922  1
  Er  Er11  1  0.063922  0.063922  0.436078  1
  Th  Th12  1  0.596064  0.596064  0.596064  1
  Th  Th13  1  0.596064  0.596064  0.211810  1
  Th  Th14  1  0.596064  0.211810  0.596064  1
  Th  Th15  1  0.211810  0.596064  0.596064  1
  Mg  Mg16  1  0.829768  0.829768  0.829768  1
  Mg  Mg17  1  0.829768  0.829768  0.510696  1
  Mg  Mg18  1  0.829768  0.510696  0.829768  1
  Mg  Mg19  1  0.510696  0.829768  0.829768  1
  Ru  Ru20  1  0.393434  0.393434  0.393434  1
  Ru  Ru21  1  0.393434  0.393434  0.819697  1
  Ru  Ru22  1  0.393434  0.819697  0.393434  1
  Ru  Ru23  1  0.819697  0.393434  0.393434  1
