# generated using pymatgen
data_Ta5Cr(TcP)6
_symmetry_space_group_name_H-M   'P 1'
_cell_length_a   7.36406085
_cell_length_b   7.36406216
_cell_length_c   7.36406124
_cell_angle_alpha   126.97164312
_cell_angle_beta   123.36094927
_cell_angle_gamma   81.29591743
_symmetry_Int_Tables_number   1
_chemical_formula_structural   Ta5Cr(TcP)6
_chemical_formula_sum   'Ta5 Cr1 Tc6 P6'
_cell_volume   256.66944831
_cell_formula_units_Z   1
loop_
 _symmetry_equiv_pos_site_id
 _symmetry_equiv_pos_as_xyz
  1  'x, y, z'
loop_
 _atom_site_type_symbol
 _atom_site_label
 _atom_site_symmetry_multiplicity
 _atom_site_fract_x
 _atom_site_fract_y
 _atom_site_fract_z
 _atom_site_occupancy
  Ta  Ta0  1  0.710751  0.439083  0.728332  1
  Ta  Ta1  1  0.289249  0.017581  0.728332  1
  Ta  Ta2  1  0.209401  0.368253  0.158852  1
  Ta  Ta3  1  0.790599  0.949453  0.158852  1
  Ta  Ta4  1  0.500000  0.572078  0.072078  1
  Cr  Cr5  1  0.000000  0.624615  0.624615  1
  Tc  Tc6  1  0.787478  0.257007  0.044484  1
  Tc  Tc7  1  0.212522  0.257007  0.469529  1
  Tc  Tc8  1  0.837800  0.995871  0.583901  1
  Tc  Tc9  1  0.162200  0.746101  0.158071  1
  Tc  Tc10  1  0.411969  0.995871  0.158071  1
  Tc  Tc11  1  0.588031  0.746101  0.583901  1
  P  P12  1  0.387835  0.661608  0.726022  1
  P  P13  1  0.612165  0.338188  0.273772  1
  P  P14  1  0.935585  0.661608  0.273772  1
  P  P15  1  0.064415  0.338188  0.726022  1
  P  P16  1  0.500000  0.068703  0.568703  1
  P  P17  1  0.000000  0.964386  0.964386  1
