# generated using pymatgen
data_Dy4Y7Er5(CdPd)4
_symmetry_space_group_name_H-M   'P 1'
_cell_length_a   9.68405223
_cell_length_b   9.68290097
_cell_length_c   9.68695806
_cell_angle_alpha   59.97832494
_cell_angle_beta   59.97814362
_cell_angle_gamma   60.07518616
_symmetry_Int_Tables_number   1
_chemical_formula_structural   Dy4Y7Er5(CdPd)4
_chemical_formula_sum   'Dy4 Y7 Er5 Cd4 Pd4'
_cell_volume   642.44815017
_cell_formula_units_Z   1
loop_
 _symmetry_equiv_pos_site_id
 _symmetry_equiv_pos_as_xyz
  1  'x, y, z'
loop_
 _atom_site_type_symbol
 _atom_site_label
 _atom_site_symmetry_multiplicity
 _atom_site_fract_x
 _atom_site_fract_y
 _atom_site_fract_z
 _atom_site_occupancy
  Dy  Dy0  1  0.354023  0.353966  0.352548  1
  Dy  Dy1  1  0.354000  0.353971  0.939455  1
  Dy  Dy2  1  0.355344  0.936266  0.354177  1
  Dy  Dy3  1  0.936256  0.355337  0.354184  1
  Y  Y4  1  0.812343  0.812307  0.187683  1
  Y  Y5  1  0.935147  0.564435  0.565832  1
  Y  Y6  1  0.564444  0.935124  0.934557  1
  Y  Y7  1  0.564475  0.935114  0.565877  1
  Y  Y8  1  0.935090  0.564492  0.934619  1
  Y  Y9  1  0.565583  0.565549  0.934455  1
  Y  Y10  1  0.935410  0.935365  0.564580  1
  Er  Er11  1  0.812019  0.188602  0.188088  1
  Er  Er12  1  0.188514  0.812157  0.811169  1
  Er  Er13  1  0.188663  0.811970  0.188110  1
  Er  Er14  1  0.811873  0.188639  0.811358  1
  Er  Er15  1  0.188682  0.188660  0.811430  1
  Cd  Cd16  1  0.581831  0.581813  0.583056  1
  Cd  Cd17  1  0.581830  0.581812  0.253295  1
  Cd  Cd18  1  0.581227  0.253377  0.582704  1
  Cd  Cd19  1  0.253401  0.581222  0.582694  1
  Pd  Pd20  1  0.143590  0.143600  0.145595  1
  Pd  Pd21  1  0.143579  0.143590  0.567213  1
  Pd  Pd22  1  0.145456  0.567192  0.143666  1
  Pd  Pd23  1  0.567222  0.145443  0.143657  1
