# generated using pymatgen
data_Ho3Tm5In3Ir
_symmetry_space_group_name_H-M   'P 1'
_cell_length_a   10.31353600
_cell_length_b   10.31353498
_cell_length_c   7.02507400
_cell_angle_alpha   90.00000000
_cell_angle_beta   90.00000000
_cell_angle_gamma   120.00000327
_symmetry_Int_Tables_number   1
_chemical_formula_structural   Ho3Tm5In3Ir
_chemical_formula_sum   'Ho6 Tm10 In6 Ir2'
_cell_volume   647.13763199
_cell_formula_units_Z   2
loop_
 _symmetry_equiv_pos_site_id
 _symmetry_equiv_pos_as_xyz
  1  'x, y, z'
loop_
 _atom_site_type_symbol
 _atom_site_label
 _atom_site_symmetry_multiplicity
 _atom_site_fract_x
 _atom_site_fract_y
 _atom_site_fract_z
 _atom_site_occupancy
  Ho  Ho0  1  0.532950  0.065901  0.514740  1
  Ho  Ho1  1  0.934099  0.467050  0.514740  1
  Ho  Ho2  1  0.532950  0.467050  0.514740  1
  Ho  Ho3  1  0.467050  0.934099  0.014740  1
  Ho  Ho4  1  0.065901  0.532950  0.014740  1
  Ho  Ho5  1  0.467050  0.532950  0.014740  1
  Tm  Tm6  1  0.176633  0.353267  0.720347  1
  Tm  Tm7  1  0.646733  0.823367  0.720347  1
  Tm  Tm8  1  0.176633  0.823367  0.720347  1
  Tm  Tm9  1  0.823367  0.646733  0.220347  1
  Tm  Tm10  1  0.353267  0.176633  0.220347  1
  Tm  Tm11  1  0.823367  0.176633  0.220347  1
  Tm  Tm12  1  0.666667  0.333333  0.896805  1
  Tm  Tm13  1  0.333333  0.666667  0.396805  1
  Tm  Tm14  1  0.000000  0.000000  0.500480  1
  Tm  Tm15  1  0.000000  0.000000  0.000480  1
  In  In16  1  0.837375  0.674750  0.762321  1
  In  In17  1  0.325250  0.162625  0.762321  1
  In  In18  1  0.837375  0.162625  0.762321  1
  In  In19  1  0.162625  0.325250  0.262321  1
  In  In20  1  0.674750  0.837375  0.262321  1
  In  In21  1  0.162625  0.837375  0.262321  1
  Ir  Ir22  1  0.666667  0.333333  0.289492  1
  Ir  Ir23  1  0.333333  0.666667  0.789492  1
