# generated using pymatgen
data_AcZnPt4
_symmetry_space_group_name_H-M   'P 1'
_cell_length_a   5.37460414
_cell_length_b   5.63903219
_cell_length_c   4.47959200
_cell_angle_alpha   90.00000000
_cell_angle_beta   90.00000000
_cell_angle_gamma   121.64130111
_symmetry_Int_Tables_number   1
_chemical_formula_structural   AcZnPt4
_chemical_formula_sum   'Ac1 Zn1 Pt4'
_cell_volume   115.58384792
_cell_formula_units_Z   1
loop_
 _symmetry_equiv_pos_site_id
 _symmetry_equiv_pos_as_xyz
  1  'x, y, z'
loop_
 _atom_site_type_symbol
 _atom_site_label
 _atom_site_symmetry_multiplicity
 _atom_site_fract_x
 _atom_site_fract_y
 _atom_site_fract_z
 _atom_site_occupancy
  Ac  Ac0  1  0.000000  0.000000  0.000000  1
  Zn  Zn1  1  0.000000  0.500000  0.500000  1
  Pt  Pt2  1  0.670690  0.335344  0.000000  1
  Pt  Pt3  1  0.329310  0.664656  0.000000  1
  Pt  Pt4  1  0.500000  0.500000  0.500000  1
  Pt  Pt5  1  0.500000  0.000000  0.500000  1
