# generated using pymatgen
data_Ce6U2Nb11Si16Mo
_symmetry_space_group_name_H-M   'P 1'
_cell_length_a   7.09267848
_cell_length_b   7.09149566
_cell_length_c   13.16202394
_cell_angle_alpha   89.91292293
_cell_angle_beta   89.98671280
_cell_angle_gamma   90.01707437
_symmetry_Int_Tables_number   1
_chemical_formula_structural   Ce6U2Nb11Si16Mo
_chemical_formula_sum   'Ce6 U2 Nb11 Si16 Mo1'
_cell_volume   662.01870224
_cell_formula_units_Z   1
loop_
 _symmetry_equiv_pos_site_id
 _symmetry_equiv_pos_as_xyz
  1  'x, y, z'
loop_
 _atom_site_type_symbol
 _atom_site_label
 _atom_site_symmetry_multiplicity
 _atom_site_fract_x
 _atom_site_fract_y
 _atom_site_fract_z
 _atom_site_occupancy
  Ce  Ce0  1  0.996030  0.333618  0.219422  1
  Ce  Ce1  1  0.006475  0.667412  0.716662  1
  Ce  Ce2  1  0.163685  0.496706  0.466852  1
  Ce  Ce3  1  0.503594  0.837351  0.033672  1
  Ce  Ce4  1  0.836351  0.504192  0.967103  1
  Ce  Ce5  1  0.494682  0.162292  0.531745  1
  U  U6  1  0.334884  0.997749  0.781288  1
  U  U7  1  0.665528  0.001864  0.281271  1
  Nb  Nb8  1  0.170325  0.168014  0.999892  1
  Nb  Nb9  1  0.829111  0.832298  0.498307  1
  Nb  Nb10  1  0.331465  0.670086  0.250687  1
  Nb  Nb11  1  0.667588  0.329353  0.749860  1
  Nb  Nb12  1  0.844107  0.005320  0.873937  1
  Nb  Nb13  1  0.500763  0.660652  0.624031  1
  Nb  Nb14  1  0.342432  0.498465  0.875434  1
  Nb  Nb15  1  0.496556  0.337984  0.126722  1
  Nb  Nb16  1  0.657683  0.501712  0.375218  1
  Nb  Nb17  1  0.996726  0.156138  0.626551  1
  Nb  Nb18  1  0.004364  0.844286  0.127345  1
  Si  Si19  1  0.293108  0.039398  0.189305  1
  Si  Si20  1  0.705450  0.959062  0.685597  1
  Si  Si21  1  0.457047  0.794308  0.432827  1
  Si  Si22  1  0.208444  0.541196  0.064876  1
  Si  Si23  1  0.539879  0.207155  0.934662  1
  Si  Si24  1  0.790595  0.457514  0.564002  1
  Si  Si25  1  0.043711  0.292494  0.814020  1
  Si  Si26  1  0.959604  0.712572  0.314744  1
  Si  Si27  1  0.372959  0.289041  0.316166  1
  Si  Si28  1  0.627298  0.706482  0.813677  1
  Si  Si29  1  0.202576  0.873359  0.561815  1
  Si  Si30  1  0.129837  0.798133  0.934940  1
  Si  Si31  1  0.796243  0.128465  0.065401  1
  Si  Si32  1  0.873163  0.199698  0.434444  1
  Si  Si33  1  0.297996  0.369742  0.686061  1
  Si  Si34  1  0.702993  0.628896  0.186760  1
  Mo  Mo35  1  0.156749  0.996996  0.374700  1
