# generated using pymatgen
data_Nd2VIr3
_symmetry_space_group_name_H-M   'P 1'
_cell_length_a   5.68751571
_cell_length_b   5.21643701
_cell_length_c   5.68751600
_cell_angle_alpha   56.96485777
_cell_angle_beta   59.99999829
_cell_angle_gamma   56.96485085
_symmetry_Int_Tables_number   1
_chemical_formula_structural   Nd2VIr3
_chemical_formula_sum   'Nd2 V1 Ir3'
_cell_volume   113.54712662
_cell_formula_units_Z   1
loop_
 _symmetry_equiv_pos_site_id
 _symmetry_equiv_pos_as_xyz
  1  'x, y, z'
loop_
 _atom_site_type_symbol
 _atom_site_label
 _atom_site_symmetry_multiplicity
 _atom_site_fract_x
 _atom_site_fract_y
 _atom_site_fract_z
 _atom_site_occupancy
  Nd  Nd0  1  0.750149  0.749553  0.750149  1
  Nd  Nd1  1  0.499851  0.500447  0.499851  1
  V  V2  1  0.125000  0.625000  0.125000  1
  Ir  Ir3  1  0.125000  0.125000  0.625000  1
  Ir  Ir4  1  0.625000  0.125000  0.125000  1
  Ir  Ir5  1  0.125000  0.125000  0.125000  1
