# generated using pymatgen
data_Cs4AlGa3H8
_symmetry_space_group_name_H-M   'P 1'
_cell_length_a   4.65007900
_cell_length_b   7.92398012
_cell_length_c   10.10305514
_cell_angle_alpha   89.80815031
_cell_angle_beta   90.00000000
_cell_angle_gamma   90.00000000
_symmetry_Int_Tables_number   1
_chemical_formula_structural   Cs4AlGa3H8
_chemical_formula_sum   'Cs4 Al1 Ga3 H8'
_cell_volume   372.26653514
_cell_formula_units_Z   1
loop_
 _symmetry_equiv_pos_site_id
 _symmetry_equiv_pos_as_xyz
  1  'x, y, z'
loop_
 _atom_site_type_symbol
 _atom_site_label
 _atom_site_symmetry_multiplicity
 _atom_site_fract_x
 _atom_site_fract_y
 _atom_site_fract_z
 _atom_site_occupancy
  Cs  Cs0  1  0.750000  0.379054  0.674904  1
  Cs  Cs1  1  0.750000  0.878266  0.825676  1
  Cs  Cs2  1  0.250000  0.121831  0.173769  1
  Cs  Cs3  1  0.250000  0.620914  0.325142  1
  Al  Al4  1  0.250000  0.061501  0.532078  1
  Ga  Ga5  1  0.250000  0.560380  0.968906  1
  Ga  Ga6  1  0.750000  0.439576  0.031007  1
  Ga  Ga7  1  0.750000  0.938030  0.467892  1
  H  H8  1  0.750000  0.735612  0.518375  1
  H  H9  1  0.250000  0.099194  0.696469  1
  H  H10  1  0.250000  0.599075  0.805980  1
  H  H11  1  0.750000  0.236793  0.981464  1
  H  H12  1  0.250000  0.763152  0.018395  1
  H  H13  1  0.750000  0.400828  0.193762  1
  H  H14  1  0.750000  0.900057  0.305551  1
  H  H15  1  0.250000  0.265736  0.480629  1
