# generated using pymatgen
data_U8ReB24Mo2W
_symmetry_space_group_name_H-M   'P 1'
_cell_length_a   3.67708800
_cell_length_b   9.27807303
_cell_length_c   11.36954512
_cell_angle_alpha   89.99619118
_cell_angle_beta   90.00000000
_cell_angle_gamma   90.00000000
_symmetry_Int_Tables_number   1
_chemical_formula_structural   U8ReB24Mo2W
_chemical_formula_sum   'U8 Re1 B24 Mo2 W1'
_cell_volume   387.88670919
_cell_formula_units_Z   1
loop_
 _symmetry_equiv_pos_site_id
 _symmetry_equiv_pos_as_xyz
  1  'x, y, z'
loop_
 _atom_site_type_symbol
 _atom_site_label
 _atom_site_symmetry_multiplicity
 _atom_site_fract_x
 _atom_site_fract_y
 _atom_site_fract_z
 _atom_site_occupancy
  U  U0  1  0.000000  0.335130  0.407278  1
  U  U1  1  0.000000  0.664376  0.592124  1
  U  U2  1  0.000000  0.835186  0.093055  1
  U  U3  1  0.000000  0.164673  0.907821  1
  U  U4  1  0.000000  0.956258  0.394832  1
  U  U5  1  0.000000  0.044600  0.605271  1
  U  U6  1  0.000000  0.456101  0.104894  1
  U  U7  1  0.000000  0.543376  0.894569  1
  Re  Re8  1  0.000000  0.855026  0.820211  1
  B  B9  1  0.500000  0.549746  0.433344  1
  B  B10  1  0.500000  0.450169  0.566902  1
  B  B11  1  0.500000  0.049317  0.066438  1
  B  B12  1  0.500000  0.949742  0.932566  1
  B  B13  1  0.500000  0.743475  0.424754  1
  B  B14  1  0.500000  0.256786  0.575775  1
  B  B15  1  0.500000  0.243111  0.075523  1
  B  B16  1  0.500000  0.756928  0.923347  1
  B  B17  1  0.500000  0.804141  0.272984  1
  B  B18  1  0.500000  0.195431  0.727393  1
  B  B19  1  0.500000  0.303852  0.227040  1
  B  B20  1  0.500000  0.696677  0.773080  1
  B  B21  1  0.500000  0.645050  0.187207  1
  B  B22  1  0.500000  0.354968  0.812566  1
  B  B23  1  0.500000  0.144864  0.312310  1
  B  B24  1  0.500000  0.855696  0.688472  1
  B  B25  1  0.500000  0.985394  0.218654  1
  B  B26  1  0.500000  0.013627  0.781744  1
  B  B27  1  0.500000  0.485416  0.281294  1
  B  B28  1  0.500000  0.515014  0.718747  1
  B  B29  1  0.500000  0.642773  0.038827  1
  B  B30  1  0.500000  0.357486  0.960451  1
  B  B31  1  0.500000  0.142715  0.460385  1
  B  B32  1  0.500000  0.857918  0.540240  1
  Mo  Mo33  1  0.000000  0.354987  0.680195  1
  Mo  Mo34  1  0.000000  0.144706  0.179494  1
  W  W35  1  0.000000  0.645289  0.320207  1
