# generated using pymatgen
data_Ho5TmFe3Si6Ru
_symmetry_space_group_name_H-M   'P 1'
_cell_length_a   5.64247027
_cell_length_b   5.64247195
_cell_length_c   13.56431832
_cell_angle_alpha   89.75821899
_cell_angle_beta   90.24178039
_cell_angle_gamma   137.35157518
_symmetry_Int_Tables_number   1
_chemical_formula_structural   Ho5TmFe3Si6Ru
_chemical_formula_sum   'Ho5 Tm1 Fe3 Si6 Ru1'
_cell_volume   292.57696552
_cell_formula_units_Z   1
loop_
 _symmetry_equiv_pos_site_id
 _symmetry_equiv_pos_as_xyz
  1  'x, y, z'
loop_
 _atom_site_type_symbol
 _atom_site_label
 _atom_site_symmetry_multiplicity
 _atom_site_fract_x
 _atom_site_fract_y
 _atom_site_fract_z
 _atom_site_occupancy
  Ho  Ho0  1  0.636825  0.363175  0.249624  1
  Ho  Ho1  1  0.363995  0.636005  0.749847  1
  Ho  Ho2  1  0.919680  0.080320  0.112916  1
  Ho  Ho3  1  0.079127  0.920873  0.889298  1
  Ho  Ho4  1  0.080120  0.919880  0.612925  1
  Tm  Tm5  1  0.921261  0.078739  0.384978  1
  Fe  Fe6  1  0.213126  0.786874  0.418599  1
  Fe  Fe7  1  0.214532  0.785468  0.081189  1
  Fe  Fe8  1  0.784498  0.215502  0.920966  1
  Si  Si9  1  0.325671  0.674329  0.250877  1
  Si  Si10  1  0.673765  0.326235  0.754038  1
  Si  Si11  1  0.623904  0.376096  0.039884  1
  Si  Si12  1  0.374901  0.625099  0.961137  1
  Si  Si13  1  0.382038  0.617962  0.534142  1
  Si  Si14  1  0.619889  0.380111  0.457777  1
  Ru  Ru15  1  0.786668  0.213332  0.581803  1
