# generated using pymatgen
data_Na4Pb5O12
_symmetry_space_group_name_H-M   'P 1'
_cell_length_a   6.76935978
_cell_length_b   6.76948805
_cell_length_c   15.06381700
_cell_angle_alpha   102.52117674
_cell_angle_beta   102.52218950
_cell_angle_gamma   90.00054811
_symmetry_Int_Tables_number   1
_chemical_formula_structural   Na4Pb5O12
_chemical_formula_sum   'Na8 Pb10 O24'
_cell_volume   657.05144928
_cell_formula_units_Z   2
loop_
 _symmetry_equiv_pos_site_id
 _symmetry_equiv_pos_as_xyz
  1  'x, y, z'
loop_
 _atom_site_type_symbol
 _atom_site_label
 _atom_site_symmetry_multiplicity
 _atom_site_fract_x
 _atom_site_fract_y
 _atom_site_fract_z
 _atom_site_occupancy
  Na  Na0  1  0.000537  0.004388  0.002057  1
  Na  Na1  1  0.540983  0.791345  0.083204  1
  Na  Na2  1  0.081673  0.578175  0.164378  1
  Na  Na3  1  0.658835  0.673769  0.333260  1
  Na  Na4  1  0.754232  0.250892  0.502024  1
  Na  Na5  1  0.541419  0.791318  0.583061  1
  Na  Na6  1  0.328008  0.332065  0.664406  1
  Na  Na7  1  0.423693  0.908871  0.833254  1
  Pb  Pb8  1  0.541310  0.291439  0.083298  1
  Pb  Pb9  1  0.868178  0.125404  0.247734  1
  Pb  Pb10  1  0.376133  0.126106  0.248439  1
  Pb  Pb11  1  0.206606  0.956272  0.418008  1
  Pb  Pb12  1  0.206666  0.464144  0.418723  1
  Pb  Pb13  1  0.041534  0.791600  0.583312  1
  Pb  Pb14  1  0.875323  0.118561  0.747645  1
  Pb  Pb15  1  0.875940  0.626436  0.748462  1
  Pb  Pb16  1  0.706006  0.456547  0.917986  1
  Pb  Pb17  1  0.213921  0.456871  0.918815  1
  O  O18  1  0.763167  0.512487  0.067644  1
  O  O19  1  0.305130  0.513321  0.068330  1
  O  O20  1  0.777251  0.069277  0.098222  1
  O  O21  1  0.319097  0.070476  0.098818  1
  O  O22  1  0.619537  0.352161  0.242890  1
  O  O23  1  0.625268  0.925340  0.255763  1
  O  O24  1  0.126615  0.913051  0.259359  1
  O  O25  1  0.128295  0.351699  0.262666  1
  O  O26  1  0.980754  0.203798  0.403817  1
  O  O27  1  0.419312  0.205906  0.407047  1
  O  O28  1  0.407043  0.706831  0.410556  1
  O  O29  1  0.980378  0.713295  0.423745  1
  O  O30  1  0.262572  0.013456  0.567680  1
  O  O31  1  0.263408  0.555469  0.568289  1
  O  O32  1  0.819416  0.027525  0.598095  1
  O  O33  1  0.820520  0.569523  0.598833  1
  O  O34  1  0.102149  0.869792  0.742872  1
  O  O35  1  0.675250  0.875567  0.755758  1
  O  O36  1  0.662903  0.376904  0.759280  1
  O  O37  1  0.101597  0.378693  0.762693  1
  O  O38  1  0.953574  0.230822  0.903793  1
  O  O39  1  0.955625  0.669360  0.907074  1
  O  O40  1  0.456683  0.656996  0.910551  1
  O  O41  1  0.462933  0.230385  0.923736  1
