# generated using pymatgen
data_Cs2Tb6Se7N2
_symmetry_space_group_name_H-M   'P 1'
_cell_length_a   4.05593333
_cell_length_b   10.90143339
_cell_length_c   11.77748513
_cell_angle_alpha   104.12611665
_cell_angle_beta   99.91519139
_cell_angle_gamma   89.99999832
_symmetry_Int_Tables_number   1
_chemical_formula_structural   Cs2Tb6Se7N2
_chemical_formula_sum   'Cs2 Tb6 Se7 N2'
_cell_volume   496.97587412
_cell_formula_units_Z   1
loop_
 _symmetry_equiv_pos_site_id
 _symmetry_equiv_pos_as_xyz
  1  'x, y, z'
loop_
 _atom_site_type_symbol
 _atom_site_label
 _atom_site_symmetry_multiplicity
 _atom_site_fract_x
 _atom_site_fract_y
 _atom_site_fract_z
 _atom_site_occupancy
  Cs  Cs0  1  0.066272  0.700905  0.132545  1
  Cs  Cs1  1  0.933727  0.299095  0.867455  1
  Tb  Tb2  1  0.588186  0.130766  0.176373  1
  Tb  Tb3  1  0.164908  0.399320  0.329817  1
  Tb  Tb4  1  0.219248  0.133417  0.438494  1
  Tb  Tb5  1  0.780752  0.866583  0.561506  1
  Tb  Tb6  1  0.835091  0.600680  0.670183  1
  Tb  Tb7  1  0.411814  0.869233  0.823627  1
  Se  Se8  1  0.000000  0.000000  0.000000  1
  Se  Se9  1  0.579636  0.401735  0.159273  1
  Se  Se10  1  0.667536  0.952982  0.335073  1
  Se  Se11  1  0.243825  0.660285  0.487651  1
  Se  Se12  1  0.756174  0.339715  0.512349  1
  Se  Se13  1  0.332464  0.047018  0.664927  1
  Se  Se14  1  0.420364  0.598265  0.840727  1
  N  N15  1  0.136933  0.193580  0.273867  1
  N  N16  1  0.863067  0.806420  0.726133  1
