# generated using pymatgen
data_RbV2(P2O7)2
_symmetry_space_group_name_H-M   'P 1'
_cell_length_a   6.34322863
_cell_length_b   6.39822121
_cell_length_c   8.08766933
_cell_angle_alpha   96.90041253
_cell_angle_beta   101.71531466
_cell_angle_gamma   105.16707829
_symmetry_Int_Tables_number   1
_chemical_formula_structural   RbV2(P2O7)2
_chemical_formula_sum   'Rb1 V2 P4 O14'
_cell_volume   304.94972292
_cell_formula_units_Z   1
loop_
 _symmetry_equiv_pos_site_id
 _symmetry_equiv_pos_as_xyz
  1  'x, y, z'
loop_
 _atom_site_type_symbol
 _atom_site_label
 _atom_site_symmetry_multiplicity
 _atom_site_fract_x
 _atom_site_fract_y
 _atom_site_fract_z
 _atom_site_occupancy
  Rb  Rb0  1  0.000000  0.000000  0.000000  1
  V  V1  1  0.622702  0.317169  0.765737  1
  V  V2  1  0.377298  0.682831  0.234263  1
  P  P3  1  0.814360  0.534190  0.190445  1
  P  P4  1  0.185640  0.465810  0.809555  1
  P  P5  1  0.505575  0.759792  0.670144  1
  P  P6  1  0.494425  0.240208  0.329856  1
  O  O7  1  0.937719  0.342779  0.739536  1
  O  O8  1  0.062281  0.657221  0.260464  1
  O  O9  1  0.666262  0.638726  0.754537  1
  O  O10  1  0.333738  0.361274  0.245463  1
  O  O11  1  0.674815  0.698303  0.186867  1
  O  O12  1  0.325185  0.301697  0.813133  1
  O  O13  1  0.566210  0.991794  0.771526  1
  O  O14  1  0.433790  0.008206  0.228474  1
  O  O15  1  0.496665  0.754465  0.479683  1
  O  O16  1  0.503335  0.245535  0.520317  1
  O  O17  1  0.252365  0.626652  0.676288  1
  O  O18  1  0.747635  0.373348  0.323712  1
  O  O19  1  0.237371  0.617028  0.984371  1
  O  O20  1  0.762629  0.382972  0.015629  1
