# generated using pymatgen
data_Tb5Er3Re2(TcC4)2
_symmetry_space_group_name_H-M   'P 1'
_cell_length_a   5.11115100
_cell_length_b   6.58980257
_cell_length_c   9.86799890
_cell_angle_alpha   90.10159572
_cell_angle_beta   90.00000000
_cell_angle_gamma   90.00000000
_symmetry_Int_Tables_number   1
_chemical_formula_structural   Tb5Er3Re2(TcC4)2
_chemical_formula_sum   'Tb5 Er3 Re2 Tc2 C8'
_cell_volume   332.36824584
_cell_formula_units_Z   1
loop_
 _symmetry_equiv_pos_site_id
 _symmetry_equiv_pos_as_xyz
  1  'x, y, z'
loop_
 _atom_site_type_symbol
 _atom_site_label
 _atom_site_symmetry_multiplicity
 _atom_site_fract_x
 _atom_site_fract_y
 _atom_site_fract_z
 _atom_site_occupancy
  Tb  Tb0  1  0.250000  0.179668  0.942757  1
  Tb  Tb1  1  0.750000  0.467606  0.783413  1
  Tb  Tb2  1  0.250000  0.032566  0.285220  1
  Tb  Tb3  1  0.750000  0.967695  0.714256  1
  Tb  Tb4  1  0.250000  0.532137  0.215531  1
  Er  Er5  1  0.750000  0.823533  0.057442  1
  Er  Er6  1  0.250000  0.675985  0.556614  1
  Er  Er7  1  0.750000  0.323427  0.441691  1
  Re  Re8  1  0.750000  0.779043  0.365961  1
  Re  Re9  1  0.250000  0.720792  0.865084  1
  Tc  Tc10  1  0.750000  0.278209  0.135125  1
  Tc  Tc11  1  0.250000  0.221491  0.633242  1
  C  C12  1  0.750000  0.175406  0.953211  1
  C  C13  1  0.250000  0.821727  0.049007  1
  C  C14  1  0.750000  0.675239  0.549002  1
  C  C15  1  0.250000  0.325318  0.451804  1
  C  C16  1  0.750000  0.045019  0.260483  1
  C  C17  1  0.250000  0.455736  0.758379  1
  C  C18  1  0.750000  0.547404  0.241461  1
  C  C19  1  0.250000  0.951998  0.740317  1
