# generated using pymatgen
data_Hf3Al3PdPtRh
_symmetry_space_group_name_H-M   'P 1'
_cell_length_a   7.26064100
_cell_length_b   7.26064027
_cell_length_c   6.83909200
_cell_angle_alpha   90.00000000
_cell_angle_beta   90.00000000
_cell_angle_gamma   119.99999877
_symmetry_Int_Tables_number   1
_chemical_formula_structural   Hf3Al3PdPtRh
_chemical_formula_sum   'Hf6 Al6 Pd2 Pt2 Rh2'
_cell_volume   312.23311862
_cell_formula_units_Z   2
loop_
 _symmetry_equiv_pos_site_id
 _symmetry_equiv_pos_as_xyz
  1  'x, y, z'
loop_
 _atom_site_type_symbol
 _atom_site_label
 _atom_site_symmetry_multiplicity
 _atom_site_fract_x
 _atom_site_fract_y
 _atom_site_fract_z
 _atom_site_occupancy
  Hf  Hf0  1  0.744145  0.057460  0.000000  1
  Hf  Hf1  1  0.313314  0.255855  0.000000  1
  Hf  Hf2  1  0.942540  0.686686  0.000000  1
  Hf  Hf3  1  0.334768  0.265073  0.500000  1
  Hf  Hf4  1  0.734927  0.069696  0.500000  1
  Hf  Hf5  1  0.930304  0.665232  0.500000  1
  Al  Al6  1  0.595735  0.663424  0.749933  1
  Al  Al7  1  0.067689  0.404265  0.749933  1
  Al  Al8  1  0.336576  0.932311  0.749933  1
  Al  Al9  1  0.595735  0.663424  0.250067  1
  Al  Al10  1  0.067689  0.404265  0.250067  1
  Al  Al11  1  0.336576  0.932311  0.250067  1
  Pd  Pd12  1  0.333333  0.666667  0.000000  1
  Pd  Pd13  1  0.333333  0.666667  0.500000  1
  Pt  Pt14  1  0.666667  0.333333  0.767382  1
  Pt  Pt15  1  0.666667  0.333333  0.232618  1
  Rh  Rh16  1  0.000000  0.000000  0.262971  1
  Rh  Rh17  1  0.000000  0.000000  0.737029  1
