# generated using pymatgen
data_Sc3Al2GaGe2Ir
_symmetry_space_group_name_H-M   'P 1'
_cell_length_a   6.74473200
_cell_length_b   6.70256860
_cell_length_c   4.07442700
_cell_angle_alpha   90.00000000
_cell_angle_beta   90.00000000
_cell_angle_gamma   120.20831156
_symmetry_Int_Tables_number   1
_chemical_formula_structural   Sc3Al2GaGe2Ir
_chemical_formula_sum   'Sc3 Al2 Ga1 Ge2 Ir1'
_cell_volume   159.17970093
_cell_formula_units_Z   1
loop_
 _symmetry_equiv_pos_site_id
 _symmetry_equiv_pos_as_xyz
  1  'x, y, z'
loop_
 _atom_site_type_symbol
 _atom_site_label
 _atom_site_symmetry_multiplicity
 _atom_site_fract_x
 _atom_site_fract_y
 _atom_site_fract_z
 _atom_site_occupancy
  Sc  Sc0  1  0.413337  0.000000  0.000000  1
  Sc  Sc1  1  0.999007  0.412577  0.000000  1
  Sc  Sc2  1  0.586430  0.587422  0.000000  1
  Al  Al3  1  0.236433  0.235346  0.500000  1
  Al  Al4  1  0.001089  0.764654  0.500000  1
  Ga  Ga5  1  0.759881  0.000000  0.500000  1
  Ge  Ge6  1  0.666291  0.335344  0.500000  1
  Ge  Ge7  1  0.330948  0.664657  0.500000  1
  Ir  Ir8  1  0.006584  0.000000  0.000000  1
