# generated using pymatgen
data_Tb12Tc2IrRh
_symmetry_space_group_name_H-M   'P 1'
_cell_length_a   6.36669400
_cell_length_b   7.35700103
_cell_length_c   9.25349800
_cell_angle_alpha   90.00000000
_cell_angle_beta   90.00000000
_cell_angle_gamma   90.10784726
_symmetry_Int_Tables_number   1
_chemical_formula_structural   Tb12Tc2IrRh
_chemical_formula_sum   'Tb12 Tc2 Ir1 Rh1'
_cell_volume   433.43099030
_cell_formula_units_Z   1
loop_
 _symmetry_equiv_pos_site_id
 _symmetry_equiv_pos_as_xyz
  1  'x, y, z'
loop_
 _atom_site_type_symbol
 _atom_site_label
 _atom_site_symmetry_multiplicity
 _atom_site_fract_x
 _atom_site_fract_y
 _atom_site_fract_z
 _atom_site_occupancy
  Tb  Tb0  1  0.636599  0.041517  0.250000  1
  Tb  Tb1  1  0.370864  0.960903  0.750000  1
  Tb  Tb2  1  0.127829  0.461270  0.750000  1
  Tb  Tb3  1  0.862975  0.541360  0.250000  1
  Tb  Tb4  1  0.168464  0.178083  0.061087  1
  Tb  Tb5  1  0.827428  0.822792  0.932399  1
  Tb  Tb6  1  0.671734  0.322227  0.933521  1
  Tb  Tb7  1  0.827428  0.822792  0.567601  1
  Tb  Tb8  1  0.332904  0.675757  0.060356  1
  Tb  Tb9  1  0.168464  0.178083  0.438913  1
  Tb  Tb10  1  0.332904  0.675757  0.439644  1
  Tb  Tb11  1  0.671734  0.322227  0.566479  1
  Tc  Tc12  1  0.535439  0.612537  0.750000  1
  Tc  Tc13  1  0.964686  0.112949  0.750000  1
  Ir  Ir14  1  0.454232  0.385346  0.250000  1
  Rh  Rh15  1  0.046313  0.886400  0.250000  1
