# generated using pymatgen
data_Li3Ac4ZnPd4
_symmetry_space_group_name_H-M   'P 1'
_cell_length_a   7.58400379
_cell_length_b   4.28392200
_cell_length_c   8.91720300
_cell_angle_alpha   90.00000000
_cell_angle_beta   89.84488426
_cell_angle_gamma   90.00000000
_symmetry_Int_Tables_number   1
_chemical_formula_structural   Li3Ac4ZnPd4
_chemical_formula_sum   'Li3 Ac4 Zn1 Pd4'
_cell_volume   289.71244959
_cell_formula_units_Z   1
loop_
 _symmetry_equiv_pos_site_id
 _symmetry_equiv_pos_as_xyz
  1  'x, y, z'
loop_
 _atom_site_type_symbol
 _atom_site_label
 _atom_site_symmetry_multiplicity
 _atom_site_fract_x
 _atom_site_fract_y
 _atom_site_fract_z
 _atom_site_occupancy
  Li  Li0  1  0.629205  0.250000  0.554659  1
  Li  Li1  1  0.120511  0.250000  0.947409  1
  Li  Li2  1  0.374408  0.750000  0.446165  1
  Ac  Ac3  1  0.039654  0.250000  0.307644  1
  Ac  Ac4  1  0.546684  0.250000  0.187792  1
  Ac  Ac5  1  0.957395  0.750000  0.690269  1
  Ac  Ac6  1  0.457146  0.750000  0.811753  1
  Zn  Zn7  1  0.873279  0.750000  0.055517  1
  Pd  Pd8  1  0.251157  0.250000  0.614316  1
  Pd  Pd9  1  0.756523  0.250000  0.890689  1
  Pd  Pd10  1  0.750125  0.750000  0.381935  1
  Pd  Pd11  1  0.243912  0.750000  0.111851  1
