# generated using pymatgen
data_Y2Er3Al2Ru3
_symmetry_space_group_name_H-M   'P 1'
_cell_length_a   8.32463196
_cell_length_b   8.32463205
_cell_length_c   8.32463172
_cell_angle_alpha   109.54476978
_cell_angle_beta   109.54476820
_cell_angle_gamma   109.54477236
_symmetry_Int_Tables_number   1
_chemical_formula_structural   Y2Er3Al2Ru3
_chemical_formula_sum   'Y4 Er6 Al4 Ru6'
_cell_volume   442.87885005
_cell_formula_units_Z   2
loop_
 _symmetry_equiv_pos_site_id
 _symmetry_equiv_pos_as_xyz
  1  'x, y, z'
loop_
 _atom_site_type_symbol
 _atom_site_label
 _atom_site_symmetry_multiplicity
 _atom_site_fract_x
 _atom_site_fract_y
 _atom_site_fract_z
 _atom_site_occupancy
  Y  Y0  1  0.782570  0.782570  0.782570  1
  Y  Y1  1  0.317620  0.567577  0.750444  1
  Y  Y2  1  0.750444  0.317620  0.567577  1
  Y  Y3  1  0.567577  0.750444  0.317620  1
  Er  Er4  1  0.714106  0.502564  0.001425  1
  Er  Er5  1  0.001425  0.714106  0.502564  1
  Er  Er6  1  0.502564  0.001425  0.714106  1
  Er  Er7  1  0.250597  0.179430  0.929076  1
  Er  Er8  1  0.929076  0.250597  0.179430  1
  Er  Er9  1  0.179430  0.929076  0.250597  1
  Al  Al10  1  0.406337  0.406337  0.406337  1
  Al  Al11  1  0.089281  0.499313  0.002864  1
  Al  Al12  1  0.002864  0.089281  0.499313  1
  Al  Al13  1  0.499313  0.002864  0.089281  1
  Ru  Ru14  1  0.881007  0.127277  0.750072  1
  Ru  Ru15  1  0.750072  0.881007  0.127277  1
  Ru  Ru16  1  0.127277  0.750072  0.881007  1
  Ru  Ru17  1  0.248552  0.623032  0.376860  1
  Ru  Ru18  1  0.376860  0.248552  0.623032  1
  Ru  Ru19  1  0.623032  0.376860  0.248552  1
