# generated using pymatgen
data_CsTl2Ag(NO3)8
_symmetry_space_group_name_H-M   'P 1'
_cell_length_a   8.26554191
_cell_length_b   8.22465178
_cell_length_c   8.42220631
_cell_angle_alpha   87.20335470
_cell_angle_beta   88.25714829
_cell_angle_gamma   87.27907330
_symmetry_Int_Tables_number   1
_chemical_formula_structural   CsTl2Ag(NO3)8
_chemical_formula_sum   'Cs1 Tl2 Ag1 N8 O24'
_cell_volume   570.99851117
_cell_formula_units_Z   1
loop_
 _symmetry_equiv_pos_site_id
 _symmetry_equiv_pos_as_xyz
  1  'x, y, z'
loop_
 _atom_site_type_symbol
 _atom_site_label
 _atom_site_symmetry_multiplicity
 _atom_site_fract_x
 _atom_site_fract_y
 _atom_site_fract_z
 _atom_site_occupancy
  Cs  Cs0  1  0.000000  0.000000  0.000000  1
  Tl  Tl1  1  0.000000  0.500000  0.500000  1
  Tl  Tl2  1  0.500000  0.500000  0.000000  1
  Ag  Ag3  1  0.500000  0.000000  0.500000  1
  N  N4  1  0.331467  0.339740  0.321098  1
  N  N5  1  0.370034  0.200559  0.863930  1
  N  N6  1  0.186473  0.815872  0.387505  1
  N  N7  1  0.838364  0.380135  0.198849  1
  N  N8  1  0.668533  0.660260  0.678902  1
  N  N9  1  0.161636  0.619865  0.801151  1
  N  N10  1  0.813527  0.184128  0.612495  1
  N  N11  1  0.629966  0.799441  0.136070  1
  O  O12  1  0.744197  0.349105  0.086621  1
  O  O13  1  0.205893  0.939362  0.299928  1
  O  O14  1  0.274638  0.771452  0.499765  1
  O  O15  1  0.275079  0.233720  0.976333  1
  O  O16  1  0.235762  0.322340  0.442478  1
  O  O17  1  0.446719  0.239146  0.300536  1
  O  O18  1  0.305593  0.461633  0.223669  1
  O  O19  1  0.191613  0.493183  0.721712  1
  O  O20  1  0.939490  0.270992  0.645796  1
  O  O21  1  0.647400  0.910151  0.228389  1
  O  O22  1  0.043125  0.714065  0.771505  1
  O  O23  1  0.500207  0.711432  0.160680  1
  O  O24  1  0.794107  0.060638  0.700072  1
  O  O25  1  0.725362  0.228548  0.500235  1
  O  O26  1  0.724921  0.766280  0.023667  1
  O  O27  1  0.255803  0.650895  0.913379  1
  O  O28  1  0.764238  0.677660  0.557522  1
  O  O29  1  0.553281  0.760854  0.699464  1
  O  O30  1  0.694407  0.538367  0.776331  1
  O  O31  1  0.808387  0.506817  0.278288  1
  O  O32  1  0.060510  0.729008  0.354204  1
  O  O33  1  0.352600  0.089849  0.771611  1
  O  O34  1  0.956875  0.285935  0.228495  1
  O  O35  1  0.499793  0.288568  0.839320  1
