# generated using pymatgen
data_SiPPd3Ru
_symmetry_space_group_name_H-M   'P 1'
_cell_length_a   3.85582900
_cell_length_b   6.19023320
_cell_length_c   7.27399952
_cell_angle_alpha   86.30240754
_cell_angle_beta   90.00000000
_cell_angle_gamma   90.00000000
_symmetry_Int_Tables_number   1
_chemical_formula_structural   SiPPd3Ru
_chemical_formula_sum   'Si2 P2 Pd6 Ru2'
_cell_volume   173.25789860
_cell_formula_units_Z   2
loop_
 _symmetry_equiv_pos_site_id
 _symmetry_equiv_pos_as_xyz
  1  'x, y, z'
loop_
 _atom_site_type_symbol
 _atom_site_label
 _atom_site_symmetry_multiplicity
 _atom_site_fract_x
 _atom_site_fract_y
 _atom_site_fract_z
 _atom_site_occupancy
  Si  Si0  1  0.250000  0.745499  0.629120  1
  Si  Si1  1  0.750000  0.254501  0.370880  1
  P  P2  1  0.250000  0.234135  0.898999  1
  P  P3  1  0.750000  0.765865  0.101001  1
  Pd  Pd4  1  0.750000  0.010668  0.652418  1
  Pd  Pd5  1  0.250000  0.989332  0.347582  1
  Pd  Pd6  1  0.750000  0.551076  0.821857  1
  Pd  Pd7  1  0.250000  0.448924  0.178143  1
  Pd  Pd8  1  0.250000  0.354224  0.586954  1
  Pd  Pd9  1  0.750000  0.645776  0.413046  1
  Ru  Ru10  1  0.250000  0.856555  0.938374  1
  Ru  Ru11  1  0.750000  0.143445  0.061626  1
