# generated using pymatgen
data_DyAg4HgO8
_symmetry_space_group_name_H-M   'P 1'
_cell_length_a   6.65420259
_cell_length_b   6.65420360
_cell_length_c   6.65420336
_cell_angle_alpha   126.07050489
_cell_angle_beta   126.07050980
_cell_angle_gamma   79.77229273
_symmetry_Int_Tables_number   1
_chemical_formula_structural   DyAg4HgO8
_chemical_formula_sum   'Dy1 Ag4 Hg1 O8'
_cell_volume   185.93821256
_cell_formula_units_Z   1
loop_
 _symmetry_equiv_pos_site_id
 _symmetry_equiv_pos_as_xyz
  1  'x, y, z'
loop_
 _atom_site_type_symbol
 _atom_site_label
 _atom_site_symmetry_multiplicity
 _atom_site_fract_x
 _atom_site_fract_y
 _atom_site_fract_z
 _atom_site_occupancy
  Dy  Dy0  1  0.750000  0.250000  0.500000  1
  Ag  Ag1  1  0.369890  0.126636  0.744874  1
  Ag  Ag2  1  0.381762  0.625016  0.255126  1
  Ag  Ag3  1  0.873364  0.618238  0.243254  1
  Ag  Ag4  1  0.374984  0.630110  0.756746  1
  Hg  Hg5  1  0.000000  0.000000  0.000000  1
  O  O6  1  0.032676  0.999720  0.635572  1
  O  O7  1  0.602898  0.967324  0.967045  1
  O  O8  1  0.000280  0.635853  0.032955  1
  O  O9  1  0.412797  0.865978  0.166051  1
  O  O10  1  0.753255  0.587203  0.453181  1
  O  O11  1  0.134022  0.300074  0.546819  1
  O  O12  1  0.364147  0.397102  0.364428  1
  O  O13  1  0.699926  0.246745  0.833949  1
