# generated using pymatgen
data_TmLu3(AlB6)2
_symmetry_space_group_name_H-M   'P 1'
_cell_length_a   3.54947700
_cell_length_b   9.11911617
_cell_length_c   11.46644600
_cell_angle_alpha   90.01159068
_cell_angle_beta   90.00000000
_cell_angle_gamma   90.00000000
_symmetry_Int_Tables_number   1
_chemical_formula_structural   TmLu3(AlB6)2
_chemical_formula_sum   'Tm2 Lu6 Al4 B24'
_cell_volume   371.14698421
_cell_formula_units_Z   2
loop_
 _symmetry_equiv_pos_site_id
 _symmetry_equiv_pos_as_xyz
  1  'x, y, z'
loop_
 _atom_site_type_symbol
 _atom_site_label
 _atom_site_symmetry_multiplicity
 _atom_site_fract_x
 _atom_site_fract_y
 _atom_site_fract_z
 _atom_site_occupancy
  Tm  Tm0  1  0.500000  0.321829  0.413266  1
  Tm  Tm1  1  0.500000  0.678171  0.586734  1
  Lu  Lu2  1  0.500000  0.178280  0.913344  1
  Lu  Lu3  1  0.500000  0.821720  0.086656  1
  Lu  Lu4  1  0.500000  0.443830  0.127964  1
  Lu  Lu5  1  0.500000  0.556170  0.872036  1
  Lu  Lu6  1  0.500000  0.056088  0.628410  1
  Lu  Lu7  1  0.500000  0.943912  0.371590  1
  Al  Al8  1  0.500000  0.140310  0.179472  1
  Al  Al9  1  0.500000  0.859690  0.820528  1
  Al  Al10  1  0.500000  0.359537  0.679912  1
  Al  Al11  1  0.500000  0.640463  0.320088  1
  B  B12  1  0.000000  0.102202  0.471693  1
  B  B13  1  0.000000  0.897798  0.528307  1
  B  B14  1  0.000000  0.397121  0.971502  1
  B  B15  1  0.000000  0.602879  0.028498  1
  B  B16  1  0.000000  0.131870  0.317447  1
  B  B17  1  0.000000  0.868130  0.682553  1
  B  B18  1  0.000000  0.367783  0.817973  1
  B  B19  1  0.000000  0.632217  0.182027  1
  B  B20  1  0.000000  0.050671  0.063620  1
  B  B21  1  0.000000  0.949329  0.936380  1
  B  B22  1  0.000000  0.449197  0.563980  1
  B  B23  1  0.000000  0.550803  0.436020  1
  B  B24  1  0.000000  0.479334  0.287496  1
  B  B25  1  0.000000  0.520666  0.712504  1
  B  B26  1  0.000000  0.020938  0.788288  1
  B  B27  1  0.000000  0.979062  0.211712  1
  B  B28  1  0.000000  0.251191  0.078813  1
  B  B29  1  0.000000  0.748809  0.921187  1
  B  B30  1  0.000000  0.248392  0.579472  1
  B  B31  1  0.000000  0.751608  0.420528  1
  B  B32  1  0.000000  0.297218  0.237150  1
  B  B33  1  0.000000  0.702782  0.762850  1
  B  B34  1  0.000000  0.202630  0.738008  1
  B  B35  1  0.000000  0.797370  0.261992  1
