# generated using pymatgen
data_Y16Sc4Ir5Rh7
_symmetry_space_group_name_H-M   'P 1'
_cell_length_a   10.81249825
_cell_length_b   10.81249825
_cell_length_c   6.29267604
_cell_angle_alpha   89.99043041
_cell_angle_beta   89.99043041
_cell_angle_gamma   90.02260527
_symmetry_Int_Tables_number   1
_chemical_formula_structural   Y16Sc4Ir5Rh7
_chemical_formula_sum   'Y16 Sc4 Ir5 Rh7'
_cell_volume   735.67742334
_cell_formula_units_Z   1
loop_
 _symmetry_equiv_pos_site_id
 _symmetry_equiv_pos_as_xyz
  1  'x, y, z'
loop_
 _atom_site_type_symbol
 _atom_site_label
 _atom_site_symmetry_multiplicity
 _atom_site_fract_x
 _atom_site_fract_y
 _atom_site_fract_z
 _atom_site_occupancy
  Y  Y0  1  0.286843  0.086720  0.378068  1
  Y  Y1  1  0.286755  0.911813  0.878944  1
  Y  Y2  1  0.712731  0.087973  0.878680  1
  Y  Y3  1  0.712396  0.911901  0.378103  1
  Y  Y4  1  0.585759  0.786112  0.878978  1
  Y  Y5  1  0.585603  0.213902  0.379009  1
  Y  Y6  1  0.413046  0.786368  0.378892  1
  Y  Y7  1  0.414199  0.213913  0.878885  1
  Y  Y8  1  0.213888  0.414241  0.621022  1
  Y  Y9  1  0.213632  0.586954  0.121108  1
  Y  Y10  1  0.786098  0.414397  0.120991  1
  Y  Y11  1  0.786087  0.585801  0.621115  1
  Y  Y12  1  0.913280  0.713157  0.121932  1
  Y  Y13  1  0.912027  0.287269  0.621320  1
  Y  Y14  1  0.088187  0.713245  0.621056  1
  Y  Y15  1  0.088099  0.287604  0.121897  1
  Sc  Sc16  1  0.000397  0.999474  0.499385  1
  Sc  Sc17  1  0.000526  0.999603  0.000615  1
  Sc  Sc18  1  0.499945  0.499930  0.999927  1
  Sc  Sc19  1  0.500070  0.500055  0.500073  1
  Ir  Ir20  1  0.146072  0.853928  0.250000  1
  Ir  Ir21  1  0.647712  0.352288  0.750000  1
  Ir  Ir22  1  0.647568  0.647588  0.250005  1
  Ir  Ir23  1  0.352412  0.352432  0.249995  1
  Ir  Ir24  1  0.352899  0.647101  0.750000  1
  Rh  Rh25  1  0.853811  0.146189  0.250000  1
  Rh  Rh26  1  0.853383  0.853954  0.749953  1
  Rh  Rh27  1  0.146046  0.146617  0.750047  1
  Rh  Rh28  1  0.500427  0.000137  0.124656  1
  Rh  Rh29  1  0.500341  0.000103  0.625131  1
  Rh  Rh30  1  0.999897  0.499659  0.874869  1
  Rh  Rh31  1  0.999863  0.499573  0.375344  1
