# generated using pymatgen
data_La4Zn4IrRh9
_symmetry_space_group_name_H-M   'P 1'
_cell_length_a   12.75442426
_cell_length_b   12.75442430
_cell_length_c   12.75442500
_cell_angle_alpha   25.05132355
_cell_angle_beta   25.05132514
_cell_angle_gamma   25.05132291
_symmetry_Int_Tables_number   1
_chemical_formula_structural   La4Zn4IrRh9
_chemical_formula_sum   'La4 Zn4 Ir1 Rh9'
_cell_volume   327.29223836
_cell_formula_units_Z   1
loop_
 _symmetry_equiv_pos_site_id
 _symmetry_equiv_pos_as_xyz
  1  'x, y, z'
loop_
 _atom_site_type_symbol
 _atom_site_label
 _atom_site_symmetry_multiplicity
 _atom_site_fract_x
 _atom_site_fract_y
 _atom_site_fract_z
 _atom_site_occupancy
  La  La0  1  0.950967  0.950967  0.950967  1
  La  La1  1  0.049033  0.049033  0.049033  1
  La  La2  1  0.853505  0.853505  0.853505  1
  La  La3  1  0.146495  0.146495  0.146495  1
  Zn  Zn4  1  0.721032  0.721032  0.721032  1
  Zn  Zn5  1  0.278968  0.278968  0.278968  1
  Zn  Zn6  1  0.611449  0.611449  0.611449  1
  Zn  Zn7  1  0.388551  0.388551  0.388551  1
  Ir  Ir8  1  0.500000  0.500000  0.500000  1
  Rh  Rh9  1  0.500000  0.500000  0.000000  1
  Rh  Rh10  1  0.000000  0.500000  0.500000  1
  Rh  Rh11  1  0.500000  0.000000  0.500000  1
  Rh  Rh12  1  0.388556  0.893247  0.388556  1
  Rh  Rh13  1  0.388556  0.388556  0.893247  1
  Rh  Rh14  1  0.893247  0.388556  0.388556  1
  Rh  Rh15  1  0.611444  0.106753  0.611444  1
  Rh  Rh16  1  0.611444  0.611444  0.106753  1
  Rh  Rh17  1  0.106753  0.611444  0.611444  1
