# generated using pymatgen
data_Pr12PdRu2Au
_symmetry_space_group_name_H-M   'P 1'
_cell_length_a   6.59013729
_cell_length_b   7.49887381
_cell_length_c   10.04909900
_cell_angle_alpha   90.00000000
_cell_angle_beta   90.00000000
_cell_angle_gamma   90.30369671
_symmetry_Int_Tables_number   1
_chemical_formula_structural   Pr12PdRu2Au
_chemical_formula_sum   'Pr12 Pd1 Ru2 Au1'
_cell_volume   496.60550707
_cell_formula_units_Z   1
loop_
 _symmetry_equiv_pos_site_id
 _symmetry_equiv_pos_as_xyz
  1  'x, y, z'
loop_
 _atom_site_type_symbol
 _atom_site_label
 _atom_site_symmetry_multiplicity
 _atom_site_fract_x
 _atom_site_fract_y
 _atom_site_fract_z
 _atom_site_occupancy
  Pr  Pr0  1  0.334668  0.673730  0.065240  1
  Pr  Pr1  1  0.167792  0.184174  0.433792  1
  Pr  Pr2  1  0.659545  0.329359  0.562196  1
  Pr  Pr3  1  0.829898  0.809968  0.938239  1
  Pr  Pr4  1  0.659545  0.329359  0.937804  1
  Pr  Pr5  1  0.829898  0.809968  0.561761  1
  Pr  Pr6  1  0.334668  0.673730  0.434760  1
  Pr  Pr7  1  0.167792  0.184174  0.066208  1
  Pr  Pr8  1  0.849575  0.526767  0.250000  1
  Pr  Pr9  1  0.633062  0.044271  0.250000  1
  Pr  Pr10  1  0.148813  0.481498  0.750000  1
  Pr  Pr11  1  0.377219  0.956888  0.750000  1
  Pd  Pd12  1  0.067138  0.882652  0.250000  1
  Ru  Ru13  1  0.430622  0.380561  0.250000  1
  Ru  Ru14  1  0.573642  0.618622  0.750000  1
  Au  Au15  1  0.936124  0.114280  0.750000  1
