# generated using pymatgen
data_Pr8Cd5In3Rh8
_symmetry_space_group_name_H-M   'P 1'
_cell_length_a   4.18585000
_cell_length_b   7.74263662
_cell_length_c   17.23881000
_cell_angle_alpha   90.24121964
_cell_angle_beta   90.00000000
_cell_angle_gamma   90.00000000
_symmetry_Int_Tables_number   1
_chemical_formula_structural   Pr8Cd5In3Rh8
_chemical_formula_sum   'Pr8 Cd5 In3 Rh8'
_cell_volume   558.69652827
_cell_formula_units_Z   1
loop_
 _symmetry_equiv_pos_site_id
 _symmetry_equiv_pos_as_xyz
  1  'x, y, z'
loop_
 _atom_site_type_symbol
 _atom_site_label
 _atom_site_symmetry_multiplicity
 _atom_site_fract_x
 _atom_site_fract_y
 _atom_site_fract_z
 _atom_site_occupancy
  Pr  Pr0  1  0.750000  0.335892  0.439169  1
  Pr  Pr1  1  0.250000  0.055536  0.715961  1
  Pr  Pr2  1  0.250000  0.553086  0.783603  1
  Pr  Pr3  1  0.250000  0.665000  0.562021  1
  Pr  Pr4  1  0.750000  0.832403  0.060309  1
  Pr  Pr5  1  0.250000  0.166616  0.938896  1
  Pr  Pr6  1  0.750000  0.447544  0.215151  1
  Pr  Pr7  1  0.750000  0.945259  0.284338  1
  Cd  Cd8  1  0.750000  0.003543  0.566274  1
  Cd  Cd9  1  0.250000  0.500979  0.063115  1
  Cd  Cd10  1  0.750000  0.381131  0.652519  1
  Cd  Cd11  1  0.750000  0.498982  0.936125  1
  Cd  Cd12  1  0.250000  0.615844  0.346763  1
  In  In13  1  0.250000  0.117665  0.152455  1
  In  In14  1  0.250000  0.997515  0.436550  1
  In  In15  1  0.750000  0.882262  0.847468  1
  Rh  Rh16  1  0.750000  0.243753  0.813830  1
  Rh  Rh17  1  0.250000  0.240158  0.313155  1
  Rh  Rh18  1  0.250000  0.755749  0.934114  1
  Rh  Rh19  1  0.250000  0.255731  0.558899  1
  Rh  Rh20  1  0.250000  0.755191  0.185192  1
  Rh  Rh21  1  0.750000  0.752310  0.439623  1
  Rh  Rh22  1  0.750000  0.244236  0.065060  1
  Rh  Rh23  1  0.750000  0.753615  0.689405  1
