# generated using pymatgen
data_Sr3CuBi2H
_symmetry_space_group_name_H-M   'P 1'
_cell_length_a   4.76393400
_cell_length_b   12.93319400
_cell_length_c   13.17200600
_cell_angle_alpha   90.00000000
_cell_angle_beta   90.00000000
_cell_angle_gamma   90.00000000
_symmetry_Int_Tables_number   1
_chemical_formula_structural   Sr3CuBi2H
_chemical_formula_sum   'Sr12 Cu4 Bi8 H4'
_cell_volume   811.56525962
_cell_formula_units_Z   4
loop_
 _symmetry_equiv_pos_site_id
 _symmetry_equiv_pos_as_xyz
  1  'x, y, z'
loop_
 _atom_site_type_symbol
 _atom_site_label
 _atom_site_symmetry_multiplicity
 _atom_site_fract_x
 _atom_site_fract_y
 _atom_site_fract_z
 _atom_site_occupancy
  Sr  Sr0  1  0.250000  0.064118  0.623371  1
  Sr  Sr1  1  0.250000  0.564118  0.876629  1
  Sr  Sr2  1  0.750000  0.935882  0.376629  1
  Sr  Sr3  1  0.750000  0.435882  0.123371  1
  Sr  Sr4  1  0.250000  0.213996  0.292651  1
  Sr  Sr5  1  0.250000  0.713996  0.207349  1
  Sr  Sr6  1  0.750000  0.786004  0.707349  1
  Sr  Sr7  1  0.750000  0.286004  0.792651  1
  Sr  Sr8  1  0.250000  0.376062  0.552667  1
  Sr  Sr9  1  0.250000  0.876062  0.947333  1
  Sr  Sr10  1  0.750000  0.623938  0.447333  1
  Sr  Sr11  1  0.750000  0.123938  0.052667  1
  Cu  Cu12  1  0.250000  0.145244  0.846859  1
  Cu  Cu13  1  0.250000  0.645244  0.653141  1
  Cu  Cu14  1  0.750000  0.854756  0.153141  1
  Cu  Cu15  1  0.750000  0.354756  0.346859  1
  Bi  Bi16  1  0.250000  0.307770  0.989813  1
  Bi  Bi17  1  0.250000  0.807770  0.510187  1
  Bi  Bi18  1  0.750000  0.692230  0.010187  1
  Bi  Bi19  1  0.750000  0.192230  0.489813  1
  Bi  Bi20  1  0.250000  0.477112  0.317786  1
  Bi  Bi21  1  0.250000  0.977112  0.182214  1
  Bi  Bi22  1  0.750000  0.522888  0.682214  1
  Bi  Bi23  1  0.750000  0.022888  0.817786  1
  H  H24  1  0.250000  0.223764  0.739258  1
  H  H25  1  0.250000  0.723764  0.760742  1
  H  H26  1  0.750000  0.776236  0.260742  1
  H  H27  1  0.750000  0.276236  0.239258  1
