# generated using pymatgen
data_Na2TiSe2O
_symmetry_space_group_name_H-M   'P 1'
_cell_length_a   14.20927700
_cell_length_b   5.93390173
_cell_length_c   7.22779365
_cell_angle_alpha   67.57284677
_cell_angle_beta   90.00000000
_cell_angle_gamma   90.00000000
_symmetry_Int_Tables_number   1
_chemical_formula_structural   Na2TiSe2O
_chemical_formula_sum   'Na8 Ti4 Se8 O4'
_cell_volume   563.32850352
_cell_formula_units_Z   4
loop_
 _symmetry_equiv_pos_site_id
 _symmetry_equiv_pos_as_xyz
  1  'x, y, z'
loop_
 _atom_site_type_symbol
 _atom_site_label
 _atom_site_symmetry_multiplicity
 _atom_site_fract_x
 _atom_site_fract_y
 _atom_site_fract_z
 _atom_site_occupancy
  Na  Na0  1  0.359825  0.454200  0.604189  1
  Na  Na1  1  0.941224  0.353745  0.792521  1
  Na  Na2  1  0.140175  0.954200  0.604189  1
  Na  Na3  1  0.441224  0.146255  0.207479  1
  Na  Na4  1  0.558776  0.853745  0.792521  1
  Na  Na5  1  0.859825  0.045800  0.395811  1
  Na  Na6  1  0.058776  0.646255  0.207479  1
  Na  Na7  1  0.640175  0.545800  0.395811  1
  Ti  Ti8  1  0.312562  0.838672  0.980404  1
  Ti  Ti9  1  0.687438  0.161328  0.019596  1
  Ti  Ti10  1  0.187438  0.338672  0.980404  1
  Ti  Ti11  1  0.812562  0.661328  0.019596  1
  Se  Se12  1  0.559285  0.353465  0.806278  1
  Se  Se13  1  0.356251  0.940844  0.639371  1
  Se  Se14  1  0.856251  0.559156  0.360629  1
  Se  Se15  1  0.940715  0.853465  0.806278  1
  Se  Se16  1  0.643749  0.059156  0.360629  1
  Se  Se17  1  0.143749  0.440844  0.639371  1
  Se  Se18  1  0.440715  0.646535  0.193722  1
  Se  Se19  1  0.059285  0.146535  0.193722  1
  O  O20  1  0.711383  0.872619  0.980148  1
  O  O21  1  0.211383  0.627381  0.019852  1
  O  O22  1  0.788617  0.372619  0.980148  1
  O  O23  1  0.288617  0.127381  0.019852  1
