# generated using pymatgen
data_Tb3Pr16DySi16
_symmetry_space_group_name_H-M   'P 1'
_cell_length_a   7.84667701
_cell_length_b   7.84667701
_cell_length_c   15.37551501
_cell_angle_alpha   89.99760624
_cell_angle_beta   90.00239376
_cell_angle_gamma   90.00601680
_symmetry_Int_Tables_number   1
_chemical_formula_structural   Tb3Pr16DySi16
_chemical_formula_sum   'Tb3 Pr16 Dy1 Si16'
_cell_volume   946.67568190
_cell_formula_units_Z   1
loop_
 _symmetry_equiv_pos_site_id
 _symmetry_equiv_pos_as_xyz
  1  'x, y, z'
loop_
 _atom_site_type_symbol
 _atom_site_label
 _atom_site_symmetry_multiplicity
 _atom_site_fract_x
 _atom_site_fract_y
 _atom_site_fract_z
 _atom_site_occupancy
  Tb  Tb0  1  0.309735  0.309735  0.000000  1
  Tb  Tb1  1  0.190232  0.809731  0.250004  1
  Tb  Tb2  1  0.809731  0.190232  0.749996  1
  Pr  Pr3  1  0.378380  0.013304  0.445322  1
  Pr  Pr4  1  0.486717  0.878380  0.695290  1
  Pr  Pr5  1  0.513308  0.121627  0.195312  1
  Pr  Pr6  1  0.878380  0.486717  0.304710  1
  Pr  Pr7  1  0.121627  0.513308  0.804688  1
  Pr  Pr8  1  0.621619  0.986680  0.945317  1
  Pr  Pr9  1  0.013304  0.378380  0.554678  1
  Pr  Pr10  1  0.986680  0.621619  0.054683  1
  Pr  Pr11  1  0.125217  0.975581  0.878897  1
  Pr  Pr12  1  0.524436  0.625190  0.128894  1
  Pr  Pr13  1  0.475614  0.374801  0.628876  1
  Pr  Pr14  1  0.625190  0.524436  0.871106  1
  Pr  Pr15  1  0.374801  0.475614  0.371124  1
  Pr  Pr16  1  0.874780  0.024407  0.378903  1
  Pr  Pr17  1  0.975581  0.125217  0.121103  1
  Pr  Pr18  1  0.024407  0.874780  0.621097  1
  Dy  Dy19  1  0.690126  0.690126  0.500000  1
  Si  Si20  1  0.187633  0.171767  0.709071  1
  Si  Si21  1  0.328257  0.687631  0.959062  1
  Si  Si22  1  0.671769  0.312541  0.459076  1
  Si  Si23  1  0.687631  0.328257  0.040938  1
  Si  Si24  1  0.312541  0.671769  0.540924  1
  Si  Si25  1  0.812378  0.828240  0.209082  1
  Si  Si26  1  0.171767  0.187633  0.290929  1
  Si  Si27  1  0.828240  0.812378  0.790918  1
  Si  Si28  1  0.286942  0.921064  0.063521  1
  Si  Si29  1  0.578995  0.786894  0.313628  1
  Si  Si30  1  0.421066  0.213066  0.813514  1
  Si  Si31  1  0.786894  0.578995  0.686372  1
  Si  Si32  1  0.213066  0.421066  0.186486  1
  Si  Si33  1  0.713054  0.078837  0.563509  1
  Si  Si34  1  0.921064  0.286942  0.936479  1
  Si  Si35  1  0.078837  0.713054  0.436491  1
