# generated using pymatgen
data_BaLa2(FeH6)2
_symmetry_space_group_name_H-M   'P 1'
_cell_length_a   5.06155300
_cell_length_b   5.06155370
_cell_length_c   8.51094500
_cell_angle_alpha   90.00000000
_cell_angle_beta   90.00000000
_cell_angle_gamma   120.00000196
_symmetry_Int_Tables_number   1
_chemical_formula_structural   BaLa2(FeH6)2
_chemical_formula_sum   'Ba1 La2 Fe2 H12'
_cell_volume   188.83219640
_cell_formula_units_Z   1
loop_
 _symmetry_equiv_pos_site_id
 _symmetry_equiv_pos_as_xyz
  1  'x, y, z'
loop_
 _atom_site_type_symbol
 _atom_site_label
 _atom_site_symmetry_multiplicity
 _atom_site_fract_x
 _atom_site_fract_y
 _atom_site_fract_z
 _atom_site_occupancy
  Ba  Ba0  1  0.000000  0.000000  0.000000  1
  La  La1  1  0.666667  0.333333  0.359832  1
  La  La2  1  0.333333  0.666667  0.640168  1
  Fe  Fe3  1  0.666667  0.333333  0.729865  1
  Fe  Fe4  1  0.333333  0.666667  0.270135  1
  H  H5  1  0.180951  0.819049  0.375665  1
  H  H6  1  0.638097  0.819049  0.375665  1
  H  H7  1  0.180951  0.361903  0.375665  1
  H  H8  1  0.819049  0.180951  0.624335  1
  H  H9  1  0.361903  0.180951  0.624335  1
  H  H10  1  0.819049  0.638097  0.624335  1
  H  H11  1  0.522856  0.045712  0.846219  1
  H  H12  1  0.522856  0.477144  0.846219  1
  H  H13  1  0.954288  0.477144  0.846219  1
  H  H14  1  0.477144  0.954288  0.153781  1
  H  H15  1  0.477144  0.522856  0.153781  1
  H  H16  1  0.045712  0.522856  0.153781  1
