# generated using pymatgen
data_CaY2(B3Rh4)2
_symmetry_space_group_name_H-M   'P 1'
_cell_length_a   9.94032360
_cell_length_b   9.11092889
_cell_length_c   5.56907862
_cell_angle_alpha   81.37776410
_cell_angle_beta   64.98591088
_cell_angle_gamma   33.63632154
_symmetry_Int_Tables_number   1
_chemical_formula_structural   CaY2(B3Rh4)2
_chemical_formula_sum   'Ca1 Y2 B6 Rh8'
_cell_volume   231.74156508
_cell_formula_units_Z   1
loop_
 _symmetry_equiv_pos_site_id
 _symmetry_equiv_pos_as_xyz
  1  'x, y, z'
loop_
 _atom_site_type_symbol
 _atom_site_label
 _atom_site_symmetry_multiplicity
 _atom_site_fract_x
 _atom_site_fract_y
 _atom_site_fract_z
 _atom_site_occupancy
  Ca  Ca0  1  0.683030  0.683030  0.316970  1
  Y  Y1  1  0.318095  0.318095  0.681905  1
  Y  Y2  1  0.502133  0.502133  0.497867  1
  B  B3  1  0.670048  0.984239  0.015761  1
  B  B4  1  0.984239  0.670048  0.329952  1
  B  B5  1  0.328530  0.016009  0.983991  1
  B  B6  1  0.016009  0.328530  0.671470  1
  B  B7  1  0.167482  0.832367  0.167633  1
  B  B8  1  0.832367  0.167482  0.832518  1
  Rh  Rh9  1  0.585607  0.585607  0.914393  1
  Rh  Rh10  1  0.913804  0.913804  0.086196  1
  Rh  Rh11  1  0.414323  0.414323  0.085677  1
  Rh  Rh12  1  0.085607  0.085607  0.414393  1
  Rh  Rh13  1  0.914323  0.914323  0.585677  1
  Rh  Rh14  1  0.249507  0.249507  0.250493  1
  Rh  Rh15  1  0.085389  0.085389  0.914611  1
  Rh  Rh16  1  0.749507  0.749507  0.750493  1
