# generated using pymatgen
data_OF10
_symmetry_space_group_name_H-M   'P 1'
_cell_length_a   8.18275310
_cell_length_b   8.59674386
_cell_length_c   10.44279556
_cell_angle_alpha   98.69626175
_cell_angle_beta   121.24196180
_cell_angle_gamma   103.66891415
_symmetry_Int_Tables_number   1
_chemical_formula_structural   OF10
_chemical_formula_sum   'O2 F20'
_cell_volume   576.19581723
_cell_formula_units_Z   2
loop_
 _symmetry_equiv_pos_site_id
 _symmetry_equiv_pos_as_xyz
  1  'x, y, z'
loop_
 _atom_site_type_symbol
 _atom_site_label
 _atom_site_symmetry_multiplicity
 _atom_site_fract_x
 _atom_site_fract_y
 _atom_site_fract_z
 _atom_site_occupancy
  O  O0  1  0.647098  0.671075  0.929028  1
  O  O1  1  0.352902  0.328925  0.070972  1
  F  F2  1  0.581442  0.775812  0.996456  1
  F  F3  1  0.418558  0.224188  0.003544  1
  F  F4  1  0.350407  0.470365  0.732604  1
  F  F5  1  0.649593  0.529635  0.267396  1
  F  F6  1  0.716911  0.766996  0.855472  1
  F  F7  1  0.283089  0.233004  0.144528  1
  F  F8  1  0.610455  0.165928  0.771452  1
  F  F9  1  0.389545  0.834072  0.228548  1
  F  F10  1  0.864689  0.330966  0.623283  1
  F  F11  1  0.135311  0.669034  0.376717  1
  F  F12  1  0.900744  0.816219  0.635239  1
  F  F13  1  0.099256  0.183781  0.364761  1
  F  F14  1  0.544613  0.063504  0.844285  1
  F  F15  1  0.455387  0.936496  0.155715  1
  F  F16  1  0.677166  0.320141  0.607265  1
  F  F17  1  0.322834  0.679859  0.392735  1
  F  F18  1  0.151208  0.333630  0.606194  1
  F  F19  1  0.848792  0.666370  0.393806  1
  F  F20  1  0.031380  0.066990  0.218074  1
  F  F21  1  0.968620  0.933010  0.781926  1
