# generated using pymatgen
data_Dy4FeRuC8
_symmetry_space_group_name_H-M   'P 1'
_cell_length_a   5.16457195
_cell_length_b   6.61342544
_cell_length_c   6.61342660
_cell_angle_alpha   70.15004299
_cell_angle_beta   67.01679187
_cell_angle_gamma   67.01680509
_symmetry_Int_Tables_number   1
_chemical_formula_structural   Dy4FeRuC8
_chemical_formula_sum   'Dy4 Fe1 Ru1 C8'
_cell_volume   186.72345690
_cell_formula_units_Z   1
loop_
 _symmetry_equiv_pos_site_id
 _symmetry_equiv_pos_as_xyz
  1  'x, y, z'
loop_
 _atom_site_type_symbol
 _atom_site_label
 _atom_site_symmetry_multiplicity
 _atom_site_fract_x
 _atom_site_fract_y
 _atom_site_fract_z
 _atom_site_occupancy
  Dy  Dy0  1  0.148864  0.201505  0.504079  1
  Dy  Dy1  1  0.854447  0.798495  0.495921  1
  Dy  Dy2  1  0.645553  0.504079  0.201505  1
  Dy  Dy3  1  0.351136  0.495921  0.798495  1
  Fe  Fe4  1  0.250000  0.000000  0.000000  1
  Ru  Ru5  1  0.750000  0.000000  0.000000  1
  C  C6  1  0.368681  0.789335  0.466794  1
  C  C7  1  0.624810  0.210665  0.533206  1
  C  C8  1  0.875190  0.466794  0.789335  1
  C  C9  1  0.131319  0.533206  0.210665  1
  C  C10  1  0.402023  0.906219  0.248011  1
  C  C11  1  0.556253  0.093781  0.751989  1
  C  C12  1  0.943747  0.248011  0.906219  1
  C  C13  1  0.097977  0.751989  0.093781  1
