# generated using pymatgen
data_RbRuCl6
_symmetry_space_group_name_H-M   'P 1'
_cell_length_a   6.41408600
_cell_length_b   6.84750086
_cell_length_c   12.27320097
_cell_angle_alpha   100.92150438
_cell_angle_beta   90.00000000
_cell_angle_gamma   117.92738646
_symmetry_Int_Tables_number   1
_chemical_formula_structural   RbRuCl6
_chemical_formula_sum   'Rb2 Ru2 Cl12'
_cell_volume   465.18946161
_cell_formula_units_Z   2
loop_
 _symmetry_equiv_pos_site_id
 _symmetry_equiv_pos_as_xyz
  1  'x, y, z'
loop_
 _atom_site_type_symbol
 _atom_site_label
 _atom_site_symmetry_multiplicity
 _atom_site_fract_x
 _atom_site_fract_y
 _atom_site_fract_z
 _atom_site_occupancy
  Rb  Rb0  1  0.885420  0.000000  0.750000  1
  Rb  Rb1  1  0.114580  0.000000  0.250000  1
  Ru  Ru2  1  0.500000  0.500000  0.000000  1
  Ru  Ru3  1  0.000000  0.500000  0.500000  1
  Cl  Cl4  1  0.462423  0.161586  0.895757  1
  Cl  Cl5  1  0.537577  0.838414  0.104243  1
  Cl  Cl6  1  0.300837  0.838414  0.604243  1
  Cl  Cl7  1  0.699163  0.161586  0.395757  1
  Cl  Cl8  1  0.372197  0.571560  0.841513  1
  Cl  Cl9  1  0.627803  0.428440  0.158487  1
  Cl  Cl10  1  0.800637  0.428440  0.658487  1
  Cl  Cl11  1  0.199363  0.571560  0.341513  1
  Cl  Cl12  1  0.799310  0.689974  0.460942  1
  Cl  Cl13  1  0.200690  0.310026  0.539058  1
  Cl  Cl14  1  0.109337  0.310026  0.039058  1
  Cl  Cl15  1  0.890663  0.689974  0.960942  1
