# generated using pymatgen
data_Dy5SnBi2Cl
_symmetry_space_group_name_H-M   'P 1'
_cell_length_a   9.26571200
_cell_length_b   9.16214109
_cell_length_c   6.51752100
_cell_angle_alpha   90.00000000
_cell_angle_beta   90.00000000
_cell_angle_gamma   120.37464340
_symmetry_Int_Tables_number   1
_chemical_formula_structural   Dy5SnBi2Cl
_chemical_formula_sum   'Dy10 Sn2 Bi4 Cl2'
_cell_volume   477.34997465
_cell_formula_units_Z   2
loop_
 _symmetry_equiv_pos_site_id
 _symmetry_equiv_pos_as_xyz
  1  'x, y, z'
loop_
 _atom_site_type_symbol
 _atom_site_label
 _atom_site_symmetry_multiplicity
 _atom_site_fract_x
 _atom_site_fract_y
 _atom_site_fract_z
 _atom_site_occupancy
  Dy  Dy0  1  0.272688  0.000000  0.750000  1
  Dy  Dy1  1  0.727312  0.000000  0.250000  1
  Dy  Dy2  1  0.995004  0.260896  0.750000  1
  Dy  Dy3  1  0.004996  0.739104  0.250000  1
  Dy  Dy4  1  0.734108  0.739104  0.750000  1
  Dy  Dy5  1  0.265892  0.260896  0.250000  1
  Dy  Dy6  1  0.337267  0.674534  0.500000  1
  Dy  Dy7  1  0.662733  0.325466  0.500000  1
  Dy  Dy8  1  0.662733  0.325466  0.000000  1
  Dy  Dy9  1  0.337267  0.674534  0.000000  1
  Sn  Sn10  1  0.612081  0.000000  0.750000  1
  Sn  Sn11  1  0.387919  0.000000  0.250000  1
  Bi  Bi12  1  0.997827  0.612023  0.750000  1
  Bi  Bi13  1  0.002173  0.387977  0.250000  1
  Bi  Bi14  1  0.385804  0.387977  0.750000  1
  Bi  Bi15  1  0.614196  0.612023  0.250000  1
  Cl  Cl16  1  0.000000  0.000000  0.500000  1
  Cl  Cl17  1  0.000000  0.000000  0.000000  1
