# generated using pymatgen
data_Sc11(TcPt)2
_symmetry_space_group_name_H-M   'P 1'
_cell_length_a   9.53200053
_cell_length_b   9.53200079
_cell_length_c   9.56101400
_cell_angle_alpha   59.89926176
_cell_angle_beta   59.89926084
_cell_angle_gamma   60.20147600
_symmetry_Int_Tables_number   1
_chemical_formula_structural   Sc11(TcPt)2
_chemical_formula_sum   'Sc22 Tc4 Pt4'
_cell_volume   614.25543476
_cell_formula_units_Z   2
loop_
 _symmetry_equiv_pos_site_id
 _symmetry_equiv_pos_as_xyz
  1  'x, y, z'
loop_
 _atom_site_type_symbol
 _atom_site_label
 _atom_site_symmetry_multiplicity
 _atom_site_fract_x
 _atom_site_fract_y
 _atom_site_fract_z
 _atom_site_occupancy
  Sc  Sc0  1  0.803567  0.803567  0.196433  1
  Sc  Sc1  1  0.195430  0.804570  0.195430  1
  Sc  Sc2  1  0.804570  0.195430  0.195430  1
  Sc  Sc3  1  0.196433  0.196433  0.803567  1
  Sc  Sc4  1  0.804570  0.195430  0.804570  1
  Sc  Sc5  1  0.195430  0.804570  0.804570  1
  Sc  Sc6  1  0.615215  0.615215  0.150918  1
  Sc  Sc7  1  0.618650  0.150918  0.615215  1
  Sc  Sc8  1  0.150918  0.618650  0.615215  1
  Sc  Sc9  1  0.615215  0.615215  0.618650  1
  Sc  Sc10  1  0.384785  0.384785  0.849082  1
  Sc  Sc11  1  0.381350  0.849082  0.384785  1
  Sc  Sc12  1  0.849082  0.381350  0.384785  1
  Sc  Sc13  1  0.384785  0.384785  0.381350  1
  Sc  Sc14  1  0.844383  0.844383  0.471755  1
  Sc  Sc15  1  0.839477  0.471755  0.844383  1
  Sc  Sc16  1  0.471755  0.839477  0.844383  1
  Sc  Sc17  1  0.844383  0.844383  0.839477  1
  Sc  Sc18  1  0.155617  0.155617  0.528245  1
  Sc  Sc19  1  0.160523  0.528245  0.155617  1
  Sc  Sc20  1  0.528245  0.160523  0.155617  1
  Sc  Sc21  1  0.155617  0.155617  0.160523  1
  Tc  Tc22  1  0.000000  0.000000  0.000000  1
  Tc  Tc23  1  0.500000  0.500000  0.500000  1
  Tc  Tc24  1  0.000000  0.000000  0.500000  1
  Tc  Tc25  1  0.500000  0.500000  0.000000  1
  Pt  Pt26  1  0.500000  0.000000  0.500000  1
  Pt  Pt27  1  0.000000  0.500000  0.500000  1
  Pt  Pt28  1  0.000000  0.500000  0.000000  1
  Pt  Pt29  1  0.500000  0.000000  0.000000  1
