# generated using pymatgen
data_K4Ta2Nb6Si(P2O17)2
_symmetry_space_group_name_H-M   'P 1'
_cell_length_a   10.78115900
_cell_length_b   10.78115900
_cell_length_c   6.52508000
_cell_angle_alpha   90.00000000
_cell_angle_beta   90.00000000
_cell_angle_gamma   90.00000000
_symmetry_Int_Tables_number   1
_chemical_formula_structural   K4Ta2Nb6Si(P2O17)2
_chemical_formula_sum   'K4 Ta2 Nb6 Si1 P4 O34'
_cell_volume   758.43216440
_cell_formula_units_Z   1
loop_
 _symmetry_equiv_pos_site_id
 _symmetry_equiv_pos_as_xyz
  1  'x, y, z'
loop_
 _atom_site_type_symbol
 _atom_site_label
 _atom_site_symmetry_multiplicity
 _atom_site_fract_x
 _atom_site_fract_y
 _atom_site_fract_z
 _atom_site_occupancy
  K  K0  1  0.500000  0.500000  0.500000  1
  K  K1  1  0.000000  0.500000  0.300079  1
  K  K2  1  0.500000  0.000000  0.699921  1
  K  K3  1  0.000000  0.000000  0.500000  1
  Ta  Ta4  1  0.179192  0.179192  0.000000  1
  Ta  Ta5  1  0.820808  0.820808  0.000000  1
  Nb  Nb6  1  0.823761  0.176239  0.000000  1
  Nb  Nb7  1  0.176239  0.823761  0.000000  1
  Nb  Nb8  1  0.500632  0.186549  0.201736  1
  Nb  Nb9  1  0.813451  0.499368  0.798264  1
  Nb  Nb10  1  0.186549  0.500632  0.798264  1
  Nb  Nb11  1  0.499368  0.813451  0.201736  1
  Si  Si12  1  0.500000  0.500000  0.000000  1
  P  P13  1  0.240107  0.240107  0.500000  1
  P  P14  1  0.240277  0.759723  0.500000  1
  P  P15  1  0.759893  0.759893  0.500000  1
  P  P16  1  0.759723  0.240277  0.500000  1
  O  O17  1  0.161824  0.195914  0.311561  1
  O  O18  1  0.838176  0.804086  0.311561  1
  O  O19  1  0.803483  0.161157  0.686591  1
  O  O20  1  0.196517  0.838843  0.686591  1
  O  O21  1  0.838843  0.196517  0.313409  1
  O  O22  1  0.804086  0.838176  0.688439  1
  O  O23  1  0.195914  0.161824  0.688439  1
  O  O24  1  0.161157  0.803483  0.313409  1
  O  O25  1  0.824422  0.999506  0.027326  1
  O  O26  1  0.999506  0.824422  0.972674  1
  O  O27  1  0.000494  0.175578  0.972674  1
  O  O28  1  0.175578  0.000494  0.027326  1
  O  O29  1  0.499768  0.374637  0.148550  1
  O  O30  1  0.625363  0.500232  0.851450  1
  O  O31  1  0.374637  0.499768  0.851450  1
  O  O32  1  0.500232  0.625363  0.148550  1
  O  O33  1  0.377897  0.213854  0.459835  1
  O  O34  1  0.500000  0.000000  0.253270  1
  O  O35  1  0.000000  0.500000  0.746730  1
  O  O36  1  0.363347  0.827408  0.022031  1
  O  O37  1  0.172711  0.361644  0.977960  1
  O  O38  1  0.827289  0.638356  0.977960  1
  O  O39  1  0.636653  0.172592  0.022031  1
  O  O40  1  0.172592  0.636653  0.977969  1
  O  O41  1  0.827408  0.363347  0.977969  1
  O  O42  1  0.638356  0.827289  0.022040  1
  O  O43  1  0.361644  0.172711  0.022040  1
  O  O44  1  0.378198  0.785506  0.458933  1
  O  O45  1  0.213854  0.377897  0.540165  1
  O  O46  1  0.786146  0.622103  0.540165  1
  O  O47  1  0.621802  0.214494  0.458933  1
  O  O48  1  0.214494  0.621802  0.541067  1
  O  O49  1  0.785506  0.378198  0.541067  1
  O  O50  1  0.622103  0.786146  0.459835  1
