# generated using pymatgen
data_Ba5La(SnAu)6
_symmetry_space_group_name_H-M   'P 1'
_cell_length_a   5.02326300
_cell_length_b   8.50439179
_cell_length_c   24.88937200
_cell_angle_alpha   89.91305641
_cell_angle_beta   90.00000000
_cell_angle_gamma   90.00000000
_symmetry_Int_Tables_number   1
_chemical_formula_structural   Ba5La(SnAu)6
_chemical_formula_sum   'Ba10 La2 Sn12 Au12'
_cell_volume   1063.26768574
_cell_formula_units_Z   2
loop_
 _symmetry_equiv_pos_site_id
 _symmetry_equiv_pos_as_xyz
  1  'x, y, z'
loop_
 _atom_site_type_symbol
 _atom_site_label
 _atom_site_symmetry_multiplicity
 _atom_site_fract_x
 _atom_site_fract_y
 _atom_site_fract_z
 _atom_site_occupancy
  Ba  Ba0  1  0.250000  0.788633  0.502074  1
  Ba  Ba1  1  0.250000  0.793644  0.833540  1
  Ba  Ba2  1  0.250000  0.706920  0.335206  1
  Ba  Ba3  1  0.750000  0.203033  0.834061  1
  Ba  Ba4  1  0.750000  0.288001  0.998816  1
  Ba  Ba5  1  0.750000  0.294137  0.665730  1
  Ba  Ba6  1  0.750000  0.294115  0.333071  1
  Ba  Ba7  1  0.250000  0.702679  0.664210  1
  Ba  Ba8  1  0.250000  0.709667  0.002575  1
  Ba  Ba9  1  0.750000  0.207171  0.166833  1
  La  La10  1  0.750000  0.225820  0.496525  1
  La  La11  1  0.250000  0.788070  0.166238  1
  Sn  Sn12  1  0.250000  0.405704  0.559193  1
  Sn  Sn13  1  0.250000  0.086651  0.399377  1
  Sn  Sn14  1  0.250000  0.083241  0.070927  1
  Sn  Sn15  1  0.250000  0.417197  0.895933  1
  Sn  Sn16  1  0.750000  0.591545  0.105524  1
  Sn  Sn17  1  0.250000  0.418450  0.771169  1
  Sn  Sn18  1  0.750000  0.588514  0.228008  1
  Sn  Sn19  1  0.750000  0.583127  0.436459  1
  Sn  Sn20  1  0.750000  0.913484  0.938358  1
  Sn  Sn21  1  0.250000  0.080095  0.268238  1
  Sn  Sn22  1  0.750000  0.918838  0.600960  1
  Sn  Sn23  1  0.750000  0.919292  0.726518  1
  Au  Au24  1  0.250000  0.087419  0.589455  1
  Au  Au25  1  0.250000  0.085117  0.738884  1
  Au  Au26  1  0.750000  0.587014  0.906232  1
  Au  Au27  1  0.750000  0.919626  0.411865  1
  Au  Au28  1  0.750000  0.576721  0.562850  1
  Au  Au29  1  0.750000  0.585659  0.759521  1
  Au  Au30  1  0.250000  0.404894  0.437795  1
  Au  Au31  1  0.250000  0.419278  0.238002  1
  Au  Au32  1  0.750000  0.914697  0.071050  1
  Au  Au33  1  0.250000  0.417380  0.097150  1
  Au  Au34  1  0.250000  0.081195  0.932869  1
  Au  Au35  1  0.750000  0.912973  0.254786  1
