# generated using pymatgen
data_La2CeB6(Ir3Ru)2
_symmetry_space_group_name_H-M   'P 1'
_cell_length_a   10.03621911
_cell_length_b   9.18093064
_cell_length_c   5.71216009
_cell_angle_alpha   81.11899403
_cell_angle_beta   64.66384071
_cell_angle_gamma   33.73530707
_symmetry_Int_Tables_number   1
_chemical_formula_structural   La2CeB6(Ir3Ru)2
_chemical_formula_sum   'La2 Ce1 B6 Ir6 Ru2'
_cell_volume   241.96549132
_cell_formula_units_Z   1
loop_
 _symmetry_equiv_pos_site_id
 _symmetry_equiv_pos_as_xyz
  1  'x, y, z'
loop_
 _atom_site_type_symbol
 _atom_site_label
 _atom_site_symmetry_multiplicity
 _atom_site_fract_x
 _atom_site_fract_y
 _atom_site_fract_z
 _atom_site_occupancy
  La  La0  1  0.822388  0.822388  0.177612  1
  La  La1  1  0.177612  0.177612  0.822388  1
  Ce  Ce2  1  0.000000  0.000000  0.000000  1
  B  B3  1  0.661356  0.338644  0.675798  1
  B  B4  1  0.338644  0.661356  0.324202  1
  B  B5  1  0.172064  0.487991  0.503781  1
  B  B6  1  0.487991  0.172064  0.836165  1
  B  B7  1  0.827936  0.512009  0.496219  1
  B  B8  1  0.512009  0.827936  0.163835  1
  Ir  Ir9  1  0.915785  0.915785  0.584215  1
  Ir  Ir10  1  0.413691  0.413691  0.586309  1
  Ir  Ir11  1  0.586309  0.586309  0.413691  1
  Ir  Ir12  1  0.249519  0.249519  0.250481  1
  Ir  Ir13  1  0.750481  0.750481  0.749519  1
  Ir  Ir14  1  0.084215  0.084215  0.415785  1
  Ru  Ru15  1  0.585019  0.585019  0.914981  1
  Ru  Ru16  1  0.414981  0.414981  0.085019  1
