# generated using pymatgen
data_CaTb7(Si4Mo3)4
_symmetry_space_group_name_H-M   'P 1'
_cell_length_a   6.78928211
_cell_length_b   6.97757934
_cell_length_c   12.96980029
_cell_angle_alpha   90.00800390
_cell_angle_beta   89.99271869
_cell_angle_gamma   90.05854634
_symmetry_Int_Tables_number   1
_chemical_formula_structural   CaTb7(Si4Mo3)4
_chemical_formula_sum   'Ca1 Tb7 Si16 Mo12'
_cell_volume   614.41483471
_cell_formula_units_Z   1
loop_
 _symmetry_equiv_pos_site_id
 _symmetry_equiv_pos_as_xyz
  1  'x, y, z'
loop_
 _atom_site_type_symbol
 _atom_site_label
 _atom_site_symmetry_multiplicity
 _atom_site_fract_x
 _atom_site_fract_y
 _atom_site_fract_z
 _atom_site_occupancy
  Ca  Ca0  1  0.997083  0.166114  0.092090  1
  Tb  Tb1  1  0.498231  0.332522  0.094479  1
  Tb  Tb2  1  0.997945  0.167321  0.405628  1
  Tb  Tb3  1  0.503130  0.666955  0.594119  1
  Tb  Tb4  1  0.002151  0.834034  0.907037  1
  Tb  Tb5  1  0.502522  0.666808  0.906429  1
  Tb  Tb6  1  0.002824  0.833275  0.594277  1
  Tb  Tb7  1  0.497483  0.332946  0.405196  1
  Si  Si8  1  0.659367  0.043612  0.546866  1
  Si  Si9  1  0.157952  0.456483  0.952430  1
  Si  Si10  1  0.341217  0.957618  0.047752  1
  Si  Si11  1  0.840991  0.543498  0.453167  1
  Si  Si12  1  0.340629  0.956506  0.452933  1
  Si  Si13  1  0.842274  0.541351  0.047923  1
  Si  Si14  1  0.657571  0.043561  0.952896  1
  Si  Si15  1  0.159224  0.456360  0.546810  1
  Si  Si16  1  0.534397  0.364345  0.750060  1
  Si  Si17  1  0.034767  0.135985  0.750580  1
  Si  Si18  1  0.464920  0.634895  0.250329  1
  Si  Si19  1  0.965317  0.865794  0.249760  1
  Si  Si20  1  0.804464  0.628259  0.750352  1
  Si  Si21  1  0.303501  0.871947  0.750186  1
  Si  Si22  1  0.194581  0.371348  0.248816  1
  Si  Si23  1  0.698154  0.127159  0.248731  1
  Mo  Mo24  1  0.830227  0.335702  0.625529  1
  Mo  Mo25  1  0.331170  0.164013  0.874217  1
  Mo  Mo26  1  0.169657  0.666460  0.126298  1
  Mo  Mo27  1  0.669272  0.835819  0.373977  1
  Mo  Mo28  1  0.169659  0.663961  0.374889  1
  Mo  Mo29  1  0.668571  0.832911  0.125309  1
  Mo  Mo30  1  0.829377  0.336395  0.873677  1
  Mo  Mo31  1  0.330702  0.164553  0.625656  1
  Mo  Mo32  1  0.665637  0.000396  0.749787  1
  Mo  Mo33  1  0.166005  0.499593  0.750018  1
  Mo  Mo34  1  0.334827  0.998713  0.250799  1
  Mo  Mo35  1  0.834200  0.502788  0.250996  1
