# generated using pymatgen
data_La2Pr13Nd(MgIr)4
_symmetry_space_group_name_H-M   'P 1'
_cell_length_a   10.10878389
_cell_length_b   10.11724138
_cell_length_c   10.12555800
_cell_angle_alpha   59.97280392
_cell_angle_beta   59.94509361
_cell_angle_gamma   59.95036733
_symmetry_Int_Tables_number   1
_chemical_formula_structural   La2Pr13Nd(MgIr)4
_chemical_formula_sum   'La2 Pr13 Nd1 Mg4 Ir4'
_cell_volume   731.53013384
_cell_formula_units_Z   1
loop_
 _symmetry_equiv_pos_site_id
 _symmetry_equiv_pos_as_xyz
  1  'x, y, z'
loop_
 _atom_site_type_symbol
 _atom_site_label
 _atom_site_symmetry_multiplicity
 _atom_site_fract_x
 _atom_site_fract_y
 _atom_site_fract_z
 _atom_site_occupancy
  La  La0  1  0.345176  0.345114  0.345397  1
  La  La1  1  0.345176  0.345114  0.964313  1
  Pr  Pr2  1  0.957939  0.347099  0.347481  1
  Pr  Pr3  1  0.811732  0.188084  0.189292  1
  Pr  Pr4  1  0.188200  0.811629  0.810610  1
  Pr  Pr5  1  0.188200  0.811629  0.189560  1
  Pr  Pr6  1  0.811732  0.188084  0.810890  1
  Pr  Pr7  1  0.188231  0.188140  0.811815  1
  Pr  Pr8  1  0.810601  0.810806  0.189296  1
  Pr  Pr9  1  0.938862  0.560804  0.562257  1
  Pr  Pr10  1  0.560195  0.939326  0.938508  1
  Pr  Pr11  1  0.560195  0.939326  0.561972  1
  Pr  Pr12  1  0.938862  0.560804  0.938078  1
  Pr  Pr13  1  0.562383  0.562720  0.937448  1
  Pr  Pr14  1  0.939503  0.939466  0.560516  1
  Nd  Nd15  1  0.346899  0.959050  0.347026  1
  Mg  Mg16  1  0.579239  0.579810  0.578443  1
  Mg  Mg17  1  0.579239  0.579810  0.262509  1
  Mg  Mg18  1  0.579771  0.261980  0.579124  1
  Mg  Mg19  1  0.262504  0.579465  0.579015  1
  Ir  Ir20  1  0.143752  0.142029  0.140530  1
  Ir  Ir21  1  0.143752  0.142029  0.573687  1
  Ir  Ir22  1  0.143799  0.574648  0.140776  1
  Ir  Ir23  1  0.574057  0.143034  0.141454  1
