# generated using pymatgen
data_Sr2YbOsO6
_symmetry_space_group_name_H-M   'P 1'
_cell_length_a   5.79572091
_cell_length_b   5.87142300
_cell_length_c   10.03126648
_cell_angle_alpha   90.00000000
_cell_angle_beta   124.95692512
_cell_angle_gamma   90.00000000
_symmetry_Int_Tables_number   1
_chemical_formula_structural   Sr2YbOsO6
_chemical_formula_sum   'Sr4 Yb2 Os2 O12'
_cell_volume   279.76897834
_cell_formula_units_Z   2
loop_
 _symmetry_equiv_pos_site_id
 _symmetry_equiv_pos_as_xyz
  1  'x, y, z'
loop_
 _atom_site_type_symbol
 _atom_site_label
 _atom_site_symmetry_multiplicity
 _atom_site_fract_x
 _atom_site_fract_y
 _atom_site_fract_z
 _atom_site_occupancy
  Sr  Sr0  1  0.258536  0.039875  0.749567  1
  Sr  Sr1  1  0.258536  0.460125  0.249567  1
  Sr  Sr2  1  0.741464  0.960125  0.250433  1
  Sr  Sr3  1  0.741464  0.539875  0.750433  1
  Yb  Yb4  1  0.000000  0.500000  0.500000  1
  Yb  Yb5  1  0.000000  0.000000  0.000000  1
  Os  Os6  1  0.500000  0.000000  0.500000  1
  Os  Os7  1  0.500000  0.500000  0.000000  1
  O  O8  1  0.194591  0.480084  0.770070  1
  O  O9  1  0.194591  0.019916  0.270070  1
  O  O10  1  0.805409  0.519916  0.229930  1
  O  O11  1  0.805409  0.980084  0.729930  1
  O  O12  1  0.728006  0.195194  0.461325  1
  O  O13  1  0.728006  0.304806  0.961325  1
  O  O14  1  0.271994  0.804806  0.538675  1
  O  O15  1  0.271994  0.695194  0.038675  1
  O  O16  1  0.648804  0.732736  0.457556  1
  O  O17  1  0.648804  0.767264  0.957556  1
  O  O18  1  0.351196  0.267264  0.542444  1
  O  O19  1  0.351196  0.232736  0.042444  1
