# generated using pymatgen
data_Ce7Ho(Pt2Pb)4
_symmetry_space_group_name_H-M   'P 1'
_cell_length_a   7.99973100
_cell_length_b   7.99973060
_cell_length_c   7.38563300
_cell_angle_alpha   90.00000000
_cell_angle_beta   90.00000000
_cell_angle_gamma   90.34330128
_symmetry_Int_Tables_number   1
_chemical_formula_structural   Ce7Ho(Pt2Pb)4
_chemical_formula_sum   'Ce7 Ho1 Pt8 Pb4'
_cell_volume   472.64021681
_cell_formula_units_Z   1
loop_
 _symmetry_equiv_pos_site_id
 _symmetry_equiv_pos_as_xyz
  1  'x, y, z'
loop_
 _atom_site_type_symbol
 _atom_site_label
 _atom_site_symmetry_multiplicity
 _atom_site_fract_x
 _atom_site_fract_y
 _atom_site_fract_z
 _atom_site_occupancy
  Ce  Ce0  1  0.674139  0.672600  0.000000  1
  Ce  Ce1  1  0.328356  0.330998  0.500000  1
  Ce  Ce2  1  0.828284  0.171716  0.500000  1
  Ce  Ce3  1  0.669002  0.671644  0.500000  1
  Ce  Ce4  1  0.327400  0.325861  0.000000  1
  Ce  Ce5  1  0.830882  0.169118  0.000000  1
  Ce  Ce6  1  0.171498  0.828502  0.000000  1
  Ho  Ho7  1  0.170736  0.829264  0.500000  1
  Pt  Pt8  1  0.871787  0.872842  0.747044  1
  Pt  Pt9  1  0.127158  0.128213  0.747044  1
  Pt  Pt10  1  0.628823  0.371177  0.753054  1
  Pt  Pt11  1  0.628823  0.371177  0.246946  1
  Pt  Pt12  1  0.373623  0.626377  0.246842  1
  Pt  Pt13  1  0.127158  0.128213  0.252956  1
  Pt  Pt14  1  0.871787  0.872842  0.252956  1
  Pt  Pt15  1  0.373623  0.626377  0.753158  1
  Pb  Pb16  1  0.496758  0.998297  0.746839  1
  Pb  Pb17  1  0.496758  0.998297  0.253161  1
  Pb  Pb18  1  0.001703  0.503242  0.746839  1
  Pb  Pb19  1  0.001703  0.503242  0.253161  1
