# generated using pymatgen
data_TbY11TcRu3
_symmetry_space_group_name_H-M   'P 1'
_cell_length_a   6.34173981
_cell_length_b   7.38348174
_cell_length_c   9.23220700
_cell_angle_alpha   90.00000000
_cell_angle_beta   90.00000000
_cell_angle_gamma   89.77721503
_symmetry_Int_Tables_number   1
_chemical_formula_structural   TbY11TcRu3
_chemical_formula_sum   'Tb1 Y11 Tc1 Ru3'
_cell_volume   432.28670130
_cell_formula_units_Z   1
loop_
 _symmetry_equiv_pos_site_id
 _symmetry_equiv_pos_as_xyz
  1  'x, y, z'
loop_
 _atom_site_type_symbol
 _atom_site_label
 _atom_site_symmetry_multiplicity
 _atom_site_fract_x
 _atom_site_fract_y
 _atom_site_fract_z
 _atom_site_occupancy
  Tb  Tb0  1  0.633236  0.042356  0.250000  1
  Y  Y1  1  0.365313  0.956221  0.750000  1
  Y  Y2  1  0.134319  0.456858  0.750000  1
  Y  Y3  1  0.871870  0.542509  0.250000  1
  Y  Y4  1  0.166913  0.175809  0.064721  1
  Y  Y5  1  0.831526  0.823962  0.935014  1
  Y  Y6  1  0.665870  0.324862  0.936738  1
  Y  Y7  1  0.831526  0.823962  0.564986  1
  Y  Y8  1  0.332585  0.675964  0.064571  1
  Y  Y9  1  0.166913  0.175809  0.435279  1
  Y  Y10  1  0.332585  0.675964  0.435429  1
  Y  Y11  1  0.665870  0.324862  0.563262  1
  Tc  Tc12  1  0.464154  0.383875  0.250000  1
  Ru  Ru13  1  0.538993  0.616243  0.750000  1
  Ru  Ru14  1  0.961937  0.114827  0.750000  1
  Ru  Ru15  1  0.036390  0.885918  0.250000  1
