# generated using pymatgen
data_LaPr3Np2O12
_symmetry_space_group_name_H-M   'P 1'
_cell_length_a   10.26912865
_cell_length_b   10.26912890
_cell_length_c   5.72250843
_cell_angle_alpha   78.91656673
_cell_angle_beta   78.91656200
_cell_angle_gamma   67.96894037
_symmetry_Int_Tables_number   1
_chemical_formula_structural   LaPr3Np2O12
_chemical_formula_sum   'La2 Pr6 Np4 O24'
_cell_volume   544.16101377
_cell_formula_units_Z   2
loop_
 _symmetry_equiv_pos_site_id
 _symmetry_equiv_pos_as_xyz
  1  'x, y, z'
loop_
 _atom_site_type_symbol
 _atom_site_label
 _atom_site_symmetry_multiplicity
 _atom_site_fract_x
 _atom_site_fract_y
 _atom_site_fract_z
 _atom_site_occupancy
  La  La0  1  0.620402  0.379598  0.750000  1
  La  La1  1  0.379598  0.620402  0.250000  1
  Pr  Pr2  1  0.112089  0.887911  0.750000  1
  Pr  Pr3  1  0.887911  0.112089  0.250000  1
  Pr  Pr4  1  0.715562  0.949541  0.902201  1
  Pr  Pr5  1  0.284438  0.050459  0.097799  1
  Pr  Pr6  1  0.050459  0.284438  0.597799  1
  Pr  Pr7  1  0.949541  0.715562  0.402201  1
  Np  Np8  1  0.504350  0.819389  0.601214  1
  Np  Np9  1  0.495650  0.180611  0.398786  1
  Np  Np10  1  0.180611  0.495650  0.898786  1
  Np  Np11  1  0.819389  0.504350  0.101214  1
  O  O12  1  0.668244  0.139980  0.556505  1
  O  O13  1  0.331756  0.860020  0.443495  1
  O  O14  1  0.860020  0.331756  0.943495  1
  O  O15  1  0.139980  0.668244  0.056505  1
  O  O16  1  0.359585  0.814197  0.928969  1
  O  O17  1  0.640415  0.185803  0.071031  1
  O  O18  1  0.185803  0.640415  0.571031  1
  O  O19  1  0.814197  0.359585  0.428969  1
  O  O20  1  0.694520  0.771339  0.694002  1
  O  O21  1  0.305480  0.228661  0.305998  1
  O  O22  1  0.228661  0.305480  0.805998  1
  O  O23  1  0.771339  0.694520  0.194002  1
  O  O24  1  0.463141  0.020282  0.725788  1
  O  O25  1  0.536859  0.979718  0.274212  1
  O  O26  1  0.979718  0.536859  0.774212  1
  O  O27  1  0.020282  0.463141  0.225788  1
  O  O28  1  0.542172  0.622727  0.526131  1
  O  O29  1  0.457828  0.377273  0.473869  1
  O  O30  1  0.377273  0.457828  0.973869  1
  O  O31  1  0.622727  0.542172  0.026131  1
  O  O32  1  0.907819  0.914918  0.085508  1
  O  O33  1  0.092181  0.085082  0.914492  1
  O  O34  1  0.085082  0.092181  0.414492  1
  O  O35  1  0.914918  0.907819  0.585508  1
