# generated using pymatgen
data_Nd16Tl3InIr4
_symmetry_space_group_name_H-M   'P 1'
_cell_length_a   9.88259085
_cell_length_b   9.92848058
_cell_length_c   9.92844800
_cell_angle_alpha   60.19612498
_cell_angle_beta   60.02162386
_cell_angle_gamma   60.02124079
_symmetry_Int_Tables_number   1
_chemical_formula_structural   Nd16Tl3InIr4
_chemical_formula_sum   'Nd16 Tl3 In1 Ir4'
_cell_volume   690.08182756
_cell_formula_units_Z   1
loop_
 _symmetry_equiv_pos_site_id
 _symmetry_equiv_pos_as_xyz
  1  'x, y, z'
loop_
 _atom_site_type_symbol
 _atom_site_label
 _atom_site_symmetry_multiplicity
 _atom_site_fract_x
 _atom_site_fract_y
 _atom_site_fract_z
 _atom_site_occupancy
  Nd  Nd0  1  0.808833  0.191679  0.807885  1
  Nd  Nd1  1  0.939641  0.560583  0.560572  1
  Nd  Nd2  1  0.558050  0.941326  0.560203  1
  Nd  Nd3  1  0.808356  0.191455  0.191432  1
  Nd  Nd4  1  0.190752  0.807772  0.193390  1
  Nd  Nd5  1  0.348553  0.952946  0.349157  1
  Nd  Nd6  1  0.939177  0.939316  0.560693  1
  Nd  Nd7  1  0.558019  0.941633  0.941643  1
  Nd  Nd8  1  0.191270  0.807442  0.807444  1
  Nd  Nd9  1  0.348561  0.349136  0.952968  1
  Nd  Nd10  1  0.558072  0.560210  0.941303  1
  Nd  Nd11  1  0.349756  0.348835  0.348816  1
  Nd  Nd12  1  0.190728  0.193430  0.807753  1
  Nd  Nd13  1  0.808832  0.807891  0.191697  1
  Nd  Nd14  1  0.939179  0.560693  0.939336  1
  Nd  Nd15  1  0.952247  0.349155  0.349177  1
  Tl  Tl16  1  0.582827  0.583509  0.583516  1
  Tl  Tl17  1  0.582669  0.250217  0.583775  1
  Tl  Tl18  1  0.582659  0.583786  0.250222  1
  In  In19  1  0.258896  0.580648  0.580670  1
  Ir  Ir20  1  0.142803  0.141290  0.574833  1
  Ir  Ir21  1  0.575424  0.140943  0.140946  1
  Ir  Ir22  1  0.142795  0.574837  0.141294  1
  Ir  Ir23  1  0.141901  0.141272  0.141278  1
