# generated using pymatgen
data_MnFe3Sb7Te5
_symmetry_space_group_name_H-M   'P 1'
_cell_length_a   7.95248379
_cell_length_b   7.93996157
_cell_length_c   7.93924416
_cell_angle_alpha   109.06047222
_cell_angle_beta   109.66872941
_cell_angle_gamma   109.78151124
_symmetry_Int_Tables_number   1
_chemical_formula_structural   MnFe3Sb7Te5
_chemical_formula_sum   'Mn1 Fe3 Sb7 Te5'
_cell_volume   385.42714772
_cell_formula_units_Z   1
loop_
 _symmetry_equiv_pos_site_id
 _symmetry_equiv_pos_as_xyz
  1  'x, y, z'
loop_
 _atom_site_type_symbol
 _atom_site_label
 _atom_site_symmetry_multiplicity
 _atom_site_fract_x
 _atom_site_fract_y
 _atom_site_fract_z
 _atom_site_occupancy
  Mn  Mn0  1  0.508354  0.506308  0.509913  1
  Fe  Fe1  1  0.506281  0.997652  0.000768  1
  Fe  Fe2  1  0.996154  0.001188  0.499762  1
  Fe  Fe3  1  0.996073  0.496203  0.994451  1
  Sb  Sb4  1  0.165849  0.833091  0.665992  1
  Sb  Sb5  1  0.169442  0.323773  0.845501  1
  Sb  Sb6  1  0.166096  0.498318  0.331427  1
  Sb  Sb7  1  0.320083  0.157881  0.479941  1
  Sb  Sb8  1  0.491968  0.329615  0.161153  1
  Sb  Sb9  1  0.322542  0.841101  0.164856  1
  Sb  Sb10  1  0.830455  0.661874  0.167567  1
  Te  Te11  1  0.664491  0.835581  0.501750  1
  Te  Te12  1  0.845983  0.523830  0.678377  1
  Te  Te13  1  0.506478  0.660830  0.845597  1
  Te  Te14  1  0.663510  0.161372  0.826763  1
  Te  Te15  1  0.846242  0.171384  0.326182  1
