# generated using pymatgen
data_Ca5CeRu2
_symmetry_space_group_name_H-M   'P 1'
_cell_length_a   6.50905341
_cell_length_b   7.70576899
_cell_length_c   9.86982200
_cell_angle_alpha   90.00000000
_cell_angle_beta   90.00000000
_cell_angle_gamma   85.51395601
_symmetry_Int_Tables_number   1
_chemical_formula_structural   Ca5CeRu2
_chemical_formula_sum   'Ca10 Ce2 Ru4'
_cell_volume   493.52663980
_cell_formula_units_Z   2
loop_
 _symmetry_equiv_pos_site_id
 _symmetry_equiv_pos_as_xyz
  1  'x, y, z'
loop_
 _atom_site_type_symbol
 _atom_site_label
 _atom_site_symmetry_multiplicity
 _atom_site_fract_x
 _atom_site_fract_y
 _atom_site_fract_z
 _atom_site_occupancy
  Ca  Ca0  1  0.670043  0.166841  0.067475  1
  Ca  Ca1  1  0.365492  0.540294  0.250000  1
  Ca  Ca2  1  0.841351  0.672089  0.070286  1
  Ca  Ca3  1  0.158649  0.327911  0.929714  1
  Ca  Ca4  1  0.329957  0.833159  0.932525  1
  Ca  Ca5  1  0.634508  0.459706  0.750000  1
  Ca  Ca6  1  0.329957  0.833159  0.567475  1
  Ca  Ca7  1  0.158649  0.327911  0.570286  1
  Ca  Ca8  1  0.841351  0.672089  0.429714  1
  Ca  Ca9  1  0.670043  0.166841  0.432525  1
  Ce  Ce10  1  0.834568  0.936266  0.750000  1
  Ce  Ce11  1  0.165432  0.063734  0.250000  1
  Ru  Ru12  1  0.994210  0.337155  0.250000  1
  Ru  Ru13  1  0.524844  0.100254  0.750000  1
  Ru  Ru14  1  0.475156  0.899746  0.250000  1
  Ru  Ru15  1  0.005790  0.662845  0.750000  1
