# generated using pymatgen
data_Dy10Al3ReTe4
_symmetry_space_group_name_H-M   'P 1'
_cell_length_a   8.75960524
_cell_length_b   8.75960719
_cell_length_c   7.95772100
_cell_angle_alpha   90.28874958
_cell_angle_beta   90.28875618
_cell_angle_gamma   125.80121765
_symmetry_Int_Tables_number   1
_chemical_formula_structural   Dy10Al3ReTe4
_chemical_formula_sum   'Dy10 Al3 Re1 Te4'
_cell_volume   495.19889557
_cell_formula_units_Z   1
loop_
 _symmetry_equiv_pos_site_id
 _symmetry_equiv_pos_as_xyz
  1  'x, y, z'
loop_
 _atom_site_type_symbol
 _atom_site_label
 _atom_site_symmetry_multiplicity
 _atom_site_fract_x
 _atom_site_fract_y
 _atom_site_fract_z
 _atom_site_occupancy
  Dy  Dy0  1  0.996684  0.996684  0.009824  1
  Dy  Dy1  1  0.509468  0.509468  0.492440  1
  Dy  Dy2  1  0.818326  0.564962  0.184952  1
  Dy  Dy3  1  0.465296  0.210089  0.834483  1
  Dy  Dy4  1  0.954377  0.703845  0.651831  1
  Dy  Dy5  1  0.267957  0.023911  0.338275  1
  Dy  Dy6  1  0.210089  0.465296  0.834483  1
  Dy  Dy7  1  0.564962  0.818326  0.184952  1
  Dy  Dy8  1  0.023911  0.267957  0.338275  1
  Dy  Dy9  1  0.703845  0.954377  0.651831  1
  Al  Al10  1  0.121417  0.121417  0.628601  1
  Al  Al11  1  0.623201  0.623201  0.877437  1
  Al  Al12  1  0.377101  0.377101  0.120619  1
  Re  Re13  1  0.871642  0.871642  0.377135  1
  Te  Te14  1  0.220098  0.805141  0.991190  1
  Te  Te15  1  0.688053  0.278431  0.496241  1
  Te  Te16  1  0.805141  0.220098  0.991190  1
  Te  Te17  1  0.278431  0.688053  0.496241  1
