# generated using pymatgen
data_Ho3ThZnFe
_symmetry_space_group_name_H-M   'P 1'
_cell_length_a   9.40001047
_cell_length_b   9.40000965
_cell_length_c   9.40001000
_cell_angle_alpha   59.99999876
_cell_angle_beta   60.00000166
_cell_angle_gamma   60.00000633
_symmetry_Int_Tables_number   1
_chemical_formula_structural   Ho3ThZnFe
_chemical_formula_sum   'Ho12 Th4 Zn4 Fe4'
_cell_volume   587.31349044
_cell_formula_units_Z   4
loop_
 _symmetry_equiv_pos_site_id
 _symmetry_equiv_pos_as_xyz
  1  'x, y, z'
loop_
 _atom_site_type_symbol
 _atom_site_label
 _atom_site_symmetry_multiplicity
 _atom_site_fract_x
 _atom_site_fract_y
 _atom_site_fract_z
 _atom_site_occupancy
  Ho  Ho0  1  0.810491  0.189509  0.189509  1
  Ho  Ho1  1  0.189509  0.810491  0.810491  1
  Ho  Ho2  1  0.189509  0.810491  0.189509  1
  Ho  Ho3  1  0.810491  0.189509  0.810491  1
  Ho  Ho4  1  0.189509  0.189509  0.810491  1
  Ho  Ho5  1  0.810491  0.810491  0.189509  1
  Ho  Ho6  1  0.936656  0.563344  0.563344  1
  Ho  Ho7  1  0.563344  0.936656  0.936656  1
  Ho  Ho8  1  0.563344  0.936656  0.563344  1
  Ho  Ho9  1  0.936656  0.563344  0.936656  1
  Ho  Ho10  1  0.563344  0.563344  0.936656  1
  Ho  Ho11  1  0.936656  0.936656  0.563344  1
  Th  Th12  1  0.346844  0.346844  0.346844  1
  Th  Th13  1  0.346844  0.346844  0.959469  1
  Th  Th14  1  0.346844  0.959469  0.346844  1
  Th  Th15  1  0.959469  0.346844  0.346844  1
  Zn  Zn16  1  0.578961  0.578961  0.578961  1
  Zn  Zn17  1  0.578961  0.578961  0.263116  1
  Zn  Zn18  1  0.578961  0.263116  0.578961  1
  Zn  Zn19  1  0.263116  0.578961  0.578961  1
  Fe  Fe20  1  0.143638  0.143638  0.143638  1
  Fe  Fe21  1  0.143638  0.143638  0.569085  1
  Fe  Fe22  1  0.143638  0.569085  0.143638  1
  Fe  Fe23  1  0.569085  0.143638  0.143638  1
