# generated using pymatgen
data_Nd5Th3Zn8Ir3Rh5
_symmetry_space_group_name_H-M   'P 1'
_cell_length_a   3.96584900
_cell_length_b   7.47751847
_cell_length_c   16.57027516
_cell_angle_alpha   90.16338583
_cell_angle_beta   90.00000000
_cell_angle_gamma   90.00000000
_symmetry_Int_Tables_number   1
_chemical_formula_structural   Nd5Th3Zn8Ir3Rh5
_chemical_formula_sum   'Nd5 Th3 Zn8 Ir3 Rh5'
_cell_volume   491.38469277
_cell_formula_units_Z   1
loop_
 _symmetry_equiv_pos_site_id
 _symmetry_equiv_pos_as_xyz
  1  'x, y, z'
loop_
 _atom_site_type_symbol
 _atom_site_label
 _atom_site_symmetry_multiplicity
 _atom_site_fract_x
 _atom_site_fract_y
 _atom_site_fract_z
 _atom_site_occupancy
  Nd  Nd0  1  0.750000  0.945259  0.284388  1
  Nd  Nd1  1  0.750000  0.829028  0.061503  1
  Nd  Nd2  1  0.750000  0.447388  0.214837  1
  Nd  Nd3  1  0.250000  0.054608  0.715704  1
  Nd  Nd4  1  0.250000  0.551098  0.786190  1
  Th  Th5  1  0.250000  0.171704  0.940320  1
  Th  Th6  1  0.250000  0.673794  0.561486  1
  Th  Th7  1  0.750000  0.327695  0.438421  1
  Zn  Zn8  1  0.750000  0.007010  0.561141  1
  Zn  Zn9  1  0.250000  0.616968  0.346421  1
  Zn  Zn10  1  0.750000  0.380186  0.654447  1
  Zn  Zn11  1  0.250000  0.502848  0.059671  1
  Zn  Zn12  1  0.750000  0.509757  0.940025  1
  Zn  Zn13  1  0.250000  0.992792  0.438540  1
  Zn  Zn14  1  0.250000  0.117764  0.152290  1
  Zn  Zn15  1  0.750000  0.881770  0.846333  1
  Ir  Ir16  1  0.750000  0.742240  0.440333  1
  Ir  Ir17  1  0.250000  0.246937  0.318773  1
  Ir  Ir18  1  0.750000  0.248858  0.820217  1
  Rh  Rh19  1  0.750000  0.747860  0.679578  1
  Rh  Rh20  1  0.250000  0.256876  0.559831  1
  Rh  Rh21  1  0.250000  0.745243  0.185975  1
  Rh  Rh22  1  0.750000  0.248961  0.059455  1
  Rh  Rh23  1  0.250000  0.753354  0.934121  1
