# generated using pymatgen
data_PrDy3(AuBr6)4
_symmetry_space_group_name_H-M   'P 1'
_cell_length_a   8.54409688
_cell_length_b   10.51324333
_cell_length_c   14.95083509
_cell_angle_alpha   102.74619679
_cell_angle_beta   96.95182024
_cell_angle_gamma   113.38597302
_symmetry_Int_Tables_number   1
_chemical_formula_structural   PrDy3(AuBr6)4
_chemical_formula_sum   'Pr1 Dy3 Au4 Br24'
_cell_volume   1169.18000474
_cell_formula_units_Z   1
loop_
 _symmetry_equiv_pos_site_id
 _symmetry_equiv_pos_as_xyz
  1  'x, y, z'
loop_
 _atom_site_type_symbol
 _atom_site_label
 _atom_site_symmetry_multiplicity
 _atom_site_fract_x
 _atom_site_fract_y
 _atom_site_fract_z
 _atom_site_occupancy
  Pr  Pr0  1  0.024664  0.686070  0.128375  1
  Dy  Dy1  1  0.579519  0.924751  0.622728  1
  Dy  Dy2  1  0.423151  0.075628  0.380547  1
  Dy  Dy3  1  0.972884  0.313042  0.867847  1
  Au  Au4  1  0.290442  0.630101  0.760706  1
  Au  Au5  1  0.704662  0.363526  0.240762  1
  Au  Au6  1  0.503297  0.503012  0.501855  1
  Au  Au7  1  0.001964  0.004246  0.995818  1
  Br  Br8  1  0.600445  0.736120  0.748933  1
  Br  Br9  1  0.394438  0.256711  0.251991  1
  Br  Br10  1  0.280746  0.848437  0.729587  1
  Br  Br11  1  0.716325  0.146444  0.272632  1
  Br  Br12  1  0.978270  0.527938  0.769075  1
  Br  Br13  1  0.017372  0.463895  0.233203  1
  Br  Br14  1  0.297487  0.407172  0.786523  1
  Br  Br15  1  0.691085  0.583332  0.213012  1
  Br  Br16  1  0.684099  0.367443  0.505083  1
  Br  Br17  1  0.320524  0.636769  0.496736  1
  Br  Br18  1  0.762315  0.738142  0.532925  1
  Br  Br19  1  0.244708  0.268421  0.472150  1
  Br  Br20  1  0.801520  0.119961  0.977758  1
  Br  Br21  1  0.206158  0.892018  0.015514  1
  Br  Br22  1  0.773048  0.796649  0.028953  1
  Br  Br23  1  0.228139  0.212666  0.962591  1
  Br  Br24  1  0.625490  0.192442  0.742033  1
  Br  Br25  1  0.379272  0.807268  0.260255  1
  Br  Br26  1  0.936637  0.054898  0.729507  1
  Br  Br27  1  0.063420  0.947889  0.276950  1
  Br  Br28  1  0.720192  0.052963  0.485510  1
  Br  Br29  1  0.284841  0.952127  0.519698  1
  Br  Br30  1  0.764321  0.428775  0.970480  1
  Br  Br31  1  0.228567  0.561140  0.020261  1
