# generated using pymatgen
data_Ho2Sc3(Sn3Os)6
_symmetry_space_group_name_H-M   'P 1'
_cell_length_a   9.81780342
_cell_length_b   9.81780342
_cell_length_c   9.78382854
_cell_angle_alpha   59.88506250
_cell_angle_beta   59.88506293
_cell_angle_gamma   60.00000258
_symmetry_Int_Tables_number   1
_chemical_formula_structural   Ho2Sc3(Sn3Os)6
_chemical_formula_sum   'Ho2 Sc3 Sn18 Os6'
_cell_volume   665.68049147
_cell_formula_units_Z   1
loop_
 _symmetry_equiv_pos_site_id
 _symmetry_equiv_pos_as_xyz
  1  'x, y, z'
loop_
 _atom_site_type_symbol
 _atom_site_label
 _atom_site_symmetry_multiplicity
 _atom_site_fract_x
 _atom_site_fract_y
 _atom_site_fract_z
 _atom_site_occupancy
  Ho  Ho0  1  0.000780  0.000780  0.997659  1
  Ho  Ho1  1  0.370726  0.370727  0.887822  1
  Sc  Sc2  1  0.375159  0.876797  0.372887  1
  Sc  Sc3  1  0.876797  0.375159  0.372887  1
  Sc  Sc4  1  0.375159  0.375158  0.372887  1
  Sn  Sn5  1  0.592038  0.592038  0.223889  1
  Sn  Sn6  1  0.593380  0.222459  0.590782  1
  Sn  Sn7  1  0.222459  0.593380  0.590782  1
  Sn  Sn8  1  0.593380  0.593380  0.590782  1
  Sn  Sn9  1  0.750209  0.750209  0.749373  1
  Sn  Sn10  1  0.001069  0.351170  0.646694  1
  Sn  Sn11  1  0.001069  0.001069  0.646694  1
  Sn  Sn12  1  0.351170  0.001069  0.646694  1
  Sn  Sn13  1  0.999999  0.649605  0.350400  1
  Sn  Sn14  1  0.351335  0.650330  0.999288  1
  Sn  Sn15  1  0.999049  0.650330  0.999288  1
  Sn  Sn16  1  0.650330  0.999049  0.999288  1
  Sn  Sn17  1  0.650330  0.351335  0.999288  1
  Sn  Sn18  1  0.649605  0.999999  0.350400  1
  Sn  Sn19  1  0.351335  0.999049  0.999288  1
  Sn  Sn20  1  0.999999  0.999999  0.350400  1
  Sn  Sn21  1  0.999049  0.351335  0.999288  1
  Sn  Sn22  1  0.243768  0.243768  0.268697  1
  Os  Os23  1  0.256413  0.256413  0.741513  1
  Os  Os24  1  0.745661  0.256413  0.741513  1
  Os  Os25  1  0.256413  0.745661  0.741513  1
  Os  Os26  1  0.742906  0.742906  0.256672  1
  Os  Os27  1  0.257517  0.742906  0.256672  1
  Os  Os28  1  0.742906  0.257517  0.256672  1
