# generated using pymatgen
data_Mg4ZrCo16(TcP4)3
_symmetry_space_group_name_H-M   'P 1'
_cell_length_a   11.85916400
_cell_length_b   11.85916548
_cell_length_c   3.62739700
_cell_angle_alpha   90.00000000
_cell_angle_beta   90.00000000
_cell_angle_gamma   119.99999587
_symmetry_Int_Tables_number   1
_chemical_formula_structural   Mg4ZrCo16(TcP4)3
_chemical_formula_sum   'Mg4 Zr1 Co16 Tc3 P12'
_cell_volume   441.80837413
_cell_formula_units_Z   1
loop_
 _symmetry_equiv_pos_site_id
 _symmetry_equiv_pos_as_xyz
  1  'x, y, z'
loop_
 _atom_site_type_symbol
 _atom_site_label
 _atom_site_symmetry_multiplicity
 _atom_site_fract_x
 _atom_site_fract_y
 _atom_site_fract_z
 _atom_site_occupancy
  Mg  Mg0  1  0.666667  0.333333  0.000000  1
  Mg  Mg1  1  0.819640  0.819938  0.500000  1
  Mg  Mg2  1  0.180062  0.999702  0.500000  1
  Mg  Mg3  1  0.000298  0.180360  0.500000  1
  Zr  Zr4  1  0.333333  0.666667  0.000000  1
  Co  Co5  1  0.194225  0.373604  0.000000  1
  Co  Co6  1  0.179379  0.805775  0.000000  1
  Co  Co7  1  0.821368  0.625583  0.000000  1
  Co  Co8  1  0.804215  0.178632  0.000000  1
  Co  Co9  1  0.374417  0.195785  0.000000  1
  Co  Co10  1  0.129839  0.483388  0.500000  1
  Co  Co11  1  0.353549  0.870161  0.500000  1
  Co  Co12  1  0.516612  0.646451  0.500000  1
  Co  Co13  1  0.647322  0.517719  0.500000  1
  Co  Co14  1  0.870398  0.352678  0.500000  1
  Co  Co15  1  0.482281  0.129602  0.500000  1
  Co  Co16  1  0.000000  0.000000  0.000000  1
  Co  Co17  1  0.720699  0.999840  0.500000  1
  Co  Co18  1  0.000160  0.720859  0.500000  1
  Co  Co19  1  0.626396  0.820621  0.000000  1
  Co  Co20  1  0.279141  0.279301  0.500000  1
  Tc  Tc21  1  0.448078  0.449916  0.000000  1
  Tc  Tc22  1  0.550084  0.998163  0.000000  1
  Tc  Tc23  1  0.001837  0.551922  0.000000  1
  P  P24  1  0.643544  0.642893  0.000000  1
  P  P25  1  0.357107  0.000651  0.000000  1
  P  P26  1  0.999349  0.356456  0.000000  1
  P  P27  1  0.482448  0.317295  0.500000  1
  P  P28  1  0.682705  0.165154  0.500000  1
  P  P29  1  0.834846  0.517552  0.500000  1
  P  P30  1  0.519520  0.835421  0.500000  1
  P  P31  1  0.164579  0.684097  0.500000  1
  P  P32  1  0.824060  0.000381  0.000000  1
  P  P33  1  0.999619  0.823679  0.000000  1
  P  P34  1  0.315903  0.480480  0.500000  1
  P  P35  1  0.176321  0.175940  0.000000  1
