# generated using pymatgen
data_Pr17Er3(Ir2Ru)4
_symmetry_space_group_name_H-M   'P 1'
_cell_length_a   11.22070300
_cell_length_b   11.22070300
_cell_length_c   6.60744700
_cell_angle_alpha   90.00000000
_cell_angle_beta   90.00000000
_cell_angle_gamma   90.00000000
_symmetry_Int_Tables_number   1
_chemical_formula_structural   Pr17Er3(Ir2Ru)4
_chemical_formula_sum   'Pr17 Er3 Ir8 Ru4'
_cell_volume   831.90516877
_cell_formula_units_Z   1
loop_
 _symmetry_equiv_pos_site_id
 _symmetry_equiv_pos_as_xyz
  1  'x, y, z'
loop_
 _atom_site_type_symbol
 _atom_site_label
 _atom_site_symmetry_multiplicity
 _atom_site_fract_x
 _atom_site_fract_y
 _atom_site_fract_z
 _atom_site_occupancy
  Pr  Pr0  1  0.289582  0.087019  0.381539  1
  Pr  Pr1  1  0.289931  0.912922  0.881753  1
  Pr  Pr2  1  0.710069  0.087078  0.881753  1
  Pr  Pr3  1  0.710418  0.912981  0.381539  1
  Pr  Pr4  1  0.587105  0.792277  0.882691  1
  Pr  Pr5  1  0.587069  0.206653  0.382243  1
  Pr  Pr6  1  0.412931  0.793347  0.382243  1
  Pr  Pr7  1  0.412895  0.207723  0.882691  1
  Pr  Pr8  1  0.206653  0.412931  0.617757  1
  Pr  Pr9  1  0.207723  0.587105  0.117309  1
  Pr  Pr10  1  0.792277  0.412895  0.117309  1
  Pr  Pr11  1  0.793347  0.587069  0.617757  1
  Pr  Pr12  1  0.912922  0.710069  0.118247  1
  Pr  Pr13  1  0.912981  0.289582  0.618461  1
  Pr  Pr14  1  0.087019  0.710418  0.618461  1
  Pr  Pr15  1  0.087078  0.289931  0.118247  1
  Pr  Pr16  1  0.500000  0.500000  0.500000  1
  Er  Er17  1  0.000000  0.000000  0.500000  1
  Er  Er18  1  0.000000  0.000000  0.000000  1
  Er  Er19  1  0.500000  0.500000  0.000000  1
  Ir  Ir20  1  0.853748  0.145442  0.250403  1
  Ir  Ir21  1  0.854558  0.853748  0.749597  1
  Ir  Ir22  1  0.145442  0.146252  0.749597  1
  Ir  Ir23  1  0.146252  0.854558  0.250403  1
  Ir  Ir24  1  0.649184  0.349950  0.757173  1
  Ir  Ir25  1  0.650050  0.649184  0.242827  1
  Ir  Ir26  1  0.349950  0.350816  0.242827  1
  Ir  Ir27  1  0.350816  0.650050  0.757173  1
  Ru  Ru28  1  0.500000  0.000000  0.117497  1
  Ru  Ru29  1  0.500000  0.000000  0.617638  1
  Ru  Ru30  1  0.000000  0.500000  0.882503  1
  Ru  Ru31  1  0.000000  0.500000  0.382362  1
