# generated using pymatgen
data_Sr2Tb3Sn4
_symmetry_space_group_name_H-M   'P 1'
_cell_length_a   8.09701300
_cell_length_b   8.56941900
_cell_length_c   16.21909700
_cell_angle_alpha   90.00000000
_cell_angle_beta   90.00000000
_cell_angle_gamma   90.00000000
_symmetry_Int_Tables_number   1
_chemical_formula_structural   Sr2Tb3Sn4
_chemical_formula_sum   'Sr8 Tb12 Sn16'
_cell_volume   1125.38956989
_cell_formula_units_Z   4
loop_
 _symmetry_equiv_pos_site_id
 _symmetry_equiv_pos_as_xyz
  1  'x, y, z'
loop_
 _atom_site_type_symbol
 _atom_site_label
 _atom_site_symmetry_multiplicity
 _atom_site_fract_x
 _atom_site_fract_y
 _atom_site_fract_z
 _atom_site_occupancy
  Sr  Sr0  1  0.496325  0.323554  0.907511  1
  Sr  Sr1  1  0.996325  0.176446  0.592489  1
  Sr  Sr2  1  0.503675  0.676446  0.407511  1
  Sr  Sr3  1  0.003675  0.823554  0.092489  1
  Sr  Sr4  1  0.503675  0.676446  0.092489  1
  Sr  Sr5  1  0.003675  0.823554  0.407511  1
  Sr  Sr6  1  0.496325  0.323554  0.592489  1
  Sr  Sr7  1  0.996325  0.176446  0.907511  1
  Tb  Tb8  1  0.325597  0.836099  0.875888  1
  Tb  Tb9  1  0.825597  0.663901  0.624112  1
  Tb  Tb10  1  0.674403  0.163901  0.375888  1
  Tb  Tb11  1  0.174403  0.336099  0.124112  1
  Tb  Tb12  1  0.674403  0.163901  0.124112  1
  Tb  Tb13  1  0.174403  0.336099  0.375888  1
  Tb  Tb14  1  0.325597  0.836099  0.624112  1
  Tb  Tb15  1  0.825597  0.663901  0.875888  1
  Tb  Tb16  1  0.160950  0.492809  0.750000  1
  Tb  Tb17  1  0.660950  0.007191  0.750000  1
  Tb  Tb18  1  0.839050  0.507191  0.250000  1
  Tb  Tb19  1  0.339050  0.992809  0.250000  1
  Sn  Sn20  1  0.337504  0.040019  0.043172  1
  Sn  Sn21  1  0.837504  0.459981  0.456828  1
  Sn  Sn22  1  0.662496  0.959981  0.543172  1
  Sn  Sn23  1  0.162496  0.540019  0.956828  1
  Sn  Sn24  1  0.662496  0.959981  0.956828  1
  Sn  Sn25  1  0.162496  0.540019  0.543172  1
  Sn  Sn26  1  0.337504  0.040019  0.456828  1
  Sn  Sn27  1  0.837504  0.459981  0.043172  1
  Sn  Sn28  1  0.525742  0.634765  0.750000  1
  Sn  Sn29  1  0.025742  0.865235  0.750000  1
  Sn  Sn30  1  0.474258  0.365235  0.250000  1
  Sn  Sn31  1  0.974258  0.134765  0.250000  1
  Sn  Sn32  1  0.287113  0.132981  0.750000  1
  Sn  Sn33  1  0.787113  0.367019  0.750000  1
  Sn  Sn34  1  0.712887  0.867019  0.250000  1
  Sn  Sn35  1  0.212887  0.632981  0.250000  1
