# generated using pymatgen
data_LiNdMn3Ni9As7
_symmetry_space_group_name_H-M   'P 1'
_cell_length_a   9.46197700
_cell_length_b   9.46197599
_cell_length_c   3.81700000
_cell_angle_alpha   90.00000000
_cell_angle_beta   90.00000000
_cell_angle_gamma   120.00000702
_symmetry_Int_Tables_number   1
_chemical_formula_structural   LiNdMn3Ni9As7
_chemical_formula_sum   'Li1 Nd1 Mn3 Ni9 As7'
_cell_volume   295.94873691
_cell_formula_units_Z   1
loop_
 _symmetry_equiv_pos_site_id
 _symmetry_equiv_pos_as_xyz
  1  'x, y, z'
loop_
 _atom_site_type_symbol
 _atom_site_label
 _atom_site_symmetry_multiplicity
 _atom_site_fract_x
 _atom_site_fract_y
 _atom_site_fract_z
 _atom_site_occupancy
  Li  Li0  1  0.000000  0.000000  0.500000  1
  Nd  Nd1  1  0.333333  0.666667  0.000000  1
  Mn  Mn2  1  0.769233  0.553239  0.500000  1
  Mn  Mn3  1  0.446761  0.215993  0.500000  1
  Mn  Mn4  1  0.784007  0.230767  0.500000  1
  Ni  Ni5  1  0.284285  0.377280  0.500000  1
  Ni  Ni6  1  0.622720  0.907004  0.500000  1
  Ni  Ni7  1  0.092996  0.715715  0.500000  1
  Ni  Ni8  1  0.506851  0.454187  0.000000  1
  Ni  Ni9  1  0.545813  0.052664  0.000000  1
  Ni  Ni10  1  0.947336  0.493149  0.000000  1
  Ni  Ni11  1  0.723959  0.763322  0.000000  1
  Ni  Ni12  1  0.236678  0.960637  0.000000  1
  Ni  Ni13  1  0.039363  0.276041  0.000000  1
  As  As14  1  0.964931  0.754283  0.000000  1
  As  As15  1  0.245717  0.210647  0.000000  1
  As  As16  1  0.789353  0.035069  0.000000  1
  As  As17  1  0.666667  0.333333  0.000000  1
  As  As18  1  0.554680  0.626141  0.500000  1
  As  As19  1  0.373859  0.928538  0.500000  1
  As  As20  1  0.071462  0.445320  0.500000  1
