# generated using pymatgen
data_Tm5LuMoO12
_symmetry_space_group_name_H-M   'P 1'
_cell_length_a   6.38255850
_cell_length_b   6.37281764
_cell_length_c   6.37870680
_cell_angle_alpha   98.78083213
_cell_angle_beta   98.71631264
_cell_angle_gamma   98.65603196
_symmetry_Int_Tables_number   1
_chemical_formula_structural   Tm5LuMoO12
_chemical_formula_sum   'Tm5 Lu1 Mo1 O12'
_cell_volume   249.41491992
_cell_formula_units_Z   1
loop_
 _symmetry_equiv_pos_site_id
 _symmetry_equiv_pos_as_xyz
  1  'x, y, z'
loop_
 _atom_site_type_symbol
 _atom_site_label
 _atom_site_symmetry_multiplicity
 _atom_site_fract_x
 _atom_site_fract_y
 _atom_site_fract_z
 _atom_site_occupancy
  Tm  Tm0  1  0.318560  0.143802  0.611080  1
  Tm  Tm1  1  0.855770  0.388312  0.681089  1
  Tm  Tm2  1  0.611628  0.318372  0.144311  1
  Tm  Tm3  1  0.389063  0.682485  0.856343  1
  Tm  Tm4  1  0.143681  0.612013  0.317982  1
  Lu  Lu5  1  0.679472  0.854992  0.389346  1
  Mo  Mo6  1  0.999241  0.999534  0.999709  1
  O  O7  1  0.918175  0.034413  0.699353  1
  O  O8  1  0.299594  0.080069  0.963381  1
  O  O9  1  0.591002  0.175370  0.428973  1
  O  O10  1  0.963775  0.300453  0.079989  1
  O  O11  1  0.570175  0.409952  0.822268  1
  O  O12  1  0.177227  0.429904  0.589380  1
  O  O13  1  0.821675  0.572629  0.410716  1
  O  O14  1  0.430770  0.591678  0.178300  1
  O  O15  1  0.036326  0.699749  0.919838  1
  O  O16  1  0.412547  0.822259  0.570074  1
  O  O17  1  0.700542  0.919772  0.038057  1
  O  O18  1  0.080779  0.964242  0.299809  1
