# generated using pymatgen
data_Zr9Ti(GaPb2)2
_symmetry_space_group_name_H-M   'P 1'
_cell_length_a   5.52841469
_cell_length_b   8.45515865
_cell_length_c   8.45515878
_cell_angle_alpha   83.86449338
_cell_angle_beta   70.91773704
_cell_angle_gamma   70.91773576
_symmetry_Int_Tables_number   1
_chemical_formula_structural   Zr9Ti(GaPb2)2
_chemical_formula_sum   'Zr9 Ti1 Ga2 Pb4'
_cell_volume   352.98305747
_cell_formula_units_Z   1
loop_
 _symmetry_equiv_pos_site_id
 _symmetry_equiv_pos_as_xyz
  1  'x, y, z'
loop_
 _atom_site_type_symbol
 _atom_site_label
 _atom_site_symmetry_multiplicity
 _atom_site_fract_x
 _atom_site_fract_y
 _atom_site_fract_z
 _atom_site_occupancy
  Zr  Zr0  1  0.709693  0.865712  0.712687  1
  Zr  Zr1  1  0.288091  0.134288  0.287313  1
  Zr  Zr2  1  0.790307  0.287313  0.134288  1
  Zr  Zr3  1  0.211909  0.712687  0.865712  1
  Zr  Zr4  1  0.577620  0.712687  0.134288  1
  Zr  Zr5  1  0.424596  0.287313  0.865712  1
  Zr  Zr6  1  0.075404  0.134288  0.712687  1
  Zr  Zr7  1  0.922380  0.865712  0.287313  1
  Zr  Zr8  1  0.750000  0.500000  0.500000  1
  Ti  Ti9  1  0.250000  0.500000  0.500000  1
  Ga  Ga10  1  0.250000  0.000000  0.000000  1
  Ga  Ga11  1  0.750000  0.000000  0.000000  1
  Pb  Pb12  1  0.170238  0.500000  0.176361  1
  Pb  Pb13  1  0.846599  0.500000  0.823639  1
  Pb  Pb14  1  0.329762  0.823639  0.500000  1
  Pb  Pb15  1  0.653401  0.176361  0.500000  1
