# generated using pymatgen
data_Sm8Dy7Ho5Sn16
_symmetry_space_group_name_H-M   'P 1'
_cell_length_a   8.07480662
_cell_length_b   8.24341716
_cell_length_c   15.55702289
_cell_angle_alpha   89.94223989
_cell_angle_beta   89.92987852
_cell_angle_gamma   90.01877413
_symmetry_Int_Tables_number   1
_chemical_formula_structural   Sm8Dy7Ho5Sn16
_chemical_formula_sum   'Sm8 Dy7 Ho5 Sn16'
_cell_volume   1035.53630529
_cell_formula_units_Z   1
loop_
 _symmetry_equiv_pos_site_id
 _symmetry_equiv_pos_as_xyz
  1  'x, y, z'
loop_
 _atom_site_type_symbol
 _atom_site_label
 _atom_site_symmetry_multiplicity
 _atom_site_fract_x
 _atom_site_fract_y
 _atom_site_fract_z
 _atom_site_occupancy
  Sm  Sm0  1  0.515734  0.320975  0.903078  1
  Sm  Sm1  1  0.015549  0.179148  0.596906  1
  Sm  Sm2  1  0.484560  0.679259  0.403220  1
  Sm  Sm3  1  0.984429  0.820635  0.096661  1
  Sm  Sm4  1  0.484202  0.679336  0.096849  1
  Sm  Sm5  1  0.984534  0.820723  0.403290  1
  Sm  Sm6  1  0.515630  0.320834  0.596862  1
  Sm  Sm7  1  0.015727  0.179260  0.903110  1
  Dy  Dy8  1  0.362837  0.836474  0.877434  1
  Dy  Dy9  1  0.862345  0.663698  0.622865  1
  Dy  Dy10  1  0.637563  0.163960  0.377268  1
  Dy  Dy11  1  0.137174  0.336213  0.122642  1
  Dy  Dy12  1  0.637358  0.163803  0.122416  1
  Dy  Dy13  1  0.137567  0.336103  0.377222  1
  Dy  Dy14  1  0.362234  0.836181  0.622871  1
  Ho  Ho15  1  0.862450  0.663461  0.877156  1
  Ho  Ho16  1  0.195104  0.502630  0.750076  1
  Ho  Ho17  1  0.695268  0.997382  0.750190  1
  Ho  Ho18  1  0.804880  0.497518  0.249904  1
  Ho  Ho19  1  0.304946  0.002540  0.249986  1
  Sn  Sn20  1  0.298773  0.039002  0.041778  1
  Sn  Sn21  1  0.799204  0.461053  0.458252  1
  Sn  Sn22  1  0.700694  0.960929  0.541827  1
  Sn  Sn23  1  0.200362  0.539330  0.958154  1
  Sn  Sn24  1  0.701603  0.960350  0.958138  1
  Sn  Sn25  1  0.200805  0.538950  0.541822  1
  Sn  Sn26  1  0.299289  0.038887  0.458289  1
  Sn  Sn27  1  0.798922  0.461421  0.041440  1
  Sn  Sn28  1  0.560841  0.620733  0.750226  1
  Sn  Sn29  1  0.060647  0.878899  0.750252  1
  Sn  Sn30  1  0.439041  0.379691  0.249761  1
  Sn  Sn31  1  0.939027  0.120243  0.249865  1
  Sn  Sn32  1  0.325091  0.145479  0.749989  1
  Sn  Sn33  1  0.825101  0.354761  0.750037  1
  Sn  Sn34  1  0.675282  0.855137  0.250057  1
  Sn  Sn35  1  0.175226  0.645002  0.250105  1
