# generated using pymatgen
data_Pr4IrPd2Au
_symmetry_space_group_name_H-M   'P 1'
_cell_length_a   4.71418700
_cell_length_b   5.78918010
_cell_length_c   7.43314704
_cell_angle_alpha   89.72132595
_cell_angle_beta   90.00000000
_cell_angle_gamma   90.00000000
_symmetry_Int_Tables_number   1
_chemical_formula_structural   Pr4IrPd2Au
_chemical_formula_sum   'Pr4 Ir1 Pd2 Au1'
_cell_volume   202.85767981
_cell_formula_units_Z   1
loop_
 _symmetry_equiv_pos_site_id
 _symmetry_equiv_pos_as_xyz
  1  'x, y, z'
loop_
 _atom_site_type_symbol
 _atom_site_label
 _atom_site_symmetry_multiplicity
 _atom_site_fract_x
 _atom_site_fract_y
 _atom_site_fract_z
 _atom_site_occupancy
  Pr  Pr0  1  0.250000  0.363035  0.673092  1
  Pr  Pr1  1  0.250000  0.130829  0.192810  1
  Pr  Pr2  1  0.750000  0.648713  0.328359  1
  Pr  Pr3  1  0.750000  0.858551  0.802906  1
  Ir  Ir4  1  0.250000  0.839679  0.543991  1
  Pd  Pd5  1  0.250000  0.646923  0.040677  1
  Pd  Pd6  1  0.750000  0.155755  0.456036  1
  Au  Au7  1  0.750000  0.356517  0.962129  1
