# generated using pymatgen
data_Be9NbW2
_symmetry_space_group_name_H-M   'P 1'
_cell_length_a   7.39969767
_cell_length_b   7.39969763
_cell_length_c   7.39969790
_cell_angle_alpha   35.10175894
_cell_angle_beta   35.10176017
_cell_angle_gamma   35.10175690
_symmetry_Int_Tables_number   1
_chemical_formula_structural   Be9NbW2
_chemical_formula_sum   'Be9 Nb1 W2'
_cell_volume   119.64444227
_cell_formula_units_Z   1
loop_
 _symmetry_equiv_pos_site_id
 _symmetry_equiv_pos_as_xyz
  1  'x, y, z'
loop_
 _atom_site_type_symbol
 _atom_site_label
 _atom_site_symmetry_multiplicity
 _atom_site_fract_x
 _atom_site_fract_y
 _atom_site_fract_z
 _atom_site_occupancy
  Be  Be0  1  0.500000  0.500000  0.500000  1
  Be  Be1  1  0.334394  0.334394  0.334395  1
  Be  Be2  1  0.665606  0.665606  0.665605  1
  Be  Be3  1  0.077287  0.584492  0.584492  1
  Be  Be4  1  0.584492  0.584492  0.077287  1
  Be  Be5  1  0.584492  0.077287  0.584492  1
  Be  Be6  1  0.415508  0.922713  0.415508  1
  Be  Be7  1  0.922713  0.415508  0.415508  1
  Be  Be8  1  0.415508  0.415508  0.922713  1
  Nb  Nb9  1  0.000000  0.000000  0.000000  1
  W  W10  1  0.143808  0.143808  0.143808  1
  W  W11  1  0.856192  0.856192  0.856192  1
