# generated using pymatgen
data_NdYHo3(FeB3)2
_symmetry_space_group_name_H-M   'P 1'
_cell_length_a   8.29920873
_cell_length_b   8.29920889
_cell_length_c   8.29920716
_cell_angle_alpha   38.14892504
_cell_angle_beta   38.14892706
_cell_angle_gamma   38.14891272
_symmetry_Int_Tables_number   1
_chemical_formula_structural   NdYHo3(FeB3)2
_chemical_formula_sum   'Nd1 Y1 Ho3 Fe2 B6'
_cell_volume   195.83916662
_cell_formula_units_Z   1
loop_
 _symmetry_equiv_pos_site_id
 _symmetry_equiv_pos_as_xyz
  1  'x, y, z'
loop_
 _atom_site_type_symbol
 _atom_site_label
 _atom_site_symmetry_multiplicity
 _atom_site_fract_x
 _atom_site_fract_y
 _atom_site_fract_z
 _atom_site_occupancy
  Nd  Nd0  1  0.000114  0.000114  0.000114  1
  Y  Y1  1  0.582863  0.582863  0.582863  1
  Ho  Ho2  1  0.417576  0.417576  0.417576  1
  Ho  Ho3  1  0.750107  0.750107  0.750107  1
  Ho  Ho4  1  0.249872  0.249872  0.249872  1
  Fe  Fe5  1  0.883195  0.883195  0.883195  1
  Fe  Fe6  1  0.116764  0.116764  0.116764  1
  B  B7  1  0.499978  0.832374  0.167403  1
  B  B8  1  0.167403  0.499978  0.832374  1
  B  B9  1  0.832374  0.167403  0.499978  1
  B  B10  1  0.499978  0.167403  0.832374  1
  B  B11  1  0.832374  0.499978  0.167403  1
  B  B12  1  0.167403  0.832374  0.499978  1
