# generated using pymatgen
data_TmMo(SeO3)4
_symmetry_space_group_name_H-M   'P 1'
_cell_length_a   8.60290500
_cell_length_b   8.81242395
_cell_length_c   8.46892257
_cell_angle_alpha   91.02912122
_cell_angle_beta   90.00000000
_cell_angle_gamma   90.00000000
_symmetry_Int_Tables_number   1
_chemical_formula_structural   TmMo(SeO3)4
_chemical_formula_sum   'Tm2 Mo2 Se8 O24'
_cell_volume   641.94617001
_cell_formula_units_Z   2
loop_
 _symmetry_equiv_pos_site_id
 _symmetry_equiv_pos_as_xyz
  1  'x, y, z'
loop_
 _atom_site_type_symbol
 _atom_site_label
 _atom_site_symmetry_multiplicity
 _atom_site_fract_x
 _atom_site_fract_y
 _atom_site_fract_z
 _atom_site_occupancy
  Tm  Tm0  1  0.000000  0.500000  0.000000  1
  Tm  Tm1  1  0.500000  0.500000  0.500000  1
  Mo  Mo2  1  0.000000  0.000000  0.500000  1
  Mo  Mo3  1  0.500000  0.000000  0.000000  1
  Se  Se4  1  0.335046  0.690647  0.171500  1
  Se  Se5  1  0.835046  0.309353  0.328500  1
  Se  Se6  1  0.693224  0.839680  0.690095  1
  Se  Se7  1  0.193224  0.160320  0.809905  1
  Se  Se8  1  0.664954  0.309353  0.828500  1
  Se  Se9  1  0.164954  0.690647  0.671500  1
  Se  Se10  1  0.306776  0.160320  0.309905  1
  Se  Se11  1  0.806776  0.839680  0.190095  1
  O  O12  1  0.241783  0.568995  0.047989  1
  O  O13  1  0.741783  0.431005  0.452011  1
  O  O14  1  0.770253  0.963212  0.549228  1
  O  O15  1  0.270253  0.036788  0.950772  1
  O  O16  1  0.550283  0.965384  0.768841  1
  O  O17  1  0.473298  0.583035  0.255415  1
  O  O18  1  0.973298  0.416965  0.244585  1
  O  O19  1  0.050283  0.034616  0.731159  1
  O  O20  1  0.954855  0.213807  0.476140  1
  O  O21  1  0.579174  0.730207  0.574484  1
  O  O22  1  0.454855  0.786193  0.023860  1
  O  O23  1  0.079174  0.269793  0.925516  1
  O  O24  1  0.758217  0.431005  0.952011  1
  O  O25  1  0.258217  0.568995  0.547989  1
  O  O26  1  0.229747  0.036788  0.450772  1
  O  O27  1  0.729747  0.963212  0.049228  1
  O  O28  1  0.449717  0.034616  0.231159  1
  O  O29  1  0.526702  0.416965  0.744585  1
  O  O30  1  0.026702  0.583035  0.755415  1
  O  O31  1  0.949717  0.965384  0.268841  1
  O  O32  1  0.045145  0.786193  0.523860  1
  O  O33  1  0.420826  0.269793  0.425516  1
  O  O34  1  0.545145  0.213807  0.976140  1
  O  O35  1  0.920826  0.730207  0.074484  1
