# generated using pymatgen
data_TbHo3(CuPd)2
_symmetry_space_group_name_H-M   'P 1'
_cell_length_a   4.47430400
_cell_length_b   5.49145363
_cell_length_c   7.10945501
_cell_angle_alpha   90.12626412
_cell_angle_beta   90.00000000
_cell_angle_gamma   90.00000000
_symmetry_Int_Tables_number   1
_chemical_formula_structural   TbHo3(CuPd)2
_chemical_formula_sum   'Tb1 Ho3 Cu2 Pd2'
_cell_volume   174.68196350
_cell_formula_units_Z   1
loop_
 _symmetry_equiv_pos_site_id
 _symmetry_equiv_pos_as_xyz
  1  'x, y, z'
loop_
 _atom_site_type_symbol
 _atom_site_label
 _atom_site_symmetry_multiplicity
 _atom_site_fract_x
 _atom_site_fract_y
 _atom_site_fract_z
 _atom_site_occupancy
  Tb  Tb0  1  0.500000  0.608260  0.816250  1
  Ho  Ho1  1  0.000000  0.113408  0.683741  1
  Ho  Ho2  1  0.000000  0.887222  0.184118  1
  Ho  Ho3  1  0.500000  0.391934  0.316497  1
  Cu  Cu4  1  0.500000  0.893241  0.463027  1
  Cu  Cu5  1  0.500000  0.107224  0.964591  1
  Pd  Pd6  1  0.000000  0.614806  0.533965  1
  Pd  Pd7  1  0.000000  0.383907  0.037812  1
