# generated using pymatgen
data_Tb13Tm3In4(OsRh)2
_symmetry_space_group_name_H-M   'P 1'
_cell_length_a   9.68767376
_cell_length_b   9.73601721
_cell_length_c   9.66196915
_cell_angle_alpha   59.92136204
_cell_angle_beta   59.61700530
_cell_angle_gamma   59.65990443
_symmetry_Int_Tables_number   1
_chemical_formula_structural   Tb13Tm3In4(OsRh)2
_chemical_formula_sum   'Tb13 Tm3 In4 Os2 Rh2'
_cell_volume   640.47236948
_cell_formula_units_Z   1
loop_
 _symmetry_equiv_pos_site_id
 _symmetry_equiv_pos_as_xyz
  1  'x, y, z'
loop_
 _atom_site_type_symbol
 _atom_site_label
 _atom_site_symmetry_multiplicity
 _atom_site_fract_x
 _atom_site_fract_y
 _atom_site_fract_z
 _atom_site_occupancy
  Tb  Tb0  1  0.650240  0.048412  0.651376  1
  Tb  Tb1  1  0.059863  0.058567  0.445763  1
  Tb  Tb2  1  0.445763  0.435807  0.059863  1
  Tb  Tb3  1  0.651376  0.649973  0.650240  1
  Tb  Tb4  1  0.811798  0.191737  0.188530  1
  Tb  Tb5  1  0.188530  0.807935  0.811798  1
  Tb  Tb6  1  0.044445  0.651155  0.651751  1
  Tb  Tb7  1  0.446051  0.058461  0.059626  1
  Tb  Tb8  1  0.437533  0.062467  0.437533  1
  Tb  Tb9  1  0.056267  0.443733  0.056267  1
  Tb  Tb10  1  0.651751  0.652647  0.044445  1
  Tb  Tb11  1  0.192132  0.807868  0.192132  1
  Tb  Tb12  1  0.059626  0.435862  0.446051  1
  Tm  Tm13  1  0.810638  0.806832  0.189731  1
  Tm  Tm14  1  0.809706  0.190294  0.809706  1
  Tm  Tm15  1  0.189731  0.192800  0.810638  1
  In  In16  1  0.418701  0.417040  0.418731  1
  In  In17  1  0.417670  0.416999  0.748073  1
  In  In18  1  0.418731  0.745528  0.418701  1
  In  In19  1  0.748073  0.417256  0.417670  1
  Os  Os20  1  0.858966  0.420423  0.856748  1
  Os  Os21  1  0.856748  0.863864  0.858966  1
  Rh  Rh22  1  0.856935  0.860716  0.418727  1
  Rh  Rh23  1  0.418727  0.863624  0.856935  1
