# generated using pymatgen
data_Pa2AlCo2
_symmetry_space_group_name_H-M   'P 1'
_cell_length_a   7.14930600
_cell_length_b   7.14930600
_cell_length_c   3.52547300
_cell_angle_alpha   90.00000000
_cell_angle_beta   90.00000000
_cell_angle_gamma   90.00000000
_symmetry_Int_Tables_number   1
_chemical_formula_structural   Pa2AlCo2
_chemical_formula_sum   'Pa4 Al2 Co4'
_cell_volume   180.19600764
_cell_formula_units_Z   2
loop_
 _symmetry_equiv_pos_site_id
 _symmetry_equiv_pos_as_xyz
  1  'x, y, z'
loop_
 _atom_site_type_symbol
 _atom_site_label
 _atom_site_symmetry_multiplicity
 _atom_site_fract_x
 _atom_site_fract_y
 _atom_site_fract_z
 _atom_site_occupancy
  Pa  Pa0  1  0.674150  0.174151  0.500000  1
  Pa  Pa1  1  0.174151  0.325850  0.500000  1
  Pa  Pa2  1  0.825850  0.674150  0.500000  1
  Pa  Pa3  1  0.325850  0.825850  0.500000  1
  Al  Al4  1  0.000000  0.000000  0.000000  1
  Al  Al5  1  0.500000  0.500000  0.000000  1
  Co  Co6  1  0.363456  0.136545  0.000000  1
  Co  Co7  1  0.863455  0.363456  0.000000  1
  Co  Co8  1  0.136545  0.636545  0.000000  1
  Co  Co9  1  0.636545  0.863455  0.000000  1
