# generated using pymatgen
data_Tb4Al12Si6Os5Pd
_symmetry_space_group_name_H-M   'P 1'
_cell_length_a   7.49919121
_cell_length_b   7.47086544
_cell_length_c   9.41027070
_cell_angle_alpha   90.07727162
_cell_angle_beta   89.98996841
_cell_angle_gamma   119.61266466
_symmetry_Int_Tables_number   1
_chemical_formula_structural   Tb4Al12Si6Os5Pd
_chemical_formula_sum   'Tb4 Al12 Si6 Os5 Pd1'
_cell_volume   458.35238958
_cell_formula_units_Z   1
loop_
 _symmetry_equiv_pos_site_id
 _symmetry_equiv_pos_as_xyz
  1  'x, y, z'
loop_
 _atom_site_type_symbol
 _atom_site_label
 _atom_site_symmetry_multiplicity
 _atom_site_fract_x
 _atom_site_fract_y
 _atom_site_fract_z
 _atom_site_occupancy
  Tb  Tb0  1  0.000764  0.677402  0.251317  1
  Tb  Tb1  1  0.006340  0.332804  0.753805  1
  Tb  Tb2  1  0.677108  0.999252  0.248306  1
  Tb  Tb3  1  0.312313  0.992226  0.746661  1
  Al  Al4  1  0.003798  0.336137  0.424731  1
  Al  Al5  1  0.662978  0.997764  0.578729  1
  Al  Al6  1  0.659551  0.994849  0.924934  1
  Al  Al7  1  0.341747  0.007200  0.070250  1
  Al  Al8  1  0.340621  0.342865  0.560438  1
  Al  Al9  1  0.655790  0.660143  0.439942  1
  Al  Al10  1  0.661343  0.664572  0.056874  1
  Al  Al11  1  0.339311  0.334887  0.942450  1
  Al  Al12  1  0.332779  0.547949  0.249554  1
  Al  Al13  1  0.665686  0.450809  0.751681  1
  Al  Al14  1  0.550709  0.339250  0.248912  1
  Al  Al15  1  0.451405  0.663311  0.749506  1
  Si  Si16  1  0.133668  0.132066  0.244682  1
  Si  Si17  1  0.864851  0.869322  0.755374  1
  Si  Si18  1  0.003124  0.332091  0.070063  1
  Si  Si19  1  0.996072  0.666666  0.936457  1
  Si  Si20  1  0.988164  0.647393  0.571067  1
  Si  Si21  1  0.352849  0.010895  0.424840  1
  Os  Os22  1  0.688513  0.336627  0.001825  1
  Os  Os23  1  0.311786  0.663661  0.998373  1
  Os  Os24  1  0.319039  0.680072  0.499771  1
  Os  Os25  1  0.671952  0.328198  0.499747  1
  Os  Os26  1  0.000639  0.999262  0.999861  1
  Pd  Pd27  1  0.007101  0.992326  0.499849  1
