# generated using pymatgen
data_Dy4MgRuPt2
_symmetry_space_group_name_H-M   'P 1'
_cell_length_a   10.87117200
_cell_length_b   10.87117200
_cell_length_c   6.24000100
_cell_angle_alpha   90.00000000
_cell_angle_beta   90.00000000
_cell_angle_gamma   90.00000000
_symmetry_Int_Tables_number   1
_chemical_formula_structural   Dy4MgRuPt2
_chemical_formula_sum   'Dy16 Mg4 Ru4 Pt8'
_cell_volume   737.45817346
_cell_formula_units_Z   4
loop_
 _symmetry_equiv_pos_site_id
 _symmetry_equiv_pos_as_xyz
  1  'x, y, z'
loop_
 _atom_site_type_symbol
 _atom_site_label
 _atom_site_symmetry_multiplicity
 _atom_site_fract_x
 _atom_site_fract_y
 _atom_site_fract_z
 _atom_site_occupancy
  Dy  Dy0  1  0.291158  0.085484  0.374646  1
  Dy  Dy1  1  0.291158  0.914516  0.874646  1
  Dy  Dy2  1  0.708842  0.085484  0.874646  1
  Dy  Dy3  1  0.708842  0.914516  0.374646  1
  Dy  Dy4  1  0.585484  0.791158  0.874646  1
  Dy  Dy5  1  0.585484  0.208842  0.374646  1
  Dy  Dy6  1  0.414516  0.791158  0.374646  1
  Dy  Dy7  1  0.414516  0.208842  0.874646  1
  Dy  Dy8  1  0.208842  0.414516  0.625354  1
  Dy  Dy9  1  0.208842  0.585484  0.125354  1
  Dy  Dy10  1  0.791158  0.414516  0.125354  1
  Dy  Dy11  1  0.791158  0.585484  0.625354  1
  Dy  Dy12  1  0.914516  0.708842  0.125354  1
  Dy  Dy13  1  0.914516  0.291158  0.625354  1
  Dy  Dy14  1  0.085484  0.708842  0.625354  1
  Dy  Dy15  1  0.085484  0.291158  0.125354  1
  Mg  Mg16  1  0.000000  0.000000  0.500000  1
  Mg  Mg17  1  0.000000  0.000000  0.000000  1
  Mg  Mg18  1  0.500000  0.500000  0.000000  1
  Mg  Mg19  1  0.500000  0.500000  0.500000  1
  Ru  Ru20  1  0.500000  0.000000  0.120346  1
  Ru  Ru21  1  0.500000  0.000000  0.620346  1
  Ru  Ru22  1  0.000000  0.500000  0.879654  1
  Ru  Ru23  1  0.000000  0.500000  0.379654  1
  Pt  Pt24  1  0.848378  0.151622  0.250000  1
  Pt  Pt25  1  0.848378  0.848378  0.750000  1
  Pt  Pt26  1  0.151622  0.151622  0.750000  1
  Pt  Pt27  1  0.151622  0.848378  0.250000  1
  Pt  Pt28  1  0.651622  0.348378  0.750000  1
  Pt  Pt29  1  0.651622  0.651622  0.250000  1
  Pt  Pt30  1  0.348378  0.348378  0.250000  1
  Pt  Pt31  1  0.348378  0.651622  0.750000  1
