# generated using pymatgen
data_LaPrThAs3
_symmetry_space_group_name_H-M   'P 1'
_cell_length_a   7.47521073
_cell_length_b   7.47520982
_cell_length_c   7.47521021
_cell_angle_alpha   146.52181659
_cell_angle_beta   131.95857533
_cell_angle_gamma   59.82192818
_symmetry_Int_Tables_number   1
_chemical_formula_structural   LaPrThAs3
_chemical_formula_sum   'La1 Pr1 Th1 As3'
_cell_volume   169.79663692
_cell_formula_units_Z   1
loop_
 _symmetry_equiv_pos_site_id
 _symmetry_equiv_pos_as_xyz
  1  'x, y, z'
loop_
 _atom_site_type_symbol
 _atom_site_label
 _atom_site_symmetry_multiplicity
 _atom_site_fract_x
 _atom_site_fract_y
 _atom_site_fract_z
 _atom_site_occupancy
  La  La0  1  0.333459  0.333459  0.000000  1
  Pr  Pr1  1  0.999511  0.999511  0.000000  1
  Th  Th2  1  0.666892  0.666892  0.000000  1
  As  As3  1  0.504967  0.004967  0.500000  1
  As  As4  1  0.165799  0.665799  0.500000  1
  As  As5  1  0.829372  0.329372  0.500000  1
