# generated using pymatgen
data_Zr4TlZnInCo3
_symmetry_space_group_name_H-M   'P 1'
_cell_length_a   7.31057430
_cell_length_b   7.30849617
_cell_length_c   3.35366500
_cell_angle_alpha   90.00000000
_cell_angle_beta   90.00000000
_cell_angle_gamma   90.99971044
_symmetry_Int_Tables_number   1
_chemical_formula_structural   Zr4TlZnInCo3
_chemical_formula_sum   'Zr4 Tl1 Zn1 In1 Co3'
_cell_volume   179.15671299
_cell_formula_units_Z   1
loop_
 _symmetry_equiv_pos_site_id
 _symmetry_equiv_pos_as_xyz
  1  'x, y, z'
loop_
 _atom_site_type_symbol
 _atom_site_label
 _atom_site_symmetry_multiplicity
 _atom_site_fract_x
 _atom_site_fract_y
 _atom_site_fract_z
 _atom_site_occupancy
  Zr  Zr0  1  0.692280  0.163419  0.500000  1
  Zr  Zr1  1  0.149390  0.354678  0.500000  1
  Zr  Zr2  1  0.826179  0.670115  0.500000  1
  Zr  Zr3  1  0.339723  0.806031  0.500000  1
  Tl  Tl4  1  0.006295  0.995770  0.000000  1
  Zn  Zn5  1  0.376354  0.125678  0.000000  1
  In  In6  1  0.503871  0.494028  0.000000  1
  Co  Co7  1  0.123184  0.627814  0.000000  1
  Co  Co8  1  0.614609  0.882765  0.000000  1
  Co  Co9  1  0.868116  0.379704  0.000000  1
