# generated using pymatgen
data_Li4La3DyPt4
_symmetry_space_group_name_H-M   'P 1'
_cell_length_a   4.09595700
_cell_length_b   7.20302550
_cell_length_c   8.57130200
_cell_angle_alpha   90.50474532
_cell_angle_beta   90.00000000
_cell_angle_gamma   90.00000000
_symmetry_Int_Tables_number   1
_chemical_formula_structural   Li4La3DyPt4
_chemical_formula_sum   'Li4 La3 Dy1 Pt4'
_cell_volume   252.87173357
_cell_formula_units_Z   1
loop_
 _symmetry_equiv_pos_site_id
 _symmetry_equiv_pos_as_xyz
  1  'x, y, z'
loop_
 _atom_site_type_symbol
 _atom_site_label
 _atom_site_symmetry_multiplicity
 _atom_site_fract_x
 _atom_site_fract_y
 _atom_site_fract_z
 _atom_site_occupancy
  Li  Li0  1  0.250000  0.121576  0.051506  1
  Li  Li1  1  0.250000  0.628551  0.446976  1
  Li  Li2  1  0.750000  0.879106  0.940407  1
  Li  Li3  1  0.750000  0.370256  0.557769  1
  La  La4  1  0.250000  0.547123  0.811242  1
  La  La5  1  0.750000  0.952098  0.317806  1
  La  La6  1  0.750000  0.450732  0.185911  1
  Dy  Dy7  1  0.250000  0.049902  0.682678  1
  Pt  Pt8  1  0.250000  0.245623  0.385964  1
  Pt  Pt9  1  0.250000  0.746224  0.120888  1
  Pt  Pt10  1  0.750000  0.762448  0.625237  1
  Pt  Pt11  1  0.750000  0.246362  0.873616  1
