# generated using pymatgen
data_Er2Lu2Tc3Os5
_symmetry_space_group_name_H-M   'P 1'
_cell_length_a   5.29168232
_cell_length_b   5.27847968
_cell_length_c   8.86200002
_cell_angle_alpha   90.00000154
_cell_angle_beta   90.00629184
_cell_angle_gamma   119.91748107
_symmetry_Int_Tables_number   1
_chemical_formula_structural   Er2Lu2Tc3Os5
_chemical_formula_sum   'Er2 Lu2 Tc3 Os5'
_cell_volume   214.54851607
_cell_formula_units_Z   1
loop_
 _symmetry_equiv_pos_site_id
 _symmetry_equiv_pos_as_xyz
  1  'x, y, z'
loop_
 _atom_site_type_symbol
 _atom_site_label
 _atom_site_symmetry_multiplicity
 _atom_site_fract_x
 _atom_site_fract_y
 _atom_site_fract_z
 _atom_site_occupancy
  Er  Er0  1  0.339392  0.669697  0.434108  1
  Er  Er1  1  0.669396  0.334697  0.564408  1
  Lu  Lu2  1  0.669131  0.334565  0.936411  1
  Lu  Lu3  1  0.339554  0.669777  0.064794  1
  Tc  Tc4  1  0.165062  0.338108  0.751418  1
  Tc  Tc5  1  0.165062  0.826955  0.751418  1
  Tc  Tc6  1  0.325688  0.162844  0.248772  1
  Os  Os7  1  0.820929  0.648098  0.248407  1
  Os  Os8  1  0.643928  0.821964  0.751749  1
  Os  Os9  1  0.020700  0.010350  0.999080  1
  Os  Os10  1  0.820929  0.172831  0.248407  1
  Os  Os11  1  0.020231  0.010116  0.501030  1
