# generated using pymatgen
data_Dy7ErCd2(SnAu4)2
_symmetry_space_group_name_H-M   'P 1'
_cell_length_a   8.00629508
_cell_length_b   8.00629508
_cell_length_c   7.34828623
_cell_angle_alpha   89.97982481
_cell_angle_beta   90.02017519
_cell_angle_gamma   90.28614121
_symmetry_Int_Tables_number   1
_chemical_formula_structural   Dy7ErCd2(SnAu4)2
_chemical_formula_sum   'Dy7 Er1 Cd2 Sn2 Au8'
_cell_volume   471.02480691
_cell_formula_units_Z   1
loop_
 _symmetry_equiv_pos_site_id
 _symmetry_equiv_pos_as_xyz
  1  'x, y, z'
loop_
 _atom_site_type_symbol
 _atom_site_label
 _atom_site_symmetry_multiplicity
 _atom_site_fract_x
 _atom_site_fract_y
 _atom_site_fract_z
 _atom_site_occupancy
  Dy  Dy0  1  0.840031  0.159265  0.499901  1
  Dy  Dy1  1  0.159265  0.840031  0.500099  1
  Dy  Dy2  1  0.340642  0.340642  0.000000  1
  Dy  Dy3  1  0.659588  0.659588  0.000000  1
  Dy  Dy4  1  0.318241  0.318241  0.500000  1
  Dy  Dy5  1  0.181803  0.817873  0.000057  1
  Dy  Dy6  1  0.817873  0.181803  0.999943  1
  Er  Er7  1  0.682002  0.682002  0.500000  1
  Cd  Cd8  1  0.500118  0.999787  0.250324  1
  Cd  Cd9  1  0.999787  0.500118  0.749676  1
  Sn  Sn10  1  0.500068  0.999796  0.749822  1
  Sn  Sn11  1  0.999796  0.500068  0.250178  1
  Au  Au12  1  0.625074  0.369103  0.273342  1
  Au  Au13  1  0.376549  0.632281  0.273323  1
  Au  Au14  1  0.124333  0.131694  0.772406  1
  Au  Au15  1  0.874516  0.867236  0.770601  1
  Au  Au16  1  0.369103  0.625074  0.726658  1
  Au  Au17  1  0.632281  0.376549  0.726677  1
  Au  Au18  1  0.867236  0.874516  0.229399  1
  Au  Au19  1  0.131694  0.124333  0.227594  1
