# generated using pymatgen
data_Tb5BRh7Au8
_symmetry_space_group_name_H-M   'P 1'
_cell_length_a   4.16297100
_cell_length_b   4.16297100
_cell_length_c   21.57014700
_cell_angle_alpha   90.00000000
_cell_angle_beta   90.00000000
_cell_angle_gamma   90.00000000
_symmetry_Int_Tables_number   1
_chemical_formula_structural   Tb5BRh7Au8
_chemical_formula_sum   'Tb5 B1 Rh7 Au8'
_cell_volume   373.81771274
_cell_formula_units_Z   1
loop_
 _symmetry_equiv_pos_site_id
 _symmetry_equiv_pos_as_xyz
  1  'x, y, z'
loop_
 _atom_site_type_symbol
 _atom_site_label
 _atom_site_symmetry_multiplicity
 _atom_site_fract_x
 _atom_site_fract_y
 _atom_site_fract_z
 _atom_site_occupancy
  Tb  Tb0  1  0.000000  0.000000  0.907095  1
  Tb  Tb1  1  0.000000  0.000000  0.092905  1
  Tb  Tb2  1  0.000000  0.000000  0.297098  1
  Tb  Tb3  1  0.000000  0.000000  0.500000  1
  Tb  Tb4  1  0.000000  0.000000  0.702902  1
  B  B5  1  0.500000  0.500000  0.000000  1
  Rh  Rh6  1  0.500000  0.500000  0.900500  1
  Rh  Rh7  1  0.500000  0.500000  0.099500  1
  Rh  Rh8  1  0.500000  0.500000  0.298883  1
  Rh  Rh9  1  0.500000  0.500000  0.500000  1
  Rh  Rh10  1  0.500000  0.500000  0.701117  1
  Rh  Rh11  1  0.500000  0.000000  0.000000  1
  Rh  Rh12  1  0.000000  0.500000  0.000000  1
  Au  Au13  1  0.500000  0.000000  0.197263  1
  Au  Au14  1  0.500000  0.000000  0.399061  1
  Au  Au15  1  0.500000  0.000000  0.600939  1
  Au  Au16  1  0.500000  0.000000  0.802737  1
  Au  Au17  1  0.000000  0.500000  0.197263  1
  Au  Au18  1  0.000000  0.500000  0.399061  1
  Au  Au19  1  0.000000  0.500000  0.600939  1
  Au  Au20  1  0.000000  0.500000  0.802737  1
