# generated using pymatgen
data_Ba4La6CeNdS16
_symmetry_space_group_name_H-M   'P 1'
_cell_length_a   4.18536800
_cell_length_b   12.38694812
_cell_length_c   14.95439400
_cell_angle_alpha   89.64324244
_cell_angle_beta   90.00000000
_cell_angle_gamma   90.00000000
_symmetry_Int_Tables_number   1
_chemical_formula_structural   Ba4La6CeNdS16
_chemical_formula_sum   'Ba4 La6 Ce1 Nd1 S16'
_cell_volume   775.27962060
_cell_formula_units_Z   1
loop_
 _symmetry_equiv_pos_site_id
 _symmetry_equiv_pos_as_xyz
  1  'x, y, z'
loop_
 _atom_site_type_symbol
 _atom_site_label
 _atom_site_symmetry_multiplicity
 _atom_site_fract_x
 _atom_site_fract_y
 _atom_site_fract_z
 _atom_site_occupancy
  Ba  Ba0  1  0.250000  0.753050  0.344056  1
  Ba  Ba1  1  0.250000  0.252396  0.158659  1
  Ba  Ba2  1  0.750000  0.246527  0.656627  1
  Ba  Ba3  1  0.750000  0.747865  0.840704  1
  La  La4  1  0.250000  0.417862  0.393172  1
  La  La5  1  0.250000  0.920364  0.108067  1
  La  La6  1  0.750000  0.581544  0.606669  1
  La  La7  1  0.750000  0.079646  0.891791  1
  La  La8  1  0.250000  0.422649  0.894257  1
  La  La9  1  0.750000  0.577634  0.105514  1
  Ce  Ce10  1  0.750000  0.075927  0.396077  1
  Nd  Nd11  1  0.250000  0.923851  0.605300  1
  S  S12  1  0.250000  0.211939  0.817771  1
  S  S13  1  0.250000  0.714834  0.678970  1
  S  S14  1  0.750000  0.788313  0.182344  1
  S  S15  1  0.750000  0.284790  0.320337  1
  S  S16  1  0.250000  0.133434  0.519190  1
  S  S17  1  0.250000  0.635294  0.978584  1
  S  S18  1  0.750000  0.866558  0.480503  1
  S  S19  1  0.750000  0.364919  0.021125  1
  S  S20  1  0.250000  0.514111  0.218491  1
  S  S21  1  0.250000  0.016846  0.284455  1
  S  S22  1  0.750000  0.486244  0.781518  1
  S  S23  1  0.750000  0.984389  0.716054  1
  S  S24  1  0.250000  0.423194  0.582213  1
  S  S25  1  0.250000  0.922805  0.918462  1
  S  S26  1  0.750000  0.576043  0.417799  1
  S  S27  1  0.750000  0.076969  0.081296  1
