# generated using pymatgen
data_Tb2Y2ZrPd15
_symmetry_space_group_name_H-M   'P 1'
_cell_length_a   4.11801900
_cell_length_b   4.11777500
_cell_length_c   20.58877300
_cell_angle_alpha   90.00000000
_cell_angle_beta   90.00000000
_cell_angle_gamma   90.00000000
_symmetry_Int_Tables_number   1
_chemical_formula_structural   Tb2Y2ZrPd15
_chemical_formula_sum   'Tb2 Y2 Zr1 Pd15'
_cell_volume   349.12538208
_cell_formula_units_Z   1
loop_
 _symmetry_equiv_pos_site_id
 _symmetry_equiv_pos_as_xyz
  1  'x, y, z'
loop_
 _atom_site_type_symbol
 _atom_site_label
 _atom_site_symmetry_multiplicity
 _atom_site_fract_x
 _atom_site_fract_y
 _atom_site_fract_z
 _atom_site_occupancy
  Tb  Tb0  1  0.000000  0.000000  0.198428  1
  Tb  Tb1  1  0.000000  0.000000  0.399054  1
  Y  Y2  1  0.000000  0.000000  0.600658  1
  Y  Y3  1  0.000000  0.000000  0.801806  1
  Zr  Zr4  1  0.000000  0.000000  0.000129  1
  Pd  Pd5  1  0.500000  0.500000  0.000079  1
  Pd  Pd6  1  0.500000  0.500000  0.196984  1
  Pd  Pd7  1  0.500000  0.500000  0.399824  1
  Pd  Pd8  1  0.500000  0.500000  0.600215  1
  Pd  Pd9  1  0.500000  0.500000  0.802857  1
  Pd  Pd10  1  0.500000  0.000000  0.094755  1
  Pd  Pd11  1  0.500000  0.000000  0.298421  1
  Pd  Pd12  1  0.500000  0.000000  0.499856  1
  Pd  Pd13  1  0.500000  0.000000  0.701529  1
  Pd  Pd14  1  0.500000  0.000000  0.905422  1
  Pd  Pd15  1  0.000000  0.500000  0.094739  1
  Pd  Pd16  1  0.000000  0.500000  0.298416  1
  Pd  Pd17  1  0.000000  0.500000  0.499856  1
  Pd  Pd18  1  0.000000  0.500000  0.701536  1
  Pd  Pd19  1  0.000000  0.500000  0.905433  1
