# generated using pymatgen
data_LaTlI
_symmetry_space_group_name_H-M   'P 1'
_cell_length_a   4.79296400
_cell_length_b   4.79296213
_cell_length_c   12.32847100
_cell_angle_alpha   90.00000000
_cell_angle_beta   90.00000000
_cell_angle_gamma   119.99999911
_symmetry_Int_Tables_number   1
_chemical_formula_structural   LaTlI
_chemical_formula_sum   'La2 Tl2 I2'
_cell_volume   245.27202573
_cell_formula_units_Z   2
loop_
 _symmetry_equiv_pos_site_id
 _symmetry_equiv_pos_as_xyz
  1  'x, y, z'
loop_
 _atom_site_type_symbol
 _atom_site_label
 _atom_site_symmetry_multiplicity
 _atom_site_fract_x
 _atom_site_fract_y
 _atom_site_fract_z
 _atom_site_occupancy
  La  La0  1  0.000000  0.000000  0.320331  1
  La  La1  1  0.000000  0.000000  0.679668  1
  Tl  Tl2  1  0.333333  0.666667  0.452638  1
  Tl  Tl3  1  0.666667  0.333333  0.547361  1
  I  I4  1  0.666667  0.333333  0.167239  1
  I  I5  1  0.333333  0.666667  0.832761  1
