# generated using pymatgen
data_Mn5Al6MoRu12
_symmetry_space_group_name_H-M   'P 1'
_cell_length_a   4.25107900
_cell_length_b   6.00937800
_cell_length_c   12.72193700
_cell_angle_alpha   89.99988425
_cell_angle_beta   89.99997748
_cell_angle_gamma   89.99992143
_symmetry_Int_Tables_number   1
_chemical_formula_structural   Mn5Al6MoRu12
_chemical_formula_sum   'Mn5 Al6 Mo1 Ru12'
_cell_volume   324.99893593
_cell_formula_units_Z   1
loop_
 _symmetry_equiv_pos_site_id
 _symmetry_equiv_pos_as_xyz
  1  'x, y, z'
loop_
 _atom_site_type_symbol
 _atom_site_label
 _atom_site_symmetry_multiplicity
 _atom_site_fract_x
 _atom_site_fract_y
 _atom_site_fract_z
 _atom_site_occupancy
  Mn  Mn0  1  0.499845  0.500002  0.169288  1
  Mn  Mn1  1  0.999826  0.000006  0.334764  1
  Mn  Mn2  1  0.499990  0.500003  0.500010  1
  Mn  Mn3  1  0.000167  0.000001  0.665168  1
  Mn  Mn4  1  0.500155  0.499996  0.830745  1
  Al  Al5  1  0.999998  0.500005  0.000022  1
  Al  Al6  1  0.499884  0.999994  0.169051  1
  Al  Al7  1  0.999845  0.500007  0.335315  1
  Al  Al8  1  0.499998  0.999990  0.499997  1
  Al  Al9  1  0.000161  0.500009  0.664664  1
  Al  Al10  1  0.500124  0.999991  0.830935  1
  Mo  Mo11  1  0.999998  0.000003  0.000008  1
  Ru  Ru12  1  0.499998  0.254905  0.000028  1
  Ru  Ru13  1  0.499999  0.745094  0.000028  1
  Ru  Ru14  1  0.999876  0.252981  0.168166  1
  Ru  Ru15  1  0.999876  0.747018  0.168165  1
  Ru  Ru16  1  0.499857  0.250831  0.333454  1
  Ru  Ru17  1  0.499857  0.749169  0.333454  1
  Ru  Ru18  1  0.999995  0.248832  0.499974  1
  Ru  Ru19  1  0.999995  0.751169  0.499974  1
  Ru  Ru20  1  0.500140  0.250786  0.666534  1
  Ru  Ru21  1  0.500141  0.749211  0.666533  1
  Ru  Ru22  1  0.000130  0.252975  0.831861  1
  Ru  Ru23  1  0.000131  0.747023  0.831861  1
