# generated using pymatgen
data_Zr3U(InIr2)2
_symmetry_space_group_name_H-M   'P 1'
_cell_length_a   7.68860699
_cell_length_b   7.68860699
_cell_length_c   3.33496500
_cell_angle_alpha   90.00000000
_cell_angle_beta   90.00000000
_cell_angle_gamma   88.34177459
_symmetry_Int_Tables_number   1
_chemical_formula_structural   Zr3U(InIr2)2
_chemical_formula_sum   'Zr3 U1 In2 Ir4'
_cell_volume   197.06282070
_cell_formula_units_Z   1
loop_
 _symmetry_equiv_pos_site_id
 _symmetry_equiv_pos_as_xyz
  1  'x, y, z'
loop_
 _atom_site_type_symbol
 _atom_site_label
 _atom_site_symmetry_multiplicity
 _atom_site_fract_x
 _atom_site_fract_y
 _atom_site_fract_z
 _atom_site_occupancy
  Zr  Zr0  1  0.666780  0.169033  0.500000  1
  Zr  Zr1  1  0.330967  0.833220  0.500000  1
  Zr  Zr2  1  0.171222  0.328778  0.500000  1
  U  U3  1  0.832229  0.667771  0.500000  1
  In  In4  1  0.490782  0.496447  0.000000  1
  In  In5  1  0.003553  0.009218  0.000000  1
  Ir  Ir6  1  0.123223  0.634255  0.000000  1
  Ir  Ir7  1  0.865745  0.376777  0.000000  1
  Ir  Ir8  1  0.640274  0.859726  0.000000  1
  Ir  Ir9  1  0.375226  0.124774  0.000000  1
