# generated using pymatgen
data_GePt(SeO3)4
_symmetry_space_group_name_H-M   'P 1'
_cell_length_a   7.00539293
_cell_length_b   5.19190157
_cell_length_c   9.08846029
_cell_angle_alpha   55.95483374
_cell_angle_beta   89.89868009
_cell_angle_gamma   90.09835569
_symmetry_Int_Tables_number   1
_chemical_formula_structural   GePt(SeO3)4
_chemical_formula_sum   'Ge1 Pt1 Se4 O12'
_cell_volume   273.89831762
_cell_formula_units_Z   1
loop_
 _symmetry_equiv_pos_site_id
 _symmetry_equiv_pos_as_xyz
  1  'x, y, z'
loop_
 _atom_site_type_symbol
 _atom_site_label
 _atom_site_symmetry_multiplicity
 _atom_site_fract_x
 _atom_site_fract_y
 _atom_site_fract_z
 _atom_site_occupancy
  Ge  Ge0  1  0.500000  0.000000  0.500000  1
  Pt  Pt1  1  0.000000  0.000000  0.000000  1
  Se  Se2  1  0.822263  0.313796  0.199684  1
  Se  Se3  1  0.673996  0.315017  0.697518  1
  Se  Se4  1  0.177737  0.686204  0.800316  1
  Se  Se5  1  0.326004  0.684983  0.302482  1
  O  O6  1  0.828878  0.307208  0.007796  1
  O  O7  1  0.660073  0.287614  0.513423  1
  O  O8  1  0.171122  0.692792  0.992204  1
  O  O9  1  0.339927  0.712386  0.486577  1
  O  O10  1  0.586282  0.190453  0.259466  1
  O  O11  1  0.914280  0.203470  0.744521  1
  O  O12  1  0.413718  0.809547  0.740534  1
  O  O13  1  0.085720  0.796530  0.255479  1
  O  O14  1  0.770644  0.709654  0.089164  1
  O  O15  1  0.712743  0.714480  0.583033  1
  O  O16  1  0.229356  0.290346  0.910836  1
  O  O17  1  0.287257  0.285520  0.416967  1
