# generated using pymatgen
data_Ba14PrSb11
_symmetry_space_group_name_H-M   'P 1'
_cell_length_a   18.40572001
_cell_length_b   18.40571999
_cell_length_c   18.40572000
_cell_angle_alpha   117.88730924
_cell_angle_beta   117.88730920
_cell_angle_gamma   93.69997815
_symmetry_Int_Tables_number   1
_chemical_formula_structural   Ba14PrSb11
_chemical_formula_sum   'Ba56 Pr4 Sb44'
_cell_volume   4539.58965907
_cell_formula_units_Z   4
loop_
 _symmetry_equiv_pos_site_id
 _symmetry_equiv_pos_as_xyz
  1  'x, y, z'
loop_
 _atom_site_type_symbol
 _atom_site_label
 _atom_site_symmetry_multiplicity
 _atom_site_fract_x
 _atom_site_fract_y
 _atom_site_fract_z
 _atom_site_occupancy
  Ba  Ba0  1  0.626616  0.287204  0.978710  1
  Ba  Ba1  1  0.897904  0.058491  0.521288  1
  Ba  Ba2  1  0.129334  0.497919  0.721531  1
  Ba  Ba3  1  0.657806  0.526388  0.778474  1
  Ba  Ba4  1  0.397907  0.876618  0.839413  1
  Ba  Ba5  1  0.808495  0.787204  0.660588  1
  Ba  Ba6  1  0.037204  0.558491  0.160587  1
  Ba  Ba7  1  0.126615  0.147906  0.339409  1
  Ba  Ba8  1  0.893419  0.737784  0.895971  1
  Ba  Ba9  1  0.157804  0.379332  0.131417  1
  Ba  Ba10  1  0.247450  0.591812  0.604030  1
  Ba  Ba11  1  0.276389  0.997919  0.368586  1
  Ba  Ba12  1  0.762226  0.606577  0.104034  1
  Ba  Ba13  1  0.308497  0.647906  0.021292  1
  Ba  Ba14  1  0.908188  0.252552  0.395968  1
  Ba  Ba15  1  0.247913  0.026388  0.868582  1
  Ba  Ba16  1  0.980373  0.875000  0.605373  1
  Ba  Ba17  1  0.537204  0.376618  0.478710  1
  Ba  Ba18  1  0.629334  0.907804  0.631417  1
  Ba  Ba19  1  0.624998  0.019628  0.894626  1
  Ba  Ba20  1  0.487782  0.091812  0.344362  1
  Ba  Ba21  1  0.393416  0.497448  0.155636  1
  Ba  Ba22  1  0.625001  0.519628  0.394629  1
  Ba  Ba23  1  0.480375  0.875000  0.105375  1
  Ba  Ba24  1  0.747457  0.143423  0.655648  1
  Ba  Ba25  1  0.002085  0.370668  0.278472  1
  Ba  Ba26  1  0.776388  0.407804  0.278471  1
  Ba  Ba27  1  0.341813  0.237784  0.844365  1
  Ba  Ba28  1  0.408187  0.012216  0.655635  1
  Ba  Ba29  1  0.973612  0.842196  0.221529  1
  Ba  Ba30  1  0.747915  0.879332  0.221528  1
  Ba  Ba31  1  0.002543  0.106577  0.844352  1
  Ba  Ba32  1  0.269625  0.375000  0.394625  1
  Ba  Ba33  1  0.124999  0.730372  0.105371  1
  Ba  Ba34  1  0.356584  0.752552  0.344364  1
  Ba  Ba35  1  0.262218  0.158188  0.155638  1
  Ba  Ba36  1  0.125002  0.230372  0.605374  1
  Ba  Ba37  1  0.120666  0.342196  0.868583  1
  Ba  Ba38  1  0.212796  0.873382  0.021290  1
  Ba  Ba39  1  0.769627  0.375000  0.894627  1
  Ba  Ba40  1  0.502087  0.223612  0.631418  1
  Ba  Ba41  1  0.841812  0.997448  0.104032  1
  Ba  Ba42  1  0.441503  0.602094  0.478708  1
  Ba  Ba43  1  0.987774  0.643423  0.395966  1
  Ba  Ba44  1  0.473611  0.252081  0.131414  1
  Ba  Ba45  1  0.502550  0.658188  0.895970  1
  Ba  Ba46  1  0.592196  0.870668  0.368583  1
  Ba  Ba47  1  0.856581  0.512216  0.604029  1
  Ba  Ba48  1  0.623385  0.102094  0.160591  1
  Ba  Ba49  1  0.712796  0.691509  0.339413  1
  Ba  Ba50  1  0.941505  0.462796  0.839412  1
  Ba  Ba51  1  0.352093  0.373382  0.660587  1
  Ba  Ba52  1  0.092194  0.723612  0.721526  1
  Ba  Ba53  1  0.620666  0.752081  0.778469  1
  Ba  Ba54  1  0.852096  0.191509  0.978712  1
  Ba  Ba55  1  0.123384  0.962796  0.521290  1
  Pr  Pr56  1  0.250061  0.749934  0.500006  1
  Pr  Pr57  1  0.749929  0.249934  0.499874  1
  Pr  Pr58  1  0.499939  0.500066  0.999994  1
  Pr  Pr59  1  0.000071  0.000066  0.000126  1
  Sb  Sb60  1  0.853875  0.446740  0.143025  1
  Sb  Sb61  1  0.960851  0.053714  0.356975  1
  Sb  Sb62  1  0.196739  0.553714  0.092863  1
  Sb  Sb63  1  0.353876  0.210851  0.407138  1
  Sb  Sb64  1  0.187600  0.545299  0.365226  1
  Sb  Sb65  1  0.072374  0.930066  0.134774  1
  Sb  Sb66  1  0.295292  0.430066  0.857692  1
  Sb  Sb67  1  0.687599  0.322379  0.642314  1
  Sb  Sb68  1  0.572382  0.437592  0.142319  1
  Sb  Sb69  1  0.680074  0.045299  0.357699  1
  Sb  Sb70  1  0.369651  0.869655  0.239310  1
  Sb  Sb71  1  0.250000  0.249999  0.999998  1
  Sb  Sb72  1  0.119655  0.119655  0.739313  1
  Sb  Sb73  1  0.460852  0.103876  0.907137  1
  Sb  Sb74  1  0.803716  0.946740  0.592865  1
  Sb  Sb75  1  0.180065  0.822379  0.634779  1
  Sb  Sb76  1  0.795273  0.937592  0.865211  1
  Sb  Sb77  1  0.619653  0.880345  0.999996  1
  Sb  Sb78  1  0.869657  0.630345  0.500000  1
  Sb  Sb79  1  0.053260  0.646124  0.856975  1
  Sb  Sb80  1  0.446287  0.539149  0.643025  1
  Sb  Sb81  1  0.750001  0.749999  0.999999  1
  Sb  Sb82  1  0.999999  0.500001  0.500001  1
  Sb  Sb83  1  0.303713  0.710851  0.856975  1
  Sb  Sb84  1  0.696740  0.603876  0.643025  1
  Sb  Sb85  1  0.880343  0.619655  0.000000  1
  Sb  Sb86  1  0.130347  0.369655  0.500004  1
  Sb  Sb87  1  0.954727  0.312408  0.634789  1
  Sb  Sb88  1  0.569935  0.427621  0.865221  1
  Sb  Sb89  1  0.946284  0.303260  0.907135  1
  Sb  Sb90  1  0.289148  0.146124  0.592863  1
  Sb  Sb91  1  0.630345  0.130345  0.760687  1
  Sb  Sb92  1  0.500000  0.000001  0.500002  1
  Sb  Sb93  1  0.380349  0.380345  0.260690  1
  Sb  Sb94  1  0.069926  0.204701  0.142301  1
  Sb  Sb95  1  0.177618  0.812408  0.357681  1
  Sb  Sb96  1  0.062401  0.927621  0.857686  1
  Sb  Sb97  1  0.454708  0.819934  0.642308  1
  Sb  Sb98  1  0.677626  0.319934  0.365226  1
  Sb  Sb99  1  0.562400  0.704701  0.134774  1
  Sb  Sb100  1  0.396124  0.039149  0.092862  1
  Sb  Sb101  1  0.553261  0.696286  0.407137  1
  Sb  Sb102  1  0.789149  0.196286  0.143025  1
  Sb  Sb103  1  0.896125  0.803260  0.356975  1
