# generated using pymatgen
data_Sr3Zr(Cu4P3)2
_symmetry_space_group_name_H-M   'P 1'
_cell_length_a   3.96216800
_cell_length_b   11.42679600
_cell_length_c   13.18702500
_cell_angle_alpha   90.00000000
_cell_angle_beta   90.00000000
_cell_angle_gamma   90.00000000
_symmetry_Int_Tables_number   1
_chemical_formula_structural   Sr3Zr(Cu4P3)2
_chemical_formula_sum   'Sr6 Zr2 Cu16 P12'
_cell_volume   597.04104635
_cell_formula_units_Z   2
loop_
 _symmetry_equiv_pos_site_id
 _symmetry_equiv_pos_as_xyz
  1  'x, y, z'
loop_
 _atom_site_type_symbol
 _atom_site_label
 _atom_site_symmetry_multiplicity
 _atom_site_fract_x
 _atom_site_fract_y
 _atom_site_fract_z
 _atom_site_occupancy
  Sr  Sr0  1  0.000000  0.500000  0.518713  1
  Sr  Sr1  1  0.500000  0.000000  0.481287  1
  Sr  Sr2  1  0.500000  0.819561  0.207199  1
  Sr  Sr3  1  0.500000  0.180439  0.207199  1
  Sr  Sr4  1  0.000000  0.680439  0.792801  1
  Sr  Sr5  1  0.000000  0.319561  0.792801  1
  Zr  Zr6  1  0.500000  0.500000  0.146486  1
  Zr  Zr7  1  0.000000  0.000000  0.853514  1
  Cu  Cu8  1  0.500000  0.500000  0.699299  1
  Cu  Cu9  1  0.000000  0.000000  0.300701  1
  Cu  Cu10  1  0.000000  0.500000  0.981442  1
  Cu  Cu11  1  0.500000  0.000000  0.018558  1
  Cu  Cu12  1  0.500000  0.330217  0.985976  1
  Cu  Cu13  1  0.500000  0.669783  0.985976  1
  Cu  Cu14  1  0.000000  0.169783  0.014024  1
  Cu  Cu15  1  0.000000  0.830217  0.014024  1
  Cu  Cu16  1  0.500000  0.288416  0.434282  1
  Cu  Cu17  1  0.500000  0.711584  0.434282  1
  Cu  Cu18  1  0.000000  0.211584  0.565718  1
  Cu  Cu19  1  0.000000  0.788416  0.565718  1
  Cu  Cu20  1  0.500000  0.877246  0.706533  1
  Cu  Cu21  1  0.500000  0.122754  0.706533  1
  Cu  Cu22  1  0.000000  0.622754  0.293467  1
  Cu  Cu23  1  0.000000  0.377246  0.293467  1
  P  P24  1  0.500000  0.500000  0.881970  1
  P  P25  1  0.000000  0.000000  0.118030  1
  P  P26  1  0.500000  0.500000  0.341141  1
  P  P27  1  0.000000  0.000000  0.658859  1
  P  P28  1  0.500000  0.313564  0.615997  1
  P  P29  1  0.500000  0.686436  0.615997  1
  P  P30  1  0.000000  0.186436  0.384003  1
  P  P31  1  0.000000  0.813564  0.384003  1
  P  P32  1  0.500000  0.843916  0.892354  1
  P  P33  1  0.500000  0.156084  0.892354  1
  P  P34  1  0.000000  0.656084  0.107646  1
  P  P35  1  0.000000  0.343916  0.107646  1
