# generated using pymatgen
data_Dy5Nb2Co17As12
_symmetry_space_group_name_H-M   'P 1'
_cell_length_a   12.57091247
_cell_length_b   12.54658845
_cell_length_c   3.81283400
_cell_angle_alpha   90.00000000
_cell_angle_beta   90.00000000
_cell_angle_gamma   119.93600892
_symmetry_Int_Tables_number   1
_chemical_formula_structural   Dy5Nb2Co17As12
_chemical_formula_sum   'Dy5 Nb2 Co17 As12'
_cell_volume   521.13550650
_cell_formula_units_Z   1
loop_
 _symmetry_equiv_pos_site_id
 _symmetry_equiv_pos_as_xyz
  1  'x, y, z'
loop_
 _atom_site_type_symbol
 _atom_site_label
 _atom_site_symmetry_multiplicity
 _atom_site_fract_x
 _atom_site_fract_y
 _atom_site_fract_z
 _atom_site_occupancy
  Dy  Dy0  1  0.666697  0.332171  0.000000  1
  Dy  Dy1  1  0.333303  0.665475  0.000000  1
  Dy  Dy2  1  0.183545  0.181974  0.500000  1
  Dy  Dy3  1  0.816455  0.998429  0.500000  1
  Dy  Dy4  1  0.000000  0.811245  0.500000  1
  Nb  Nb5  1  0.559637  0.559415  0.000000  1
  Nb  Nb6  1  0.440363  0.999780  0.000000  1
  Co  Co7  1  0.000000  0.445198  0.000000  1
  Co  Co8  1  0.825615  0.203361  0.000000  1
  Co  Co9  1  0.803607  0.623994  0.000000  1
  Co  Co10  1  0.373165  0.176697  0.000000  1
  Co  Co11  1  0.196393  0.820388  0.000000  1
  Co  Co12  1  0.626835  0.803533  0.000000  1
  Co  Co13  1  0.174385  0.377746  0.000000  1
  Co  Co14  1  0.646933  0.126019  0.500000  1
  Co  Co15  1  0.876213  0.518729  0.500000  1
  Co  Co16  1  0.479751  0.355616  0.500000  1
  Co  Co17  1  0.123787  0.642515  0.500000  1
  Co  Co18  1  0.520249  0.875866  0.500000  1
  Co  Co19  1  0.353067  0.479086  0.500000  1
  Co  Co20  1  0.718328  0.718438  0.500000  1
  Co  Co21  1  0.281672  0.000111  0.500000  1
  Co  Co22  1  0.000000  0.284980  0.500000  1
  Co  Co23  1  0.000000  0.002258  0.000000  1
  As  As24  1  0.354093  0.357719  0.000000  1
  As  As25  1  0.645907  0.003625  0.000000  1
  As  As26  1  0.000000  0.633267  0.000000  1
  As  As27  1  0.836144  0.317805  0.500000  1
  As  As28  1  0.687885  0.516924  0.500000  1
  As  As29  1  0.482541  0.169739  0.500000  1
  As  As30  1  0.312115  0.829039  0.500000  1
  As  As31  1  0.517459  0.687198  0.500000  1
  As  As32  1  0.163856  0.481661  0.500000  1
  As  As33  1  0.823797  0.821627  0.000000  1
  As  As34  1  0.176203  0.997830  0.000000  1
  As  As35  1  0.000000  0.180538  0.000000  1
