# generated using pymatgen
data_Mg2Ga3Re
_symmetry_space_group_name_H-M   'P 1'
_cell_length_a   5.19338458
_cell_length_b   5.19338357
_cell_length_c   8.63131000
_cell_angle_alpha   90.00000000
_cell_angle_beta   90.00000000
_cell_angle_gamma   117.25738993
_symmetry_Int_Tables_number   1
_chemical_formula_structural   Mg2Ga3Re
_chemical_formula_sum   'Mg4 Ga6 Re2'
_cell_volume   206.94687816
_cell_formula_units_Z   2
loop_
 _symmetry_equiv_pos_site_id
 _symmetry_equiv_pos_as_xyz
  1  'x, y, z'
loop_
 _atom_site_type_symbol
 _atom_site_label
 _atom_site_symmetry_multiplicity
 _atom_site_fract_x
 _atom_site_fract_y
 _atom_site_fract_z
 _atom_site_occupancy
  Mg  Mg0  1  0.674835  0.325165  0.066311  1
  Mg  Mg1  1  0.325165  0.674835  0.933689  1
  Mg  Mg2  1  0.325165  0.674835  0.566311  1
  Mg  Mg3  1  0.674835  0.325165  0.433689  1
  Ga  Ga4  1  0.829493  0.643331  0.750000  1
  Ga  Ga5  1  0.170507  0.356669  0.250000  1
  Ga  Ga6  1  0.356669  0.170507  0.750000  1
  Ga  Ga7  1  0.643331  0.829493  0.250000  1
  Ga  Ga8  1  0.000000  0.000000  0.500000  1
  Ga  Ga9  1  0.000000  0.000000  0.000000  1
  Re  Re10  1  0.842850  0.157150  0.750000  1
  Re  Re11  1  0.157150  0.842850  0.250000  1
