# generated using pymatgen
data_Dy5Th(SnRh)6
_symmetry_space_group_name_H-M   'P 1'
_cell_length_a   7.51811905
_cell_length_b   7.57814445
_cell_length_c   7.87941300
_cell_angle_alpha   90.00000000
_cell_angle_beta   90.00000000
_cell_angle_gamma   120.26388599
_symmetry_Int_Tables_number   1
_chemical_formula_structural   Dy5Th(SnRh)6
_chemical_formula_sum   'Dy5 Th1 Sn6 Rh6'
_cell_volume   387.73552501
_cell_formula_units_Z   1
loop_
 _symmetry_equiv_pos_site_id
 _symmetry_equiv_pos_as_xyz
  1  'x, y, z'
loop_
 _atom_site_type_symbol
 _atom_site_label
 _atom_site_symmetry_multiplicity
 _atom_site_fract_x
 _atom_site_fract_y
 _atom_site_fract_z
 _atom_site_occupancy
  Dy  Dy0  1  0.594273  0.004255  0.750000  1
  Dy  Dy1  1  0.405750  0.410048  0.750000  1
  Dy  Dy2  1  0.000098  0.593709  0.750000  1
  Dy  Dy3  1  0.594196  0.997933  0.250000  1
  Dy  Dy4  1  0.405894  0.403596  0.250000  1
  Th  Th5  1  0.999948  0.586617  0.250000  1
  Sn  Sn6  1  0.264628  0.006310  0.997579  1
  Sn  Sn7  1  0.735368  0.741702  0.502352  1
  Sn  Sn8  1  0.000034  0.251747  0.504308  1
  Sn  Sn9  1  0.000034  0.251747  0.995692  1
  Sn  Sn10  1  0.735368  0.741702  0.997648  1
  Sn  Sn11  1  0.264628  0.006310  0.502421  1
  Rh  Rh12  1  0.674891  0.340770  0.003064  1
  Rh  Rh13  1  0.674891  0.340770  0.496936  1
  Rh  Rh14  1  0.325020  0.665887  0.003401  1
  Rh  Rh15  1  0.325020  0.665887  0.496599  1
  Rh  Rh16  1  0.999902  0.996660  0.750000  1
  Rh  Rh17  1  0.000059  0.994351  0.250000  1
