# generated using pymatgen
data_Li8Y8Sn5Pb3
_symmetry_space_group_name_H-M   'P 1'
_cell_length_a   9.42727129
_cell_length_b   9.42727231
_cell_length_c   7.38232588
_cell_angle_alpha   89.98541631
_cell_angle_beta   90.01458483
_cell_angle_gamma   120.01743270
_symmetry_Int_Tables_number   1
_chemical_formula_structural   Li8Y8Sn5Pb3
_chemical_formula_sum   'Li8 Y8 Sn5 Pb3'
_cell_volume   568.09316703
_cell_formula_units_Z   1
loop_
 _symmetry_equiv_pos_site_id
 _symmetry_equiv_pos_as_xyz
  1  'x, y, z'
loop_
 _atom_site_type_symbol
 _atom_site_label
 _atom_site_symmetry_multiplicity
 _atom_site_fract_x
 _atom_site_fract_y
 _atom_site_fract_z
 _atom_site_occupancy
  Li  Li0  1  0.167562  0.832438  0.196370  1
  Li  Li1  1  0.334617  0.168030  0.697479  1
  Li  Li2  1  0.831970  0.665383  0.697479  1
  Li  Li3  1  0.166624  0.334613  0.196944  1
  Li  Li4  1  0.665387  0.833376  0.196944  1
  Li  Li5  1  0.832990  0.167010  0.698639  1
  Li  Li6  1  0.333699  0.666301  0.810035  1
  Li  Li7  1  0.667039  0.332961  0.311277  1
  Y  Y8  1  0.511044  0.488956  0.988356  1
  Y  Y9  1  0.024162  0.508956  0.489552  1
  Y  Y10  1  0.491044  0.975838  0.489552  1
  Y  Y11  1  0.515123  0.024295  0.989978  1
  Y  Y12  1  0.975705  0.484877  0.989978  1
  Y  Y13  1  0.486802  0.513198  0.490984  1
  Y  Y14  1  0.998128  0.001872  0.982707  1
  Y  Y15  1  0.998026  0.001974  0.484042  1
  Sn  Sn16  1  0.166954  0.333414  0.755734  1
  Sn  Sn17  1  0.666586  0.833046  0.755734  1
  Sn  Sn18  1  0.833250  0.166750  0.255489  1
  Sn  Sn19  1  0.333121  0.666879  0.223351  1
  Sn  Sn20  1  0.666532  0.333468  0.723658  1
  Pb  Pb21  1  0.166699  0.833301  0.755325  1
  Pb  Pb22  1  0.333460  0.166525  0.255197  1
  Pb  Pb23  1  0.833475  0.666540  0.255197  1
