# generated using pymatgen
data_PrNd3(Ga5Ir3)2
_symmetry_space_group_name_H-M   'P 1'
_cell_length_a   8.66788355
_cell_length_b   8.66699585
_cell_length_c   8.66699574
_cell_angle_alpha   140.76519948
_cell_angle_beta   108.30588671
_cell_angle_gamma   84.91269922
_symmetry_Int_Tables_number   1
_chemical_formula_structural   PrNd3(Ga5Ir3)2
_chemical_formula_sum   'Pr1 Nd3 Ga10 Ir6'
_cell_volume   377.80063109
_cell_formula_units_Z   1
loop_
 _symmetry_equiv_pos_site_id
 _symmetry_equiv_pos_as_xyz
  1  'x, y, z'
loop_
 _atom_site_type_symbol
 _atom_site_label
 _atom_site_symmetry_multiplicity
 _atom_site_fract_x
 _atom_site_fract_y
 _atom_site_fract_z
 _atom_site_occupancy
  Pr  Pr0  1  0.866066  0.635735  0.230330  1
  Nd  Nd1  1  0.134044  0.364353  0.769692  1
  Nd  Nd2  1  0.405376  0.135710  0.269668  1
  Nd  Nd3  1  0.594572  0.864265  0.730305  1
  Ga  Ga4  1  0.499806  0.750014  0.249950  1
  Ga  Ga5  1  0.499806  0.249856  0.749792  1
  Ga  Ga6  1  0.207959  0.957954  0.750302  1
  Ga  Ga7  1  0.792222  0.542268  0.749883  1
  Ga  Ga8  1  0.792222  0.042340  0.249954  1
  Ga  Ga9  1  0.207959  0.457657  0.250005  1
  Ga  Ga10  1  0.077934  0.907697  0.170238  1
  Ga  Ga11  1  0.922237  0.092282  0.829953  1
  Ga  Ga12  1  0.737373  0.407500  0.329874  1
  Ga  Ga13  1  0.262471  0.592302  0.670169  1
  Ir  Ir14  1  0.000041  0.750063  0.750167  1
  Ir  Ir15  1  0.000041  0.249874  0.249978  1
  Ir  Ir16  1  0.257070  0.852613  0.404458  1
  Ir  Ir17  1  0.742985  0.147495  0.595489  1
  Ir  Ir18  1  0.448159  0.352506  0.095654  1
  Ir  Ir19  1  0.551657  0.647516  0.904139  1
