# generated using pymatgen
data_NdMnTeO6
_symmetry_space_group_name_H-M   'P 1'
_cell_length_a   5.20482523
_cell_length_b   5.20201788
_cell_length_c   5.11805679
_cell_angle_alpha   90.95128949
_cell_angle_beta   90.88255373
_cell_angle_gamma   117.69729468
_symmetry_Int_Tables_number   1
_chemical_formula_structural   NdMnTeO6
_chemical_formula_sum   'Nd1 Mn1 Te1 O6'
_cell_volume   122.63720369
_cell_formula_units_Z   1
loop_
 _symmetry_equiv_pos_site_id
 _symmetry_equiv_pos_as_xyz
  1  'x, y, z'
loop_
 _atom_site_type_symbol
 _atom_site_label
 _atom_site_symmetry_multiplicity
 _atom_site_fract_x
 _atom_site_fract_y
 _atom_site_fract_z
 _atom_site_occupancy
  Nd  Nd0  1  0.523339  0.478737  0.500164  1
  Mn  Mn1  1  0.852559  0.148931  0.000194  1
  Te  Te2  1  0.188975  0.811322  0.999879  1
  O  O3  1  0.150794  0.110795  0.213660  1
  O  O4  1  0.492626  0.831149  0.229505  1
  O  O5  1  0.890889  0.494265  0.200230  1
  O  O6  1  0.505061  0.109071  0.799102  1
  O  O7  1  0.166695  0.507162  0.768509  1
  O  O8  1  0.888392  0.849255  0.788792  1
