# generated using pymatgen
data_Tb6Ho9ErTlCd3Pt4
_symmetry_space_group_name_H-M   'P 1'
_cell_length_a   9.67643782
_cell_length_b   9.67643790
_cell_length_c   9.66251700
_cell_angle_alpha   60.04758182
_cell_angle_beta   60.04758153
_cell_angle_gamma   60.05255256
_symmetry_Int_Tables_number   1
_chemical_formula_structural   Tb6Ho9ErTlCd3Pt4
_chemical_formula_sum   'Tb6 Ho9 Er1 Tl1 Cd3 Pt4'
_cell_volume   640.45807304
_cell_formula_units_Z   1
loop_
 _symmetry_equiv_pos_site_id
 _symmetry_equiv_pos_as_xyz
  1  'x, y, z'
loop_
 _atom_site_type_symbol
 _atom_site_label
 _atom_site_symmetry_multiplicity
 _atom_site_fract_x
 _atom_site_fract_y
 _atom_site_fract_z
 _atom_site_occupancy
  Tb  Tb0  1  0.937876  0.563523  0.563558  1
  Tb  Tb1  1  0.564131  0.936648  0.936028  1
  Tb  Tb2  1  0.563523  0.937876  0.563558  1
  Tb  Tb3  1  0.936648  0.564131  0.936028  1
  Tb  Tb4  1  0.564670  0.564670  0.936505  1
  Tb  Tb5  1  0.937437  0.937437  0.562964  1
  Ho  Ho6  1  0.351867  0.351867  0.350518  1
  Ho  Ho7  1  0.351660  0.351660  0.946318  1
  Ho  Ho8  1  0.354499  0.941237  0.352031  1
  Ho  Ho9  1  0.941237  0.354499  0.352031  1
  Ho  Ho10  1  0.811530  0.188508  0.189140  1
  Ho  Ho11  1  0.188554  0.811158  0.810354  1
  Ho  Ho12  1  0.188508  0.811530  0.189140  1
  Ho  Ho13  1  0.811158  0.188554  0.810354  1
  Ho  Ho14  1  0.189413  0.189413  0.810419  1
  Er  Er15  1  0.811239  0.811239  0.188433  1
  Tl  Tl16  1  0.581964  0.581964  0.582909  1
  Cd  Cd17  1  0.580746  0.580746  0.255085  1
  Cd  Cd18  1  0.580658  0.253970  0.581817  1
  Cd  Cd19  1  0.253970  0.580658  0.581817  1
  Pt  Pt20  1  0.143098  0.143098  0.144997  1
  Pt  Pt21  1  0.143033  0.143033  0.568731  1
  Pt  Pt22  1  0.141089  0.571495  0.143632  1
  Pt  Pt23  1  0.571495  0.141089  0.143632  1
