# generated using pymatgen
data_Tb3Ho3(CoSn6)2
_symmetry_space_group_name_H-M   'P 1'
_cell_length_a   8.47358856
_cell_length_b   8.47350126
_cell_length_c   13.14112849
_cell_angle_alpha   90.02843181
_cell_angle_beta   89.97130760
_cell_angle_gamma   148.81462535
_symmetry_Int_Tables_number   1
_chemical_formula_structural   Tb3Ho3(CoSn6)2
_chemical_formula_sum   'Tb3 Ho3 Co2 Sn12'
_cell_volume   488.57605353
_cell_formula_units_Z   1
loop_
 _symmetry_equiv_pos_site_id
 _symmetry_equiv_pos_as_xyz
  1  'x, y, z'
loop_
 _atom_site_type_symbol
 _atom_site_label
 _atom_site_symmetry_multiplicity
 _atom_site_fract_x
 _atom_site_fract_y
 _atom_site_fract_z
 _atom_site_occupancy
  Tb  Tb0  1  0.100683  0.899580  0.593136  1
  Tb  Tb1  1  0.100476  0.899680  0.907140  1
  Tb  Tb2  1  0.899644  0.100592  0.406554  1
  Ho  Ho3  1  0.899048  0.101157  0.093412  1
  Ho  Ho4  1  0.899709  0.100406  0.750334  1
  Ho  Ho5  1  0.100280  0.899589  0.249612  1
  Co  Co6  1  0.299524  0.699580  0.249538  1
  Co  Co7  1  0.700201  0.299722  0.750302  1
  Sn  Sn8  1  0.755575  0.244374  0.571688  1
  Sn  Sn9  1  0.427890  0.572366  0.576713  1
  Sn  Sn10  1  0.572240  0.428008  0.423114  1
  Sn  Sn11  1  0.733709  0.265281  0.249867  1
  Sn  Sn12  1  0.266003  0.733970  0.750070  1
  Sn  Sn13  1  0.244871  0.755210  0.071487  1
  Sn  Sn14  1  0.244672  0.755481  0.427947  1
  Sn  Sn15  1  0.572194  0.427579  0.076601  1
  Sn  Sn16  1  0.454161  0.546130  0.249189  1
  Sn  Sn17  1  0.545843  0.454385  0.750378  1
  Sn  Sn18  1  0.756001  0.244105  0.928691  1
  Sn  Sn19  1  0.427277  0.572802  0.924226  1
