# generated using pymatgen
data_Eu2Cu2I
_symmetry_space_group_name_H-M   'P 1'
_cell_length_a   4.29990100
_cell_length_b   4.29989995
_cell_length_c   17.46505800
_cell_angle_alpha   90.00000000
_cell_angle_beta   90.00000000
_cell_angle_gamma   120.00001576
_symmetry_Int_Tables_number   1
_chemical_formula_structural   Eu2Cu2I
_chemical_formula_sum   'Eu4 Cu4 I2'
_cell_volume   279.65166037
_cell_formula_units_Z   2
loop_
 _symmetry_equiv_pos_site_id
 _symmetry_equiv_pos_as_xyz
  1  'x, y, z'
loop_
 _atom_site_type_symbol
 _atom_site_label
 _atom_site_symmetry_multiplicity
 _atom_site_fract_x
 _atom_site_fract_y
 _atom_site_fract_z
 _atom_site_occupancy
  Eu  Eu0  1  0.000000  0.000000  0.108460  1
  Eu  Eu1  1  0.000000  0.000000  0.891540  1
  Eu  Eu2  1  0.000000  0.000000  0.608460  1
  Eu  Eu3  1  0.000000  0.000000  0.391540  1
  Cu  Cu4  1  0.333333  0.666667  0.500711  1
  Cu  Cu5  1  0.666667  0.333333  0.499289  1
  Cu  Cu6  1  0.666667  0.333333  0.000711  1
  Cu  Cu7  1  0.333333  0.666667  0.999289  1
  I  I8  1  0.333333  0.666667  0.250000  1
  I  I9  1  0.666667  0.333333  0.750000  1
