# generated using pymatgen
data_DyY(WF7)2
_symmetry_space_group_name_H-M   'P 1'
_cell_length_a   5.67250546
_cell_length_b   9.12753820
_cell_length_c   12.23827100
_cell_angle_alpha   62.51272418
_cell_angle_beta   90.04103879
_cell_angle_gamma   90.01392600
_symmetry_Int_Tables_number   1
_chemical_formula_structural   DyY(WF7)2
_chemical_formula_sum   'Dy2 Y2 W4 F28'
_cell_volume   562.11820569
_cell_formula_units_Z   2
loop_
 _symmetry_equiv_pos_site_id
 _symmetry_equiv_pos_as_xyz
  1  'x, y, z'
loop_
 _atom_site_type_symbol
 _atom_site_label
 _atom_site_symmetry_multiplicity
 _atom_site_fract_x
 _atom_site_fract_y
 _atom_site_fract_z
 _atom_site_occupancy
  Dy  Dy0  1  0.261751  0.813627  0.265928  1
  Dy  Dy1  1  0.738249  0.186373  0.734072  1
  Y  Y2  1  0.761523  0.186233  0.234222  1
  Y  Y3  1  0.238477  0.813767  0.765778  1
  W  W4  1  0.755897  0.726431  0.044213  1
  W  W5  1  0.244103  0.273569  0.955787  1
  W  W6  1  0.255589  0.274295  0.456032  1
  W  W7  1  0.744411  0.725705  0.543968  1
  F  F8  1  0.959753  0.707775  0.421260  1
  F  F9  1  0.040247  0.292225  0.578740  1
  F  F10  1  0.458740  0.292411  0.078358  1
  F  F11  1  0.541260  0.707589  0.921642  1
  F  F12  1  0.477262  0.732877  0.149286  1
  F  F13  1  0.522738  0.267123  0.850714  1
  F  F14  1  0.976102  0.268050  0.351407  1
  F  F15  1  0.023898  0.731950  0.648593  1
  F  F16  1  0.968095  0.748013  0.167563  1
  F  F17  1  0.031905  0.251987  0.832437  1
  F  F18  1  0.467767  0.253025  0.332572  1
  F  F19  1  0.532233  0.746975  0.667428  1
  F  F20  1  0.760013  0.481213  0.143218  1
  F  F21  1  0.239987  0.518787  0.856782  1
  F  F22  1  0.259775  0.519705  0.357013  1
  F  F23  1  0.740225  0.480295  0.642987  1
  F  F24  1  0.951411  0.282508  0.052733  1
  F  F25  1  0.048589  0.717492  0.947267  1
  F  F26  1  0.451394  0.717683  0.446848  1
  F  F27  1  0.548606  0.282317  0.553152  1
  F  F28  1  0.743304  0.970924  0.446469  1
  F  F29  1  0.256696  0.029076  0.553531  1
  F  F30  1  0.243303  0.028400  0.054239  1
  F  F31  1  0.756697  0.971600  0.945761  1
  F  F32  1  0.568900  0.977433  0.234086  1
  F  F33  1  0.431100  0.022567  0.765914  1
  F  F34  1  0.069995  0.021959  0.266112  1
  F  F35  1  0.930005  0.978041  0.733888  1
