# generated using pymatgen
data_Np6ScVSb10
_symmetry_space_group_name_H-M   'P 1'
_cell_length_a   9.20451800
_cell_length_b   9.20451850
_cell_length_c   6.14813600
_cell_angle_alpha   90.00000000
_cell_angle_beta   90.00000000
_cell_angle_gamma   119.99999819
_symmetry_Int_Tables_number   1
_chemical_formula_structural   Np6ScVSb10
_chemical_formula_sum   'Np6 Sc1 V1 Sb10'
_cell_volume   451.10353655
_cell_formula_units_Z   1
loop_
 _symmetry_equiv_pos_site_id
 _symmetry_equiv_pos_as_xyz
  1  'x, y, z'
loop_
 _atom_site_type_symbol
 _atom_site_label
 _atom_site_symmetry_multiplicity
 _atom_site_fract_x
 _atom_site_fract_y
 _atom_site_fract_z
 _atom_site_occupancy
  Np  Np0  1  0.387974  0.000000  0.744634  1
  Np  Np1  1  0.387974  0.387974  0.255366  1
  Np  Np2  1  0.000000  0.612026  0.255366  1
  Np  Np3  1  0.000000  0.387974  0.744634  1
  Np  Np4  1  0.612026  0.612026  0.744634  1
  Np  Np5  1  0.612026  0.000000  0.255366  1
  Sc  Sc6  1  0.000000  0.000000  0.500000  1
  V  V7  1  0.000000  0.000000  0.000000  1
  Sb  Sb8  1  0.666667  0.333333  0.500000  1
  Sb  Sb9  1  0.333333  0.666667  0.000000  1
  Sb  Sb10  1  0.738127  0.000000  0.760733  1
  Sb  Sb11  1  0.738127  0.738127  0.239267  1
  Sb  Sb12  1  0.333333  0.666667  0.500000  1
  Sb  Sb13  1  0.666667  0.333333  0.000000  1
  Sb  Sb14  1  0.261873  0.000000  0.239267  1
  Sb  Sb15  1  0.261873  0.261873  0.760733  1
  Sb  Sb16  1  0.000000  0.738127  0.760733  1
  Sb  Sb17  1  0.000000  0.261873  0.239267  1
