# generated using pymatgen
data_Sc2Co5Si14Os
_symmetry_space_group_name_H-M   'P 1'
_cell_length_a   7.70783337
_cell_length_b   7.64522880
_cell_length_c   7.64522794
_cell_angle_alpha   57.41229213
_cell_angle_beta   57.10866542
_cell_angle_gamma   57.10866298
_symmetry_Int_Tables_number   1
_chemical_formula_structural   Sc2Co5Si14Os
_chemical_formula_sum   'Sc2 Co5 Si14 Os1'
_cell_volume   298.08596438
_cell_formula_units_Z   1
loop_
 _symmetry_equiv_pos_site_id
 _symmetry_equiv_pos_as_xyz
  1  'x, y, z'
loop_
 _atom_site_type_symbol
 _atom_site_label
 _atom_site_symmetry_multiplicity
 _atom_site_fract_x
 _atom_site_fract_y
 _atom_site_fract_z
 _atom_site_occupancy
  Sc  Sc0  1  0.998787  0.000239  0.002623  1
  Sc  Sc1  1  0.501213  0.497377  0.499761  1
  Co  Co2  1  0.071861  0.426738  0.751640  1
  Co  Co3  1  0.250000  0.925196  0.574804  1
  Co  Co4  1  0.570820  0.251415  0.926145  1
  Co  Co5  1  0.929180  0.573855  0.248585  1
  Co  Co6  1  0.428139  0.748360  0.073262  1
  Si  Si7  1  0.750000  0.741427  0.758573  1
  Si  Si8  1  0.250000  0.250290  0.249710  1
  Si  Si9  1  0.856035  0.073217  0.672012  1
  Si  Si10  1  0.667661  0.849043  0.072224  1
  Si  Si11  1  0.075177  0.666059  0.850516  1
  Si  Si12  1  0.643965  0.827988  0.426783  1
  Si  Si13  1  0.424823  0.649484  0.833941  1
  Si  Si14  1  0.832339  0.427776  0.650957  1
  Si  Si15  1  0.163209  0.575830  0.351266  1
  Si  Si16  1  0.565260  0.358767  0.159319  1
  Si  Si17  1  0.340960  0.167846  0.575953  1
  Si  Si18  1  0.934740  0.340681  0.141233  1
  Si  Si19  1  0.336791  0.148734  0.924170  1
  Si  Si20  1  0.159040  0.924047  0.332154  1
  Os  Os21  1  0.750000  0.075635  0.424365  1
