# generated using pymatgen
data_LiHo9Mg3Ru
_symmetry_space_group_name_H-M   'P 1'
_cell_length_a   9.51956900
_cell_length_b   9.51957851
_cell_length_c   9.76301500
_cell_angle_alpha   90.00000000
_cell_angle_beta   90.00000000
_cell_angle_gamma   120.00029278
_symmetry_Int_Tables_number   1
_chemical_formula_structural   LiHo9Mg3Ru
_chemical_formula_sum   'Li2 Ho18 Mg6 Ru2'
_cell_volume   766.21087718
_cell_formula_units_Z   2
loop_
 _symmetry_equiv_pos_site_id
 _symmetry_equiv_pos_as_xyz
  1  'x, y, z'
loop_
 _atom_site_type_symbol
 _atom_site_label
 _atom_site_symmetry_multiplicity
 _atom_site_fract_x
 _atom_site_fract_y
 _atom_site_fract_z
 _atom_site_occupancy
  Li  Li0  1  0.000000  0.000000  0.500000  1
  Li  Li1  1  0.000000  0.000000  0.000000  1
  Ho  Ho2  1  0.210068  0.789931  0.442002  1
  Ho  Ho3  1  0.210068  0.420137  0.442002  1
  Ho  Ho4  1  0.579863  0.789932  0.442002  1
  Ho  Ho5  1  0.789932  0.210069  0.557998  1
  Ho  Ho6  1  0.789932  0.579863  0.557998  1
  Ho  Ho7  1  0.420137  0.210068  0.557998  1
  Ho  Ho8  1  0.789932  0.210069  0.942002  1
  Ho  Ho9  1  0.789932  0.579863  0.942002  1
  Ho  Ho10  1  0.420137  0.210068  0.942002  1
  Ho  Ho11  1  0.210068  0.789931  0.057998  1
  Ho  Ho12  1  0.210068  0.420137  0.057998  1
  Ho  Ho13  1  0.579863  0.789932  0.057998  1
  Ho  Ho14  1  0.542446  0.457556  0.250000  1
  Ho  Ho15  1  0.542445  0.084891  0.250000  1
  Ho  Ho16  1  0.915109  0.457555  0.250000  1
  Ho  Ho17  1  0.457554  0.542444  0.750000  1
  Ho  Ho18  1  0.457555  0.915109  0.750000  1
  Ho  Ho19  1  0.084891  0.542445  0.750000  1
  Mg  Mg20  1  0.892843  0.107156  0.250000  1
  Mg  Mg21  1  0.892843  0.785689  0.250000  1
  Mg  Mg22  1  0.214305  0.107154  0.250000  1
  Mg  Mg23  1  0.107157  0.892844  0.750000  1
  Mg  Mg24  1  0.107157  0.214311  0.750000  1
  Mg  Mg25  1  0.785695  0.892846  0.750000  1
  Ru  Ru26  1  0.333332  0.666665  0.250000  1
  Ru  Ru27  1  0.666668  0.333335  0.750000  1
