# generated using pymatgen
data_LaYbSi3Ni
_symmetry_space_group_name_H-M   'P 1'
_cell_length_a   4.32492800
_cell_length_b   8.04631014
_cell_length_c   8.04630917
_cell_angle_alpha   119.46289060
_cell_angle_beta   90.00000000
_cell_angle_gamma   90.00000000
_symmetry_Int_Tables_number   1
_chemical_formula_structural   LaYbSi3Ni
_chemical_formula_sum   'La2 Yb2 Si6 Ni2'
_cell_volume   243.79689197
_cell_formula_units_Z   2
loop_
 _symmetry_equiv_pos_site_id
 _symmetry_equiv_pos_as_xyz
  1  'x, y, z'
loop_
 _atom_site_type_symbol
 _atom_site_label
 _atom_site_symmetry_multiplicity
 _atom_site_fract_x
 _atom_site_fract_y
 _atom_site_fract_z
 _atom_site_occupancy
  La  La0  1  0.500000  0.999914  0.999914  1
  La  La1  1  0.500000  0.499859  0.499859  1
  Yb  Yb2  1  0.500000  0.999971  0.499989  1
  Yb  Yb3  1  0.500000  0.499989  0.999971  1
  Si  Si4  1  0.000000  0.827409  0.172721  1
  Si  Si5  1  0.000000  0.832822  0.659348  1
  Si  Si6  1  0.000000  0.340801  0.167292  1
  Si  Si7  1  0.000000  0.172721  0.827409  1
  Si  Si8  1  0.000000  0.659348  0.832822  1
  Si  Si9  1  0.000000  0.167292  0.340801  1
  Ni  Ni10  1  0.000000  0.665800  0.334173  1
  Ni  Ni11  1  0.000000  0.334173  0.665800  1
