# generated using pymatgen
data_YbHo3Ir5Os3
_symmetry_space_group_name_H-M   'P 1'
_cell_length_a   5.31503800
_cell_length_b   5.31503669
_cell_length_c   8.78908700
_cell_angle_alpha   90.00000000
_cell_angle_beta   90.00000000
_cell_angle_gamma   119.99999568
_symmetry_Int_Tables_number   1
_chemical_formula_structural   YbHo3Ir5Os3
_chemical_formula_sum   'Yb1 Ho3 Ir5 Os3'
_cell_volume   215.02405867
_cell_formula_units_Z   1
loop_
 _symmetry_equiv_pos_site_id
 _symmetry_equiv_pos_as_xyz
  1  'x, y, z'
loop_
 _atom_site_type_symbol
 _atom_site_label
 _atom_site_symmetry_multiplicity
 _atom_site_fract_x
 _atom_site_fract_y
 _atom_site_fract_z
 _atom_site_occupancy
  Yb  Yb0  1  0.333333  0.666667  0.067398  1
  Ho  Ho1  1  0.333333  0.666667  0.424494  1
  Ho  Ho2  1  0.666667  0.333333  0.566293  1
  Ho  Ho3  1  0.666667  0.333333  0.939080  1
  Ir  Ir4  1  0.000000  0.000000  0.499373  1
  Ir  Ir5  1  0.000000  0.000000  0.000849  1
  Ir  Ir6  1  0.830346  0.169654  0.251193  1
  Ir  Ir7  1  0.830346  0.660692  0.251193  1
  Ir  Ir8  1  0.339308  0.169654  0.251193  1
  Os  Os9  1  0.171447  0.828553  0.749644  1
  Os  Os10  1  0.171447  0.342894  0.749644  1
  Os  Os11  1  0.657106  0.828553  0.749644  1
