# generated using pymatgen
data_Y9Tm3Ga20
_symmetry_space_group_name_H-M   'P 1'
_cell_length_a   6.10044506
_cell_length_b   9.63101100
_cell_length_c   11.56042510
_cell_angle_alpha   90.00000000
_cell_angle_beta   90.01546684
_cell_angle_gamma   90.00000000
_symmetry_Int_Tables_number   1
_chemical_formula_structural   Y9Tm3Ga20
_chemical_formula_sum   'Y9 Tm3 Ga20'
_cell_volume   679.21487337
_cell_formula_units_Z   1
loop_
 _symmetry_equiv_pos_site_id
 _symmetry_equiv_pos_as_xyz
  1  'x, y, z'
loop_
 _atom_site_type_symbol
 _atom_site_label
 _atom_site_symmetry_multiplicity
 _atom_site_fract_x
 _atom_site_fract_y
 _atom_site_fract_z
 _atom_site_occupancy
  Y  Y0  1  0.849065  0.750000  0.075628  1
  Y  Y1  1  0.891084  0.509378  0.351300  1
  Y  Y2  1  0.608881  0.990805  0.850667  1
  Y  Y3  1  0.109067  0.009950  0.648688  1
  Y  Y4  1  0.390311  0.490293  0.148798  1
  Y  Y5  1  0.109067  0.490050  0.648688  1
  Y  Y6  1  0.390311  0.009707  0.148798  1
  Y  Y7  1  0.891084  0.990622  0.351300  1
  Y  Y8  1  0.608881  0.509195  0.850667  1
  Tm  Tm9  1  0.651366  0.750000  0.575059  1
  Tm  Tm10  1  0.151263  0.250000  0.924621  1
  Tm  Tm11  1  0.348875  0.250000  0.424688  1
  Ga  Ga12  1  0.875683  0.055209  0.089721  1
  Ga  Ga13  1  0.624009  0.446334  0.589480  1
  Ga  Ga14  1  0.124112  0.552911  0.909782  1
  Ga  Ga15  1  0.375911  0.946839  0.410743  1
  Ga  Ga16  1  0.124112  0.947089  0.909782  1
  Ga  Ga17  1  0.375911  0.553161  0.410743  1
  Ga  Ga18  1  0.875683  0.444791  0.089721  1
  Ga  Ga19  1  0.624009  0.053666  0.589480  1
  Ga  Ga20  1  0.173543  0.750000  0.253024  1
  Ga  Ga21  1  0.329241  0.750000  0.751439  1
  Ga  Ga22  1  0.829092  0.250000  0.748090  1
  Ga  Ga23  1  0.670974  0.250000  0.248222  1
  Ga  Ga24  1  0.372526  0.750000  0.003178  1
  Ga  Ga25  1  0.125961  0.750000  0.504516  1
  Ga  Ga26  1  0.624557  0.250000  0.995792  1
  Ga  Ga27  1  0.874248  0.250000  0.495862  1
  Ga  Ga28  1  0.600862  0.750000  0.301105  1
  Ga  Ga29  1  0.899428  0.750000  0.798412  1
  Ga  Ga30  1  0.399275  0.250000  0.700857  1
  Ga  Ga31  1  0.101607  0.250000  0.201146  1
