# generated using pymatgen
data_Ta2MnSb(PO4)6
_symmetry_space_group_name_H-M   'P 1'
_cell_length_a   8.67422189
_cell_length_b   8.65158214
_cell_length_c   8.93141008
_cell_angle_alpha   89.98530395
_cell_angle_beta   61.37490294
_cell_angle_gamma   119.50269100
_symmetry_Int_Tables_number   1
_chemical_formula_structural   Ta2MnSb(PO4)6
_chemical_formula_sum   'Ta2 Mn1 Sb1 P6 O24'
_cell_volume   486.96604485
_cell_formula_units_Z   1
loop_
 _symmetry_equiv_pos_site_id
 _symmetry_equiv_pos_as_xyz
  1  'x, y, z'
loop_
 _atom_site_type_symbol
 _atom_site_label
 _atom_site_symmetry_multiplicity
 _atom_site_fract_x
 _atom_site_fract_y
 _atom_site_fract_z
 _atom_site_occupancy
  Ta  Ta0  1  0.780459  0.140602  0.078460  1
  Ta  Ta1  1  0.781993  0.641117  0.576447  1
  Mn  Mn2  1  0.207847  0.353981  0.436516  1
  Sb  Sb3  1  0.209119  0.855715  0.935241  1
  P  P4  1  0.277718  0.037127  0.257103  1
  P  P5  1  0.714413  0.745613  0.247564  1
  P  P6  1  0.279786  0.243893  0.747051  1
  P  P7  1  0.709237  0.969619  0.750238  1
  P  P8  1  0.011805  0.537066  0.745621  1
  P  P9  1  0.005323  0.465305  0.254290  1
  O  O10  1  0.487220  0.072152  0.225460  1
  O  O11  1  0.872625  0.369934  0.916494  1
  O  O12  1  0.883637  0.139637  0.590994  1
  O  O13  1  0.854986  0.556403  0.721393  1
  O  O14  1  0.137613  0.630906  0.082205  1
  O  O15  1  0.090630  0.855955  0.416095  1
  O  O16  1  0.159849  0.448837  0.274041  1
  O  O17  1  0.149276  0.721714  0.770637  1
  O  O18  1  0.161935  0.516045  0.581090  1
  O  O19  1  0.267326  0.204557  0.281412  1
  O  O20  1  0.287143  0.012091  0.080274  1
  O  O21  1  0.710040  0.922347  0.226341  1
  O  O22  1  0.528079  0.573459  0.269399  1
  O  O23  1  0.265739  0.253427  0.585205  1
  O  O24  1  0.855706  0.494476  0.417614  1
  O  O25  1  0.082599  0.212043  0.920321  1
  O  O26  1  0.917472  0.788599  0.068736  1
  O  O27  1  0.493846  0.911485  0.779801  1
  O  O28  1  0.740463  0.735925  0.407035  1
  O  O29  1  0.481515  0.426650  0.716855  1
  O  O30  1  0.308172  0.082749  0.768345  1
  O  O31  1  0.706560  0.995540  0.923611  1
  O  O32  1  0.721733  0.796029  0.722551  1
  O  O33  1  0.858138  0.289002  0.225560  1
