# generated using pymatgen
data_YbMnGeO4
_symmetry_space_group_name_H-M   'P 1'
_cell_length_a   5.14737000
_cell_length_b   6.56198100
_cell_length_c   11.26567100
_cell_angle_alpha   90.00000000
_cell_angle_beta   90.00000000
_cell_angle_gamma   90.00000000
_symmetry_Int_Tables_number   1
_chemical_formula_structural   YbMnGeO4
_chemical_formula_sum   'Yb4 Mn4 Ge4 O16'
_cell_volume   380.51994007
_cell_formula_units_Z   4
loop_
 _symmetry_equiv_pos_site_id
 _symmetry_equiv_pos_as_xyz
  1  'x, y, z'
loop_
 _atom_site_type_symbol
 _atom_site_label
 _atom_site_symmetry_multiplicity
 _atom_site_fract_x
 _atom_site_fract_y
 _atom_site_fract_z
 _atom_site_occupancy
  Yb  Yb0  1  0.008800  0.750000  0.724411  1
  Yb  Yb1  1  0.991200  0.250000  0.275589  1
  Yb  Yb2  1  0.508800  0.250000  0.775589  1
  Yb  Yb3  1  0.491200  0.750000  0.224411  1
  Mn  Mn4  1  0.500000  0.500000  0.500000  1
  Mn  Mn5  1  0.000000  0.500000  0.000000  1
  Mn  Mn6  1  0.500000  0.000000  0.500000  1
  Mn  Mn7  1  0.000000  0.000000  0.000000  1
  Ge  Ge8  1  0.574557  0.750000  0.910952  1
  Ge  Ge9  1  0.425443  0.250000  0.089048  1
  Ge  Ge10  1  0.074557  0.250000  0.589048  1
  Ge  Ge11  1  0.925443  0.750000  0.410952  1
  O  O12  1  0.231877  0.750000  0.912210  1
  O  O13  1  0.768123  0.250000  0.087790  1
  O  O14  1  0.731877  0.250000  0.587790  1
  O  O15  1  0.268123  0.750000  0.412210  1
  O  O16  1  0.765344  0.750000  0.553855  1
  O  O17  1  0.234656  0.250000  0.446145  1
  O  O18  1  0.265344  0.250000  0.946145  1
  O  O19  1  0.734656  0.750000  0.053855  1
  O  O20  1  0.727280  0.535562  0.842192  1
  O  O21  1  0.272720  0.464438  0.157808  1
  O  O22  1  0.227280  0.464438  0.657808  1
  O  O23  1  0.272720  0.035562  0.157808  1
  O  O24  1  0.772720  0.535562  0.342192  1
  O  O25  1  0.727280  0.964438  0.842192  1
  O  O26  1  0.772720  0.964438  0.342192  1
  O  O27  1  0.227280  0.035562  0.657808  1
