# generated using pymatgen
data_Nd4CdNi4Hg
_symmetry_space_group_name_H-M   'P 1'
_cell_length_a   7.48579800
_cell_length_b   7.48579800
_cell_length_c   3.87753200
_cell_angle_alpha   90.00000000
_cell_angle_beta   90.00000000
_cell_angle_gamma   90.00000000
_symmetry_Int_Tables_number   1
_chemical_formula_structural   Nd4CdNi4Hg
_chemical_formula_sum   'Nd4 Cd1 Ni4 Hg1'
_cell_volume   217.28592644
_cell_formula_units_Z   1
loop_
 _symmetry_equiv_pos_site_id
 _symmetry_equiv_pos_as_xyz
  1  'x, y, z'
loop_
 _atom_site_type_symbol
 _atom_site_label
 _atom_site_symmetry_multiplicity
 _atom_site_fract_x
 _atom_site_fract_y
 _atom_site_fract_z
 _atom_site_occupancy
  Nd  Nd0  1  0.320041  0.824976  0.500000  1
  Nd  Nd1  1  0.824976  0.679959  0.500000  1
  Nd  Nd2  1  0.175024  0.320041  0.500000  1
  Nd  Nd3  1  0.679959  0.175024  0.500000  1
  Cd  Cd4  1  0.500000  0.500000  0.000000  1
  Ni  Ni5  1  0.387140  0.117962  0.000000  1
  Ni  Ni6  1  0.882038  0.387140  0.000000  1
  Ni  Ni7  1  0.117962  0.612860  0.000000  1
  Ni  Ni8  1  0.612860  0.882038  0.000000  1
  Hg  Hg9  1  0.000000  0.000000  0.000000  1
