# generated using pymatgen
data_Cs6NdYBr12
_symmetry_space_group_name_H-M   'P 1'
_cell_length_a   10.07521801
_cell_length_b   10.07554050
_cell_length_c   8.39721300
_cell_angle_alpha   90.00000000
_cell_angle_beta   90.00000000
_cell_angle_gamma   90.02027856
_symmetry_Int_Tables_number   1
_chemical_formula_structural   Cs6NdYBr12
_chemical_formula_sum   'Cs6 Nd1 Y1 Br12'
_cell_volume   852.42847278
_cell_formula_units_Z   1
loop_
 _symmetry_equiv_pos_site_id
 _symmetry_equiv_pos_as_xyz
  1  'x, y, z'
loop_
 _atom_site_type_symbol
 _atom_site_label
 _atom_site_symmetry_multiplicity
 _atom_site_fract_x
 _atom_site_fract_y
 _atom_site_fract_z
 _atom_site_occupancy
  Cs  Cs0  1  0.000000  0.000000  0.500000  1
  Cs  Cs1  1  0.000000  0.000000  0.000000  1
  Cs  Cs2  1  0.237512  0.584256  0.500000  1
  Cs  Cs3  1  0.762488  0.415744  0.500000  1
  Cs  Cs4  1  0.416095  0.232925  0.000000  1
  Cs  Cs5  1  0.583905  0.767075  0.000000  1
  Nd  Nd6  1  0.000000  0.500000  0.000000  1
  Y  Y7  1  0.500000  0.000000  0.500000  1
  Br  Br8  1  0.691239  0.056910  0.739196  1
  Br  Br9  1  0.308761  0.943090  0.739196  1
  Br  Br10  1  0.941481  0.696404  0.244679  1
  Br  Br11  1  0.058519  0.303596  0.244679  1
  Br  Br12  1  0.308761  0.943090  0.260804  1
  Br  Br13  1  0.691239  0.056910  0.260804  1
  Br  Br14  1  0.058519  0.303596  0.755321  1
  Br  Br15  1  0.941481  0.696404  0.755321  1
  Br  Br16  1  0.569672  0.729258  0.500000  1
  Br  Br17  1  0.430328  0.270742  0.500000  1
  Br  Br18  1  0.278106  0.570074  0.000000  1
  Br  Br19  1  0.721894  0.429926  0.000000  1
