# generated using pymatgen
data_Nd5Bi2Rh
_symmetry_space_group_name_H-M   'P 1'
_cell_length_a   8.35338300
_cell_length_b   9.19365100
_cell_length_c   12.91655500
_cell_angle_alpha   90.00000000
_cell_angle_beta   90.00000000
_cell_angle_gamma   90.00000000
_symmetry_Int_Tables_number   1
_chemical_formula_structural   Nd5Bi2Rh
_chemical_formula_sum   'Nd20 Bi8 Rh4'
_cell_volume   991.96672718
_cell_formula_units_Z   4
loop_
 _symmetry_equiv_pos_site_id
 _symmetry_equiv_pos_as_xyz
  1  'x, y, z'
loop_
 _atom_site_type_symbol
 _atom_site_label
 _atom_site_symmetry_multiplicity
 _atom_site_fract_x
 _atom_site_fract_y
 _atom_site_fract_z
 _atom_site_occupancy
  Nd  Nd0  1  0.847309  0.750000  0.794845  1
  Nd  Nd1  1  0.152691  0.250000  0.205155  1
  Nd  Nd2  1  0.347309  0.250000  0.705155  1
  Nd  Nd3  1  0.652691  0.750000  0.294845  1
  Nd  Nd4  1  0.373215  0.750000  0.695091  1
  Nd  Nd5  1  0.626785  0.250000  0.304909  1
  Nd  Nd6  1  0.873215  0.250000  0.804909  1
  Nd  Nd7  1  0.126785  0.750000  0.195091  1
  Nd  Nd8  1  0.954679  0.750000  0.501373  1
  Nd  Nd9  1  0.045321  0.250000  0.498627  1
  Nd  Nd10  1  0.454679  0.250000  0.998627  1
  Nd  Nd11  1  0.545321  0.750000  0.001373  1
  Nd  Nd12  1  0.681384  0.036859  0.565226  1
  Nd  Nd13  1  0.318616  0.963141  0.434774  1
  Nd  Nd14  1  0.181384  0.963141  0.934774  1
  Nd  Nd15  1  0.318616  0.536859  0.434774  1
  Nd  Nd16  1  0.818616  0.036859  0.065226  1
  Nd  Nd17  1  0.681384  0.463141  0.565226  1
  Nd  Nd18  1  0.818616  0.463141  0.065226  1
  Nd  Nd19  1  0.181384  0.536859  0.934774  1
  Bi  Bi20  1  0.572477  0.493282  0.825951  1
  Bi  Bi21  1  0.427523  0.506718  0.174049  1
  Bi  Bi22  1  0.072477  0.506718  0.674049  1
  Bi  Bi23  1  0.427523  0.993282  0.174049  1
  Bi  Bi24  1  0.927523  0.493282  0.325951  1
  Bi  Bi25  1  0.572477  0.006718  0.825951  1
  Bi  Bi26  1  0.927523  0.006718  0.325951  1
  Bi  Bi27  1  0.072477  0.993282  0.674049  1
  Rh  Rh28  1  0.567785  0.750000  0.509393  1
  Rh  Rh29  1  0.432215  0.250000  0.490607  1
  Rh  Rh30  1  0.067785  0.250000  0.990607  1
  Rh  Rh31  1  0.932215  0.750000  0.009393  1
