# generated using pymatgen
data_V4Fe2PdSe12
_symmetry_space_group_name_H-M   'P 1'
_cell_length_a   7.24524394
_cell_length_b   7.24524443
_cell_length_c   19.09906568
_cell_angle_alpha   69.70777031
_cell_angle_beta   69.70776906
_cell_angle_gamma   26.14459552
_symmetry_Int_Tables_number   1
_chemical_formula_structural   V4Fe2PdSe12
_chemical_formula_sum   'V4 Fe2 Pd1 Se12'
_cell_volume   412.82569392
_cell_formula_units_Z   1
loop_
 _symmetry_equiv_pos_site_id
 _symmetry_equiv_pos_as_xyz
  1  'x, y, z'
loop_
 _atom_site_type_symbol
 _atom_site_label
 _atom_site_symmetry_multiplicity
 _atom_site_fract_x
 _atom_site_fract_y
 _atom_site_fract_z
 _atom_site_occupancy
  V  V0  1  0.746358  0.746358  0.592431  1
  V  V1  1  0.253642  0.253642  0.407569  1
  V  V2  1  0.623393  0.623393  0.846055  1
  V  V3  1  0.376607  0.376607  0.153945  1
  Fe  Fe4  1  0.770449  0.770449  0.286821  1
  Fe  Fe5  1  0.229551  0.229551  0.713179  1
  Pd  Pd6  1  0.000000  0.000000  0.000000  1
  Se  Se7  1  0.856062  0.856062  0.451956  1
  Se  Se8  1  0.020476  0.020476  0.122461  1
  Se  Se9  1  0.803456  0.803456  0.768429  1
  Se  Se10  1  0.395225  0.395225  0.283392  1
  Se  Se11  1  0.181246  0.181246  0.922300  1
  Se  Se12  1  0.604775  0.604775  0.716608  1
  Se  Se13  1  0.143938  0.143938  0.548044  1
  Se  Se14  1  0.818754  0.818754  0.077700  1
  Se  Se15  1  0.371230  0.371230  0.600801  1
  Se  Se16  1  0.979524  0.979524  0.877539  1
  Se  Se17  1  0.196544  0.196544  0.231571  1
  Se  Se18  1  0.628770  0.628770  0.399199  1
