# generated using pymatgen
data_Ni2Sb12OsRu
_symmetry_space_group_name_H-M   'P 1'
_cell_length_a   8.03008996
_cell_length_b   8.02565275
_cell_length_c   9.29316491
_cell_angle_alpha   55.14331109
_cell_angle_beta   55.09352326
_cell_angle_gamma   71.05503932
_symmetry_Int_Tables_number   1
_chemical_formula_structural   Ni2Sb12OsRu
_chemical_formula_sum   'Ni2 Sb12 Os1 Ru1'
_cell_volume   403.03691972
_cell_formula_units_Z   1
loop_
 _symmetry_equiv_pos_site_id
 _symmetry_equiv_pos_as_xyz
  1  'x, y, z'
loop_
 _atom_site_type_symbol
 _atom_site_label
 _atom_site_symmetry_multiplicity
 _atom_site_fract_x
 _atom_site_fract_y
 _atom_site_fract_z
 _atom_site_occupancy
  Ni  Ni0  1  0.000000  0.500000  0.500000  1
  Ni  Ni1  1  0.500000  0.000000  0.500000  1
  Sb  Sb2  1  0.156455  0.154870  0.178812  1
  Sb  Sb3  1  0.843545  0.845130  0.821188  1
  Sb  Sb4  1  0.842427  0.842465  0.497446  1
  Sb  Sb5  1  0.157573  0.157535  0.502554  1
  Sb  Sb6  1  0.818735  0.505808  0.339568  1
  Sb  Sb7  1  0.181265  0.494192  0.660432  1
  Sb  Sb8  1  0.505733  0.819660  0.338395  1
  Sb  Sb9  1  0.494267  0.180340  0.661605  1
  Sb  Sb10  1  0.664168  0.340893  0.840232  1
  Sb  Sb11  1  0.335832  0.659107  0.159768  1
  Sb  Sb12  1  0.658585  0.334798  0.159539  1
  Sb  Sb13  1  0.341415  0.665202  0.840461  1
  Os  Os14  1  0.000000  0.500000  0.000000  1
  Ru  Ru15  1  0.500000  0.000000  0.000000  1
