# generated using pymatgen
data_TbLu2Al7Cu2
_symmetry_space_group_name_H-M   'P 1'
_cell_length_a   9.05334376
_cell_length_b   9.05334438
_cell_length_c   9.05334400
_cell_angle_alpha   35.16746886
_cell_angle_beta   35.16746323
_cell_angle_gamma   35.16746372
_symmetry_Int_Tables_number   1
_chemical_formula_structural   TbLu2Al7Cu2
_chemical_formula_sum   'Tb1 Lu2 Al7 Cu2'
_cell_volume   219.85789834
_cell_formula_units_Z   1
loop_
 _symmetry_equiv_pos_site_id
 _symmetry_equiv_pos_as_xyz
  1  'x, y, z'
loop_
 _atom_site_type_symbol
 _atom_site_label
 _atom_site_symmetry_multiplicity
 _atom_site_fract_x
 _atom_site_fract_y
 _atom_site_fract_z
 _atom_site_occupancy
  Tb  Tb0  1  0.000000  0.000000  0.000000  1
  Lu  Lu1  1  0.857549  0.857549  0.857549  1
  Lu  Lu2  1  0.142451  0.142451  0.142451  1
  Al  Al3  1  0.417605  0.417605  0.926451  1
  Al  Al4  1  0.926451  0.417605  0.417605  1
  Al  Al5  1  0.417605  0.926451  0.417605  1
  Al  Al6  1  0.500000  0.500000  0.500000  1
  Al  Al7  1  0.582395  0.073549  0.582395  1
  Al  Al8  1  0.073549  0.582395  0.582395  1
  Al  Al9  1  0.582395  0.582395  0.073549  1
  Cu  Cu10  1  0.664980  0.664980  0.664980  1
  Cu  Cu11  1  0.335020  0.335020  0.335020  1
