# generated using pymatgen
data_CaTb2Al3Si2Pd
_symmetry_space_group_name_H-M   'P 1'
_cell_length_a   6.96919700
_cell_length_b   6.92893613
_cell_length_c   4.29660800
_cell_angle_alpha   90.00000000
_cell_angle_beta   90.00000000
_cell_angle_gamma   120.19240280
_symmetry_Int_Tables_number   1
_chemical_formula_structural   CaTb2Al3Si2Pd
_chemical_formula_sum   'Ca1 Tb2 Al3 Si2 Pd1'
_cell_volume   179.33307437
_cell_formula_units_Z   1
loop_
 _symmetry_equiv_pos_site_id
 _symmetry_equiv_pos_as_xyz
  1  'x, y, z'
loop_
 _atom_site_type_symbol
 _atom_site_label
 _atom_site_symmetry_multiplicity
 _atom_site_fract_x
 _atom_site_fract_y
 _atom_site_fract_z
 _atom_site_occupancy
  Ca  Ca0  1  0.419567  0.000000  0.000000  1
  Tb  Tb1  1  0.000546  0.420049  0.000000  1
  Tb  Tb2  1  0.580497  0.579950  0.000000  1
  Al  Al3  1  0.763734  0.000000  0.500000  1
  Al  Al4  1  0.235672  0.241518  0.500000  1
  Al  Al5  1  0.994155  0.758482  0.500000  1
  Si  Si6  1  0.673095  0.339927  0.500000  1
  Si  Si7  1  0.333168  0.660072  0.500000  1
  Pd  Pd8  1  0.999563  0.000000  0.000000  1
