# generated using pymatgen
data_Li2Tb5P12Ir17
_symmetry_space_group_name_H-M   'P 1'
_cell_length_a   12.77899068
_cell_length_b   12.77899131
_cell_length_c   3.96724900
_cell_angle_alpha   90.00000000
_cell_angle_beta   90.00000000
_cell_angle_gamma   120.41330663
_symmetry_Int_Tables_number   1
_chemical_formula_structural   Li2Tb5P12Ir17
_chemical_formula_sum   'Li2 Tb5 P12 Ir17'
_cell_volume   558.71377994
_cell_formula_units_Z   1
loop_
 _symmetry_equiv_pos_site_id
 _symmetry_equiv_pos_as_xyz
  1  'x, y, z'
loop_
 _atom_site_type_symbol
 _atom_site_label
 _atom_site_symmetry_multiplicity
 _atom_site_fract_x
 _atom_site_fract_y
 _atom_site_fract_z
 _atom_site_occupancy
  Li  Li0  1  0.442296  0.999882  0.000000  1
  Li  Li1  1  0.999882  0.442296  0.000000  1
  Tb  Tb2  1  0.329707  0.667375  0.000000  1
  Tb  Tb3  1  0.667375  0.329707  0.000000  1
  Tb  Tb4  1  0.807504  0.998115  0.500000  1
  Tb  Tb5  1  0.998115  0.807504  0.500000  1
  Tb  Tb6  1  0.189636  0.189636  0.500000  1
  P  P7  1  0.180656  0.002549  0.000000  1
  P  P8  1  0.002549  0.180656  0.000000  1
  P  P9  1  0.821929  0.821929  0.000000  1
  P  P10  1  0.169851  0.486677  0.500000  1
  P  P11  1  0.516172  0.692807  0.500000  1
  P  P12  1  0.312355  0.832601  0.500000  1
  P  P13  1  0.692807  0.516172  0.500000  1
  P  P14  1  0.832601  0.312355  0.500000  1
  P  P15  1  0.486677  0.169851  0.500000  1
  P  P16  1  0.630585  0.999919  0.000000  1
  P  P17  1  0.999919  0.630585  0.000000  1
  P  P18  1  0.360183  0.360183  0.000000  1
  Ir  Ir19  1  0.541186  0.541186  0.000000  1
  Ir  Ir20  1  0.362419  0.495929  0.500000  1
  Ir  Ir21  1  0.508490  0.869904  0.500000  1
  Ir  Ir22  1  0.130339  0.643795  0.500000  1
  Ir  Ir23  1  0.869904  0.508490  0.500000  1
  Ir  Ir24  1  0.643795  0.130339  0.500000  1
  Ir  Ir25  1  0.495929  0.362419  0.500000  1
  Ir  Ir26  1  0.185231  0.379120  0.000000  1
  Ir  Ir27  1  0.624496  0.801225  0.000000  1
  Ir  Ir28  1  0.193507  0.822883  0.000000  1
  Ir  Ir29  1  0.801225  0.624496  0.000000  1
  Ir  Ir30  1  0.822883  0.193507  0.000000  1
  Ir  Ir31  1  0.379120  0.185231  0.000000  1
  Ir  Ir32  1  0.281990  0.003820  0.500000  1
  Ir  Ir33  1  0.003820  0.281990  0.500000  1
  Ir  Ir34  1  0.712959  0.712959  0.500000  1
  Ir  Ir35  1  0.001909  0.001909  0.000000  1
