# generated using pymatgen
data_Rb20Hf3NpAs12
_symmetry_space_group_name_H-M   'P 1'
_cell_length_a   8.85151252
_cell_length_b   9.49460454
_cell_length_c   18.39982000
_cell_angle_alpha   60.41876964
_cell_angle_beta   89.98043214
_cell_angle_gamma   90.08340523
_symmetry_Int_Tables_number   1
_chemical_formula_structural   Rb20Hf3NpAs12
_chemical_formula_sum   'Rb20 Hf3 Np1 As12'
_cell_volume   1344.79165242
_cell_formula_units_Z   1
loop_
 _symmetry_equiv_pos_site_id
 _symmetry_equiv_pos_as_xyz
  1  'x, y, z'
loop_
 _atom_site_type_symbol
 _atom_site_label
 _atom_site_symmetry_multiplicity
 _atom_site_fract_x
 _atom_site_fract_y
 _atom_site_fract_z
 _atom_site_occupancy
  Rb  Rb0  1  0.172901  0.846163  0.739180  1
  Rb  Rb1  1  0.674170  0.158104  0.758743  1
  Rb  Rb2  1  0.822673  0.151282  0.260314  1
  Rb  Rb3  1  0.328473  0.837760  0.244363  1
  Rb  Rb4  1  0.162683  0.161165  0.421671  1
  Rb  Rb5  1  0.660726  0.844342  0.081489  1
  Rb  Rb6  1  0.836973  0.838089  0.580852  1
  Rb  Rb7  1  0.339625  0.163467  0.915433  1
  Rb  Rb8  1  0.010883  0.081238  0.090179  1
  Rb  Rb9  1  0.506316  0.916194  0.410250  1
  Rb  Rb10  1  0.989718  0.917516  0.910209  1
  Rb  Rb11  1  0.493331  0.084852  0.590546  1
  Rb  Rb12  1  0.512536  0.264981  0.075668  1
  Rb  Rb13  1  0.020329  0.733280  0.420245  1
  Rb  Rb14  1  0.484664  0.732790  0.920214  1
  Rb  Rb15  1  0.985307  0.273964  0.578153  1
  Rb  Rb16  1  0.969246  0.545287  0.254180  1
  Rb  Rb17  1  0.481007  0.452596  0.246686  1
  Rb  Rb18  1  0.025502  0.454263  0.744831  1
  Rb  Rb19  1  0.522570  0.547334  0.753705  1
  Hf  Hf20  1  0.373155  0.494292  0.579570  1
  Hf  Hf21  1  0.866932  0.506021  0.918318  1
  Hf  Hf22  1  0.629763  0.504891  0.422106  1
  Np  Np23  1  0.130833  0.493836  0.080629  1
  As  As24  1  0.329079  0.483118  0.438935  1
  As  As25  1  0.813758  0.517927  0.058719  1
  As  As26  1  0.673844  0.515054  0.563092  1
  As  As27  1  0.168604  0.483960  0.930799  1
  As  As28  1  0.210876  0.206404  0.223508  1
  As  As29  1  0.707597  0.772571  0.287212  1
  As  As30  1  0.792380  0.777335  0.785929  1
  As  As31  1  0.295361  0.224472  0.713443  1
  As  As32  1  0.257450  0.767296  0.076844  1
  As  As33  1  0.751184  0.250492  0.423854  1
  As  As34  1  0.748721  0.248984  0.922938  1
  As  As35  1  0.250830  0.748679  0.577200  1
