# generated using pymatgen
data_Y8Mg2Si3GeB16
_symmetry_space_group_name_H-M   'P 1'
_cell_length_a   7.18234127
_cell_length_b   7.18234127
_cell_length_c   7.87453100
_cell_angle_alpha   90.00000000
_cell_angle_beta   90.00000000
_cell_angle_gamma   89.93174611
_symmetry_Int_Tables_number   1
_chemical_formula_structural   Y8Mg2Si3GeB16
_chemical_formula_sum   'Y8 Mg2 Si3 Ge1 B16'
_cell_volume   406.21547407
_cell_formula_units_Z   1
loop_
 _symmetry_equiv_pos_site_id
 _symmetry_equiv_pos_as_xyz
  1  'x, y, z'
loop_
 _atom_site_type_symbol
 _atom_site_label
 _atom_site_symmetry_multiplicity
 _atom_site_fract_x
 _atom_site_fract_y
 _atom_site_fract_z
 _atom_site_occupancy
  Y  Y0  1  0.682865  0.182865  0.233589  1
  Y  Y1  1  0.317814  0.817814  0.767317  1
  Y  Y2  1  0.317814  0.817814  0.232683  1
  Y  Y3  1  0.816183  0.683042  0.232817  1
  Y  Y4  1  0.816183  0.683042  0.767183  1
  Y  Y5  1  0.682865  0.182865  0.766411  1
  Y  Y6  1  0.183042  0.316183  0.767183  1
  Y  Y7  1  0.183042  0.316183  0.232817  1
  Mg  Mg8  1  0.999514  0.001374  0.500000  1
  Mg  Mg9  1  0.501374  0.499514  0.500000  1
  Si  Si10  1  0.882107  0.382107  0.500000  1
  Si  Si11  1  0.384764  0.115134  0.500000  1
  Si  Si12  1  0.615134  0.884764  0.500000  1
  Ge  Ge13  1  0.117831  0.617831  0.500000  1
  B  B14  1  0.173339  0.039735  0.000000  1
  B  B15  1  0.826605  0.960184  0.000000  1
  B  B16  1  0.960171  0.173507  0.000000  1
  B  B17  1  0.326341  0.539751  0.000000  1
  B  B18  1  0.039751  0.826341  0.000000  1
  B  B19  1  0.673507  0.460171  0.000000  1
  B  B20  1  0.539735  0.673339  0.000000  1
  B  B21  1  0.460184  0.326605  0.000000  1
  B  B22  1  0.089624  0.589624  0.000000  1
  B  B23  1  0.910336  0.410336  0.000000  1
  B  B24  1  0.410086  0.090006  0.000000  1
  B  B25  1  0.590006  0.910086  0.000000  1
  B  B26  1  0.999994  0.999899  0.161621  1
  B  B27  1  0.999994  0.999899  0.838379  1
  B  B28  1  0.499899  0.499994  0.838379  1
  B  B29  1  0.499899  0.499994  0.161621  1
