# generated using pymatgen
data_Zn22Ni2Rh
_symmetry_space_group_name_H-M   'P 1'
_cell_length_a   7.69976959
_cell_length_b   7.69977189
_cell_length_c   7.71102225
_cell_angle_alpha   71.67153672
_cell_angle_beta   71.67153497
_cell_angle_gamma   57.58836619
_symmetry_Int_Tables_number   1
_chemical_formula_structural   Zn22Ni2Rh
_chemical_formula_sum   'Zn22 Ni2 Rh1'
_cell_volume   360.23971917
_cell_formula_units_Z   1
loop_
 _symmetry_equiv_pos_site_id
 _symmetry_equiv_pos_as_xyz
  1  'x, y, z'
loop_
 _atom_site_type_symbol
 _atom_site_label
 _atom_site_symmetry_multiplicity
 _atom_site_fract_x
 _atom_site_fract_y
 _atom_site_fract_z
 _atom_site_occupancy
  Zn  Zn0  1  0.349170  0.735641  0.309229  1
  Zn  Zn1  1  0.650830  0.264359  0.690771  1
  Zn  Zn2  1  0.264359  0.650830  0.690771  1
  Zn  Zn3  1  0.735641  0.349170  0.309229  1
  Zn  Zn4  1  0.677182  0.322818  0.000000  1
  Zn  Zn5  1  0.322818  0.677182  0.000000  1
  Zn  Zn6  1  0.827709  0.827709  0.788407  1
  Zn  Zn7  1  0.172291  0.172291  0.211593  1
  Zn  Zn8  1  0.977257  0.977257  0.172636  1
  Zn  Zn9  1  0.022743  0.022743  0.827364  1
  Zn  Zn10  1  0.351901  0.351901  0.272286  1
  Zn  Zn11  1  0.648099  0.648099  0.727714  1
  Zn  Zn12  1  0.686065  0.686065  0.375496  1
  Zn  Zn13  1  0.313935  0.313935  0.624504  1
  Zn  Zn14  1  0.658314  0.024638  0.461634  1
  Zn  Zn15  1  0.341686  0.975362  0.538366  1
  Zn  Zn16  1  0.975362  0.341686  0.538366  1
  Zn  Zn17  1  0.024638  0.658314  0.461634  1
  Zn  Zn18  1  0.616970  0.999177  0.099938  1
  Zn  Zn19  1  0.383030  0.000823  0.900062  1
  Zn  Zn20  1  0.000823  0.383030  0.900062  1
  Zn  Zn21  1  0.999177  0.616970  0.099938  1
  Ni  Ni22  1  0.657926  0.657926  0.054254  1
  Ni  Ni23  1  0.342074  0.342074  0.945746  1
  Rh  Rh24  1  0.000000  0.000000  0.500000  1
