# generated using pymatgen
data_Er16MgCd3IrPd3
_symmetry_space_group_name_H-M   'P 1'
_cell_length_a   9.64373047
_cell_length_b   9.60235916
_cell_length_c   9.60236068
_cell_angle_alpha   59.79292975
_cell_angle_beta   60.07249009
_cell_angle_gamma   60.07248984
_symmetry_Int_Tables_number   1
_chemical_formula_structural   Er16MgCd3IrPd3
_chemical_formula_sum   'Er16 Mg1 Cd3 Ir1 Pd3'
_cell_volume   628.45657787
_cell_formula_units_Z   1
loop_
 _symmetry_equiv_pos_site_id
 _symmetry_equiv_pos_as_xyz
  1  'x, y, z'
loop_
 _atom_site_type_symbol
 _atom_site_label
 _atom_site_symmetry_multiplicity
 _atom_site_fract_x
 _atom_site_fract_y
 _atom_site_fract_z
 _atom_site_occupancy
  Er  Er0  1  0.603734  0.598059  0.598059  1
  Er  Er1  1  0.606998  0.600346  0.195158  1
  Er  Er2  1  0.606998  0.195158  0.600346  1
  Er  Er3  1  0.186004  0.606116  0.606116  1
  Er  Er4  1  0.055573  0.440390  0.440390  1
  Er  Er5  1  0.438936  0.061513  0.061513  1
  Er  Er6  1  0.442500  0.058539  0.440093  1
  Er  Er7  1  0.059099  0.437154  0.065964  1
  Er  Er8  1  0.442500  0.440093  0.058539  1
  Er  Er9  1  0.059099  0.065964  0.437154  1
  Er  Er10  1  0.185750  0.816805  0.816805  1
  Er  Er11  1  0.815112  0.187093  0.187093  1
  Er  Er12  1  0.818496  0.185499  0.814061  1
  Er  Er13  1  0.185817  0.814154  0.185603  1
  Er  Er14  1  0.818496  0.814061  0.185499  1
  Er  Er15  1  0.185817  0.185603  0.814154  1
  Mg  Mg16  1  0.826727  0.827214  0.827214  1
  Cd  Cd17  1  0.830948  0.832019  0.503168  1
  Cd  Cd18  1  0.830948  0.503168  0.832019  1
  Cd  Cd19  1  0.504675  0.830874  0.830874  1
  Ir  Ir20  1  0.821794  0.392196  0.392196  1
  Pd  Pd21  1  0.392417  0.395679  0.395679  1
  Pd  Pd22  1  0.390782  0.393938  0.818365  1
  Pd  Pd23  1  0.390782  0.818365  0.393938  1
