# generated using pymatgen
data_Y5Zr3(P3Rh4)4
_symmetry_space_group_name_H-M   'P 1'
_cell_length_a   12.90373700
_cell_length_b   12.90373721
_cell_length_c   3.92812800
_cell_angle_alpha   90.00000000
_cell_angle_beta   90.00000000
_cell_angle_gamma   120.00000202
_symmetry_Int_Tables_number   1
_chemical_formula_structural   Y5Zr3(P3Rh4)4
_chemical_formula_sum   'Y5 Zr3 P12 Rh16'
_cell_volume   566.43132986
_cell_formula_units_Z   1
loop_
 _symmetry_equiv_pos_site_id
 _symmetry_equiv_pos_as_xyz
  1  'x, y, z'
loop_
 _atom_site_type_symbol
 _atom_site_label
 _atom_site_symmetry_multiplicity
 _atom_site_fract_x
 _atom_site_fract_y
 _atom_site_fract_z
 _atom_site_occupancy
  Y  Y0  1  0.186935  0.186935  0.500000  1
  Y  Y1  1  0.813065  0.000000  0.500000  1
  Y  Y2  1  0.000000  0.813065  0.500000  1
  Y  Y3  1  0.333333  0.666667  0.000000  1
  Y  Y4  1  0.666667  0.333333  0.000000  1
  Zr  Zr5  1  0.555533  0.555533  0.000000  1
  Zr  Zr6  1  0.444467  0.000000  0.000000  1
  Zr  Zr7  1  0.000000  0.444467  0.000000  1
  P  P8  1  0.824935  0.824935  0.000000  1
  P  P9  1  0.175065  0.000000  0.000000  1
  P  P10  1  0.000000  0.175065  0.000000  1
  P  P11  1  0.169580  0.481892  0.500000  1
  P  P12  1  0.518108  0.687688  0.500000  1
  P  P13  1  0.312312  0.830420  0.500000  1
  P  P14  1  0.687688  0.518108  0.500000  1
  P  P15  1  0.830420  0.312312  0.500000  1
  P  P16  1  0.481892  0.169580  0.500000  1
  P  P17  1  0.353881  0.353881  0.000000  1
  P  P18  1  0.646119  0.000000  0.000000  1
  P  P19  1  0.000000  0.646119  0.000000  1
  Rh  Rh20  1  0.723814  0.723814  0.500000  1
  Rh  Rh21  1  0.276186  0.000000  0.500000  1
  Rh  Rh22  1  0.000000  0.276186  0.500000  1
  Rh  Rh23  1  0.178215  0.372797  0.000000  1
  Rh  Rh24  1  0.627203  0.805417  0.000000  1
  Rh  Rh25  1  0.194583  0.821785  0.000000  1
  Rh  Rh26  1  0.805417  0.627203  0.000000  1
  Rh  Rh27  1  0.821785  0.194583  0.000000  1
  Rh  Rh28  1  0.372797  0.178215  0.000000  1
  Rh  Rh29  1  0.356637  0.488020  0.500000  1
  Rh  Rh30  1  0.511980  0.868618  0.500000  1
  Rh  Rh31  1  0.131382  0.643363  0.500000  1
  Rh  Rh32  1  0.868618  0.511980  0.500000  1
  Rh  Rh33  1  0.643363  0.131382  0.500000  1
  Rh  Rh34  1  0.488020  0.356637  0.500000  1
  Rh  Rh35  1  0.000000  0.000000  0.000000  1
