# generated using pymatgen
data_Er4Mn2(CoOs)3
_symmetry_space_group_name_H-M   'P 1'
_cell_length_a   5.08423888
_cell_length_b   5.11210068
_cell_length_c   8.58776100
_cell_angle_alpha   90.00000000
_cell_angle_beta   90.00000000
_cell_angle_gamma   118.02587431
_symmetry_Int_Tables_number   1
_chemical_formula_structural   Er4Mn2(CoOs)3
_chemical_formula_sum   'Er4 Mn2 Co3 Os3'
_cell_volume   197.03160012
_cell_formula_units_Z   1
loop_
 _symmetry_equiv_pos_site_id
 _symmetry_equiv_pos_as_xyz
  1  'x, y, z'
loop_
 _atom_site_type_symbol
 _atom_site_label
 _atom_site_symmetry_multiplicity
 _atom_site_fract_x
 _atom_site_fract_y
 _atom_site_fract_z
 _atom_site_occupancy
  Er  Er0  1  0.328458  0.663768  0.433360  1
  Er  Er1  1  0.663336  0.331887  0.562261  1
  Er  Er2  1  0.663336  0.331887  0.937739  1
  Er  Er3  1  0.328458  0.663768  0.066640  1
  Mn  Mn4  1  0.828970  0.164899  0.250000  1
  Mn  Mn5  1  0.180204  0.837393  0.750000  1
  Co  Co6  1  0.830365  0.662328  0.250000  1
  Co  Co7  1  0.337561  0.166722  0.250000  1
  Co  Co8  1  0.180859  0.347560  0.750000  1
  Os  Os9  1  0.994963  0.996481  0.496262  1
  Os  Os10  1  0.994963  0.996481  0.003738  1
  Os  Os11  1  0.668525  0.836826  0.750000  1
