# generated using pymatgen
data_KMn2(FeSb6)2
_symmetry_space_group_name_H-M   'P 1'
_cell_length_a   8.11513690
_cell_length_b   8.04681522
_cell_length_c   8.11513767
_cell_angle_alpha   109.35453039
_cell_angle_beta   110.14118667
_cell_angle_gamma   109.25783635
_symmetry_Int_Tables_number   1
_chemical_formula_structural   KMn2(FeSb6)2
_chemical_formula_sum   'K1 Mn2 Fe2 Sb12'
_cell_volume   406.19573888
_cell_formula_units_Z   1
loop_
 _symmetry_equiv_pos_site_id
 _symmetry_equiv_pos_as_xyz
  1  'x, y, z'
loop_
 _atom_site_type_symbol
 _atom_site_label
 _atom_site_symmetry_multiplicity
 _atom_site_fract_x
 _atom_site_fract_y
 _atom_site_fract_z
 _atom_site_occupancy
  K  K0  1  0.000000  0.000000  0.000000  1
  Mn  Mn1  1  0.500000  0.500000  0.500000  1
  Mn  Mn2  1  0.000000  0.500000  0.000000  1
  Fe  Fe3  1  0.500000  0.000000  0.000000  1
  Fe  Fe4  1  0.000000  0.000000  0.500000  1
  Sb  Sb5  1  0.848731  0.668924  0.501035  1
  Sb  Sb6  1  0.151269  0.331076  0.498965  1
  Sb  Sb7  1  0.167890  0.668924  0.820195  1
  Sb  Sb8  1  0.832110  0.331076  0.179805  1
  Sb  Sb9  1  0.652720  0.497887  0.845167  1
  Sb  Sb10  1  0.347280  0.502113  0.154833  1
  Sb  Sb11  1  0.668525  0.831304  0.162778  1
  Sb  Sb12  1  0.331475  0.168696  0.837222  1
  Sb  Sb13  1  0.502897  0.849026  0.670065  1
  Sb  Sb14  1  0.497103  0.150974  0.329935  1
  Sb  Sb15  1  0.178961  0.849026  0.346129  1
  Sb  Sb16  1  0.821039  0.150974  0.653871  1
