# generated using pymatgen
data_Dy8Er8Sc3Si16Tc
_symmetry_space_group_name_H-M   'P 1'
_cell_length_a   7.15309394
_cell_length_b   7.60899554
_cell_length_c   14.22255300
_cell_angle_alpha   90.00000000
_cell_angle_beta   90.00000000
_cell_angle_gamma   90.02598321
_symmetry_Int_Tables_number   1
_chemical_formula_structural   Dy8Er8Sc3Si16Tc
_chemical_formula_sum   'Dy8 Er8 Sc3 Si16 Tc1'
_cell_volume   774.10304234
_cell_formula_units_Z   1
loop_
 _symmetry_equiv_pos_site_id
 _symmetry_equiv_pos_as_xyz
  1  'x, y, z'
loop_
 _atom_site_type_symbol
 _atom_site_label
 _atom_site_symmetry_multiplicity
 _atom_site_fract_x
 _atom_site_fract_y
 _atom_site_fract_z
 _atom_site_occupancy
  Dy  Dy0  1  0.020316  0.183672  0.093469  1
  Dy  Dy1  1  0.985160  0.811757  0.899938  1
  Dy  Dy2  1  0.479714  0.678825  0.903308  1
  Dy  Dy3  1  0.985160  0.811757  0.600062  1
  Dy  Dy4  1  0.520973  0.315876  0.096154  1
  Dy  Dy5  1  0.020316  0.183672  0.406531  1
  Dy  Dy6  1  0.520973  0.315876  0.403846  1
  Dy  Dy7  1  0.479714  0.678825  0.596692  1
  Er  Er8  1  0.317181  0.179850  0.629106  1
  Er  Er9  1  0.682102  0.824087  0.374630  1
  Er  Er10  1  0.180110  0.674254  0.376351  1
  Er  Er11  1  0.682102  0.824087  0.125370  1
  Er  Er12  1  0.819104  0.329448  0.630125  1
  Er  Er13  1  0.317181  0.179850  0.870894  1
  Er  Er14  1  0.819104  0.329448  0.869875  1
  Er  Er15  1  0.180110  0.674254  0.123649  1
  Sc  Sc16  1  0.849069  0.486137  0.250000  1
  Sc  Sc17  1  0.349324  0.014364  0.250000  1
  Sc  Sc18  1  0.648309  0.980328  0.750000  1
  Si  Si19  1  0.012019  0.087674  0.750000  1
  Si  Si20  1  0.987381  0.905558  0.250000  1
  Si  Si21  1  0.483550  0.598085  0.250000  1
  Si  Si22  1  0.501756  0.418731  0.750000  1
  Si  Si23  1  0.275187  0.851580  0.750000  1
  Si  Si24  1  0.726751  0.137066  0.250000  1
  Si  Si25  1  0.222678  0.364249  0.250000  1
  Si  Si26  1  0.783835  0.635878  0.750000  1
  Si  Si27  1  0.150890  0.473133  0.549348  1
  Si  Si28  1  0.847410  0.530638  0.462782  1
  Si  Si29  1  0.349723  0.969750  0.462317  1
  Si  Si30  1  0.847410  0.530638  0.037218  1
  Si  Si31  1  0.653803  0.030866  0.541336  1
  Si  Si32  1  0.150890  0.473133  0.950652  1
  Si  Si33  1  0.653803  0.030866  0.958664  1
  Si  Si34  1  0.349723  0.969750  0.037683  1
  Tc  Tc35  1  0.147172  0.516043  0.750000  1
