# generated using pymatgen
data_Tb3Ho3Al24Os5Pt3
_symmetry_space_group_name_H-M   'P 1'
_cell_length_a   8.82197797
_cell_length_b   8.84173714
_cell_length_c   9.54930869
_cell_angle_alpha   90.15870688
_cell_angle_beta   89.73723352
_cell_angle_gamma   119.51645449
_symmetry_Int_Tables_number   1
_chemical_formula_structural   Tb3Ho3Al24Os5Pt3
_chemical_formula_sum   'Tb3 Ho3 Al24 Os5 Pt3'
_cell_volume   648.18211912
_cell_formula_units_Z   1
loop_
 _symmetry_equiv_pos_site_id
 _symmetry_equiv_pos_as_xyz
  1  'x, y, z'
loop_
 _atom_site_type_symbol
 _atom_site_label
 _atom_site_symmetry_multiplicity
 _atom_site_fract_x
 _atom_site_fract_y
 _atom_site_fract_z
 _atom_site_occupancy
  Tb  Tb0  1  0.187454  0.382521  0.250835  1
  Tb  Tb1  1  0.812449  0.617546  0.749201  1
  Tb  Tb2  1  0.614396  0.813858  0.252229  1
  Ho  Ho3  1  0.387383  0.186151  0.747597  1
  Ho  Ho4  1  0.195396  0.808462  0.251754  1
  Ho  Ho5  1  0.804206  0.191507  0.748273  1
  Al  Al6  1  0.334949  0.671376  0.029073  1
  Al  Al7  1  0.664672  0.328593  0.970329  1
  Al  Al8  1  0.669073  0.331254  0.528067  1
  Al  Al9  1  0.330642  0.668765  0.472466  1
  Al  Al10  1  0.158026  0.325444  0.575355  1
  Al  Al11  1  0.842095  0.674305  0.425030  1
  Al  Al12  1  0.673170  0.840805  0.575834  1
  Al  Al13  1  0.836969  0.675993  0.077895  1
  Al  Al14  1  0.326718  0.159189  0.424787  1
  Al  Al15  1  0.163193  0.323752  0.921711  1
  Al  Al16  1  0.163931  0.835155  0.576192  1
  Al  Al17  1  0.325590  0.158672  0.076028  1
  Al  Al18  1  0.836051  0.165120  0.424195  1
  Al  Al19  1  0.674347  0.841339  0.923385  1
  Al  Al20  1  0.831519  0.159498  0.077428  1
  Al  Al21  1  0.168526  0.840888  0.922172  1
  Al  Al22  1  0.560467  0.124863  0.249939  1
  Al  Al23  1  0.439178  0.875246  0.750148  1
  Al  Al24  1  0.873959  0.437856  0.252741  1
  Al  Al25  1  0.125961  0.562051  0.747366  1
  Al  Al26  1  0.562497  0.436166  0.249846  1
  Al  Al27  1  0.437279  0.563200  0.750180  1
  Al  Al28  1  0.999130  0.002372  0.250215  1
  Al  Al29  1  0.001948  0.998281  0.749723  1
  Os  Os30  1  0.499795  0.000336  0.999593  1
  Os  Os31  1  0.499725  0.000172  0.500353  1
  Os  Os32  1  0.999919  0.499979  0.500079  1
  Os  Os33  1  0.999964  0.999973  0.999945  1
  Os  Os34  1  0.999900  0.999925  0.500034  1
  Pt  Pt35  1  0.999875  0.499942  0.999981  1
  Pt  Pt36  1  0.499838  0.499730  0.999809  1
  Pt  Pt37  1  0.499810  0.499714  0.500212  1
