# generated using pymatgen
data_Lu4CoSi4Ru3
_symmetry_space_group_name_H-M   'P 1'
_cell_length_a   4.21810100
_cell_length_b   6.82363654
_cell_length_c   7.08144781
_cell_angle_alpha   89.84117388
_cell_angle_beta   90.00000000
_cell_angle_gamma   90.00000000
_symmetry_Int_Tables_number   1
_chemical_formula_structural   Lu4CoSi4Ru3
_chemical_formula_sum   'Lu4 Co1 Si4 Ru3'
_cell_volume   203.82302893
_cell_formula_units_Z   1
loop_
 _symmetry_equiv_pos_site_id
 _symmetry_equiv_pos_as_xyz
  1  'x, y, z'
loop_
 _atom_site_type_symbol
 _atom_site_label
 _atom_site_symmetry_multiplicity
 _atom_site_fract_x
 _atom_site_fract_y
 _atom_site_fract_z
 _atom_site_occupancy
  Lu  Lu0  1  0.750000  0.012093  0.809212  1
  Lu  Lu1  1  0.250000  0.492161  0.315454  1
  Lu  Lu2  1  0.750000  0.513023  0.688373  1
  Lu  Lu3  1  0.250000  0.995137  0.191921  1
  Co  Co4  1  0.250000  0.150591  0.563071  1
  Si  Si5  1  0.750000  0.201946  0.399814  1
  Si  Si6  1  0.250000  0.294981  0.886245  1
  Si  Si7  1  0.750000  0.698633  0.106584  1
  Si  Si8  1  0.250000  0.805888  0.608276  1
  Ru  Ru9  1  0.750000  0.338773  0.063099  1
  Ru  Ru10  1  0.250000  0.652024  0.932344  1
  Ru  Ru11  1  0.750000  0.844749  0.435605  1
