# generated using pymatgen
data_AgMoOF4
_symmetry_space_group_name_H-M   'P 1'
_cell_length_a   5.20956200
_cell_length_b   5.96577307
_cell_length_c   14.60288692
_cell_angle_alpha   77.51390698
_cell_angle_beta   90.00000000
_cell_angle_gamma   90.00000000
_symmetry_Int_Tables_number   1
_chemical_formula_structural   AgMoOF4
_chemical_formula_sum   'Ag4 Mo4 O4 F16'
_cell_volume   443.10997973
_cell_formula_units_Z   4
loop_
 _symmetry_equiv_pos_site_id
 _symmetry_equiv_pos_as_xyz
  1  'x, y, z'
loop_
 _atom_site_type_symbol
 _atom_site_label
 _atom_site_symmetry_multiplicity
 _atom_site_fract_x
 _atom_site_fract_y
 _atom_site_fract_z
 _atom_site_occupancy
  Ag  Ag0  1  0.434616  0.659400  0.115397  1
  Ag  Ag1  1  0.934616  0.340600  0.384603  1
  Ag  Ag2  1  0.565384  0.340600  0.884603  1
  Ag  Ag3  1  0.065384  0.659400  0.615397  1
  Mo  Mo4  1  0.932373  0.166280  0.144826  1
  Mo  Mo5  1  0.432373  0.833720  0.355174  1
  Mo  Mo6  1  0.067627  0.833720  0.855174  1
  Mo  Mo7  1  0.567627  0.166280  0.644826  1
  O  O8  1  0.156579  0.351057  0.085701  1
  O  O9  1  0.656579  0.648943  0.414299  1
  O  O10  1  0.843421  0.648943  0.914299  1
  O  O11  1  0.343421  0.351057  0.585701  1
  F  F12  1  0.029472  0.870120  0.116786  1
  F  F13  1  0.529472  0.129880  0.383214  1
  F  F14  1  0.970528  0.129880  0.883214  1
  F  F15  1  0.470528  0.870120  0.616786  1
  F  F16  1  0.738352  0.389889  0.202096  1
  F  F17  1  0.238352  0.610111  0.297904  1
  F  F18  1  0.261648  0.610111  0.797904  1
  F  F19  1  0.761648  0.389889  0.702096  1
  F  F20  1  0.657803  0.183426  0.051528  1
  F  F21  1  0.157803  0.816574  0.448472  1
  F  F22  1  0.342197  0.816574  0.948472  1
  F  F23  1  0.842197  0.183426  0.551528  1
  F  F24  1  0.121483  0.071468  0.270125  1
  F  F25  1  0.621483  0.928532  0.229875  1
  F  F26  1  0.878517  0.928532  0.729875  1
  F  F27  1  0.378517  0.071468  0.770125  1
