# generated using pymatgen
data_Tb4Er12In6NiOs
_symmetry_space_group_name_H-M   'P 1'
_cell_length_a   10.34216800
_cell_length_b   10.34492191
_cell_length_c   7.00634907
_cell_angle_alpha   89.98968150
_cell_angle_beta   90.00000000
_cell_angle_gamma   119.99119427
_symmetry_Int_Tables_number   1
_chemical_formula_structural   Tb4Er12In6NiOs
_chemical_formula_sum   'Tb4 Er12 In6 Ni1 Os1'
_cell_volume   649.23171570
_cell_formula_units_Z   1
loop_
 _symmetry_equiv_pos_site_id
 _symmetry_equiv_pos_as_xyz
  1  'x, y, z'
loop_
 _atom_site_type_symbol
 _atom_site_label
 _atom_site_symmetry_multiplicity
 _atom_site_fract_x
 _atom_site_fract_y
 _atom_site_fract_z
 _atom_site_occupancy
  Tb  Tb0  1  0.532476  0.064951  0.791874  1
  Tb  Tb1  1  0.935328  0.467764  0.792997  1
  Tb  Tb2  1  0.532436  0.467764  0.792997  1
  Tb  Tb3  1  0.466063  0.932125  0.293025  1
  Er  Er4  1  0.068971  0.534504  0.294037  1
  Er  Er5  1  0.465533  0.534504  0.294037  1
  Er  Er6  1  0.822865  0.645730  0.496651  1
  Er  Er7  1  0.353891  0.177603  0.496842  1
  Er  Er8  1  0.823713  0.177603  0.496842  1
  Er  Er9  1  0.176689  0.353377  0.001087  1
  Er  Er10  1  0.646276  0.822741  0.000413  1
  Er  Er11  1  0.176465  0.822741  0.000413  1
  Er  Er12  1  0.667080  0.334161  0.180482  1
  Er  Er13  1  0.332829  0.665658  0.674871  1
  Er  Er14  1  0.000144  0.000286  0.776423  1
  Er  Er15  1  0.000149  0.000299  0.280530  1
  In  In16  1  0.836986  0.673974  0.039541  1
  In  In17  1  0.326639  0.163099  0.038980  1
  In  In18  1  0.836459  0.163099  0.038980  1
  In  In19  1  0.162451  0.324901  0.539927  1
  In  In20  1  0.675661  0.837637  0.540952  1
  In  In21  1  0.161978  0.837637  0.540952  1
  Ni  Ni22  1  0.666263  0.332526  0.564001  1
  Os  Os23  1  0.332655  0.665311  0.069054  1
