# generated using pymatgen
data_Ca7ScCr2N9
_symmetry_space_group_name_H-M   'P 1'
_cell_length_a   10.03784700
_cell_length_b   6.11898735
_cell_length_c   9.12655375
_cell_angle_alpha   88.11494973
_cell_angle_beta   90.00000000
_cell_angle_gamma   90.00000000
_symmetry_Int_Tables_number   1
_chemical_formula_structural   Ca7ScCr2N9
_chemical_formula_sum   'Ca14 Sc2 Cr4 N18'
_cell_volume   560.26288483
_cell_formula_units_Z   2
loop_
 _symmetry_equiv_pos_site_id
 _symmetry_equiv_pos_as_xyz
  1  'x, y, z'
loop_
 _atom_site_type_symbol
 _atom_site_label
 _atom_site_symmetry_multiplicity
 _atom_site_fract_x
 _atom_site_fract_y
 _atom_site_fract_z
 _atom_site_occupancy
  Ca  Ca0  1  0.930645  0.431209  0.176417  1
  Ca  Ca1  1  0.081065  0.242020  0.499044  1
  Ca  Ca2  1  0.250000  0.084448  0.793402  1
  Ca  Ca3  1  0.430645  0.568791  0.823583  1
  Ca  Ca4  1  0.581065  0.757980  0.500956  1
  Ca  Ca5  1  0.577950  0.060537  0.822844  1
  Ca  Ca6  1  0.922050  0.060537  0.822844  1
  Ca  Ca7  1  0.422050  0.939463  0.177156  1
  Ca  Ca8  1  0.418935  0.242020  0.499044  1
  Ca  Ca9  1  0.077950  0.939463  0.177156  1
  Ca  Ca10  1  0.918935  0.757980  0.500956  1
  Ca  Ca11  1  0.069355  0.568791  0.823583  1
  Ca  Ca12  1  0.750000  0.915552  0.206598  1
  Ca  Ca13  1  0.569355  0.431209  0.176417  1
  Sc  Sc14  1  0.750000  0.274770  0.441709  1
  Sc  Sc15  1  0.250000  0.725230  0.558291  1
  Cr  Cr16  1  0.250000  0.323059  0.064237  1
  Cr  Cr17  1  0.750000  0.462948  0.726668  1
  Cr  Cr18  1  0.750000  0.676941  0.935763  1
  Cr  Cr19  1  0.250000  0.537052  0.273332  1
  N  N20  1  0.397290  0.232160  0.985060  1
  N  N21  1  0.250000  0.229710  0.262121  1
  N  N22  1  0.913996  0.106814  0.335730  1
  N  N23  1  0.607650  0.375495  0.640455  1
  N  N24  1  0.750000  0.568954  0.331718  1
  N  N25  1  0.250000  0.629465  0.075363  1
  N  N26  1  0.892350  0.375495  0.640455  1
  N  N27  1  0.392350  0.624505  0.359545  1
  N  N28  1  0.750000  0.370535  0.924637  1
  N  N29  1  0.086004  0.893186  0.664270  1
  N  N30  1  0.750000  0.770290  0.737879  1
  N  N31  1  0.107650  0.624505  0.359545  1
  N  N32  1  0.602710  0.767840  0.014940  1
  N  N33  1  0.250000  0.431046  0.668282  1
  N  N34  1  0.413996  0.893186  0.664270  1
  N  N35  1  0.586004  0.106814  0.335730  1
  N  N36  1  0.102710  0.232160  0.985060  1
  N  N37  1  0.897290  0.767840  0.014940  1
