# generated using pymatgen
data_Sm3ErU4(ReB6)4
_symmetry_space_group_name_H-M   'P 1'
_cell_length_a   3.65972900
_cell_length_b   9.34032741
_cell_length_c   11.46306541
_cell_angle_alpha   89.94356766
_cell_angle_beta   90.00000000
_cell_angle_gamma   90.00000000
_symmetry_Int_Tables_number   1
_chemical_formula_structural   Sm3ErU4(ReB6)4
_chemical_formula_sum   'Sm3 Er1 U4 Re4 B24'
_cell_volume   391.84254395
_cell_formula_units_Z   1
loop_
 _symmetry_equiv_pos_site_id
 _symmetry_equiv_pos_as_xyz
  1  'x, y, z'
loop_
 _atom_site_type_symbol
 _atom_site_label
 _atom_site_symmetry_multiplicity
 _atom_site_fract_x
 _atom_site_fract_y
 _atom_site_fract_z
 _atom_site_occupancy
  Sm  Sm0  1  0.000000  0.663187  0.591983  1
  Sm  Sm1  1  0.000000  0.836568  0.092727  1
  Sm  Sm2  1  0.000000  0.163510  0.907665  1
  Er  Er3  1  0.000000  0.336458  0.407577  1
  U  U4  1  0.000000  0.957419  0.396023  1
  U  U5  1  0.000000  0.044125  0.603209  1
  U  U6  1  0.000000  0.456528  0.103834  1
  U  U7  1  0.000000  0.543213  0.896325  1
  Re  Re8  1  0.000000  0.644453  0.318363  1
  Re  Re9  1  0.000000  0.353550  0.681017  1
  Re  Re10  1  0.000000  0.147409  0.183171  1
  Re  Re11  1  0.000000  0.853599  0.817760  1
  B  B12  1  0.500000  0.550949  0.430206  1
  B  B13  1  0.500000  0.446215  0.568636  1
  B  B14  1  0.500000  0.054041  0.070834  1
  B  B15  1  0.500000  0.946447  0.929827  1
  B  B16  1  0.500000  0.743241  0.422206  1
  B  B17  1  0.500000  0.256804  0.576413  1
  B  B18  1  0.500000  0.244730  0.078623  1
  B  B19  1  0.500000  0.755534  0.922184  1
  B  B20  1  0.500000  0.801250  0.275797  1
  B  B21  1  0.500000  0.198354  0.723856  1
  B  B22  1  0.500000  0.302800  0.225879  1
  B  B23  1  0.500000  0.697940  0.775196  1
  B  B24  1  0.500000  0.642713  0.189072  1
  B  B25  1  0.500000  0.356076  0.811250  1
  B  B26  1  0.500000  0.145561  0.312303  1
  B  B27  1  0.500000  0.856267  0.688118  1
  B  B28  1  0.500000  0.991132  0.221026  1
  B  B29  1  0.500000  0.009515  0.779259  1
  B  B30  1  0.500000  0.488465  0.280761  1
  B  B31  1  0.500000  0.509125  0.719810  1
  B  B32  1  0.500000  0.637170  0.038236  1
  B  B33  1  0.500000  0.362448  0.962092  1
  B  B34  1  0.500000  0.140923  0.461104  1
  B  B35  1  0.500000  0.862284  0.537657  1
