# generated using pymatgen
data_Dy12Ga9Si9Ge2
_symmetry_space_group_name_H-M   'P 1'
_cell_length_a   5.96223831
_cell_length_b   5.96223666
_cell_length_c   18.63979600
_cell_angle_alpha   90.00000000
_cell_angle_beta   90.00000000
_cell_angle_gamma   102.79360676
_symmetry_Int_Tables_number   1
_chemical_formula_structural   Dy12Ga9Si9Ge2
_chemical_formula_sum   'Dy12 Ga9 Si9 Ge2'
_cell_volume   646.16263560
_cell_formula_units_Z   1
loop_
 _symmetry_equiv_pos_site_id
 _symmetry_equiv_pos_as_xyz
  1  'x, y, z'
loop_
 _atom_site_type_symbol
 _atom_site_label
 _atom_site_symmetry_multiplicity
 _atom_site_fract_x
 _atom_site_fract_y
 _atom_site_fract_z
 _atom_site_occupancy
  Dy  Dy0  1  0.652704  0.652704  0.000000  1
  Dy  Dy1  1  0.660848  0.660849  0.500000  1
  Dy  Dy2  1  0.339929  0.339929  0.250436  1
  Dy  Dy3  1  0.339929  0.339929  0.749564  1
  Dy  Dy4  1  0.200819  0.801561  0.128118  1
  Dy  Dy5  1  0.198931  0.801471  0.625088  1
  Dy  Dy6  1  0.200819  0.801561  0.871882  1
  Dy  Dy7  1  0.198931  0.801471  0.374912  1
  Dy  Dy8  1  0.801561  0.200819  0.128118  1
  Dy  Dy9  1  0.801471  0.198930  0.625088  1
  Dy  Dy10  1  0.801471  0.198930  0.374912  1
  Dy  Dy11  1  0.801561  0.200819  0.871882  1
  Ga  Ga12  1  0.317241  0.317241  0.902440  1
  Ga  Ga13  1  0.323274  0.323274  0.402445  1
  Ga  Ga14  1  0.677931  0.677931  0.347801  1
  Ga  Ga15  1  0.677910  0.677910  0.847479  1
  Ga  Ga16  1  0.317241  0.317241  0.097560  1
  Ga  Ga17  1  0.323274  0.323274  0.597555  1
  Ga  Ga18  1  0.677910  0.677910  0.152521  1
  Ga  Ga19  1  0.677931  0.677931  0.652199  1
  Ga  Ga20  1  0.038940  0.038941  0.000000  1
  Si  Si21  1  0.483040  0.088846  0.500000  1
  Si  Si22  1  0.912791  0.518547  0.250549  1
  Si  Si23  1  0.912791  0.518547  0.749451  1
  Si  Si24  1  0.518547  0.912791  0.250549  1
  Si  Si25  1  0.518547  0.912791  0.749451  1
  Si  Si26  1  0.088847  0.483041  0.500000  1
  Si  Si27  1  0.052937  0.052937  0.500000  1
  Si  Si28  1  0.948425  0.948425  0.250829  1
  Si  Si29  1  0.948425  0.948425  0.749171  1
  Ge  Ge30  1  0.497693  0.087331  0.000000  1
  Ge  Ge31  1  0.087331  0.497693  0.000000  1
