# generated using pymatgen
data_Ca5Co16(P4W)3
_symmetry_space_group_name_H-M   'P 1'
_cell_length_a   12.08568700
_cell_length_b   12.08568628
_cell_length_c   3.71353200
_cell_angle_alpha   90.00000000
_cell_angle_beta   90.00000000
_cell_angle_gamma   119.99999376
_symmetry_Int_Tables_number   1
_chemical_formula_structural   Ca5Co16(P4W)3
_chemical_formula_sum   'Ca5 Co16 P12 W3'
_cell_volume   469.74318583
_cell_formula_units_Z   1
loop_
 _symmetry_equiv_pos_site_id
 _symmetry_equiv_pos_as_xyz
  1  'x, y, z'
loop_
 _atom_site_type_symbol
 _atom_site_label
 _atom_site_symmetry_multiplicity
 _atom_site_fract_x
 _atom_site_fract_y
 _atom_site_fract_z
 _atom_site_occupancy
  Ca  Ca0  1  0.666667  0.333333  0.000000  1
  Ca  Ca1  1  0.333333  0.666667  0.000000  1
  Ca  Ca2  1  0.182984  0.182984  0.500000  1
  Ca  Ca3  1  0.817016  0.000000  0.500000  1
  Ca  Ca4  1  0.000000  0.817016  0.500000  1
  Co  Co5  1  0.822499  0.198872  0.000000  1
  Co  Co6  1  0.801128  0.623627  0.000000  1
  Co  Co7  1  0.376373  0.177501  0.000000  1
  Co  Co8  1  0.198872  0.822499  0.000000  1
  Co  Co9  1  0.623627  0.801128  0.000000  1
  Co  Co10  1  0.177501  0.376373  0.000000  1
  Co  Co11  1  0.645057  0.125886  0.500000  1
  Co  Co12  1  0.874114  0.519170  0.500000  1
  Co  Co13  1  0.480830  0.354943  0.500000  1
  Co  Co14  1  0.125886  0.645057  0.500000  1
  Co  Co15  1  0.519170  0.874114  0.500000  1
  Co  Co16  1  0.354943  0.480830  0.500000  1
  Co  Co17  1  0.718434  0.718434  0.500000  1
  Co  Co18  1  0.281566  0.000000  0.500000  1
  Co  Co19  1  0.000000  0.281566  0.500000  1
  Co  Co20  1  0.000000  0.000000  0.000000  1
  P  P21  1  0.359599  0.359599  0.000000  1
  P  P22  1  0.640401  0.000000  0.000000  1
  P  P23  1  0.000000  0.640401  0.000000  1
  P  P24  1  0.834185  0.313961  0.500000  1
  P  P25  1  0.686039  0.520225  0.500000  1
  P  P26  1  0.479775  0.165815  0.500000  1
  P  P27  1  0.313961  0.834185  0.500000  1
  P  P28  1  0.520225  0.686039  0.500000  1
  P  P29  1  0.165815  0.479775  0.500000  1
  P  P30  1  0.819887  0.819887  0.000000  1
  P  P31  1  0.180113  0.000000  0.000000  1
  P  P32  1  0.000000  0.180113  0.000000  1
  W  W33  1  0.555152  0.555152  0.000000  1
  W  W34  1  0.444848  0.000000  0.000000  1
  W  W35  1  0.000000  0.444848  0.000000  1
