# generated using pymatgen
data_HoHf5(ZnRh2)6
_symmetry_space_group_name_H-M   'P 1'
_cell_length_a   4.48762400
_cell_length_b   6.28681000
_cell_length_c   13.39261700
_cell_angle_alpha   90.00032662
_cell_angle_beta   90.00122462
_cell_angle_gamma   89.99956422
_symmetry_Int_Tables_number   1
_chemical_formula_structural   HoHf5(ZnRh2)6
_chemical_formula_sum   'Ho1 Hf5 Zn6 Rh12'
_cell_volume   377.84375304
_cell_formula_units_Z   1
loop_
 _symmetry_equiv_pos_site_id
 _symmetry_equiv_pos_as_xyz
  1  'x, y, z'
loop_
 _atom_site_type_symbol
 _atom_site_label
 _atom_site_symmetry_multiplicity
 _atom_site_fract_x
 _atom_site_fract_y
 _atom_site_fract_z
 _atom_site_occupancy
  Ho  Ho0  1  0.000000  0.500001  0.000000  1
  Hf  Hf1  1  0.499823  0.000000  0.166994  1
  Hf  Hf2  1  0.999825  0.500004  0.333587  1
  Hf  Hf3  1  0.500000  0.000000  0.500000  1
  Hf  Hf4  1  0.000175  0.499998  0.666413  1
  Hf  Hf5  1  0.500177  0.000000  0.833006  1
  Zn  Zn6  1  0.000000  0.000000  0.000000  1
  Zn  Zn7  1  0.499804  0.500001  0.167202  1
  Zn  Zn8  1  0.999793  0.000000  0.334318  1
  Zn  Zn9  1  0.500000  0.500001  0.500000  1
  Zn  Zn10  1  0.000206  0.000000  0.665681  1
  Zn  Zn11  1  0.500195  0.500001  0.832798  1
  Rh  Rh12  1  0.500005  0.240318  0.000000  1
  Rh  Rh13  1  0.499995  0.759683  0.000000  1
  Rh  Rh14  1  0.999819  0.245489  0.171008  1
  Rh  Rh15  1  0.999817  0.754512  0.171008  1
  Rh  Rh16  1  0.499811  0.250348  0.333995  1
  Rh  Rh17  1  0.499816  0.749651  0.333995  1
  Rh  Rh18  1  0.000001  0.249877  0.499999  1
  Rh  Rh19  1  0.999999  0.750124  0.500001  1
  Rh  Rh20  1  0.500184  0.250350  0.666005  1
  Rh  Rh21  1  0.500189  0.749653  0.666005  1
  Rh  Rh22  1  0.000183  0.245488  0.828992  1
  Rh  Rh23  1  0.000181  0.754511  0.828992  1
