# generated using pymatgen
data_Zr8In4IrAu7
_symmetry_space_group_name_H-M   'P 1'
_cell_length_a   7.62746973
_cell_length_b   7.62746973
_cell_length_c   7.13012392
_cell_angle_alpha   90.17015754
_cell_angle_beta   90.17015754
_cell_angle_gamma   90.06964429
_symmetry_Int_Tables_number   1
_chemical_formula_structural   Zr8In4IrAu7
_chemical_formula_sum   'Zr8 In4 Ir1 Au7'
_cell_volume   414.81447934
_cell_formula_units_Z   1
loop_
 _symmetry_equiv_pos_site_id
 _symmetry_equiv_pos_as_xyz
  1  'x, y, z'
loop_
 _atom_site_type_symbol
 _atom_site_label
 _atom_site_symmetry_multiplicity
 _atom_site_fract_x
 _atom_site_fract_y
 _atom_site_fract_z
 _atom_site_occupancy
  Zr  Zr0  1  0.153957  0.153957  0.009752  1
  Zr  Zr1  1  0.856067  0.856067  0.997648  1
  Zr  Zr2  1  0.636855  0.348645  0.489993  1
  Zr  Zr3  1  0.348645  0.636855  0.489993  1
  Zr  Zr4  1  0.684542  0.304395  0.006408  1
  Zr  Zr5  1  0.304395  0.684542  0.006408  1
  Zr  Zr6  1  0.805722  0.805722  0.499894  1
  Zr  Zr7  1  0.201624  0.201624  0.491337  1
  In  In8  1  0.499704  0.002902  0.247499  1
  In  In9  1  0.499179  0.998027  0.749202  1
  In  In10  1  0.002902  0.499704  0.247499  1
  In  In11  1  0.998027  0.499179  0.749202  1
  Ir  Ir12  1  0.371298  0.371298  0.216386  1
  Au  Au13  1  0.629709  0.629709  0.790966  1
  Au  Au14  1  0.632489  0.632489  0.202894  1
  Au  Au15  1  0.870718  0.132582  0.707923  1
  Au  Au16  1  0.871342  0.130133  0.295693  1
  Au  Au17  1  0.370108  0.370108  0.797688  1
  Au  Au18  1  0.130133  0.871342  0.295693  1
  Au  Au19  1  0.132582  0.870718  0.707923  1
