# generated using pymatgen
data_Na3Ag2(PO3)6
_symmetry_space_group_name_H-M   'P 1'
_cell_length_a   7.98846186
_cell_length_b   7.75537395
_cell_length_c   7.79878026
_cell_angle_alpha   116.56388905
_cell_angle_beta   103.47676938
_cell_angle_gamma   98.58947064
_symmetry_Int_Tables_number   1
_chemical_formula_structural   Na3Ag2(PO3)6
_chemical_formula_sum   'Na3 Ag2 P6 O18'
_cell_volume   402.00276098
_cell_formula_units_Z   1
loop_
 _symmetry_equiv_pos_site_id
 _symmetry_equiv_pos_as_xyz
  1  'x, y, z'
loop_
 _atom_site_type_symbol
 _atom_site_label
 _atom_site_symmetry_multiplicity
 _atom_site_fract_x
 _atom_site_fract_y
 _atom_site_fract_z
 _atom_site_occupancy
  Na  Na0  1  0.322413  0.664827  0.492394  1
  Na  Na1  1  0.677587  0.335173  0.507606  1
  Na  Na2  1  0.000000  0.500000  0.000000  1
  Ag  Ag3  1  0.350541  0.200396  0.035069  1
  Ag  Ag4  1  0.649459  0.799604  0.964931  1
  P  P5  1  0.010374  0.215476  0.288453  1
  P  P6  1  0.989626  0.784524  0.711547  1
  P  P7  1  0.284856  0.340100  0.678586  1
  P  P8  1  0.715144  0.659900  0.321414  1
  P  P9  1  0.731298  0.012840  0.692783  1
  P  P10  1  0.268702  0.987160  0.307217  1
  O  O11  1  0.087652  0.315850  0.536785  1
  O  O12  1  0.912348  0.684150  0.463215  1
  O  O13  1  0.242668  0.773304  0.254066  1
  O  O14  1  0.757332  0.226696  0.745934  1
  O  O15  1  0.808681  0.144918  0.224130  1
  O  O16  1  0.191319  0.855082  0.775870  1
  O  O17  1  0.264406  0.363514  0.873931  1
  O  O18  1  0.735594  0.636486  0.126069  1
  O  O19  1  0.573804  0.503991  0.317192  1
  O  O20  1  0.426196  0.496009  0.682808  1
  O  O21  1  0.308923  0.118760  0.552127  1
  O  O22  1  0.691077  0.881240  0.447873  1
  O  O23  1  0.410719  0.088836  0.255996  1
  O  O24  1  0.589281  0.911164  0.744004  1
  O  O25  1  0.100791  0.355171  0.230906  1
  O  O26  1  0.899209  0.644829  0.769094  1
  O  O27  1  0.076316  0.013009  0.214730  1
  O  O28  1  0.923684  0.986991  0.785270  1
