# generated using pymatgen
data_Pa(CrB3)2
_symmetry_space_group_name_H-M   'P 1'
_cell_length_a   5.47914725
_cell_length_b   5.47914780
_cell_length_c   5.47914834
_cell_angle_alpha   147.41448248
_cell_angle_beta   107.84517080
_cell_angle_gamma   81.42902286
_symmetry_Int_Tables_number   1
_chemical_formula_structural   Pa(CrB3)2
_chemical_formula_sum   'Pa1 Cr2 B6'
_cell_volume   82.39083730
_cell_formula_units_Z   1
loop_
 _symmetry_equiv_pos_site_id
 _symmetry_equiv_pos_as_xyz
  1  'x, y, z'
loop_
 _atom_site_type_symbol
 _atom_site_label
 _atom_site_symmetry_multiplicity
 _atom_site_fract_x
 _atom_site_fract_y
 _atom_site_fract_z
 _atom_site_occupancy
  Pa  Pa0  1  0.500000  0.000000  0.500000  1
  Cr  Cr1  1  0.844522  0.844522  0.000000  1
  Cr  Cr2  1  0.155478  0.155478  0.000000  1
  B  B3  1  0.144750  0.500000  0.644750  1
  B  B4  1  0.855250  0.500000  0.355250  1
  B  B5  1  0.434896  0.695310  0.739586  1
  B  B6  1  0.044276  0.304690  0.739586  1
  B  B7  1  0.955724  0.695310  0.260414  1
  B  B8  1  0.565104  0.304690  0.260414  1
