# generated using pymatgen
data_Tb3Mg3Ge2Rh
_symmetry_space_group_name_H-M   'P 1'
_cell_length_a   7.22774300
_cell_length_b   7.22774271
_cell_length_c   4.32091700
_cell_angle_alpha   90.00000000
_cell_angle_beta   90.00000000
_cell_angle_gamma   119.99999677
_symmetry_Int_Tables_number   1
_chemical_formula_structural   Tb3Mg3Ge2Rh
_chemical_formula_sum   'Tb3 Mg3 Ge2 Rh1'
_cell_volume   195.48433257
_cell_formula_units_Z   1
loop_
 _symmetry_equiv_pos_site_id
 _symmetry_equiv_pos_as_xyz
  1  'x, y, z'
loop_
 _atom_site_type_symbol
 _atom_site_label
 _atom_site_symmetry_multiplicity
 _atom_site_fract_x
 _atom_site_fract_y
 _atom_site_fract_z
 _atom_site_occupancy
  Tb  Tb0  1  0.410875  0.000000  0.000000  1
  Tb  Tb1  1  0.000000  0.410875  0.000000  1
  Tb  Tb2  1  0.589125  0.589125  0.000000  1
  Mg  Mg3  1  0.761057  0.000000  0.500001  1
  Mg  Mg4  1  0.238944  0.238944  0.500001  1
  Mg  Mg5  1  0.000000  0.761057  0.500001  1
  Ge  Ge6  1  0.666666  0.333334  0.500001  1
  Ge  Ge7  1  0.333333  0.666666  0.500001  1
  Rh  Rh8  1  0.000000  0.000000  0.000000  1
