# generated using pymatgen
data_Nb2TeCS
_symmetry_space_group_name_H-M   'P 1'
_cell_length_a   9.94077479
_cell_length_b   9.94077425
_cell_length_c   9.94077351
_cell_angle_alpha   19.50648096
_cell_angle_beta   19.50648615
_cell_angle_gamma   19.50648319
_symmetry_Int_Tables_number   1
_chemical_formula_structural   Nb2TeCS
_chemical_formula_sum   'Nb2 Te1 C1 S1'
_cell_volume   95.77076325
_cell_formula_units_Z   1
loop_
 _symmetry_equiv_pos_site_id
 _symmetry_equiv_pos_as_xyz
  1  'x, y, z'
loop_
 _atom_site_type_symbol
 _atom_site_label
 _atom_site_symmetry_multiplicity
 _atom_site_fract_x
 _atom_site_fract_y
 _atom_site_fract_z
 _atom_site_occupancy
  Nb  Nb0  1  0.623716  0.623716  0.623716  1
  Nb  Nb1  1  0.368252  0.368252  0.368252  1
  Te  Te2  1  0.774284  0.774284  0.774284  1
  C  C3  1  0.998060  0.998060  0.998060  1
  S  S4  1  0.235689  0.235689  0.235689  1
