# generated using pymatgen
data_Ho4Sc16Bi7Sb5
_symmetry_space_group_name_H-M   'P 1'
_cell_length_a   7.79624309
_cell_length_b   8.99322423
_cell_length_c   11.46697268
_cell_angle_alpha   90.02084607
_cell_angle_beta   89.94145307
_cell_angle_gamma   90.01518241
_symmetry_Int_Tables_number   1
_chemical_formula_structural   Ho4Sc16Bi7Sb5
_chemical_formula_sum   'Ho4 Sc16 Bi7 Sb5'
_cell_volume   803.98750824
_cell_formula_units_Z   1
loop_
 _symmetry_equiv_pos_site_id
 _symmetry_equiv_pos_as_xyz
  1  'x, y, z'
loop_
 _atom_site_type_symbol
 _atom_site_label
 _atom_site_symmetry_multiplicity
 _atom_site_fract_x
 _atom_site_fract_y
 _atom_site_fract_z
 _atom_site_occupancy
  Ho  Ho0  1  0.319457  0.248133  0.219083  1
  Ho  Ho1  1  0.815776  0.247393  0.282059  1
  Ho  Ho2  1  0.681947  0.750003  0.781563  1
  Ho  Ho3  1  0.182027  0.749942  0.718264  1
  Sc  Sc4  1  0.352200  0.752405  0.218704  1
  Sc  Sc5  1  0.847867  0.751917  0.282570  1
  Sc  Sc6  1  0.649963  0.250013  0.782213  1
  Sc  Sc7  1  0.150063  0.250008  0.717733  1
  Sc  Sc8  1  0.689593  0.565669  0.060866  1
  Sc  Sc9  1  0.191754  0.934873  0.438479  1
  Sc  Sc10  1  0.310446  0.065551  0.939138  1
  Sc  Sc11  1  0.810330  0.434285  0.560815  1
  Sc  Sc12  1  0.310542  0.434294  0.939197  1
  Sc  Sc13  1  0.809324  0.065112  0.559624  1
  Sc  Sc14  1  0.688670  0.934761  0.062628  1
  Sc  Sc15  1  0.189708  0.565677  0.439116  1
  Sc  Sc16  1  0.479196  0.247952  0.487523  1
  Sc  Sc17  1  0.978612  0.249976  0.011419  1
  Sc  Sc18  1  0.521912  0.752181  0.509658  1
  Sc  Sc19  1  0.021346  0.750047  0.988785  1
  Bi  Bi20  1  0.064637  0.509498  0.171950  1
  Bi  Bi21  1  0.435574  0.490420  0.671442  1
  Bi  Bi22  1  0.935368  0.009566  0.828214  1
  Bi  Bi23  1  0.435405  0.009581  0.671876  1
  Bi  Bi24  1  0.935402  0.490414  0.828235  1
  Bi  Bi25  1  0.564553  0.509503  0.328220  1
  Bi  Bi26  1  0.064599  0.990405  0.171659  1
  Sb  Sb27  1  0.402586  0.750006  0.966865  1
  Sb  Sb28  1  0.902939  0.750017  0.533232  1
  Sb  Sb29  1  0.597386  0.250006  0.033137  1
  Sb  Sb30  1  0.097189  0.249948  0.466698  1
  Sb  Sb31  1  0.563631  0.990443  0.329033  1
