# generated using pymatgen
data_La4IrPdAu2
_symmetry_space_group_name_H-M   'P 1'
_cell_length_a   4.78657600
_cell_length_b   5.87111481
_cell_length_c   7.52709687
_cell_angle_alpha   92.66210352
_cell_angle_beta   90.00000000
_cell_angle_gamma   90.00000000
_symmetry_Int_Tables_number   1
_chemical_formula_structural   La4IrPdAu2
_chemical_formula_sum   'La4 Ir1 Pd1 Au2'
_cell_volume   211.30223920
_cell_formula_units_Z   1
loop_
 _symmetry_equiv_pos_site_id
 _symmetry_equiv_pos_as_xyz
  1  'x, y, z'
loop_
 _atom_site_type_symbol
 _atom_site_label
 _atom_site_symmetry_multiplicity
 _atom_site_fract_x
 _atom_site_fract_y
 _atom_site_fract_z
 _atom_site_occupancy
  La  La0  1  0.250000  0.638979  0.173839  1
  La  La1  1  0.750000  0.343924  0.830573  1
  La  La2  1  0.750000  0.141929  0.295238  1
  La  La3  1  0.250000  0.862860  0.700426  1
  Ir  Ir4  1  0.250000  0.171134  0.042082  1
  Pd  Pd5  1  0.750000  0.839430  0.955436  1
  Au  Au6  1  0.750000  0.651907  0.461960  1
  Au  Au7  1  0.250000  0.349837  0.540447  1
