# generated using pymatgen
data_Dy3(PtAu4)2
_symmetry_space_group_name_H-M   'P 1'
_cell_length_a   10.81544570
_cell_length_b   10.79434289
_cell_length_c   5.01540800
_cell_angle_alpha   90.00000000
_cell_angle_beta   90.00000000
_cell_angle_gamma   120.15964710
_symmetry_Int_Tables_number   1
_chemical_formula_structural   Dy3(PtAu4)2
_chemical_formula_sum   'Dy6 Pt4 Au16'
_cell_volume   506.26351133
_cell_formula_units_Z   2
loop_
 _symmetry_equiv_pos_site_id
 _symmetry_equiv_pos_as_xyz
  1  'x, y, z'
loop_
 _atom_site_type_symbol
 _atom_site_label
 _atom_site_symmetry_multiplicity
 _atom_site_fract_x
 _atom_site_fract_y
 _atom_site_fract_z
 _atom_site_occupancy
  Dy  Dy0  1  0.651768  0.752219  0.250000  1
  Dy  Dy1  1  0.243508  0.900645  0.250000  1
  Dy  Dy2  1  0.100618  0.347796  0.250000  1
  Dy  Dy3  1  0.349893  0.244630  0.750000  1
  Dy  Dy4  1  0.748486  0.101702  0.750000  1
  Dy  Dy5  1  0.903337  0.652893  0.750000  1
  Pt  Pt6  1  0.877335  0.051812  0.250000  1
  Pt  Pt7  1  0.948327  0.829767  0.250000  1
  Pt  Pt8  1  0.169624  0.120052  0.250000  1
  Pt  Pt9  1  0.123390  0.949209  0.750000  1
  Au  Au10  1  0.051651  0.172281  0.750000  1
  Au  Au11  1  0.828450  0.877892  0.750000  1
  Au  Au12  1  0.565595  0.978222  0.250000  1
  Au  Au13  1  0.021220  0.586866  0.250000  1
  Au  Au14  1  0.411129  0.431575  0.250000  1
  Au  Au15  1  0.434570  0.020705  0.750000  1
  Au  Au16  1  0.979536  0.413925  0.750000  1
  Au  Au17  1  0.585856  0.562744  0.750000  1
  Au  Au18  1  0.794141  0.279615  0.250000  1
  Au  Au19  1  0.721231  0.515408  0.250000  1
  Au  Au20  1  0.487782  0.206859  0.250000  1
  Au  Au21  1  0.207243  0.719535  0.750000  1
  Au  Au22  1  0.281901  0.489204  0.750000  1
  Au  Au23  1  0.512388  0.792493  0.750000  1
  Au  Au24  1  0.667652  0.334389  0.750000  1
  Au  Au25  1  0.333369  0.667564  0.250000  1
