# generated using pymatgen
data_Ba8FeMo3O16
_symmetry_space_group_name_H-M   'P 1'
_cell_length_a   5.75411910
_cell_length_b   9.34237688
_cell_length_c   9.34237500
_cell_angle_alpha   87.08786773
_cell_angle_beta   71.99499109
_cell_angle_gamma   108.00657864
_symmetry_Int_Tables_number   1
_chemical_formula_structural   Ba8FeMo3O16
_chemical_formula_sum   'Ba8 Fe1 Mo3 O16'
_cell_volume   448.24547143
_cell_formula_units_Z   1
loop_
 _symmetry_equiv_pos_site_id
 _symmetry_equiv_pos_as_xyz
  1  'x, y, z'
loop_
 _atom_site_type_symbol
 _atom_site_label
 _atom_site_symmetry_multiplicity
 _atom_site_fract_x
 _atom_site_fract_y
 _atom_site_fract_z
 _atom_site_occupancy
  Ba  Ba0  1  0.257665  0.404668  0.889292  1
  Ba  Ba1  1  0.000029  0.643661  0.643651  1
  Ba  Ba2  1  0.742362  0.889310  0.404666  1
  Ba  Ba3  1  0.499976  0.149657  0.149649  1
  Ba  Ba4  1  0.000011  0.356332  0.356347  1
  Ba  Ba5  1  0.742346  0.595340  0.110685  1
  Ba  Ba6  1  0.499959  0.850336  0.850365  1
  Ba  Ba7  1  0.257654  0.110708  0.595328  1
  Fe  Fe8  1  0.500157  0.500061  0.499940  1
  Mo  Mo9  1  0.249015  0.749030  0.250978  1
  Mo  Mo10  1  0.999922  0.999924  0.000082  1
  Mo  Mo11  1  0.750933  0.250976  0.749014  1
  O  O12  1  0.251629  0.592732  0.089346  1
  O  O13  1  0.999922  0.854045  0.854132  1
  O  O14  1  0.748427  0.089450  0.592687  1
  O  O15  1  0.499994  0.345322  0.345350  1
  O  O16  1  0.000019  0.145957  0.145872  1
  O  O17  1  0.748334  0.407226  0.910626  1
  O  O18  1  0.500116  0.654703  0.654620  1
  O  O19  1  0.251543  0.910560  0.407370  1
  O  O20  1  0.874240  0.123346  0.876601  1
  O  O21  1  0.626204  0.374201  0.625823  1
  O  O22  1  0.373845  0.625752  0.374214  1
  O  O23  1  0.125642  0.876688  0.123373  1
  O  O24  1  0.373062  0.123043  0.876888  1
  O  O25  1  0.122446  0.374640  0.625420  1
  O  O26  1  0.877547  0.625315  0.374614  1
  O  O27  1  0.626999  0.877016  0.123064  1
