# generated using pymatgen
data_Ho9ZrTl6(InRh2)2
_symmetry_space_group_name_H-M   'P 1'
_cell_length_a   3.61156600
_cell_length_b   8.06889212
_cell_length_c   18.29068482
_cell_angle_alpha   90.10962376
_cell_angle_beta   90.00000000
_cell_angle_gamma   90.00000000
_symmetry_Int_Tables_number   1
_chemical_formula_structural   Ho9ZrTl6(InRh2)2
_chemical_formula_sum   'Ho9 Zr1 Tl6 In2 Rh4'
_cell_volume   533.01402402
_cell_formula_units_Z   1
loop_
 _symmetry_equiv_pos_site_id
 _symmetry_equiv_pos_as_xyz
  1  'x, y, z'
loop_
 _atom_site_type_symbol
 _atom_site_label
 _atom_site_symmetry_multiplicity
 _atom_site_fract_x
 _atom_site_fract_y
 _atom_site_fract_z
 _atom_site_occupancy
  Ho  Ho0  1  0.000000  0.119933  0.911643  1
  Ho  Ho1  1  0.000000  0.752113  0.781129  1
  Ho  Ho2  1  0.000000  0.619972  0.590017  1
  Ho  Ho3  1  0.000000  0.252957  0.722448  1
  Ho  Ho4  1  0.000000  0.380686  0.409452  1
  Ho  Ho5  1  0.000000  0.251901  0.217892  1
  Ho  Ho6  1  0.000000  0.998791  0.499403  1
  Ho  Ho7  1  0.000000  0.745496  0.278142  1
  Ho  Ho8  1  0.000000  0.497399  0.002455  1
  Zr  Zr9  1  0.000000  0.881887  0.091546  1
  Tl  Tl10  1  0.500000  0.801279  0.940335  1
  Tl  Tl11  1  0.500000  0.573980  0.148250  1
  Tl  Tl12  1  0.500000  0.432619  0.852588  1
  Tl  Tl13  1  0.500000  0.067328  0.347394  1
  Tl  Tl14  1  0.500000  0.297872  0.565396  1
  Tl  Tl15  1  0.500000  0.931017  0.649661  1
  In  In16  1  0.500000  0.702383  0.432451  1
  In  In17  1  0.500000  0.192889  0.064413  1
  Rh  Rh18  1  0.500000  0.529373  0.696280  1
  Rh  Rh19  1  0.500000  0.474671  0.304965  1
  Rh  Rh20  1  0.500000  0.028171  0.805637  1
  Rh  Rh21  1  0.500000  0.967283  0.188501  1
