# generated using pymatgen
data_NaCr3Sb12Pt
_symmetry_space_group_name_H-M   'P 1'
_cell_length_a   8.22938463
_cell_length_b   8.22938596
_cell_length_c   8.22938548
_cell_angle_alpha   109.28317618
_cell_angle_beta   109.28316868
_cell_angle_gamma   109.28317558
_symmetry_Int_Tables_number   1
_chemical_formula_structural   NaCr3Sb12Pt
_chemical_formula_sum   'Na1 Cr3 Sb12 Pt1'
_cell_volume   431.98388455
_cell_formula_units_Z   1
loop_
 _symmetry_equiv_pos_site_id
 _symmetry_equiv_pos_as_xyz
  1  'x, y, z'
loop_
 _atom_site_type_symbol
 _atom_site_label
 _atom_site_symmetry_multiplicity
 _atom_site_fract_x
 _atom_site_fract_y
 _atom_site_fract_z
 _atom_site_occupancy
  Na  Na0  1  0.000000  0.000000  0.000000  1
  Cr  Cr1  1  0.000000  0.000000  0.500000  1
  Cr  Cr2  1  0.000000  0.500000  0.000000  1
  Cr  Cr3  1  0.500000  0.000000  0.000000  1
  Sb  Sb4  1  0.659220  0.813314  0.155582  1
  Sb  Sb5  1  0.844418  0.340780  0.186686  1
  Sb  Sb6  1  0.507195  0.849575  0.661165  1
  Sb  Sb7  1  0.849575  0.661165  0.507195  1
  Sb  Sb8  1  0.492805  0.150425  0.338835  1
  Sb  Sb9  1  0.155582  0.659220  0.813314  1
  Sb  Sb10  1  0.813314  0.155582  0.659220  1
  Sb  Sb11  1  0.186686  0.844418  0.340780  1
  Sb  Sb12  1  0.150425  0.338835  0.492805  1
  Sb  Sb13  1  0.661165  0.507195  0.849575  1
  Sb  Sb14  1  0.338835  0.492805  0.150425  1
  Sb  Sb15  1  0.340780  0.186686  0.844418  1
  Pt  Pt16  1  0.500000  0.500000  0.500000  1
