# generated using pymatgen
data_Yb4DySi12Ir19
_symmetry_space_group_name_H-M   'P 1'
_cell_length_a   12.79913800
_cell_length_b   12.79913743
_cell_length_c   4.00956400
_cell_angle_alpha   90.00000000
_cell_angle_beta   90.00000000
_cell_angle_gamma   120.00000147
_symmetry_Int_Tables_number   1
_chemical_formula_structural   Yb4DySi12Ir19
_chemical_formula_sum   'Yb4 Dy1 Si12 Ir19'
_cell_volume   568.83878397
_cell_formula_units_Z   1
loop_
 _symmetry_equiv_pos_site_id
 _symmetry_equiv_pos_as_xyz
  1  'x, y, z'
loop_
 _atom_site_type_symbol
 _atom_site_label
 _atom_site_symmetry_multiplicity
 _atom_site_fract_x
 _atom_site_fract_y
 _atom_site_fract_z
 _atom_site_occupancy
  Yb  Yb0  1  0.333333  0.666667  0.500000  1
  Yb  Yb1  1  0.999928  0.817794  0.000000  1
  Yb  Yb2  1  0.182206  0.182133  0.000000  1
  Yb  Yb3  1  0.817867  0.000072  0.000000  1
  Dy  Dy4  1  0.666667  0.333333  0.500000  1
  Si  Si5  1  0.000890  0.632280  0.500000  1
  Si  Si6  1  0.367720  0.368610  0.500000  1
  Si  Si7  1  0.631390  0.999110  0.500000  1
  Si  Si8  1  0.519446  0.688054  0.000000  1
  Si  Si9  1  0.311946  0.831392  0.000000  1
  Si  Si10  1  0.168608  0.480554  0.000000  1
  Si  Si11  1  0.478952  0.167685  0.000000  1
  Si  Si12  1  0.688734  0.521048  0.000000  1
  Si  Si13  1  0.832315  0.311266  0.000000  1
  Si  Si14  1  0.000349  0.182427  0.500000  1
  Si  Si15  1  0.817573  0.817922  0.500000  1
  Si  Si16  1  0.182078  0.999651  0.500000  1
  Ir  Ir17  1  0.513685  0.874928  0.000000  1
  Ir  Ir18  1  0.125072  0.638757  0.000000  1
  Ir  Ir19  1  0.361243  0.486315  0.000000  1
  Ir  Ir20  1  0.489002  0.361571  0.000000  1
  Ir  Ir21  1  0.872569  0.510998  0.000000  1
  Ir  Ir22  1  0.638429  0.127431  0.000000  1
  Ir  Ir23  1  0.999149  0.447184  0.500000  1
  Ir  Ir24  1  0.552816  0.551966  0.500000  1
  Ir  Ir25  1  0.448034  0.000851  0.500000  1
  Ir  Ir26  1  0.000172  0.283184  0.000000  1
  Ir  Ir27  1  0.716816  0.716988  0.000000  1
  Ir  Ir28  1  0.283012  0.999828  0.000000  1
  Ir  Ir29  1  0.621788  0.805223  0.500000  1
  Ir  Ir30  1  0.194777  0.816564  0.500000  1
  Ir  Ir31  1  0.183436  0.378212  0.500000  1
  Ir  Ir32  1  0.378081  0.184125  0.500000  1
  Ir  Ir33  1  0.806043  0.621919  0.500000  1
  Ir  Ir34  1  0.815875  0.193957  0.500000  1
  Ir  Ir35  1  0.000000  0.000000  0.500000  1
