# generated using pymatgen
data_Ta6Cr5Si6Os
_symmetry_space_group_name_H-M   'P 1'
_cell_length_a   7.43565139
_cell_length_b   7.43549386
_cell_length_c   7.43549306
_cell_angle_alpha   126.65033867
_cell_angle_beta   127.09927659
_cell_angle_gamma   78.45505740
_symmetry_Int_Tables_number   1
_chemical_formula_structural   Ta6Cr5Si6Os
_chemical_formula_sum   'Ta6 Cr5 Si6 Os1'
_cell_volume   254.71009367
_cell_formula_units_Z   1
loop_
 _symmetry_equiv_pos_site_id
 _symmetry_equiv_pos_as_xyz
  1  'x, y, z'
loop_
 _atom_site_type_symbol
 _atom_site_label
 _atom_site_symmetry_multiplicity
 _atom_site_fract_x
 _atom_site_fract_y
 _atom_site_fract_z
 _atom_site_occupancy
  Ta  Ta0  1  0.543518  0.092822  0.045019  1
  Ta  Ta1  1  0.456482  0.501500  0.549304  1
  Ta  Ta2  1  0.952431  0.501457  0.044764  1
  Ta  Ta3  1  0.047569  0.092333  0.549026  1
  Ta  Ta4  1  0.747388  0.892385  0.639628  1
  Ta  Ta5  1  0.252612  0.892240  0.144998  1
  Cr  Cr6  1  0.126521  0.749607  0.623495  1
  Cr  Cr7  1  0.873479  0.496974  0.623086  1
  Cr  Cr8  1  0.628006  0.752575  0.124090  1
  Cr  Cr9  1  0.371994  0.496084  0.124571  1
  Cr  Cr10  1  0.500000  0.240981  0.740981  1
  Si  Si11  1  0.333895  0.831812  0.498177  1
  Si  Si12  1  0.666105  0.164281  0.497918  1
  Si  Si13  1  0.833700  0.831275  0.997326  1
  Si  Si14  1  0.166300  0.163625  0.997575  1
  Si  Si15  1  0.744432  0.499052  0.243118  1
  Si  Si16  1  0.255568  0.498685  0.754621  1
  Os  Os17  1  0.000000  0.244306  0.244306  1
