# generated using pymatgen
data_Tb8Hf3Zr9Si15Pd
_symmetry_space_group_name_H-M   'P 1'
_cell_length_a   7.33890335
_cell_length_b   7.38061718
_cell_length_c   13.54676240
_cell_angle_alpha   89.88555700
_cell_angle_beta   89.83520646
_cell_angle_gamma   90.03903364
_symmetry_Int_Tables_number   1
_chemical_formula_structural   Tb8Hf3Zr9Si15Pd
_chemical_formula_sum   'Tb8 Hf3 Zr9 Si15 Pd1'
_cell_volume   733.76433045
_cell_formula_units_Z   1
loop_
 _symmetry_equiv_pos_site_id
 _symmetry_equiv_pos_as_xyz
  1  'x, y, z'
loop_
 _atom_site_type_symbol
 _atom_site_label
 _atom_site_symmetry_multiplicity
 _atom_site_fract_x
 _atom_site_fract_y
 _atom_site_fract_z
 _atom_site_occupancy
  Tb  Tb0  1  0.992723  0.348154  0.213341  1
  Tb  Tb1  1  0.004373  0.653841  0.713904  1
  Tb  Tb2  1  0.155604  0.498649  0.463900  1
  Tb  Tb3  1  0.504195  0.844498  0.034630  1
  Tb  Tb4  1  0.845489  0.502240  0.964302  1
  Tb  Tb5  1  0.497140  0.153690  0.538414  1
  Tb  Tb6  1  0.345276  0.997818  0.786080  1
  Tb  Tb7  1  0.659782  0.998985  0.284699  1
  Hf  Hf8  1  0.648487  0.509486  0.380410  1
  Hf  Hf9  1  0.995762  0.147443  0.625415  1
  Hf  Hf10  1  0.000744  0.849163  0.123340  1
  Zr  Zr11  1  0.174858  0.176796  0.998917  1
  Zr  Zr12  1  0.826767  0.824473  0.500014  1
  Zr  Zr13  1  0.325477  0.681227  0.249986  1
  Zr  Zr14  1  0.675768  0.324412  0.749878  1
  Zr  Zr15  1  0.147240  0.000622  0.373851  1
  Zr  Zr16  1  0.852787  0.003043  0.874958  1
  Zr  Zr17  1  0.504060  0.648268  0.624863  1
  Zr  Zr18  1  0.352332  0.495803  0.874331  1
  Zr  Zr19  1  0.492383  0.349361  0.124920  1
  Si  Si20  1  0.638968  0.707467  0.817586  1
  Si  Si21  1  0.205391  0.862874  0.566798  1
  Si  Si22  1  0.138487  0.793905  0.933364  1
  Si  Si23  1  0.794757  0.137037  0.066437  1
  Si  Si24  1  0.858332  0.203790  0.435546  1
  Si  Si25  1  0.292362  0.360221  0.683295  1
  Si  Si26  1  0.705131  0.640032  0.183455  1
  Si  Si27  1  0.290193  0.046129  0.182318  1
  Si  Si28  1  0.706144  0.949338  0.686644  1
  Si  Si29  1  0.448289  0.796352  0.437282  1
  Si  Si30  1  0.203699  0.552519  0.062958  1
  Si  Si31  1  0.550709  0.204191  0.936762  1
  Si  Si32  1  0.796184  0.447284  0.564462  1
  Si  Si33  1  0.050357  0.295418  0.812170  1
  Si  Si34  1  0.948431  0.705727  0.312139  1
  Pd  Pd35  1  0.371316  0.289745  0.318628  1
