# generated using pymatgen
data_DyTm(SiTc2)4
_symmetry_space_group_name_H-M   'P 1'
_cell_length_a   7.34811273
_cell_length_b   7.34811273
_cell_length_c   4.13681500
_cell_angle_alpha   90.00000000
_cell_angle_beta   90.00000000
_cell_angle_gamma   89.03096544
_symmetry_Int_Tables_number   1
_chemical_formula_structural   DyTm(SiTc2)4
_chemical_formula_sum   'Dy1 Tm1 Si4 Tc8'
_cell_volume   223.33439064
_cell_formula_units_Z   1
loop_
 _symmetry_equiv_pos_site_id
 _symmetry_equiv_pos_as_xyz
  1  'x, y, z'
loop_
 _atom_site_type_symbol
 _atom_site_label
 _atom_site_symmetry_multiplicity
 _atom_site_fract_x
 _atom_site_fract_y
 _atom_site_fract_z
 _atom_site_occupancy
  Dy  Dy0  1  0.500000  0.500000  0.500000  1
  Tm  Tm1  1  0.000000  0.000000  0.000000  1
  Si  Si2  1  0.793686  0.206314  0.500000  1
  Si  Si3  1  0.206314  0.793686  0.500000  1
  Si  Si4  1  0.289413  0.289413  0.000000  1
  Si  Si5  1  0.710587  0.710587  0.000000  1
  Tc  Tc6  1  0.659288  0.909068  0.500000  1
  Tc  Tc7  1  0.340712  0.090932  0.500000  1
  Tc  Tc8  1  0.151925  0.597556  0.000000  1
  Tc  Tc9  1  0.848075  0.402444  0.000000  1
  Tc  Tc10  1  0.909068  0.659288  0.500000  1
  Tc  Tc11  1  0.090932  0.340712  0.500000  1
  Tc  Tc12  1  0.597556  0.151925  0.000000  1
  Tc  Tc13  1  0.402444  0.848075  0.000000  1
