# generated using pymatgen
data_PrYHo(Si3Pd10)2
_symmetry_space_group_name_H-M   'P 1'
_cell_length_a   8.73605563
_cell_length_b   8.73605608
_cell_length_c   8.73605500
_cell_angle_alpha   60.00000029
_cell_angle_beta   59.99999861
_cell_angle_gamma   60.00000076
_symmetry_Int_Tables_number   1
_chemical_formula_structural   PrYHo(Si3Pd10)2
_chemical_formula_sum   'Pr1 Y1 Ho1 Si6 Pd20'
_cell_volume   471.44514185
_cell_formula_units_Z   1
loop_
 _symmetry_equiv_pos_site_id
 _symmetry_equiv_pos_as_xyz
  1  'x, y, z'
loop_
 _atom_site_type_symbol
 _atom_site_label
 _atom_site_symmetry_multiplicity
 _atom_site_fract_x
 _atom_site_fract_y
 _atom_site_fract_z
 _atom_site_occupancy
  Pr  Pr0  1  0.250000  0.250000  0.250000  1
  Y  Y1  1  0.750000  0.750000  0.750000  1
  Ho  Ho2  1  0.000000  0.000000  0.000000  1
  Si  Si3  1  0.733030  0.266970  0.266970  1
  Si  Si4  1  0.266970  0.733030  0.733030  1
  Si  Si5  1  0.266970  0.733030  0.266970  1
  Si  Si6  1  0.733030  0.266970  0.733030  1
  Si  Si7  1  0.266970  0.266970  0.733030  1
  Si  Si8  1  0.733030  0.733030  0.266970  1
  Pd  Pd9  1  0.385754  0.385754  0.385754  1
  Pd  Pd10  1  0.616373  0.616373  0.616373  1
  Pd  Pd11  1  0.385754  0.385754  0.842738  1
  Pd  Pd12  1  0.385754  0.842738  0.385754  1
  Pd  Pd13  1  0.616373  0.616373  0.150880  1
  Pd  Pd14  1  0.616373  0.150880  0.616373  1
  Pd  Pd15  1  0.842738  0.385754  0.385754  1
  Pd  Pd16  1  0.150880  0.616373  0.616373  1
  Pd  Pd17  1  0.345950  0.999183  0.999183  1
  Pd  Pd18  1  0.655684  0.999183  0.999183  1
  Pd  Pd19  1  0.999183  0.345950  0.655684  1
  Pd  Pd20  1  0.999183  0.655684  0.345950  1
  Pd  Pd21  1  0.999183  0.345950  0.999183  1
  Pd  Pd22  1  0.655684  0.999183  0.345950  1
  Pd  Pd23  1  0.999183  0.655684  0.999183  1
  Pd  Pd24  1  0.345950  0.999183  0.655684  1
  Pd  Pd25  1  0.999183  0.999183  0.345950  1
  Pd  Pd26  1  0.999183  0.999183  0.655684  1
  Pd  Pd27  1  0.655684  0.345950  0.999183  1
  Pd  Pd28  1  0.345950  0.655684  0.999183  1
