# generated using pymatgen
data_Pr2CdAgRh
_symmetry_space_group_name_H-M   'P 1'
_cell_length_a   7.99282460
_cell_length_b   7.99282460
_cell_length_c   3.96977800
_cell_angle_alpha   90.00000000
_cell_angle_beta   90.00000000
_cell_angle_gamma   89.64388755
_symmetry_Int_Tables_number   1
_chemical_formula_structural   Pr2CdAgRh
_chemical_formula_sum   'Pr4 Cd2 Ag2 Rh2'
_cell_volume   253.60534168
_cell_formula_units_Z   2
loop_
 _symmetry_equiv_pos_site_id
 _symmetry_equiv_pos_as_xyz
  1  'x, y, z'
loop_
 _atom_site_type_symbol
 _atom_site_label
 _atom_site_symmetry_multiplicity
 _atom_site_fract_x
 _atom_site_fract_y
 _atom_site_fract_z
 _atom_site_occupancy
  Pr  Pr0  1  0.657843  0.157843  0.500000  1
  Pr  Pr1  1  0.342157  0.842157  0.500000  1
  Pr  Pr2  1  0.191354  0.308646  0.500000  1
  Pr  Pr3  1  0.808646  0.691354  0.500000  1
  Cd  Cd4  1  0.000000  0.000000  0.000000  1
  Cd  Cd5  1  0.500000  0.500000  0.000000  1
  Ag  Ag6  1  0.126789  0.626789  0.000000  1
  Ag  Ag7  1  0.873211  0.373211  0.000000  1
  Rh  Rh8  1  0.630415  0.869585  0.000000  1
  Rh  Rh9  1  0.369585  0.130415  0.000000  1
