# generated using pymatgen
data_Ho8TmZrIr6
_symmetry_space_group_name_H-M   'P 1'
_cell_length_a   10.83540200
_cell_length_b   10.83540200
_cell_length_c   6.28280900
_cell_angle_alpha   90.00000000
_cell_angle_beta   90.00000000
_cell_angle_gamma   90.00000000
_symmetry_Int_Tables_number   1
_chemical_formula_structural   Ho8TmZrIr6
_chemical_formula_sum   'Ho16 Tm2 Zr2 Ir12'
_cell_volume   737.63907451
_cell_formula_units_Z   2
loop_
 _symmetry_equiv_pos_site_id
 _symmetry_equiv_pos_as_xyz
  1  'x, y, z'
loop_
 _atom_site_type_symbol
 _atom_site_label
 _atom_site_symmetry_multiplicity
 _atom_site_fract_x
 _atom_site_fract_y
 _atom_site_fract_z
 _atom_site_occupancy
  Ho  Ho0  1  0.291944  0.087578  0.375139  1
  Ho  Ho1  1  0.291944  0.912422  0.875139  1
  Ho  Ho2  1  0.708056  0.087578  0.875139  1
  Ho  Ho3  1  0.708056  0.912422  0.375139  1
  Ho  Ho4  1  0.586665  0.789359  0.874726  1
  Ho  Ho5  1  0.586665  0.210641  0.374726  1
  Ho  Ho6  1  0.413335  0.789359  0.374726  1
  Ho  Ho7  1  0.413335  0.210641  0.874726  1
  Ho  Ho8  1  0.210641  0.413335  0.625274  1
  Ho  Ho9  1  0.210641  0.586665  0.125274  1
  Ho  Ho10  1  0.789359  0.413335  0.125274  1
  Ho  Ho11  1  0.789359  0.586665  0.625274  1
  Ho  Ho12  1  0.912422  0.708056  0.124861  1
  Ho  Ho13  1  0.912422  0.291944  0.624861  1
  Ho  Ho14  1  0.087578  0.708056  0.624861  1
  Ho  Ho15  1  0.087578  0.291944  0.124861  1
  Tm  Tm16  1  0.000000  0.000000  0.500000  1
  Tm  Tm17  1  0.000000  0.000000  0.000000  1
  Zr  Zr18  1  0.500000  0.500000  0.000000  1
  Zr  Zr19  1  0.500000  0.500000  0.500000  1
  Ir  Ir20  1  0.846313  0.153687  0.250000  1
  Ir  Ir21  1  0.846313  0.846313  0.750000  1
  Ir  Ir22  1  0.153687  0.153687  0.750000  1
  Ir  Ir23  1  0.153687  0.846313  0.250000  1
  Ir  Ir24  1  0.644817  0.355183  0.750000  1
  Ir  Ir25  1  0.644817  0.644817  0.250000  1
  Ir  Ir26  1  0.355183  0.355183  0.250000  1
  Ir  Ir27  1  0.355183  0.644817  0.750000  1
  Ir  Ir28  1  0.500000  0.000000  0.122027  1
  Ir  Ir29  1  0.500000  0.000000  0.622027  1
  Ir  Ir30  1  0.000000  0.500000  0.877973  1
  Ir  Ir31  1  0.000000  0.500000  0.377973  1
