# generated using pymatgen
data_Tb7Pr2ErIn8(PdPt)2
_symmetry_space_group_name_H-M   'P 1'
_cell_length_a   3.66620400
_cell_length_b   8.21394840
_cell_length_c   18.46292100
_cell_angle_alpha   90.15329909
_cell_angle_beta   90.00000000
_cell_angle_gamma   90.00000000
_symmetry_Int_Tables_number   1
_chemical_formula_structural   Tb7Pr2ErIn8(PdPt)2
_chemical_formula_sum   'Tb7 Pr2 Er1 In8 Pd2 Pt2'
_cell_volume   555.99060643
_cell_formula_units_Z   1
loop_
 _symmetry_equiv_pos_site_id
 _symmetry_equiv_pos_as_xyz
  1  'x, y, z'
loop_
 _atom_site_type_symbol
 _atom_site_label
 _atom_site_symmetry_multiplicity
 _atom_site_fract_x
 _atom_site_fract_y
 _atom_site_fract_z
 _atom_site_occupancy
  Tb  Tb0  1  0.000000  0.120658  0.415012  1
  Tb  Tb1  1  0.000000  0.878529  0.584172  1
  Tb  Tb2  1  0.000000  0.379862  0.914862  1
  Tb  Tb3  1  0.000000  0.620520  0.085770  1
  Tb  Tb4  1  0.000000  0.245662  0.218556  1
  Tb  Tb5  1  0.000000  0.754589  0.781630  1
  Tb  Tb6  1  0.000000  0.262615  0.719420  1
  Pr  Pr7  1  0.000000  0.000289  0.000308  1
  Pr  Pr8  1  0.000000  0.499779  0.499947  1
  Er  Er9  1  0.000000  0.737732  0.280063  1
  In  In10  1  0.500000  0.421997  0.347882  1
  In  In11  1  0.500000  0.579873  0.651982  1
  In  In12  1  0.500000  0.077451  0.847253  1
  In  In13  1  0.500000  0.921851  0.153113  1
  In  In14  1  0.500000  0.299952  0.068259  1
  In  In15  1  0.500000  0.700934  0.932089  1
  In  In16  1  0.500000  0.199566  0.568379  1
  In  In17  1  0.500000  0.799020  0.430541  1
  Pd  Pd18  1  0.500000  0.021103  0.303578  1
  Pd  Pd19  1  0.500000  0.975281  0.696045  1
  Pt  Pt20  1  0.500000  0.474986  0.803628  1
  Pt  Pt21  1  0.500000  0.527753  0.197513  1
