# generated using pymatgen
data_Ho10Os3Pt
_symmetry_space_group_name_H-M   'P 1'
_cell_length_a   6.41472318
_cell_length_b   7.33351076
_cell_length_c   8.40988305
_cell_angle_alpha   96.74443670
_cell_angle_beta   112.06617779
_cell_angle_gamma   89.92284929
_symmetry_Int_Tables_number   1
_chemical_formula_structural   Ho10Os3Pt
_chemical_formula_sum   'Ho10 Os3 Pt1'
_cell_volume   363.71172234
_cell_formula_units_Z   1
loop_
 _symmetry_equiv_pos_site_id
 _symmetry_equiv_pos_as_xyz
  1  'x, y, z'
loop_
 _atom_site_type_symbol
 _atom_site_label
 _atom_site_symmetry_multiplicity
 _atom_site_fract_x
 _atom_site_fract_y
 _atom_site_fract_z
 _atom_site_occupancy
  Ho  Ho0  1  0.967356  0.912989  0.179144  1
  Ho  Ho1  1  0.790807  0.583631  0.817503  1
  Ho  Ho2  1  0.022127  0.084229  0.811952  1
  Ho  Ho3  1  0.205179  0.422622  0.179328  1
  Ho  Ho4  1  0.652123  0.814363  0.441518  1
  Ho  Ho5  1  0.211360  0.682055  0.562278  1
  Ho  Ho6  1  0.350639  0.181729  0.567221  1
  Ho  Ho7  1  0.797247  0.321986  0.440983  1
  Ho  Ho8  1  0.422721  0.745536  0.996561  1
  Ho  Ho9  1  0.578698  0.251585  0.998597  1
  Os  Os10  1  0.822623  0.576002  0.218280  1
  Os  Os11  1  0.607053  0.925153  0.782067  1
  Os  Os12  1  0.175706  0.422762  0.783349  1
  Pt  Pt13  1  0.396362  0.075357  0.221220  1
