# generated using pymatgen
data_TbY3Np2O12
_symmetry_space_group_name_H-M   'P 1'
_cell_length_a   5.55791800
_cell_length_b   7.87257972
_cell_length_c   11.89270596
_cell_angle_alpha   73.97363275
_cell_angle_beta   90.00000000
_cell_angle_gamma   90.00000000
_symmetry_Int_Tables_number   1
_chemical_formula_structural   TbY3Np2O12
_chemical_formula_sum   'Tb2 Y6 Np4 O24'
_cell_volume   500.14296180
_cell_formula_units_Z   2
loop_
 _symmetry_equiv_pos_site_id
 _symmetry_equiv_pos_as_xyz
  1  'x, y, z'
loop_
 _atom_site_type_symbol
 _atom_site_label
 _atom_site_symmetry_multiplicity
 _atom_site_fract_x
 _atom_site_fract_y
 _atom_site_fract_z
 _atom_site_occupancy
  Tb  Tb0  1  0.255655  0.000000  0.750000  1
  Tb  Tb1  1  0.744345  0.000000  0.250000  1
  Y  Y2  1  0.186382  0.793740  0.079421  1
  Y  Y3  1  0.303541  0.500000  0.750000  1
  Y  Y4  1  0.186382  0.206260  0.420579  1
  Y  Y5  1  0.696459  0.500000  0.250000  1
  Y  Y6  1  0.813618  0.206260  0.920579  1
  Y  Y7  1  0.813618  0.793740  0.579421  1
  Np  Np8  1  0.744207  0.721668  0.886073  1
  Np  Np9  1  0.255793  0.721668  0.386073  1
  Np  Np10  1  0.744207  0.278332  0.613927  1
  Np  Np11  1  0.255793  0.278332  0.113927  1
  O  O12  1  0.871823  0.371268  0.446395  1
  O  O13  1  0.447881  0.848044  0.931425  1
  O  O14  1  0.871823  0.628732  0.053605  1
  O  O15  1  0.034825  0.288057  0.732411  1
  O  O16  1  0.965175  0.288057  0.232411  1
  O  O17  1  0.128177  0.371268  0.946395  1
  O  O18  1  0.612819  0.482788  0.883257  1
  O  O19  1  0.552119  0.151956  0.068575  1
  O  O20  1  0.128177  0.628732  0.553605  1
  O  O21  1  0.034825  0.711943  0.767589  1
  O  O22  1  0.449481  0.199450  0.273435  1
  O  O23  1  0.045284  0.944340  0.395899  1
  O  O24  1  0.447881  0.151956  0.568575  1
  O  O25  1  0.965175  0.711943  0.267589  1
  O  O26  1  0.954716  0.055660  0.604101  1
  O  O27  1  0.550519  0.199450  0.773435  1
  O  O28  1  0.550519  0.800550  0.726565  1
  O  O29  1  0.045284  0.055660  0.104101  1
  O  O30  1  0.612819  0.517212  0.616743  1
  O  O31  1  0.387181  0.517212  0.116743  1
  O  O32  1  0.449481  0.800550  0.226565  1
  O  O33  1  0.387181  0.482788  0.383257  1
  O  O34  1  0.552119  0.848044  0.431425  1
  O  O35  1  0.954716  0.944340  0.895899  1
