# generated using pymatgen
data_PrNd2CuSnSe7
_symmetry_space_group_name_H-M   'P 1'
_cell_length_a   10.66128079
_cell_length_b   10.67256819
_cell_length_c   6.34227938
_cell_angle_alpha   89.98643931
_cell_angle_beta   89.97427994
_cell_angle_gamma   120.02441394
_symmetry_Int_Tables_number   1
_chemical_formula_structural   PrNd2CuSnSe7
_chemical_formula_sum   'Pr2 Nd4 Cu2 Sn2 Se14'
_cell_volume   624.80906489
_cell_formula_units_Z   2
loop_
 _symmetry_equiv_pos_site_id
 _symmetry_equiv_pos_as_xyz
  1  'x, y, z'
loop_
 _atom_site_type_symbol
 _atom_site_label
 _atom_site_symmetry_multiplicity
 _atom_site_fract_x
 _atom_site_fract_y
 _atom_site_fract_z
 _atom_site_occupancy
  Pr  Pr0  1  0.136845  0.781420  0.961540  1
  Pr  Pr1  1  0.218462  0.355412  0.961541  1
  Nd  Nd2  1  0.781558  0.645147  0.461358  1
  Nd  Nd3  1  0.863223  0.218198  0.461273  1
  Nd  Nd4  1  0.644803  0.863298  0.961357  1
  Nd  Nd5  1  0.355097  0.136676  0.461396  1
  Cu  Cu6  1  0.999881  0.999926  0.502077  1
  Cu  Cu7  1  0.999655  0.999887  0.002240  1
  Sn  Sn8  1  0.666505  0.333134  0.884413  1
  Sn  Sn9  1  0.333522  0.666694  0.383888  1
  Se  Se10  1  0.100846  0.844274  0.490688  1
  Se  Se11  1  0.155886  0.256560  0.490787  1
  Se  Se12  1  0.842711  0.742938  0.992014  1
  Se  Se13  1  0.897690  0.155062  0.992246  1
  Se  Se14  1  0.743165  0.899107  0.492147  1
  Se  Se15  1  0.257329  0.101004  0.992234  1
  Se  Se16  1  0.571147  0.084709  0.709410  1
  Se  Se17  1  0.487657  0.572031  0.210413  1
  Se  Se18  1  0.513882  0.428977  0.708855  1
  Se  Se19  1  0.666689  0.333386  0.282028  1
  Se  Se20  1  0.334528  0.667394  0.781380  1
  Se  Se21  1  0.429827  0.915741  0.210406  1
  Se  Se22  1  0.083907  0.512852  0.211431  1
  Se  Se23  1  0.915189  0.486173  0.708885  1
