# generated using pymatgen
data_Sc8TaNb8Si16Mo3
_symmetry_space_group_name_H-M   'P 1'
_cell_length_a   6.63984800
_cell_length_b   6.88576914
_cell_length_c   13.10234400
_cell_angle_alpha   90.00000000
_cell_angle_beta   90.00000000
_cell_angle_gamma   89.98713250
_symmetry_Int_Tables_number   1
_chemical_formula_structural   Sc8TaNb8Si16Mo3
_chemical_formula_sum   'Sc8 Ta1 Nb8 Si16 Mo3'
_cell_volume   599.04518541
_cell_formula_units_Z   1
loop_
 _symmetry_equiv_pos_site_id
 _symmetry_equiv_pos_as_xyz
  1  'x, y, z'
loop_
 _atom_site_type_symbol
 _atom_site_label
 _atom_site_symmetry_multiplicity
 _atom_site_fract_x
 _atom_site_fract_y
 _atom_site_fract_z
 _atom_site_occupancy
  Sc  Sc0  1  0.499495  0.325826  0.092808  1
  Sc  Sc1  1  0.999420  0.174248  0.407036  1
  Sc  Sc2  1  0.500358  0.674338  0.593959  1
  Sc  Sc3  1  0.999137  0.826425  0.906561  1
  Sc  Sc4  1  0.500358  0.674338  0.906041  1
  Sc  Sc5  1  0.999137  0.826425  0.593439  1
  Sc  Sc6  1  0.499495  0.325826  0.407192  1
  Sc  Sc7  1  0.999420  0.174248  0.092964  1
  Ta  Ta8  1  0.659455  0.006222  0.750000  1
  Nb  Nb9  1  0.834704  0.329814  0.625223  1
  Nb  Nb10  1  0.334509  0.170293  0.875187  1
  Nb  Nb11  1  0.165545  0.669101  0.125950  1
  Nb  Nb12  1  0.666005  0.830877  0.373603  1
  Nb  Nb13  1  0.165545  0.669101  0.374050  1
  Nb  Nb14  1  0.666005  0.830877  0.126397  1
  Nb  Nb15  1  0.834704  0.329814  0.874777  1
  Nb  Nb16  1  0.334509  0.170293  0.624813  1
  Si  Si17  1  0.669633  0.033541  0.540149  1
  Si  Si18  1  0.169504  0.465987  0.958677  1
  Si  Si19  1  0.330430  0.965332  0.041772  1
  Si  Si20  1  0.830476  0.534541  0.458567  1
  Si  Si21  1  0.330430  0.965332  0.458228  1
  Si  Si22  1  0.830476  0.534541  0.041433  1
  Si  Si23  1  0.669633  0.033541  0.959851  1
  Si  Si24  1  0.169504  0.465987  0.541323  1
  Si  Si25  1  0.531795  0.390526  0.750000  1
  Si  Si26  1  0.037422  0.111797  0.750000  1
  Si  Si27  1  0.467079  0.609610  0.250000  1
  Si  Si28  1  0.967898  0.890925  0.250000  1
  Si  Si29  1  0.796314  0.639701  0.750000  1
  Si  Si30  1  0.291889  0.855362  0.750000  1
  Si  Si31  1  0.204372  0.355859  0.250000  1
  Si  Si32  1  0.704166  0.144186  0.250000  1
  Mo  Mo33  1  0.159329  0.494904  0.750000  1
  Mo  Mo34  1  0.341095  0.995321  0.250000  1
  Mo  Mo35  1  0.840752  0.504945  0.250000  1
