# generated using pymatgen
data_Nd5OsRu
_symmetry_space_group_name_H-M   'P 1'
_cell_length_a   8.82857117
_cell_length_b   8.82857142
_cell_length_c   7.45734393
_cell_angle_alpha   83.61849718
_cell_angle_beta   83.61849485
_cell_angle_gamma   44.04481950
_symmetry_Int_Tables_number   1
_chemical_formula_structural   Nd5OsRu
_chemical_formula_sum   'Nd10 Os2 Ru2'
_cell_volume   401.18405646
_cell_formula_units_Z   2
loop_
 _symmetry_equiv_pos_site_id
 _symmetry_equiv_pos_as_xyz
  1  'x, y, z'
loop_
 _atom_site_type_symbol
 _atom_site_label
 _atom_site_symmetry_multiplicity
 _atom_site_fract_x
 _atom_site_fract_y
 _atom_site_fract_z
 _atom_site_occupancy
  Nd  Nd0  1  0.021081  0.795177  0.914761  1
  Nd  Nd1  1  0.204823  0.978919  0.585239  1
  Nd  Nd2  1  0.979505  0.205380  0.085486  1
  Nd  Nd3  1  0.794620  0.020495  0.414514  1
  Nd  Nd4  1  0.359225  0.206809  0.815017  1
  Nd  Nd5  1  0.793191  0.640775  0.684983  1
  Nd  Nd6  1  0.640317  0.793243  0.185224  1
  Nd  Nd7  1  0.206757  0.359683  0.314776  1
  Nd  Nd8  1  0.575005  0.424995  0.750000  1
  Nd  Nd9  1  0.423480  0.576520  0.250000  1
  Os  Os10  1  0.176924  0.602039  0.574623  1
  Os  Os11  1  0.397961  0.823076  0.925377  1
  Ru  Ru12  1  0.824506  0.397396  0.424678  1
  Ru  Ru13  1  0.602604  0.175494  0.075322  1
