# generated using pymatgen
data_Ho6CoSi12Pt7
_symmetry_space_group_name_H-M   'P 1'
_cell_length_a   4.22711200
_cell_length_b   8.49364252
_cell_length_c   12.82988973
_cell_angle_alpha   80.01575931
_cell_angle_beta   90.00000000
_cell_angle_gamma   90.00000000
_symmetry_Int_Tables_number   1
_chemical_formula_structural   Ho6CoSi12Pt7
_chemical_formula_sum   'Ho6 Co1 Si12 Pt7'
_cell_volume   453.66279263
_cell_formula_units_Z   1
loop_
 _symmetry_equiv_pos_site_id
 _symmetry_equiv_pos_as_xyz
  1  'x, y, z'
loop_
 _atom_site_type_symbol
 _atom_site_label
 _atom_site_symmetry_multiplicity
 _atom_site_fract_x
 _atom_site_fract_y
 _atom_site_fract_z
 _atom_site_occupancy
  Ho  Ho0  1  0.250000  0.767152  0.437241  1
  Ho  Ho1  1  0.250000  0.581179  0.184430  1
  Ho  Ho2  1  0.750000  0.233654  0.560236  1
  Ho  Ho3  1  0.750000  0.417919  0.813955  1
  Ho  Ho4  1  0.750000  0.923471  0.815874  1
  Ho  Ho5  1  0.250000  0.076894  0.183849  1
  Co  Co6  1  0.750000  0.352483  0.099371  1
  Si  Si7  1  0.750000  0.587188  0.568634  1
  Si  Si8  1  0.750000  0.144449  0.011386  1
  Si  Si9  1  0.750000  0.871021  0.573889  1
  Si  Si10  1  0.250000  0.694719  0.715947  1
  Si  Si11  1  0.750000  0.307114  0.274023  1
  Si  Si12  1  0.750000  0.808079  0.273581  1
  Si  Si13  1  0.250000  0.871353  0.993740  1
  Si  Si14  1  0.250000  0.192579  0.725476  1
  Si  Si15  1  0.250000  0.375037  0.012958  1
  Si  Si16  1  0.250000  0.126903  0.427159  1
  Si  Si17  1  0.750000  0.604521  0.005580  1
  Si  Si18  1  0.250000  0.412866  0.429394  1
  Pt  Pt19  1  0.250000  0.970742  0.623522  1
  Pt  Pt20  1  0.750000  0.852969  0.084824  1
  Pt  Pt21  1  0.750000  0.032494  0.373016  1
  Pt  Pt22  1  0.250000  0.644293  0.902942  1
  Pt  Pt23  1  0.250000  0.151556  0.913646  1
  Pt  Pt24  1  0.750000  0.532628  0.371862  1
  Pt  Pt25  1  0.250000  0.466736  0.623465  1
