# generated using pymatgen
data_Rb3In3As4
_symmetry_space_group_name_H-M   'P 1'
_cell_length_a   7.23176900
_cell_length_b   11.52025800
_cell_length_c   16.08637000
_cell_angle_alpha   90.00000000
_cell_angle_beta   90.00000000
_cell_angle_gamma   90.00000000
_symmetry_Int_Tables_number   1
_chemical_formula_structural   Rb3In3As4
_chemical_formula_sum   'Rb12 In12 As16'
_cell_volume   1340.18515885
_cell_formula_units_Z   4
loop_
 _symmetry_equiv_pos_site_id
 _symmetry_equiv_pos_as_xyz
  1  'x, y, z'
loop_
 _atom_site_type_symbol
 _atom_site_label
 _atom_site_symmetry_multiplicity
 _atom_site_fract_x
 _atom_site_fract_y
 _atom_site_fract_z
 _atom_site_occupancy
  Rb  Rb0  1  0.063265  0.379662  0.406226  1
  Rb  Rb1  1  0.063265  0.120338  0.093774  1
  Rb  Rb2  1  0.563265  0.879662  0.093774  1
  Rb  Rb3  1  0.750000  0.080491  0.500000  1
  Rb  Rb4  1  0.936735  0.879662  0.906226  1
  Rb  Rb5  1  0.563265  0.620338  0.406226  1
  Rb  Rb6  1  0.936735  0.620338  0.593774  1
  Rb  Rb7  1  0.250000  0.580491  0.000000  1
  Rb  Rb8  1  0.750000  0.419509  0.000000  1
  Rb  Rb9  1  0.436735  0.379662  0.593774  1
  Rb  Rb10  1  0.436735  0.120338  0.906226  1
  Rb  Rb11  1  0.250000  0.919509  0.500000  1
  In  In12  1  0.400632  0.110182  0.283582  1
  In  In13  1  0.900632  0.610182  0.216418  1
  In  In14  1  0.099368  0.389818  0.783582  1
  In  In15  1  0.400632  0.389818  0.216418  1
  In  In16  1  0.306659  0.750000  0.250000  1
  In  In17  1  0.806659  0.250000  0.250000  1
  In  In18  1  0.599368  0.889818  0.716418  1
  In  In19  1  0.900632  0.889818  0.283582  1
  In  In20  1  0.193341  0.750000  0.750000  1
  In  In21  1  0.693341  0.250000  0.750000  1
  In  In22  1  0.599368  0.610182  0.783582  1
  In  In23  1  0.099368  0.110182  0.716418  1
  As  As24  1  0.040251  0.096721  0.327297  1
  As  As25  1  0.039887  0.807547  0.134786  1
  As  As26  1  0.460113  0.807547  0.865214  1
  As  As27  1  0.459749  0.403279  0.827297  1
  As  As28  1  0.540251  0.596721  0.172703  1
  As  As29  1  0.540251  0.903279  0.327297  1
  As  As30  1  0.039887  0.692453  0.365214  1
  As  As31  1  0.040251  0.403279  0.172703  1
  As  As32  1  0.960113  0.192453  0.865214  1
  As  As33  1  0.539887  0.192453  0.134786  1
  As  As34  1  0.959749  0.903279  0.672703  1
  As  As35  1  0.459749  0.096721  0.672703  1
  As  As36  1  0.960113  0.307547  0.634786  1
  As  As37  1  0.539887  0.307547  0.365214  1
  As  As38  1  0.460113  0.692453  0.634786  1
  As  As39  1  0.959749  0.596721  0.827297  1
