# generated using pymatgen
data_Ce3LuH11
_symmetry_space_group_name_H-M   'P 1'
_cell_length_a   6.61546273
_cell_length_b   6.61546364
_cell_length_c   6.61546283
_cell_angle_alpha   131.46861818
_cell_angle_beta   133.94839176
_cell_angle_gamma   69.13177349
_symmetry_Int_Tables_number   1
_chemical_formula_structural   Ce3LuH11
_chemical_formula_sum   'Ce3 Lu1 H11'
_cell_volume   153.29848761
_cell_formula_units_Z   1
loop_
 _symmetry_equiv_pos_site_id
 _symmetry_equiv_pos_as_xyz
  1  'x, y, z'
loop_
 _atom_site_type_symbol
 _atom_site_label
 _atom_site_symmetry_multiplicity
 _atom_site_fract_x
 _atom_site_fract_y
 _atom_site_fract_z
 _atom_site_occupancy
  Ce  Ce0  1  0.258058  0.258058  0.000000  1
  Ce  Ce1  1  0.000000  0.500000  0.500000  1
  Ce  Ce2  1  0.741942  0.741942  0.000000  1
  Lu  Lu3  1  0.500000  0.000000  0.500000  1
  H  H4  1  0.635007  0.105991  0.972635  1
  H  H5  1  0.364993  0.337627  0.470983  1
  H  H6  1  0.133356  0.662373  0.027365  1
  H  H7  1  0.866644  0.894009  0.529017  1
  H  H8  1  0.866644  0.337627  0.972635  1
  H  H9  1  0.635007  0.662373  0.529017  1
  H  H10  1  0.364993  0.894009  0.027365  1
  H  H11  1  0.133356  0.105991  0.470983  1
  H  H12  1  0.768357  0.268357  0.500000  1
  H  H13  1  0.500000  0.500000  0.000000  1
  H  H14  1  0.231643  0.731643  0.500000  1
