# generated using pymatgen
data_TcOs5Cl18
_symmetry_space_group_name_H-M   'P 1'
_cell_length_a   9.28844324
_cell_length_b   9.28844307
_cell_length_c   9.26696952
_cell_angle_alpha   66.91864591
_cell_angle_beta   66.91864937
_cell_angle_gamma   67.01919164
_symmetry_Int_Tables_number   1
_chemical_formula_structural   TcOs5Cl18
_chemical_formula_sum   'Tc1 Os5 Cl18'
_cell_volume   649.61990635
_cell_formula_units_Z   1
loop_
 _symmetry_equiv_pos_site_id
 _symmetry_equiv_pos_as_xyz
  1  'x, y, z'
loop_
 _atom_site_type_symbol
 _atom_site_label
 _atom_site_symmetry_multiplicity
 _atom_site_fract_x
 _atom_site_fract_y
 _atom_site_fract_z
 _atom_site_occupancy
  Tc  Tc0  1  0.855080  0.855080  0.614112  1
  Os  Os1  1  0.391720  0.141881  0.141268  1
  Os  Os2  1  0.141881  0.391720  0.141268  1
  Os  Os3  1  0.142776  0.142776  0.388242  1
  Os  Os4  1  0.609025  0.857583  0.857490  1
  Os  Os5  1  0.857583  0.609025  0.857490  1
  Cl  Cl6  1  0.377228  0.917299  0.377052  1
  Cl  Cl7  1  0.378003  0.378003  0.917203  1
  Cl  Cl8  1  0.917299  0.377228  0.377052  1
  Cl  Cl9  1  0.619419  0.084418  0.625400  1
  Cl  Cl10  1  0.621548  0.621548  0.082957  1
  Cl  Cl11  1  0.084418  0.619419  0.625400  1
  Cl  Cl12  1  0.329050  0.008502  0.003456  1
  Cl  Cl13  1  0.008502  0.329050  0.003456  1
  Cl  Cl14  1  0.007799  0.007799  0.326773  1
  Cl  Cl15  1  0.669076  0.992691  0.996562  1
  Cl  Cl16  1  0.992691  0.669076  0.996562  1
  Cl  Cl17  1  0.995850  0.995850  0.668587  1
  Cl  Cl18  1  0.538107  0.225084  0.225700  1
  Cl  Cl19  1  0.225084  0.538107  0.225700  1
  Cl  Cl20  1  0.225504  0.225504  0.536094  1
  Cl  Cl21  1  0.461800  0.775038  0.774505  1
  Cl  Cl22  1  0.775038  0.461800  0.774505  1
  Cl  Cl23  1  0.775518  0.775518  0.463168  1
