# generated using pymatgen
data_Tb3Tl2Cd3Ir
_symmetry_space_group_name_H-M   'P 1'
_cell_length_a   8.25521300
_cell_length_b   8.25521483
_cell_length_c   3.69546500
_cell_angle_alpha   90.00000000
_cell_angle_beta   90.00000000
_cell_angle_gamma   119.99999666
_symmetry_Int_Tables_number   1
_chemical_formula_structural   Tb3Tl2Cd3Ir
_chemical_formula_sum   'Tb3 Tl2 Cd3 Ir1'
_cell_volume   218.10037027
_cell_formula_units_Z   1
loop_
 _symmetry_equiv_pos_site_id
 _symmetry_equiv_pos_as_xyz
  1  'x, y, z'
loop_
 _atom_site_type_symbol
 _atom_site_label
 _atom_site_symmetry_multiplicity
 _atom_site_fract_x
 _atom_site_fract_y
 _atom_site_fract_z
 _atom_site_occupancy
  Tb  Tb0  1  0.623977  0.043657  0.000000  1
  Tb  Tb1  1  0.956343  0.580320  0.000000  1
  Tb  Tb2  1  0.419680  0.376023  0.000000  1
  Tl  Tl3  1  0.333333  0.666667  0.500000  1
  Tl  Tl4  1  0.000000  0.000000  0.000000  1
  Cd  Cd5  1  0.285340  0.997683  0.500000  1
  Cd  Cd6  1  0.002317  0.287657  0.500000  1
  Cd  Cd7  1  0.712343  0.714660  0.500000  1
  Ir  Ir8  1  0.666667  0.333333  0.500000  1
