# generated using pymatgen
data_Nd5Lu3(Si3Rh)4
_symmetry_space_group_name_H-M   'P 1'
_cell_length_a   8.22500000
_cell_length_b   8.22499918
_cell_length_c   8.12098000
_cell_angle_alpha   90.00000000
_cell_angle_beta   90.00000000
_cell_angle_gamma   120.00000330
_symmetry_Int_Tables_number   1
_chemical_formula_structural   Nd5Lu3(Si3Rh)4
_chemical_formula_sum   'Nd5 Lu3 Si12 Rh4'
_cell_volume   475.78509006
_cell_formula_units_Z   1
loop_
 _symmetry_equiv_pos_site_id
 _symmetry_equiv_pos_as_xyz
  1  'x, y, z'
loop_
 _atom_site_type_symbol
 _atom_site_label
 _atom_site_symmetry_multiplicity
 _atom_site_fract_x
 _atom_site_fract_y
 _atom_site_fract_z
 _atom_site_occupancy
  Nd  Nd0  1  0.000000  0.000000  0.250000  1
  Nd  Nd1  1  0.000000  0.000000  0.750000  1
  Nd  Nd2  1  0.503941  0.496059  0.250000  1
  Nd  Nd3  1  0.503941  0.007883  0.250000  1
  Nd  Nd4  1  0.992117  0.496059  0.250000  1
  Lu  Lu5  1  0.492353  0.507647  0.750000  1
  Lu  Lu6  1  0.492353  0.984705  0.750000  1
  Lu  Lu7  1  0.015295  0.507647  0.750000  1
  Si  Si8  1  0.166665  0.833335  0.507209  1
  Si  Si9  1  0.166665  0.333330  0.507209  1
  Si  Si10  1  0.666670  0.833335  0.507209  1
  Si  Si11  1  0.831098  0.168902  0.507033  1
  Si  Si12  1  0.831098  0.662197  0.507033  1
  Si  Si13  1  0.337803  0.168902  0.507033  1
  Si  Si14  1  0.831098  0.168902  0.992967  1
  Si  Si15  1  0.831098  0.662197  0.992967  1
  Si  Si16  1  0.337803  0.168902  0.992967  1
  Si  Si17  1  0.166665  0.833335  0.992791  1
  Si  Si18  1  0.166665  0.333330  0.992791  1
  Si  Si19  1  0.666670  0.833335  0.992791  1
  Rh  Rh20  1  0.333333  0.666667  0.505166  1
  Rh  Rh21  1  0.666667  0.333333  0.551265  1
  Rh  Rh22  1  0.666667  0.333333  0.948735  1
  Rh  Rh23  1  0.333333  0.666667  0.994834  1
