# generated using pymatgen
data_Tb4Al19Os5
_symmetry_space_group_name_H-M   'P 1'
_cell_length_a   7.58965936
_cell_length_b   7.58965816
_cell_length_c   9.56083427
_cell_angle_alpha   89.98776284
_cell_angle_beta   89.98775764
_cell_angle_gamma   118.86893653
_symmetry_Int_Tables_number   1
_chemical_formula_structural   Tb4Al19Os5
_chemical_formula_sum   'Tb4 Al19 Os5'
_cell_volume   482.29049302
_cell_formula_units_Z   1
loop_
 _symmetry_equiv_pos_site_id
 _symmetry_equiv_pos_as_xyz
  1  'x, y, z'
loop_
 _atom_site_type_symbol
 _atom_site_label
 _atom_site_symmetry_multiplicity
 _atom_site_fract_x
 _atom_site_fract_y
 _atom_site_fract_z
 _atom_site_occupancy
  Tb  Tb0  1  0.997803  0.681353  0.249940  1
  Tb  Tb1  1  0.002197  0.318647  0.750060  1
  Tb  Tb2  1  0.681353  0.997803  0.249940  1
  Tb  Tb3  1  0.318647  0.002197  0.750060  1
  Al  Al4  1  0.142829  0.142829  0.240135  1
  Al  Al5  1  0.857171  0.857171  0.759865  1
  Al  Al6  1  0.002695  0.339130  0.070498  1
  Al  Al7  1  0.997305  0.660870  0.929502  1
  Al  Al8  1  0.994118  0.648296  0.579257  1
  Al  Al9  1  0.351704  0.005882  0.420743  1
  Al  Al10  1  0.005882  0.351704  0.420743  1
  Al  Al11  1  0.648296  0.994118  0.579257  1
  Al  Al12  1  0.660870  0.997305  0.929502  1
  Al  Al13  1  0.339130  0.002695  0.070498  1
  Al  Al14  1  0.346879  0.346879  0.552419  1
  Al  Al15  1  0.653121  0.653121  0.447581  1
  Al  Al16  1  0.665919  0.665919  0.042022  1
  Al  Al17  1  0.334081  0.334081  0.957978  1
  Al  Al18  1  0.338816  0.555148  0.249283  1
  Al  Al19  1  0.661184  0.444852  0.750717  1
  Al  Al20  1  0.555148  0.338816  0.249283  1
  Al  Al21  1  0.444852  0.661184  0.750717  1
  Al  Al22  1  0.000000  0.000000  0.500000  1
  Os  Os23  1  0.671808  0.328192  0.000000  1
  Os  Os24  1  0.328192  0.671808  0.000000  1
  Os  Os25  1  0.327522  0.672478  0.500000  1
  Os  Os26  1  0.672478  0.327522  0.500000  1
  Os  Os27  1  0.000000  0.000000  0.000000  1
