# generated using pymatgen
data_TmLuCd4(Ni7B2)2
_symmetry_space_group_name_H-M   'P 1'
_cell_length_a   4.96168000
_cell_length_b   4.96167833
_cell_length_c   14.02712800
_cell_angle_alpha   90.00000000
_cell_angle_beta   90.00000000
_cell_angle_gamma   120.00001112
_symmetry_Int_Tables_number   1
_chemical_formula_structural   TmLuCd4(Ni7B2)2
_chemical_formula_sum   'Tm1 Lu1 Cd4 Ni14 B4'
_cell_volume   299.05887811
_cell_formula_units_Z   1
loop_
 _symmetry_equiv_pos_site_id
 _symmetry_equiv_pos_as_xyz
  1  'x, y, z'
loop_
 _atom_site_type_symbol
 _atom_site_label
 _atom_site_symmetry_multiplicity
 _atom_site_fract_x
 _atom_site_fract_y
 _atom_site_fract_z
 _atom_site_occupancy
  Tm  Tm0  1  0.666667  0.333333  0.250000  1
  Lu  Lu1  1  0.333333  0.666667  0.750000  1
  Cd  Cd2  1  0.333333  0.666667  0.529962  1
  Cd  Cd3  1  0.666667  0.333333  0.029763  1
  Cd  Cd4  1  0.666667  0.333333  0.470237  1
  Cd  Cd5  1  0.333333  0.666667  0.970038  1
  Ni  Ni6  1  0.000000  0.000000  0.000042  1
  Ni  Ni7  1  0.000000  0.000000  0.499958  1
  Ni  Ni8  1  0.165852  0.331703  0.147417  1
  Ni  Ni9  1  0.834134  0.668268  0.647708  1
  Ni  Ni10  1  0.668297  0.834148  0.147417  1
  Ni  Ni11  1  0.165852  0.834148  0.147417  1
  Ni  Ni12  1  0.834134  0.165866  0.647708  1
  Ni  Ni13  1  0.331732  0.165866  0.647708  1
  Ni  Ni14  1  0.834134  0.668268  0.852292  1
  Ni  Ni15  1  0.834134  0.165866  0.852292  1
  Ni  Ni16  1  0.331732  0.165866  0.852292  1
  Ni  Ni17  1  0.668297  0.834148  0.352583  1
  Ni  Ni18  1  0.165852  0.834148  0.352583  1
  Ni  Ni19  1  0.165852  0.331703  0.352583  1
  B  B20  1  0.333333  0.666667  0.250000  1
  B  B21  1  0.666667  0.333333  0.750000  1
  B  B22  1  0.000000  0.000000  0.250000  1
  B  B23  1  0.000000  0.000000  0.750000  1
