# generated using pymatgen
data_Dy2Ho2SbRh3O14
_symmetry_space_group_name_H-M   'P 1'
_cell_length_a   7.30421082
_cell_length_b   7.30309582
_cell_length_c   7.30309678
_cell_angle_alpha   59.05444975
_cell_angle_beta   59.03604556
_cell_angle_gamma   59.03604691
_symmetry_Int_Tables_number   1
_chemical_formula_structural   Dy2Ho2SbRh3O14
_chemical_formula_sum   'Dy2 Ho2 Sb1 Rh3 O14'
_cell_volume   269.45170079
_cell_formula_units_Z   1
loop_
 _symmetry_equiv_pos_site_id
 _symmetry_equiv_pos_as_xyz
  1  'x, y, z'
loop_
 _atom_site_type_symbol
 _atom_site_label
 _atom_site_symmetry_multiplicity
 _atom_site_fract_x
 _atom_site_fract_y
 _atom_site_fract_z
 _atom_site_occupancy
  Dy  Dy0  1  0.625000  0.125000  0.125000  1
  Dy  Dy1  1  0.125000  0.125000  0.125000  1
  Ho  Ho2  1  0.125000  0.625000  0.125000  1
  Ho  Ho3  1  0.125000  0.125000  0.625000  1
  Sb  Sb4  1  0.625000  0.625000  0.625000  1
  Rh  Rh5  1  0.125000  0.625000  0.625000  1
  Rh  Rh6  1  0.625000  0.125000  0.625000  1
  Rh  Rh7  1  0.625000  0.625000  0.125000  1
  O  O8  1  0.289359  0.711941  0.711941  1
  O  O9  1  0.542110  0.963681  0.963681  1
  O  O10  1  0.712738  0.289238  0.711487  1
  O  O11  1  0.286075  0.286189  0.707345  1
  O  O12  1  0.712738  0.711487  0.289238  1
  O  O13  1  0.001575  0.999862  0.999862  1
  O  O14  1  0.286075  0.707345  0.286189  1
  O  O15  1  0.963925  0.542655  0.963811  1
  O  O16  1  0.963925  0.963811  0.542655  1
  O  O17  1  0.537262  0.538513  0.960762  1
  O  O18  1  0.248425  0.250138  0.250138  1
  O  O19  1  0.537262  0.960762  0.538513  1
  O  O20  1  0.707890  0.286319  0.286319  1
  O  O21  1  0.960641  0.538059  0.538059  1
