# generated using pymatgen
data_Ac5Te9
_symmetry_space_group_name_H-M   'P 1'
_cell_length_a   14.08953811
_cell_length_b   14.08953733
_cell_length_c   11.59240180
_cell_angle_alpha   80.42007814
_cell_angle_beta   80.42007343
_cell_angle_gamma   26.79219968
_symmetry_Int_Tables_number   1
_chemical_formula_structural   Ac5Te9
_chemical_formula_sum   'Ac10 Te18'
_cell_volume   1022.01716964
_cell_formula_units_Z   2
loop_
 _symmetry_equiv_pos_site_id
 _symmetry_equiv_pos_as_xyz
  1  'x, y, z'
loop_
 _atom_site_type_symbol
 _atom_site_label
 _atom_site_symmetry_multiplicity
 _atom_site_fract_x
 _atom_site_fract_y
 _atom_site_fract_z
 _atom_site_occupancy
  Ac  Ac0  1  0.945705  0.044737  0.239289  1
  Ac  Ac1  1  0.146608  0.247095  0.841305  1
  Ac  Ac2  1  0.345025  0.448400  0.436198  1
  Ac  Ac3  1  0.540288  0.651055  0.034263  1
  Ac  Ac4  1  0.751155  0.837026  0.635804  1
  Ac  Ac5  1  0.348946  0.459711  0.965737  1
  Ac  Ac6  1  0.551599  0.654976  0.563802  1
  Ac  Ac7  1  0.752906  0.853391  0.158695  1
  Ac  Ac8  1  0.955262  0.054296  0.760711  1
  Ac  Ac9  1  0.162971  0.248848  0.364196  1
  Te  Te10  1  0.473009  0.571703  0.819842  1
  Te  Te11  1  0.071852  0.176354  0.619777  1
  Te  Te12  1  0.869461  0.978963  0.018698  1
  Te  Te13  1  0.679975  0.763714  0.420929  1
  Te  Te14  1  0.273155  0.374494  0.219647  1
  Te  Te15  1  0.021037  0.130539  0.981302  1
  Te  Te16  1  0.625506  0.726845  0.780353  1
  Te  Te17  1  0.428297  0.526991  0.180158  1
  Te  Te18  1  0.236286  0.320025  0.579071  1
  Te  Te19  1  0.823646  0.928148  0.380223  1
  Te  Te20  1  0.699500  0.300500  0.500000  1
  Te  Te21  1  0.298993  0.900669  0.300785  1
  Te  Te22  1  0.099331  0.701007  0.699215  1
  Te  Te23  1  0.895057  0.494541  0.110889  1
  Te  Te24  1  0.505459  0.104943  0.889111  1
  Te  Te25  1  0.003856  0.604161  0.891607  1
  Te  Te26  1  0.199272  0.800728  0.500000  1
  Te  Te27  1  0.395839  0.996144  0.108393  1
