# generated using pymatgen
data_YbEu(SiPt2)2
_symmetry_space_group_name_H-M   'P 1'
_cell_length_a   4.16624059
_cell_length_b   4.20950100
_cell_length_c   9.12532200
_cell_angle_alpha   90.00000000
_cell_angle_beta   103.19576893
_cell_angle_gamma   90.00000000
_symmetry_Int_Tables_number   1
_chemical_formula_structural   YbEu(SiPt2)2
_chemical_formula_sum   'Yb1 Eu1 Si2 Pt4'
_cell_volume   155.81233495
_cell_formula_units_Z   1
loop_
 _symmetry_equiv_pos_site_id
 _symmetry_equiv_pos_as_xyz
  1  'x, y, z'
loop_
 _atom_site_type_symbol
 _atom_site_label
 _atom_site_symmetry_multiplicity
 _atom_site_fract_x
 _atom_site_fract_y
 _atom_site_fract_z
 _atom_site_occupancy
  Yb  Yb0  1  0.597400  0.250000  0.194798  1
  Eu  Eu1  1  0.402552  0.750000  0.805104  1
  Si  Si2  1  0.822413  0.250000  0.644826  1
  Si  Si3  1  0.177150  0.750000  0.354300  1
  Pt  Pt4  1  0.954636  0.250000  0.909273  1
  Pt  Pt5  1  0.047472  0.750000  0.094945  1
  Pt  Pt6  1  0.250327  0.250000  0.500653  1
  Pt  Pt7  1  0.748050  0.750000  0.496101  1
