# generated using pymatgen
data_Tb2Dy6Hf11Si16Tc
_symmetry_space_group_name_H-M   'P 1'
_cell_length_a   7.24976384
_cell_length_b   7.24928580
_cell_length_c   13.28013003
_cell_angle_alpha   89.95105303
_cell_angle_beta   90.05267537
_cell_angle_gamma   90.04671092
_symmetry_Int_Tables_number   1
_chemical_formula_structural   Tb2Dy6Hf11Si16Tc
_chemical_formula_sum   'Tb2 Dy6 Hf11 Si16 Tc1'
_cell_volume   697.94455393
_cell_formula_units_Z   1
loop_
 _symmetry_equiv_pos_site_id
 _symmetry_equiv_pos_as_xyz
  1  'x, y, z'
loop_
 _atom_site_type_symbol
 _atom_site_label
 _atom_site_symmetry_multiplicity
 _atom_site_fract_x
 _atom_site_fract_y
 _atom_site_fract_z
 _atom_site_occupancy
  Tb  Tb0  1  0.342790  0.998771  0.787874  1
  Tb  Tb1  1  0.656009  0.004621  0.282968  1
  Dy  Dy2  1  0.999029  0.342949  0.212036  1
  Dy  Dy3  1  0.004371  0.655759  0.717008  1
  Dy  Dy4  1  0.156345  0.495346  0.465445  1
  Dy  Dy5  1  0.501089  0.845705  0.033589  1
  Dy  Dy6  1  0.845774  0.501071  0.966343  1
  Dy  Dy7  1  0.495328  0.156395  0.534615  1
  Hf  Hf8  1  0.825229  0.825112  0.500005  1
  Hf  Hf9  1  0.324203  0.674681  0.248547  1
  Hf  Hf10  1  0.674878  0.324401  0.751450  1
  Hf  Hf11  1  0.148305  0.997342  0.373051  1
  Hf  Hf12  1  0.853321  0.004706  0.877690  1
  Hf  Hf13  1  0.503453  0.647836  0.625082  1
  Hf  Hf14  1  0.350257  0.494173  0.877192  1
  Hf  Hf15  1  0.494091  0.350336  0.122818  1
  Hf  Hf16  1  0.647899  0.503405  0.374907  1
  Hf  Hf17  1  0.997373  0.148329  0.626902  1
  Hf  Hf18  1  0.004686  0.853335  0.122324  1
  Si  Si19  1  0.361425  0.295282  0.316089  1
  Si  Si20  1  0.637697  0.704906  0.818306  1
  Si  Si21  1  0.205197  0.862018  0.567397  1
  Si  Si22  1  0.136773  0.794990  0.932410  1
  Si  Si23  1  0.795359  0.137073  0.067665  1
  Si  Si24  1  0.862263  0.205446  0.432747  1
  Si  Si25  1  0.295024  0.361910  0.683832  1
  Si  Si26  1  0.705196  0.637215  0.181594  1
  Si  Si27  1  0.293626  0.052691  0.181656  1
  Si  Si28  1  0.704158  0.951463  0.685817  1
  Si  Si29  1  0.449984  0.796142  0.435082  1
  Si  Si30  1  0.204851  0.547987  0.064412  1
  Si  Si31  1  0.548277  0.205086  0.935665  1
  Si  Si32  1  0.796325  0.450220  0.565043  1
  Si  Si33  1  0.052415  0.294088  0.818236  1
  Si  Si34  1  0.951667  0.703735  0.314109  1
  Tc  Tc35  1  0.175332  0.175476  0.000092  1
