# generated using pymatgen
data_BaHoCr4N7
_symmetry_space_group_name_H-M   'P 1'
_cell_length_a   6.25870400
_cell_length_b   6.25870343
_cell_length_c   10.26302500
_cell_angle_alpha   90.00000000
_cell_angle_beta   90.00000000
_cell_angle_gamma   120.00000302
_symmetry_Int_Tables_number   1
_chemical_formula_structural   BaHoCr4N7
_chemical_formula_sum   'Ba2 Ho2 Cr8 N14'
_cell_volume   348.15672677
_cell_formula_units_Z   2
loop_
 _symmetry_equiv_pos_site_id
 _symmetry_equiv_pos_as_xyz
  1  'x, y, z'
loop_
 _atom_site_type_symbol
 _atom_site_label
 _atom_site_symmetry_multiplicity
 _atom_site_fract_x
 _atom_site_fract_y
 _atom_site_fract_z
 _atom_site_occupancy
  Ba  Ba0  1  0.333333  0.666667  0.364021  1
  Ba  Ba1  1  0.666667  0.333333  0.864021  1
  Ho  Ho2  1  0.333333  0.666667  0.736153  1
  Ho  Ho3  1  0.666667  0.333333  0.236153  1
  Cr  Cr4  1  0.830390  0.660778  0.548957  1
  Cr  Cr5  1  0.169610  0.830390  0.048957  1
  Cr  Cr6  1  0.660778  0.830390  0.048957  1
  Cr  Cr7  1  0.339222  0.169610  0.548957  1
  Cr  Cr8  1  0.830390  0.169610  0.548957  1
  Cr  Cr9  1  0.169610  0.339222  0.048957  1
  Cr  Cr10  1  0.000000  0.000000  0.807977  1
  Cr  Cr11  1  0.000000  0.000000  0.307977  1
  N  N12  1  0.000000  0.000000  0.619233  1
  N  N13  1  0.000000  0.000000  0.119233  1
  N  N14  1  0.157323  0.314645  0.869865  1
  N  N15  1  0.842677  0.157323  0.369865  1
  N  N16  1  0.314645  0.157323  0.369865  1
  N  N17  1  0.685355  0.842677  0.869865  1
  N  N18  1  0.157323  0.842677  0.869865  1
  N  N19  1  0.842677  0.685355  0.369865  1
  N  N20  1  0.982538  0.491270  0.603351  1
  N  N21  1  0.491270  0.982538  0.103351  1
  N  N22  1  0.491270  0.508730  0.103351  1
  N  N23  1  0.508730  0.491270  0.603351  1
  N  N24  1  0.017462  0.508730  0.103351  1
  N  N25  1  0.508730  0.017462  0.603351  1
