# generated using pymatgen
data_Er16Al4PdRh3
_symmetry_space_group_name_H-M   'P 1'
_cell_length_a   9.44102349
_cell_length_b   9.46790205
_cell_length_c   9.46790100
_cell_angle_alpha   59.99999319
_cell_angle_beta   59.90577051
_cell_angle_gamma   59.90577282
_symmetry_Int_Tables_number   1
_chemical_formula_structural   Er16Al4PdRh3
_chemical_formula_sum   'Er16 Al4 Pd1 Rh3'
_cell_volume   597.57373877
_cell_formula_units_Z   1
loop_
 _symmetry_equiv_pos_site_id
 _symmetry_equiv_pos_as_xyz
  1  'x, y, z'
loop_
 _atom_site_type_symbol
 _atom_site_label
 _atom_site_symmetry_multiplicity
 _atom_site_fract_x
 _atom_site_fract_y
 _atom_site_fract_z
 _atom_site_occupancy
  Er  Er0  1  0.350533  0.355897  0.355897  1
  Er  Er1  1  0.350533  0.355897  0.937672  1
  Er  Er2  1  0.350533  0.937672  0.355897  1
  Er  Er3  1  0.942376  0.352541  0.352541  1
  Er  Er4  1  0.812868  0.191095  0.191095  1
  Er  Er5  1  0.190471  0.809626  0.809626  1
  Er  Er6  1  0.190471  0.809626  0.190275  1
  Er  Er7  1  0.812868  0.191095  0.804941  1
  Er  Er8  1  0.190471  0.190275  0.809626  1
  Er  Er9  1  0.812868  0.804941  0.191095  1
  Er  Er10  1  0.935916  0.563384  0.563384  1
  Er  Er11  1  0.561684  0.936767  0.936767  1
  Er  Er12  1  0.561684  0.936767  0.564784  1
  Er  Er13  1  0.935916  0.563384  0.937316  1
  Er  Er14  1  0.561684  0.564784  0.936767  1
  Er  Er15  1  0.935916  0.937316  0.563384  1
  Al  Al16  1  0.578879  0.578189  0.578189  1
  Al  Al17  1  0.578879  0.578189  0.264741  1
  Al  Al18  1  0.578879  0.264741  0.578189  1
  Al  Al19  1  0.265720  0.578093  0.578093  1
  Pd  Pd20  1  0.566541  0.144487  0.144487  1
  Rh  Rh21  1  0.144769  0.142810  0.142810  1
  Rh  Rh22  1  0.144769  0.142810  0.569610  1
  Rh  Rh23  1  0.144769  0.569610  0.142810  1
