# generated using pymatgen
data_Ho3Er2Si3
_symmetry_space_group_name_H-M   'P 1'
_cell_length_a   8.39025200
_cell_length_b   8.39025117
_cell_length_c   6.29780400
_cell_angle_alpha   90.00000000
_cell_angle_beta   90.00000000
_cell_angle_gamma   119.99999537
_symmetry_Int_Tables_number   1
_chemical_formula_structural   Ho3Er2Si3
_chemical_formula_sum   'Ho6 Er4 Si6'
_cell_volume   383.94565717
_cell_formula_units_Z   2
loop_
 _symmetry_equiv_pos_site_id
 _symmetry_equiv_pos_as_xyz
  1  'x, y, z'
loop_
 _atom_site_type_symbol
 _atom_site_label
 _atom_site_symmetry_multiplicity
 _atom_site_fract_x
 _atom_site_fract_y
 _atom_site_fract_z
 _atom_site_occupancy
  Ho  Ho0  1  0.000000  0.757387  0.750000  1
  Ho  Ho1  1  0.000000  0.242613  0.250000  1
  Ho  Ho2  1  0.757387  0.757387  0.250000  1
  Ho  Ho3  1  0.757387  0.000000  0.750000  1
  Ho  Ho4  1  0.242613  0.242613  0.750000  1
  Ho  Ho5  1  0.242613  0.000000  0.250000  1
  Er  Er6  1  0.333333  0.666667  0.500000  1
  Er  Er7  1  0.666667  0.333333  0.000000  1
  Er  Er8  1  0.666667  0.333333  0.500000  1
  Er  Er9  1  0.333333  0.666667  0.000000  1
  Si  Si10  1  0.394640  0.000000  0.750000  1
  Si  Si11  1  0.394640  0.394640  0.250000  1
  Si  Si12  1  0.000000  0.605360  0.250000  1
  Si  Si13  1  0.000000  0.394640  0.750000  1
  Si  Si14  1  0.605360  0.605360  0.750000  1
  Si  Si15  1  0.605360  0.000000  0.250000  1
