# generated using pymatgen
data_NaLuCoH6
_symmetry_space_group_name_H-M   'P 1'
_cell_length_a   6.81943600
_cell_length_b   6.81943600
_cell_length_c   6.81943600
_cell_angle_alpha   90.00000000
_cell_angle_beta   90.00000000
_cell_angle_gamma   90.00000000
_symmetry_Int_Tables_number   1
_chemical_formula_structural   NaLuCoH6
_chemical_formula_sum   'Na4 Lu4 Co4 H24'
_cell_volume   317.13587553
_cell_formula_units_Z   4
loop_
 _symmetry_equiv_pos_site_id
 _symmetry_equiv_pos_as_xyz
  1  'x, y, z'
loop_
 _atom_site_type_symbol
 _atom_site_label
 _atom_site_symmetry_multiplicity
 _atom_site_fract_x
 _atom_site_fract_y
 _atom_site_fract_z
 _atom_site_occupancy
  Na  Na0  1  0.000000  0.000000  0.500000  1
  Na  Na1  1  0.000000  0.500000  0.000000  1
  Na  Na2  1  0.500000  0.000000  0.000000  1
  Na  Na3  1  0.000000  0.000000  0.000000  1
  Lu  Lu4  1  0.500000  0.500000  0.500000  1
  Lu  Lu5  1  0.000000  0.500000  0.500000  1
  Lu  Lu6  1  0.500000  0.000000  0.500000  1
  Lu  Lu7  1  0.500000  0.500000  0.000000  1
  Co  Co8  1  0.267287  0.732713  0.732713  1
  Co  Co9  1  0.732713  0.267287  0.732713  1
  Co  Co10  1  0.732713  0.732713  0.267287  1
  Co  Co11  1  0.267287  0.267287  0.267287  1
  H  H12  1  0.737697  0.737697  0.500789  1
  H  H13  1  0.262303  0.262303  0.500789  1
  H  H14  1  0.033517  0.733421  0.733421  1
  H  H15  1  0.266579  0.966483  0.733421  1
  H  H16  1  0.733421  0.033517  0.733421  1
  H  H17  1  0.966483  0.266579  0.733421  1
  H  H18  1  0.737697  0.500789  0.737697  1
  H  H19  1  0.500789  0.737697  0.737697  1
  H  H20  1  0.499211  0.262303  0.737697  1
  H  H21  1  0.262303  0.499211  0.737697  1
  H  H22  1  0.266579  0.733421  0.966483  1
  H  H23  1  0.733421  0.266579  0.966483  1
  H  H24  1  0.733421  0.733421  0.033517  1
  H  H25  1  0.266579  0.266579  0.033517  1
  H  H26  1  0.262303  0.500789  0.262303  1
  H  H27  1  0.499211  0.737697  0.262303  1
  H  H28  1  0.500789  0.262303  0.262303  1
  H  H29  1  0.737697  0.499211  0.262303  1
  H  H30  1  0.966483  0.733421  0.266579  1
  H  H31  1  0.733421  0.966483  0.266579  1
  H  H32  1  0.266579  0.033517  0.266579  1
  H  H33  1  0.033517  0.266579  0.266579  1
  H  H34  1  0.262303  0.737697  0.499211  1
  H  H35  1  0.737697  0.262303  0.499211  1
