# generated using pymatgen
data_Tm2GaB2Ir4Ru
_symmetry_space_group_name_H-M   'P 1'
_cell_length_a   9.60214200
_cell_length_b   9.60214200
_cell_length_c   3.08503300
_cell_angle_alpha   90.00000000
_cell_angle_beta   90.00000000
_cell_angle_gamma   90.00000000
_symmetry_Int_Tables_number   1
_chemical_formula_structural   Tm2GaB2Ir4Ru
_chemical_formula_sum   'Tm4 Ga2 B4 Ir8 Ru2'
_cell_volume   284.44353174
_cell_formula_units_Z   2
loop_
 _symmetry_equiv_pos_site_id
 _symmetry_equiv_pos_as_xyz
  1  'x, y, z'
loop_
 _atom_site_type_symbol
 _atom_site_label
 _atom_site_symmetry_multiplicity
 _atom_site_fract_x
 _atom_site_fract_y
 _atom_site_fract_z
 _atom_site_occupancy
  Tm  Tm0  1  0.825571  0.325571  0.000000  1
  Tm  Tm1  1  0.174429  0.674429  0.000000  1
  Tm  Tm2  1  0.325571  0.174429  0.000000  1
  Tm  Tm3  1  0.674429  0.825571  0.000000  1
  Ga  Ga4  1  0.500000  0.500000  0.000000  1
  Ga  Ga5  1  0.000000  0.000000  0.000000  1
  B  B6  1  0.621734  0.121734  0.000000  1
  B  B7  1  0.378266  0.878266  0.000000  1
  B  B8  1  0.121734  0.378266  0.000000  1
  B  B9  1  0.878266  0.621734  0.000000  1
  Ir  Ir10  1  0.717688  0.569692  0.500000  1
  Ir  Ir11  1  0.282312  0.430308  0.500000  1
  Ir  Ir12  1  0.217688  0.930308  0.500000  1
  Ir  Ir13  1  0.782312  0.069692  0.500000  1
  Ir  Ir14  1  0.430308  0.717688  0.500000  1
  Ir  Ir15  1  0.569692  0.282312  0.500000  1
  Ir  Ir16  1  0.069692  0.217688  0.500000  1
  Ir  Ir17  1  0.930308  0.782312  0.500000  1
  Ru  Ru18  1  0.500000  0.000000  0.500000  1
  Ru  Ru19  1  0.000000  0.500000  0.500000  1
