# generated using pymatgen
data_NaBC7
_symmetry_space_group_name_H-M   'P 1'
_cell_length_a   5.06926004
_cell_length_b   5.06364730
_cell_length_c   4.66539100
_cell_angle_alpha   90.00000000
_cell_angle_beta   90.00000000
_cell_angle_gamma   119.96338415
_symmetry_Int_Tables_number   1
_chemical_formula_structural   NaBC7
_chemical_formula_sum   'Na1 B1 C7'
_cell_volume   103.74969254
_cell_formula_units_Z   1
loop_
 _symmetry_equiv_pos_site_id
 _symmetry_equiv_pos_as_xyz
  1  'x, y, z'
loop_
 _atom_site_type_symbol
 _atom_site_label
 _atom_site_symmetry_multiplicity
 _atom_site_fract_x
 _atom_site_fract_y
 _atom_site_fract_z
 _atom_site_occupancy
  Na  Na0  1  0.999181  0.999590  0.500000  1
  B  B1  1  0.335167  0.167583  0.000000  1
  C  C2  1  0.834402  0.170550  0.000000  1
  C  C3  1  0.675276  0.337637  0.000000  1
  C  C4  1  0.163091  0.337848  0.000000  1
  C  C5  1  0.834403  0.663852  0.000000  1
  C  C6  1  0.330025  0.665012  0.000000  1
  C  C7  1  0.163090  0.825241  0.000000  1
  C  C8  1  0.665366  0.832682  0.000000  1
