# generated using pymatgen
data_La3RhAu5
_symmetry_space_group_name_H-M   'P 1'
_cell_length_a   7.90177700
_cell_length_b   7.90177845
_cell_length_c   3.94085500
_cell_angle_alpha   90.00000000
_cell_angle_beta   90.00000000
_cell_angle_gamma   119.99999813
_symmetry_Int_Tables_number   1
_chemical_formula_structural   La3RhAu5
_chemical_formula_sum   'La3 Rh1 Au5'
_cell_volume   213.09375059
_cell_formula_units_Z   1
loop_
 _symmetry_equiv_pos_site_id
 _symmetry_equiv_pos_as_xyz
  1  'x, y, z'
loop_
 _atom_site_type_symbol
 _atom_site_label
 _atom_site_symmetry_multiplicity
 _atom_site_fract_x
 _atom_site_fract_y
 _atom_site_fract_z
 _atom_site_occupancy
  La  La0  1  0.408426  0.022681  0.000000  1
  La  La1  1  0.614255  0.591574  0.000000  1
  La  La2  1  0.977319  0.385745  0.000000  1
  Rh  Rh3  1  0.666667  0.333333  0.500000  1
  Au  Au4  1  0.729984  0.001283  0.500000  1
  Au  Au5  1  0.271300  0.270016  0.500000  1
  Au  Au6  1  0.998717  0.728700  0.500000  1
  Au  Au7  1  0.333333  0.666667  0.500000  1
  Au  Au8  1  0.000000  0.000000  0.000000  1
