# generated using pymatgen
data_Nb9CrSe16
_symmetry_space_group_name_H-M   'P 1'
_cell_length_a   6.99431100
_cell_length_b   6.99431261
_cell_length_c   13.04225300
_cell_angle_alpha   90.00000000
_cell_angle_beta   90.00000000
_cell_angle_gamma   120.00000658
_symmetry_Int_Tables_number   1
_chemical_formula_structural   Nb9CrSe16
_chemical_formula_sum   'Nb9 Cr1 Se16'
_cell_volume   552.55205927
_cell_formula_units_Z   1
loop_
 _symmetry_equiv_pos_site_id
 _symmetry_equiv_pos_as_xyz
  1  'x, y, z'
loop_
 _atom_site_type_symbol
 _atom_site_label
 _atom_site_symmetry_multiplicity
 _atom_site_fract_x
 _atom_site_fract_y
 _atom_site_fract_z
 _atom_site_occupancy
  Nb  Nb0  1  0.000000  0.000000  0.247975  1
  Nb  Nb1  1  0.000000  0.000000  0.752025  1
  Nb  Nb2  1  0.507588  0.015178  0.246315  1
  Nb  Nb3  1  0.492412  0.984822  0.753685  1
  Nb  Nb4  1  0.984822  0.492412  0.246315  1
  Nb  Nb5  1  0.015178  0.507588  0.753685  1
  Nb  Nb6  1  0.507588  0.492412  0.246315  1
  Nb  Nb7  1  0.492412  0.507588  0.753685  1
  Nb  Nb8  1  0.000000  0.000000  0.500000  1
  Cr  Cr9  1  0.000000  0.000000  0.000000  1
  Se  Se10  1  0.333333  0.666667  0.620621  1
  Se  Se11  1  0.666667  0.333333  0.379379  1
  Se  Se12  1  0.666667  0.333333  0.113919  1
  Se  Se13  1  0.333333  0.666667  0.886081  1
  Se  Se14  1  0.167128  0.334257  0.118636  1
  Se  Se15  1  0.832872  0.665743  0.881364  1
  Se  Se16  1  0.665743  0.832872  0.118636  1
  Se  Se17  1  0.830942  0.661885  0.625392  1
  Se  Se18  1  0.334257  0.167128  0.881364  1
  Se  Se19  1  0.169058  0.338115  0.374608  1
  Se  Se20  1  0.167128  0.832872  0.118636  1
  Se  Se21  1  0.338115  0.169058  0.625392  1
  Se  Se22  1  0.832872  0.167128  0.881364  1
  Se  Se23  1  0.661885  0.830942  0.374608  1
  Se  Se24  1  0.830942  0.169058  0.625392  1
  Se  Se25  1  0.169058  0.830942  0.374608  1
