# generated using pymatgen
data_Er8In2RuRh
_symmetry_space_group_name_H-M   'P 1'
_cell_length_a   9.57972233
_cell_length_b   9.56817956
_cell_length_c   9.56817979
_cell_angle_alpha   59.91357201
_cell_angle_beta   59.96008916
_cell_angle_gamma   59.96009138
_symmetry_Int_Tables_number   1
_chemical_formula_structural   Er8In2RuRh
_chemical_formula_sum   'Er16 In4 Ru2 Rh2'
_cell_volume   619.37003293
_cell_formula_units_Z   2
loop_
 _symmetry_equiv_pos_site_id
 _symmetry_equiv_pos_as_xyz
  1  'x, y, z'
loop_
 _atom_site_type_symbol
 _atom_site_label
 _atom_site_symmetry_multiplicity
 _atom_site_fract_x
 _atom_site_fract_y
 _atom_site_fract_z
 _atom_site_occupancy
  Er  Er0  1  0.189557  0.194040  0.809120  1
  Er  Er1  1  0.438281  0.061719  0.061719  1
  Er  Er2  1  0.442239  0.059357  0.438289  1
  Er  Er3  1  0.060114  0.438289  0.059357  1
  Er  Er4  1  0.651796  0.045976  0.650432  1
  Er  Er5  1  0.191837  0.808163  0.808163  1
  Er  Er6  1  0.060114  0.059357  0.438289  1
  Er  Er7  1  0.807668  0.192332  0.192332  1
  Er  Er8  1  0.807283  0.809120  0.194040  1
  Er  Er9  1  0.651796  0.650432  0.045976  1
  Er  Er10  1  0.653927  0.650396  0.650396  1
  Er  Er11  1  0.059994  0.440006  0.440006  1
  Er  Er12  1  0.045282  0.650396  0.650396  1
  Er  Er13  1  0.807283  0.194040  0.809120  1
  Er  Er14  1  0.442239  0.438289  0.059357  1
  Er  Er15  1  0.189557  0.809120  0.194040  1
  In  In16  1  0.417709  0.748273  0.416309  1
  In  In17  1  0.417709  0.416309  0.748273  1
  In  In18  1  0.748793  0.417061  0.417061  1
  In  In19  1  0.417085  0.417061  0.417061  1
  Ru  Ru20  1  0.859438  0.421568  0.859556  1
  Ru  Ru21  1  0.859438  0.859556  0.421568  1
  Rh  Rh22  1  0.421278  0.859569  0.859569  1
  Rh  Rh23  1  0.859583  0.859569  0.859569  1
