# generated using pymatgen
data_Yb4P7Ir8
_symmetry_space_group_name_H-M   'P 1'
_cell_length_a   3.96613800
_cell_length_b   12.61370560
_cell_length_c   13.08240136
_cell_angle_alpha   81.05952580
_cell_angle_beta   90.00000000
_cell_angle_gamma   90.00000000
_symmetry_Int_Tables_number   1
_chemical_formula_structural   Yb4P7Ir8
_chemical_formula_sum   'Yb8 P14 Ir16'
_cell_volume   646.53066765
_cell_formula_units_Z   2
loop_
 _symmetry_equiv_pos_site_id
 _symmetry_equiv_pos_as_xyz
  1  'x, y, z'
loop_
 _atom_site_type_symbol
 _atom_site_label
 _atom_site_symmetry_multiplicity
 _atom_site_fract_x
 _atom_site_fract_y
 _atom_site_fract_z
 _atom_site_occupancy
  Yb  Yb0  1  0.750000  0.786681  0.566120  1
  Yb  Yb1  1  0.250000  0.213319  0.433880  1
  Yb  Yb2  1  0.750000  0.486027  0.708900  1
  Yb  Yb3  1  0.250000  0.513973  0.291100  1
  Yb  Yb4  1  0.750000  0.715539  0.893987  1
  Yb  Yb5  1  0.250000  0.101848  0.792329  1
  Yb  Yb6  1  0.750000  0.898152  0.207671  1
  Yb  Yb7  1  0.250000  0.284461  0.106013  1
  P  P8  1  0.250000  0.908023  0.412702  1
  P  P9  1  0.750000  0.472091  0.128301  1
  P  P10  1  0.250000  0.527909  0.871699  1
  P  P11  1  0.750000  0.091977  0.587298  1
  P  P12  1  0.250000  0.742661  0.081525  1
  P  P13  1  0.750000  0.257339  0.918475  1
  P  P14  1  0.750000  0.155230  0.281237  1
  P  P15  1  0.250000  0.844770  0.718763  1
  P  P16  1  0.250000  0.055391  0.099722  1
  P  P17  1  0.750000  0.944609  0.900278  1
  P  P18  1  0.250000  0.308524  0.688465  1
  P  P19  1  0.750000  0.691476  0.311535  1
  P  P20  1  0.250000  0.610183  0.562496  1
  P  P21  1  0.750000  0.389817  0.437504  1
  Ir  Ir22  1  0.250000  0.985240  0.575181  1
  Ir  Ir23  1  0.750000  0.014760  0.424819  1
  Ir  Ir24  1  0.250000  0.662675  0.727695  1
  Ir  Ir25  1  0.750000  0.337325  0.272305  1
  Ir  Ir26  1  0.250000  0.554334  0.047898  1
  Ir  Ir27  1  0.750000  0.445666  0.952102  1
  Ir  Ir28  1  0.250000  0.061462  0.273394  1
  Ir  Ir29  1  0.750000  0.938538  0.726606  1
  Ir  Ir30  1  0.250000  0.423122  0.527649  1
  Ir  Ir31  1  0.750000  0.576878  0.472351  1
  Ir  Ir32  1  0.250000  0.916378  0.998942  1
  Ir  Ir33  1  0.750000  0.083622  0.001058  1
  Ir  Ir34  1  0.250000  0.728451  0.395335  1
  Ir  Ir35  1  0.750000  0.271549  0.604665  1
  Ir  Ir36  1  0.250000  0.340405  0.857362  1
  Ir  Ir37  1  0.750000  0.659595  0.142638  1
