# generated using pymatgen
data_La16In3AgIr4
_symmetry_space_group_name_H-M   'P 1'
_cell_length_a   10.09245576
_cell_length_b   10.16328171
_cell_length_c   10.16328200
_cell_angle_alpha   60.00000557
_cell_angle_beta   59.76758876
_cell_angle_gamma   59.76759276
_symmetry_Int_Tables_number   1
_chemical_formula_structural   La16In3AgIr4
_chemical_formula_sum   'La16 In3 Ag1 Ir4'
_cell_volume   734.53962842
_cell_formula_units_Z   1
loop_
 _symmetry_equiv_pos_site_id
 _symmetry_equiv_pos_as_xyz
  1  'x, y, z'
loop_
 _atom_site_type_symbol
 _atom_site_label
 _atom_site_symmetry_multiplicity
 _atom_site_fract_x
 _atom_site_fract_y
 _atom_site_fract_z
 _atom_site_occupancy
  La  La0  1  0.347784  0.347063  0.347063  1
  La  La1  1  0.347784  0.347063  0.958090  1
  La  La2  1  0.347784  0.958090  0.347063  1
  La  La3  1  0.959309  0.346897  0.346897  1
  La  La4  1  0.807995  0.192243  0.192243  1
  La  La5  1  0.189930  0.809553  0.809553  1
  La  La6  1  0.189930  0.809553  0.190965  1
  La  La7  1  0.807995  0.192243  0.807518  1
  La  La8  1  0.189930  0.190965  0.809553  1
  La  La9  1  0.807995  0.807518  0.192243  1
  La  La10  1  0.942893  0.559555  0.559555  1
  La  La11  1  0.562598  0.938904  0.938904  1
  La  La12  1  0.562598  0.938904  0.559595  1
  La  La13  1  0.942893  0.559555  0.937997  1
  La  La14  1  0.562598  0.559595  0.938904  1
  La  La15  1  0.942893  0.937997  0.559555  1
  In  In16  1  0.577377  0.580190  0.580190  1
  In  In17  1  0.577377  0.580190  0.262244  1
  In  In18  1  0.577377  0.262244  0.580190  1
  Ag  Ag19  1  0.254749  0.581750  0.581750  1
  Ir  Ir20  1  0.141152  0.140716  0.140716  1
  Ir  Ir21  1  0.141152  0.140716  0.577418  1
  Ir  Ir22  1  0.141152  0.577418  0.140716  1
  Ir  Ir23  1  0.576765  0.141078  0.141078  1
