# generated using pymatgen
data_Ho15ErInHg3Rh4
_symmetry_space_group_name_H-M   'P 1'
_cell_length_a   9.55945890
_cell_length_b   9.56225073
_cell_length_c   9.57027200
_cell_angle_alpha   59.97224727
_cell_angle_beta   59.96257507
_cell_angle_gamma   59.91317485
_symmetry_Int_Tables_number   1
_chemical_formula_structural   Ho15ErInHg3Rh4
_chemical_formula_sum   'Ho15 Er1 In1 Hg3 Rh4'
_cell_volume   617.87853523
_cell_formula_units_Z   1
loop_
 _symmetry_equiv_pos_site_id
 _symmetry_equiv_pos_as_xyz
  1  'x, y, z'
loop_
 _atom_site_type_symbol
 _atom_site_label
 _atom_site_symmetry_multiplicity
 _atom_site_fract_x
 _atom_site_fract_y
 _atom_site_fract_z
 _atom_site_occupancy
  Ho  Ho0  1  0.601210  0.601033  0.197146  1
  Ho  Ho1  1  0.438516  0.060833  0.439502  1
  Ho  Ho2  1  0.440907  0.438479  0.060307  1
  Ho  Ho3  1  0.813854  0.184474  0.813685  1
  Ho  Ho4  1  0.187553  0.812568  0.186386  1
  Ho  Ho5  1  0.438516  0.060833  0.061150  1
  Ho  Ho6  1  0.187553  0.812568  0.813493  1
  Ho  Ho7  1  0.060111  0.438009  0.060820  1
  Ho  Ho8  1  0.813322  0.812650  0.187014  1
  Ho  Ho9  1  0.196492  0.601295  0.601107  1
  Ho  Ho10  1  0.060111  0.438009  0.441061  1
  Ho  Ho11  1  0.061024  0.061084  0.438946  1
  Ho  Ho12  1  0.813854  0.184474  0.187987  1
  Ho  Ho13  1  0.601866  0.195295  0.601419  1
  Ho  Ho14  1  0.601210  0.601033  0.600611  1
  Er  Er15  1  0.189092  0.184110  0.813399  1
  In  In16  1  0.831010  0.506050  0.831470  1
  Hg  Hg17  1  0.834792  0.835172  0.834791  1
  Hg  Hg18  1  0.834792  0.835172  0.495247  1
  Hg  Hg19  1  0.493759  0.835727  0.835258  1
  Rh  Rh20  1  0.393361  0.820887  0.392876  1
  Rh  Rh21  1  0.392912  0.393341  0.392761  1
  Rh  Rh22  1  0.821273  0.393565  0.392581  1
  Rh  Rh23  1  0.392912  0.393341  0.820985  1
