# generated using pymatgen
data_TbSmCo17Si8Ni
_symmetry_space_group_name_H-M   'P 1'
_cell_length_a   7.91279465
_cell_length_b   7.91127288
_cell_length_c   7.93289609
_cell_angle_alpha   121.68569698
_cell_angle_beta   121.69244853
_cell_angle_gamma   87.18292754
_symmetry_Int_Tables_number   1
_chemical_formula_structural   TbSmCo17Si8Ni
_chemical_formula_sum   'Tb1 Sm1 Co17 Si8 Ni1'
_cell_volume   341.46872275
_cell_formula_units_Z   1
loop_
 _symmetry_equiv_pos_site_id
 _symmetry_equiv_pos_as_xyz
  1  'x, y, z'
loop_
 _atom_site_type_symbol
 _atom_site_label
 _atom_site_symmetry_multiplicity
 _atom_site_fract_x
 _atom_site_fract_y
 _atom_site_fract_z
 _atom_site_occupancy
  Tb  Tb0  1  0.251175  0.249719  0.999830  1
  Sm  Sm1  1  0.749829  0.751088  0.999921  1
  Co  Co2  1  0.687952  0.188947  0.237383  1
  Co  Co3  1  0.000186  0.500191  0.499910  1
  Co  Co4  1  0.931186  0.199193  0.128582  1
  Co  Co5  1  0.801543  0.931406  0.732732  1
  Co  Co6  1  0.448958  0.687508  0.498757  1
  Co  Co7  1  0.069109  0.802069  0.871357  1
  Co  Co8  1  0.811545  0.049989  0.500461  1
  Co  Co9  1  0.549017  0.310576  0.498563  1
  Co  Co10  1  0.950125  0.449233  0.758663  1
  Co  Co11  1  0.188548  0.949944  0.500740  1
  Co  Co12  1  0.301531  0.568526  0.871355  1
  Co  Co13  1  0.568756  0.697014  0.267497  1
  Co  Co14  1  0.430902  0.300954  0.732742  1
  Co  Co15  1  0.197594  0.069282  0.267499  1
  Co  Co16  1  0.698609  0.430597  0.128510  1
  Co  Co17  1  0.499076  0.999149  0.499441  1
  Co  Co18  1  0.311931  0.812987  0.764729  1
  Si  Si19  1  0.046277  0.209055  0.499934  1
  Si  Si20  1  0.209593  0.708915  0.161091  1
  Si  Si21  1  0.790087  0.289434  0.834244  1
  Si  Si22  1  0.453985  0.954575  0.164112  1
  Si  Si23  1  0.545485  0.046098  0.836390  1
  Si  Si24  1  0.954590  0.793169  0.504630  1
  Si  Si25  1  0.292453  0.453980  0.503363  1
  Si  Si26  1  0.708377  0.545675  0.498679  1
  Ni  Ni27  1  0.051580  0.550725  0.238882  1
