# generated using pymatgen
data_Yb2GdUN4
_symmetry_space_group_name_H-M   'P 1'
_cell_length_a   6.07138803
_cell_length_b   6.07179405
_cell_length_c   4.87837500
_cell_angle_alpha   66.31947907
_cell_angle_beta   66.31751790
_cell_angle_gamma   47.37371062
_symmetry_Int_Tables_number   1
_chemical_formula_structural   Yb2GdUN4
_chemical_formula_sum   'Yb2 Gd1 U1 N4'
_cell_volume   118.91528400
_cell_formula_units_Z   1
loop_
 _symmetry_equiv_pos_site_id
 _symmetry_equiv_pos_as_xyz
  1  'x, y, z'
loop_
 _atom_site_type_symbol
 _atom_site_label
 _atom_site_symmetry_multiplicity
 _atom_site_fract_x
 _atom_site_fract_y
 _atom_site_fract_z
 _atom_site_occupancy
  Yb  Yb0  1  0.247369  0.252631  0.252631  1
  Yb  Yb1  1  0.497506  0.502494  0.502494  1
  Gd  Gd2  1  0.747240  0.752760  0.752760  1
  U  U3  1  0.998136  0.001864  0.001864  1
  N  N4  1  0.990875  0.996035  0.513027  1
  N  N5  1  0.209819  0.215086  0.790170  1
  N  N6  1  0.500063  0.513027  0.996035  1
  N  N7  1  0.784926  0.790170  0.215086  1
