# generated using pymatgen
data_Ac16Cd4IrRu3
_symmetry_space_group_name_H-M   'P 1'
_cell_length_a   10.49238991
_cell_length_b   10.50729856
_cell_length_c   10.50730000
_cell_angle_alpha   60.00000175
_cell_angle_beta   59.95298759
_cell_angle_gamma   59.95299397
_symmetry_Int_Tables_number   1
_chemical_formula_structural   Ac16Cd4IrRu3
_chemical_formula_sum   'Ac16 Cd4 Ir1 Ru3'
_cell_volume   818.52638381
_cell_formula_units_Z   1
loop_
 _symmetry_equiv_pos_site_id
 _symmetry_equiv_pos_as_xyz
  1  'x, y, z'
loop_
 _atom_site_type_symbol
 _atom_site_label
 _atom_site_symmetry_multiplicity
 _atom_site_fract_x
 _atom_site_fract_y
 _atom_site_fract_z
 _atom_site_occupancy
  Ac  Ac0  1  0.344204  0.345966  0.345966  1
  Ac  Ac1  1  0.344204  0.345966  0.963864  1
  Ac  Ac2  1  0.344204  0.963864  0.345966  1
  Ac  Ac3  1  0.965229  0.344924  0.344924  1
  Ac  Ac4  1  0.813442  0.188444  0.188444  1
  Ac  Ac5  1  0.188271  0.812499  0.812499  1
  Ac  Ac6  1  0.188271  0.812499  0.186729  1
  Ac  Ac7  1  0.813442  0.188444  0.809668  1
  Ac  Ac8  1  0.188271  0.186729  0.812499  1
  Ac  Ac9  1  0.813442  0.809668  0.188444  1
  Ac  Ac10  1  0.938821  0.561614  0.561614  1
  Ac  Ac11  1  0.559974  0.939286  0.939286  1
  Ac  Ac12  1  0.559974  0.939286  0.561455  1
  Ac  Ac13  1  0.938821  0.561614  0.937950  1
  Ac  Ac14  1  0.559974  0.561455  0.939286  1
  Ac  Ac15  1  0.938821  0.937950  0.561614  1
  Cd  Cd16  1  0.578795  0.578958  0.578958  1
  Cd  Cd17  1  0.578795  0.578958  0.263288  1
  Cd  Cd18  1  0.578795  0.263288  0.578958  1
  Cd  Cd19  1  0.263671  0.578776  0.578776  1
  Ir  Ir20  1  0.580387  0.139871  0.139871  1
  Ru  Ru21  1  0.140062  0.136873  0.136873  1
  Ru  Ru22  1  0.140062  0.136873  0.586191  1
  Ru  Ru23  1  0.140062  0.586191  0.136873  1
