# generated using pymatgen
data_Dy2YZnIn3Pt2
_symmetry_space_group_name_H-M   'P 1'
_cell_length_a   7.68244100
_cell_length_b   7.71867802
_cell_length_c   3.86607600
_cell_angle_alpha   90.00000000
_cell_angle_beta   90.00000000
_cell_angle_gamma   119.84482538
_symmetry_Int_Tables_number   1
_chemical_formula_structural   Dy2YZnIn3Pt2
_chemical_formula_sum   'Dy2 Y1 Zn1 In3 Pt2'
_cell_volume   198.84750096
_cell_formula_units_Z   1
loop_
 _symmetry_equiv_pos_site_id
 _symmetry_equiv_pos_as_xyz
  1  'x, y, z'
loop_
 _atom_site_type_symbol
 _atom_site_label
 _atom_site_symmetry_multiplicity
 _atom_site_fract_x
 _atom_site_fract_y
 _atom_site_fract_z
 _atom_site_occupancy
  Dy  Dy0  1  0.408174  0.408369  0.500000  1
  Dy  Dy1  1  0.999805  0.591631  0.500000  1
  Y  Y2  1  0.592249  0.000000  0.500000  1
  Zn  Zn3  1  0.000212  0.000000  0.500000  1
  In  In4  1  0.740663  0.739713  0.000000  1
  In  In5  1  0.000950  0.260287  0.000000  1
  In  In6  1  0.259130  0.000000  0.000000  1
  Pt  Pt7  1  0.331770  0.664724  0.000000  1
  Pt  Pt8  1  0.667047  0.335276  0.000000  1
