# generated using pymatgen
data_LaSm3Cu(AuO4)3
_symmetry_space_group_name_H-M   'P 1'
_cell_length_a   3.95856210
_cell_length_b   5.62429900
_cell_length_c   12.92453387
_cell_angle_alpha   90.00000000
_cell_angle_beta   88.81900783
_cell_angle_gamma   90.00000000
_symmetry_Int_Tables_number   1
_chemical_formula_structural   LaSm3Cu(AuO4)3
_chemical_formula_sum   'La1 Sm3 Cu1 Au3 O12'
_cell_volume   287.69246487
_cell_formula_units_Z   1
loop_
 _symmetry_equiv_pos_site_id
 _symmetry_equiv_pos_as_xyz
  1  'x, y, z'
loop_
 _atom_site_type_symbol
 _atom_site_label
 _atom_site_symmetry_multiplicity
 _atom_site_fract_x
 _atom_site_fract_y
 _atom_site_fract_z
 _atom_site_occupancy
  La  La0  1  0.714653  0.750000  0.585306  1
  Sm  Sm1  1  0.267359  0.750000  0.077364  1
  Sm  Sm2  1  0.244611  0.250000  0.424354  1
  Sm  Sm3  1  0.753939  0.250000  0.918697  1
  Cu  Cu4  1  0.068502  0.250000  0.671020  1
  Au  Au5  1  0.087230  0.750000  0.826099  1
  Au  Au6  1  0.933247  0.250000  0.168000  1
  Au  Au7  1  0.923244  0.750000  0.330172  1
  O  O8  1  0.185887  0.500668  0.248612  1
  O  O9  1  0.841371  0.016893  0.750395  1
  O  O10  1  0.841371  0.483107  0.750395  1
  O  O11  1  0.185887  0.999332  0.248612  1
  O  O12  1  0.747966  0.500316  0.073724  1
  O  O13  1  0.727552  0.498286  0.424013  1
  O  O14  1  0.271558  0.997968  0.920908  1
  O  O15  1  0.229275  0.018770  0.581844  1
  O  O16  1  0.727552  0.001714  0.424013  1
  O  O17  1  0.747966  0.999684  0.073724  1
  O  O18  1  0.229275  0.481230  0.581844  1
  O  O19  1  0.271558  0.502032  0.920908  1
