# generated using pymatgen
data_Tm15Lu5Bi11Te
_symmetry_space_group_name_H-M   'P 1'
_cell_length_a   8.12867855
_cell_length_b   9.42953514
_cell_length_c   11.85114100
_cell_angle_alpha   90.00491565
_cell_angle_beta   89.97896699
_cell_angle_gamma   90.00843558
_symmetry_Int_Tables_number   1
_chemical_formula_structural   Tm15Lu5Bi11Te
_chemical_formula_sum   'Tm15 Lu5 Bi11 Te1'
_cell_volume   908.38585366
_cell_formula_units_Z   1
loop_
 _symmetry_equiv_pos_site_id
 _symmetry_equiv_pos_as_xyz
  1  'x, y, z'
loop_
 _atom_site_type_symbol
 _atom_site_label
 _atom_site_symmetry_multiplicity
 _atom_site_fract_x
 _atom_site_fract_y
 _atom_site_fract_z
 _atom_site_occupancy
  Tm  Tm0  1  0.356301  0.249703  0.285382  1
  Tm  Tm1  1  0.644626  0.749928  0.717128  1
  Tm  Tm2  1  0.144633  0.749790  0.781577  1
  Tm  Tm3  1  0.854845  0.249814  0.217550  1
  Tm  Tm4  1  0.188376  0.249848  0.781139  1
  Tm  Tm5  1  0.811877  0.749998  0.217529  1
  Tm  Tm6  1  0.312943  0.749959  0.282547  1
  Tm  Tm7  1  0.682449  0.249968  0.714854  1
  Tm  Tm8  1  0.806855  0.934550  0.940609  1
  Tm  Tm9  1  0.308611  0.937239  0.559045  1
  Tm  Tm10  1  0.807283  0.565578  0.940748  1
  Tm  Tm11  1  0.690771  0.068272  0.441994  1
  Tm  Tm12  1  0.193186  0.433540  0.059601  1
  Tm  Tm13  1  0.690736  0.431701  0.441989  1
  Tm  Tm14  1  0.308672  0.562797  0.559072  1
  Lu  Lu15  1  0.024811  0.249997  0.511186  1
  Lu  Lu16  1  0.977349  0.749916  0.489686  1
  Lu  Lu17  1  0.476147  0.749961  0.011172  1
  Lu  Lu18  1  0.524048  0.249833  0.988871  1
  Lu  Lu19  1  0.193405  0.067328  0.059782  1
  Bi  Bi20  1  0.596080  0.750013  0.457025  1
  Bi  Bi21  1  0.095750  0.751228  0.042989  1
  Bi  Bi22  1  0.905365  0.249749  0.956204  1
  Bi  Bi23  1  0.066785  0.003637  0.326537  1
  Bi  Bi24  1  0.933458  0.997091  0.674257  1
  Bi  Bi25  1  0.433768  0.996314  0.825616  1
  Bi  Bi26  1  0.933367  0.502747  0.674265  1
  Bi  Bi27  1  0.566468  0.003835  0.173823  1
  Bi  Bi28  1  0.066751  0.496233  0.326478  1
  Bi  Bi29  1  0.566557  0.495928  0.173875  1
  Bi  Bi30  1  0.433634  0.503472  0.825590  1
  Te  Te31  1  0.404100  0.250034  0.541878  1
