# generated using pymatgen
data_Li2PrSmSb2
_symmetry_space_group_name_H-M   'P 1'
_cell_length_a   4.73370100
_cell_length_b   4.73370047
_cell_length_c   7.48795600
_cell_angle_alpha   90.00000000
_cell_angle_beta   90.00000000
_cell_angle_gamma   119.99999670
_symmetry_Int_Tables_number   1
_chemical_formula_structural   Li2PrSmSb2
_chemical_formula_sum   'Li2 Pr1 Sm1 Sb2'
_cell_volume   145.31000806
_cell_formula_units_Z   1
loop_
 _symmetry_equiv_pos_site_id
 _symmetry_equiv_pos_as_xyz
  1  'x, y, z'
loop_
 _atom_site_type_symbol
 _atom_site_label
 _atom_site_symmetry_multiplicity
 _atom_site_fract_x
 _atom_site_fract_y
 _atom_site_fract_z
 _atom_site_occupancy
  Li  Li0  1  0.666667  0.333333  0.263239  1
  Li  Li1  1  0.333333  0.666667  0.736761  1
  Pr  Pr2  1  0.000000  0.000000  0.000000  1
  Sm  Sm3  1  0.000000  0.000000  0.500000  1
  Sb  Sb4  1  0.666667  0.333333  0.742610  1
  Sb  Sb5  1  0.333333  0.666667  0.257390  1
