# generated using pymatgen
data_CaYLu2(B6Ru)2
_symmetry_space_group_name_H-M   'P 1'
_cell_length_a   3.61865400
_cell_length_b   9.09417501
_cell_length_c   11.50102600
_cell_angle_alpha   89.85499863
_cell_angle_beta   90.00000000
_cell_angle_gamma   90.00000000
_symmetry_Int_Tables_number   1
_chemical_formula_structural   CaYLu2(B6Ru)2
_chemical_formula_sum   'Ca2 Y2 Lu4 B24 Ru4'
_cell_volume   378.48228915
_cell_formula_units_Z   2
loop_
 _symmetry_equiv_pos_site_id
 _symmetry_equiv_pos_as_xyz
  1  'x, y, z'
loop_
 _atom_site_type_symbol
 _atom_site_label
 _atom_site_symmetry_multiplicity
 _atom_site_fract_x
 _atom_site_fract_y
 _atom_site_fract_z
 _atom_site_occupancy
  Ca  Ca0  1  0.000000  0.323599  0.415047  1
  Ca  Ca1  1  0.000000  0.676401  0.584953  1
  Y  Y2  1  0.000000  0.821754  0.086004  1
  Y  Y3  1  0.000000  0.178246  0.913996  1
  Lu  Lu4  1  0.000000  0.942176  0.369896  1
  Lu  Lu5  1  0.000000  0.057824  0.630104  1
  Lu  Lu6  1  0.000000  0.442940  0.130444  1
  Lu  Lu7  1  0.000000  0.557060  0.869556  1
  B  B8  1  0.500000  0.554600  0.431745  1
  B  B9  1  0.500000  0.445400  0.568255  1
  B  B10  1  0.500000  0.054266  0.067010  1
  B  B11  1  0.500000  0.945734  0.932990  1
  B  B12  1  0.500000  0.749539  0.417106  1
  B  B13  1  0.500000  0.250461  0.582894  1
  B  B14  1  0.500000  0.249835  0.081540  1
  B  B15  1  0.500000  0.750165  0.918460  1
  B  B16  1  0.500000  0.792073  0.264275  1
  B  B17  1  0.500000  0.207927  0.735725  1
  B  B18  1  0.500000  0.290959  0.234093  1
  B  B19  1  0.500000  0.709041  0.765907  1
  B  B20  1  0.500000  0.630495  0.184302  1
  B  B21  1  0.500000  0.369505  0.815698  1
  B  B22  1  0.500000  0.129874  0.314318  1
  B  B23  1  0.500000  0.870126  0.685682  1
  B  B24  1  0.500000  0.982851  0.212147  1
  B  B25  1  0.500000  0.017149  0.787853  1
  B  B26  1  0.500000  0.483505  0.287062  1
  B  B27  1  0.500000  0.516495  0.712938  1
  B  B28  1  0.500000  0.600891  0.027547  1
  B  B29  1  0.500000  0.399109  0.972453  1
  B  B30  1  0.500000  0.097642  0.473223  1
  B  B31  1  0.500000  0.902358  0.526777  1
  Ru  Ru32  1  0.000000  0.641279  0.317248  1
  Ru  Ru33  1  0.000000  0.358721  0.682752  1
  Ru  Ru34  1  0.000000  0.137619  0.178824  1
  Ru  Ru35  1  0.000000  0.862381  0.821176  1
