# generated using pymatgen
data_Tb11Nd8Si16Au
_symmetry_space_group_name_H-M   'P 1'
_cell_length_a   7.79396072
_cell_length_b   7.79396072
_cell_length_c   14.30694201
_cell_angle_alpha   90.30584502
_cell_angle_beta   89.69415498
_cell_angle_gamma   90.07892175
_symmetry_Int_Tables_number   1
_chemical_formula_structural   Tb11Nd8Si16Au
_chemical_formula_sum   'Tb11 Nd8 Si16 Au1'
_cell_volume   869.06142317
_cell_formula_units_Z   1
loop_
 _symmetry_equiv_pos_site_id
 _symmetry_equiv_pos_as_xyz
  1  'x, y, z'
loop_
 _atom_site_type_symbol
 _atom_site_label
 _atom_site_symmetry_multiplicity
 _atom_site_fract_x
 _atom_site_fract_y
 _atom_site_fract_z
 _atom_site_occupancy
  Tb  Tb0  1  0.487461  0.369058  0.126194  1
  Tb  Tb1  1  0.003699  0.137538  0.620202  1
  Tb  Tb2  1  0.863035  0.010723  0.872068  1
  Tb  Tb3  1  0.137538  0.003699  0.379798  1
  Tb  Tb4  1  0.503151  0.626777  0.619327  1
  Tb  Tb5  1  0.369058  0.487461  0.873806  1
  Tb  Tb6  1  0.626777  0.503151  0.380673  1
  Tb  Tb7  1  0.010723  0.863035  0.127932  1
  Tb  Tb8  1  0.186414  0.811896  0.748596  1
  Tb  Tb9  1  0.811896  0.186414  0.251404  1
  Tb  Tb10  1  0.687819  0.687819  0.000000  1
  Nd  Nd11  1  0.627596  0.999909  0.459941  1
  Nd  Nd12  1  0.364278  0.009648  0.956385  1
  Nd  Nd13  1  0.999909  0.627596  0.540059  1
  Nd  Nd14  1  0.488671  0.860822  0.212029  1
  Nd  Nd15  1  0.501330  0.136307  0.698436  1
  Nd  Nd16  1  0.860822  0.488671  0.787971  1
  Nd  Nd17  1  0.136307  0.501330  0.301564  1
  Nd  Nd18  1  0.009648  0.364278  0.043615  1
  Si  Si19  1  0.284703  0.912532  0.562420  1
  Si  Si20  1  0.710382  0.069014  0.061345  1
  Si  Si21  1  0.912532  0.284703  0.437580  1
  Si  Si22  1  0.428783  0.211993  0.312057  1
  Si  Si23  1  0.570453  0.790531  0.807101  1
  Si  Si24  1  0.211993  0.428783  0.687943  1
  Si  Si25  1  0.790531  0.570453  0.192899  1
  Si  Si26  1  0.069014  0.710382  0.938655  1
  Si  Si27  1  0.794786  0.844333  0.685692  1
  Si  Si28  1  0.201849  0.157751  0.193355  1
  Si  Si29  1  0.844333  0.794786  0.314308  1
  Si  Si30  1  0.351220  0.721141  0.433176  1
  Si  Si31  1  0.657801  0.298030  0.941724  1
  Si  Si32  1  0.721141  0.351220  0.566824  1
  Si  Si33  1  0.298030  0.657801  0.058276  1
  Si  Si34  1  0.157751  0.201849  0.806645  1
  Au  Au35  1  0.318567  0.318567  0.500000  1
