# generated using pymatgen
data_Ho2Lu(InAu)3
_symmetry_space_group_name_H-M   'P 1'
_cell_length_a   7.73259701
_cell_length_b   7.73259757
_cell_length_c   3.95345900
_cell_angle_alpha   90.00000000
_cell_angle_beta   90.00000000
_cell_angle_gamma   119.62224901
_symmetry_Int_Tables_number   1
_chemical_formula_structural   Ho2Lu(InAu)3
_chemical_formula_sum   'Ho2 Lu1 In3 Au3'
_cell_volume   205.49404082
_cell_formula_units_Z   1
loop_
 _symmetry_equiv_pos_site_id
 _symmetry_equiv_pos_as_xyz
  1  'x, y, z'
loop_
 _atom_site_type_symbol
 _atom_site_label
 _atom_site_symmetry_multiplicity
 _atom_site_fract_x
 _atom_site_fract_y
 _atom_site_fract_z
 _atom_site_occupancy
  Ho  Ho0  1  0.402477  0.000202  0.500000  1
  Ho  Ho1  1  0.000202  0.402477  0.500000  1
  Lu  Lu2  1  0.597903  0.597903  0.500000  1
  In  In3  1  0.736958  0.999109  0.000000  1
  In  In4  1  0.999109  0.736958  0.000000  1
  In  In5  1  0.263223  0.263223  0.000000  1
  Au  Au6  1  0.335268  0.665827  0.000000  1
  Au  Au7  1  0.665827  0.335268  0.000000  1
  Au  Au8  1  0.999033  0.999033  0.500000  1
