# generated using pymatgen
data_HoLu7Hg4
_symmetry_space_group_name_H-M   'P 1'
_cell_length_a   5.04029800
_cell_length_b   6.83384622
_cell_length_c   9.09641178
_cell_angle_alpha   90.05895295
_cell_angle_beta   90.00000000
_cell_angle_gamma   90.00000000
_symmetry_Int_Tables_number   1
_chemical_formula_structural   HoLu7Hg4
_chemical_formula_sum   'Ho1 Lu7 Hg4'
_cell_volume   313.32229435
_cell_formula_units_Z   1
loop_
 _symmetry_equiv_pos_site_id
 _symmetry_equiv_pos_as_xyz
  1  'x, y, z'
loop_
 _atom_site_type_symbol
 _atom_site_label
 _atom_site_symmetry_multiplicity
 _atom_site_fract_x
 _atom_site_fract_y
 _atom_site_fract_z
 _atom_site_occupancy
  Ho  Ho0  1  0.750000  0.329496  0.925402  1
  Lu  Lu1  1  0.250000  0.016093  0.803386  1
  Lu  Lu2  1  0.250000  0.518198  0.693261  1
  Lu  Lu3  1  0.750000  0.980958  0.198619  1
  Lu  Lu4  1  0.750000  0.482769  0.304523  1
  Lu  Lu5  1  0.250000  0.167498  0.427163  1
  Lu  Lu6  1  0.250000  0.669562  0.073403  1
  Lu  Lu7  1  0.750000  0.831025  0.574755  1
  Hg  Hg8  1  0.250000  0.732717  0.396927  1
  Hg  Hg9  1  0.250000  0.230873  0.105892  1
  Hg  Hg10  1  0.750000  0.267211  0.597965  1
  Hg  Hg11  1  0.750000  0.773602  0.898706  1
