# generated using pymatgen
data_Dy7Er13(FeBi2)4
_symmetry_space_group_name_H-M   'P 1'
_cell_length_a   7.91466102
_cell_length_b   8.91926700
_cell_length_c   12.33415162
_cell_angle_alpha   90.00000000
_cell_angle_beta   89.94151434
_cell_angle_gamma   90.00000000
_symmetry_Int_Tables_number   1
_chemical_formula_structural   Dy7Er13(FeBi2)4
_chemical_formula_sum   'Dy7 Er13 Fe4 Bi8'
_cell_volume   870.70400175
_cell_formula_units_Z   1
loop_
 _symmetry_equiv_pos_site_id
 _symmetry_equiv_pos_as_xyz
  1  'x, y, z'
loop_
 _atom_site_type_symbol
 _atom_site_label
 _atom_site_symmetry_multiplicity
 _atom_site_fract_x
 _atom_site_fract_y
 _atom_site_fract_z
 _atom_site_occupancy
  Dy  Dy0  1  0.654427  0.750000  0.700652  1
  Dy  Dy1  1  0.346273  0.250000  0.299844  1
  Dy  Dy2  1  0.153949  0.250000  0.799575  1
  Dy  Dy3  1  0.845698  0.750000  0.200384  1
  Dy  Dy4  1  0.119219  0.750000  0.814602  1
  Dy  Dy5  1  0.880541  0.250000  0.185282  1
  Dy  Dy6  1  0.618977  0.250000  0.685142  1
  Er  Er7  1  0.381350  0.750000  0.315380  1
  Er  Er8  1  0.555403  0.750000  0.994477  1
  Er  Er9  1  0.444306  0.250000  0.005778  1
  Er  Er10  1  0.056284  0.250000  0.505328  1
  Er  Er11  1  0.944768  0.750000  0.494647  1
  Er  Er12  1  0.827071  0.464233  0.935828  1
  Er  Er13  1  0.173139  0.536325  0.064291  1
  Er  Er14  1  0.327002  0.537104  0.563823  1
  Er  Er15  1  0.173139  0.963675  0.064291  1
  Er  Er16  1  0.672145  0.465702  0.435906  1
  Er  Er17  1  0.827071  0.035767  0.935828  1
  Er  Er18  1  0.672145  0.034298  0.435906  1
  Er  Er19  1  0.327002  0.962896  0.563823  1
  Fe  Fe20  1  0.931247  0.750000  0.992612  1
  Fe  Fe21  1  0.068689  0.250000  0.007086  1
  Fe  Fe22  1  0.430944  0.250000  0.507440  1
  Fe  Fe23  1  0.569374  0.750000  0.492116  1
  Bi  Bi24  1  0.932915  0.005795  0.672352  1
  Bi  Bi25  1  0.067793  0.994042  0.327376  1
  Bi  Bi26  1  0.432784  0.994431  0.827523  1
  Bi  Bi27  1  0.067793  0.505958  0.327376  1
  Bi  Bi28  1  0.566425  0.005101  0.172729  1
  Bi  Bi29  1  0.932915  0.494205  0.672352  1
  Bi  Bi30  1  0.566425  0.494899  0.172729  1
  Bi  Bi31  1  0.432784  0.505569  0.827523  1
