# generated using pymatgen
data_LiThAgPt3
_symmetry_space_group_name_H-M   'P 1'
_cell_length_a   5.44823563
_cell_length_b   5.44823558
_cell_length_c   5.19868900
_cell_angle_alpha   58.39899561
_cell_angle_beta   58.39899595
_cell_angle_gamma   60.00000042
_symmetry_Int_Tables_number   1
_chemical_formula_structural   LiThAgPt3
_chemical_formula_sum   'Li1 Th1 Ag1 Pt3'
_cell_volume   106.40100992
_cell_formula_units_Z   1
loop_
 _symmetry_equiv_pos_site_id
 _symmetry_equiv_pos_as_xyz
  1  'x, y, z'
loop_
 _atom_site_type_symbol
 _atom_site_label
 _atom_site_symmetry_multiplicity
 _atom_site_fract_x
 _atom_site_fract_y
 _atom_site_fract_z
 _atom_site_occupancy
  Li  Li0  1  0.621280  0.621280  0.136159  1
  Th  Th1  1  0.004698  0.004698  0.985907  1
  Ag  Ag2  1  0.253962  0.253962  0.238115  1
  Pt  Pt3  1  0.622738  0.124583  0.629939  1
  Pt  Pt4  1  0.124583  0.622738  0.629939  1
  Pt  Pt5  1  0.622738  0.622738  0.629939  1
