# generated using pymatgen
data_NdY2Ga(SiIr3)2
_symmetry_space_group_name_H-M   'P 1'
_cell_length_a   5.60318900
_cell_length_b   5.60318974
_cell_length_c   15.48857300
_cell_angle_alpha   90.00000000
_cell_angle_beta   90.00000000
_cell_angle_gamma   120.00001337
_symmetry_Int_Tables_number   1
_chemical_formula_structural   NdY2Ga(SiIr3)2
_chemical_formula_sum   'Nd2 Y4 Ga2 Si4 Ir12'
_cell_volume   421.12650966
_cell_formula_units_Z   2
loop_
 _symmetry_equiv_pos_site_id
 _symmetry_equiv_pos_as_xyz
  1  'x, y, z'
loop_
 _atom_site_type_symbol
 _atom_site_label
 _atom_site_symmetry_multiplicity
 _atom_site_fract_x
 _atom_site_fract_y
 _atom_site_fract_z
 _atom_site_occupancy
  Nd  Nd0  1  0.333333  0.666667  0.750000  1
  Nd  Nd1  1  0.666667  0.333333  0.250000  1
  Y  Y2  1  0.333333  0.666667  0.539376  1
  Y  Y3  1  0.666667  0.333333  0.460624  1
  Y  Y4  1  0.666667  0.333333  0.039376  1
  Y  Y5  1  0.333333  0.666667  0.960624  1
  Ga  Ga6  1  0.000000  0.000000  0.000000  1
  Ga  Ga7  1  0.000000  0.000000  0.500000  1
  Si  Si8  1  0.000000  0.000000  0.250000  1
  Si  Si9  1  0.000000  0.000000  0.750000  1
  Si  Si10  1  0.333333  0.666667  0.250000  1
  Si  Si11  1  0.666667  0.333333  0.750000  1
  Ir  Ir12  1  0.168037  0.336076  0.132829  1
  Ir  Ir13  1  0.831963  0.663924  0.867171  1
  Ir  Ir14  1  0.663924  0.831963  0.132829  1
  Ir  Ir15  1  0.831963  0.663924  0.632829  1
  Ir  Ir16  1  0.336076  0.168037  0.867171  1
  Ir  Ir17  1  0.168037  0.336076  0.367171  1
  Ir  Ir18  1  0.168037  0.831963  0.132829  1
  Ir  Ir19  1  0.336076  0.168037  0.632829  1
  Ir  Ir20  1  0.831963  0.168037  0.867171  1
  Ir  Ir21  1  0.663924  0.831963  0.367171  1
  Ir  Ir22  1  0.831963  0.168037  0.632829  1
  Ir  Ir23  1  0.168037  0.831963  0.367171  1
