# generated using pymatgen
data_Ta4CrSiB2
_symmetry_space_group_name_H-M   'P 1'
_cell_length_a   7.18699007
_cell_length_b   7.18699102
_cell_length_c   7.18699078
_cell_angle_alpha   129.94144149
_cell_angle_beta   129.94144530
_cell_angle_gamma   73.50039502
_symmetry_Int_Tables_number   1
_chemical_formula_structural   Ta4CrSiB2
_chemical_formula_sum   'Ta8 Cr2 Si2 B4'
_cell_volume   212.96976126
_cell_formula_units_Z   2
loop_
 _symmetry_equiv_pos_site_id
 _symmetry_equiv_pos_as_xyz
  1  'x, y, z'
loop_
 _atom_site_type_symbol
 _atom_site_label
 _atom_site_symmetry_multiplicity
 _atom_site_fract_x
 _atom_site_fract_y
 _atom_site_fract_z
 _atom_site_occupancy
  Ta  Ta0  1  0.532312  0.693918  0.500000  1
  Ta  Ta1  1  0.193918  0.032312  0.500000  1
  Ta  Ta2  1  0.032312  0.532312  0.838394  1
  Ta  Ta3  1  0.693918  0.193918  0.161606  1
  Ta  Ta4  1  0.467688  0.306082  0.500000  1
  Ta  Ta5  1  0.806082  0.967688  0.500000  1
  Ta  Ta6  1  0.967688  0.467688  0.161606  1
  Ta  Ta7  1  0.306082  0.806082  0.838394  1
  Cr  Cr8  1  0.500000  0.500000  0.000000  1
  Cr  Cr9  1  0.000000  0.000000  0.000000  1
  Si  Si10  1  0.250000  0.250000  0.000000  1
  Si  Si11  1  0.750000  0.750000  0.000000  1
  B  B12  1  0.877565  0.622435  0.500000  1
  B  B13  1  0.122435  0.377565  0.500000  1
  B  B14  1  0.377565  0.877565  0.255129  1
  B  B15  1  0.622435  0.122435  0.744871  1
