# generated using pymatgen
data_CeHo3(LuSi2)2
_symmetry_space_group_name_H-M   'P 1'
_cell_length_a   7.40011552
_cell_length_b   7.40011438
_cell_length_c   4.21297900
_cell_angle_alpha   90.00000000
_cell_angle_beta   90.00000000
_cell_angle_gamma   90.39064634
_symmetry_Int_Tables_number   1
_chemical_formula_structural   CeHo3(LuSi2)2
_chemical_formula_sum   'Ce1 Ho3 Lu2 Si4'
_cell_volume   230.70453487
_cell_formula_units_Z   1
loop_
 _symmetry_equiv_pos_site_id
 _symmetry_equiv_pos_as_xyz
  1  'x, y, z'
loop_
 _atom_site_type_symbol
 _atom_site_label
 _atom_site_symmetry_multiplicity
 _atom_site_fract_x
 _atom_site_fract_y
 _atom_site_fract_z
 _atom_site_occupancy
  Ce  Ce0  1  0.823825  0.676175  0.500000  1
  Ho  Ho1  1  0.672940  0.175807  0.500000  1
  Ho  Ho2  1  0.324193  0.827060  0.500000  1
  Ho  Ho3  1  0.177230  0.322770  0.500000  1
  Lu  Lu4  1  0.999508  0.997657  0.000000  1
  Lu  Lu5  1  0.502343  0.500492  0.000000  1
  Si  Si6  1  0.121005  0.616772  0.000000  1
  Si  Si7  1  0.883228  0.378995  0.000000  1
  Si  Si8  1  0.615683  0.884317  0.000000  1
  Si  Si9  1  0.380045  0.119955  0.000000  1
