# generated using pymatgen
data_ZrCrF6
_symmetry_space_group_name_H-M   'P 1'
_cell_length_a   5.94928002
_cell_length_b   8.21142600
_cell_length_c   11.86737906
_cell_angle_alpha   90.00000000
_cell_angle_beta   90.23054383
_cell_angle_gamma   90.00000000
_symmetry_Int_Tables_number   1
_chemical_formula_structural   ZrCrF6
_chemical_formula_sum   'Zr4 Cr4 F24'
_cell_volume   579.74137055
_cell_formula_units_Z   4
loop_
 _symmetry_equiv_pos_site_id
 _symmetry_equiv_pos_as_xyz
  1  'x, y, z'
loop_
 _atom_site_type_symbol
 _atom_site_label
 _atom_site_symmetry_multiplicity
 _atom_site_fract_x
 _atom_site_fract_y
 _atom_site_fract_z
 _atom_site_occupancy
  Zr  Zr0  1  0.231642  0.750000  0.625710  1
  Zr  Zr1  1  0.731775  0.250000  0.874675  1
  Zr  Zr2  1  0.768243  0.250000  0.374222  1
  Zr  Zr3  1  0.268195  0.750000  0.125462  1
  Cr  Cr4  1  0.752208  0.750000  0.375455  1
  Cr  Cr5  1  0.747810  0.750000  0.875824  1
  Cr  Cr6  1  0.247851  0.250000  0.624420  1
  Cr  Cr7  1  0.252130  0.250000  0.124444  1
  F  F8  1  0.466366  0.750000  0.746661  1
  F  F9  1  0.034273  0.750000  0.246072  1
  F  F10  1  0.533300  0.250000  0.253326  1
  F  F11  1  0.966007  0.250000  0.754245  1
  F  F12  1  0.465054  0.750000  0.504180  1
  F  F13  1  0.033296  0.750000  0.003989  1
  F  F14  1  0.534847  0.250000  0.495690  1
  F  F15  1  0.965596  0.250000  0.996681  1
  F  F16  1  0.765878  0.499855  0.374219  1
  F  F17  1  0.734377  0.000068  0.875171  1
  F  F18  1  0.234341  0.999835  0.625393  1
  F  F19  1  0.265547  0.500054  0.125018  1
  F  F20  1  0.234341  0.500165  0.625393  1
  F  F21  1  0.265547  0.999946  0.125018  1
  F  F22  1  0.765878  0.000145  0.374219  1
  F  F23  1  0.734377  0.499932  0.875171  1
  F  F24  1  0.982102  0.750000  0.504027  1
  F  F25  1  0.518017  0.750000  0.004748  1
  F  F26  1  0.018183  0.250000  0.495668  1
  F  F27  1  0.481856  0.250000  0.995382  1
  F  F28  1  0.982226  0.750000  0.747543  1
  F  F29  1  0.519148  0.750000  0.247300  1
  F  F30  1  0.017586  0.250000  0.252412  1
  F  F31  1  0.482002  0.250000  0.752266  1
