# generated using pymatgen
data_Tb2Er4Al24ZnRu7
_symmetry_space_group_name_H-M   'P 1'
_cell_length_a   8.83416521
_cell_length_b   8.82908605
_cell_length_c   9.53458992
_cell_angle_alpha   89.97320939
_cell_angle_beta   89.98836803
_cell_angle_gamma   119.96110298
_symmetry_Int_Tables_number   1
_chemical_formula_structural   Tb2Er4Al24ZnRu7
_chemical_formula_sum   'Tb2 Er4 Al24 Zn1 Ru7'
_cell_volume   644.29372827
_cell_formula_units_Z   1
loop_
 _symmetry_equiv_pos_site_id
 _symmetry_equiv_pos_as_xyz
  1  'x, y, z'
loop_
 _atom_site_type_symbol
 _atom_site_label
 _atom_site_symmetry_multiplicity
 _atom_site_fract_x
 _atom_site_fract_y
 _atom_site_fract_z
 _atom_site_occupancy
  Tb  Tb0  1  0.192785  0.386330  0.247661  1
  Tb  Tb1  1  0.807215  0.613670  0.752339  1
  Er  Er2  1  0.613058  0.807445  0.248001  1
  Er  Er3  1  0.386942  0.192555  0.751999  1
  Er  Er4  1  0.194660  0.805248  0.252309  1
  Er  Er5  1  0.805340  0.194752  0.747691  1
  Al  Al6  1  0.329430  0.671068  0.021209  1
  Al  Al7  1  0.670570  0.328932  0.978791  1
  Al  Al8  1  0.666246  0.333266  0.516510  1
  Al  Al9  1  0.333754  0.666734  0.483490  1
  Al  Al10  1  0.162095  0.324106  0.577231  1
  Al  Al11  1  0.837905  0.675894  0.422769  1
  Al  Al12  1  0.675837  0.838062  0.576928  1
  Al  Al13  1  0.849099  0.678068  0.082057  1
  Al  Al14  1  0.324163  0.161938  0.423072  1
  Al  Al15  1  0.150901  0.321932  0.917943  1
  Al  Al16  1  0.162628  0.837716  0.578089  1
  Al  Al17  1  0.321932  0.150678  0.081712  1
  Al  Al18  1  0.837372  0.162284  0.421911  1
  Al  Al19  1  0.678068  0.849322  0.918288  1
  Al  Al20  1  0.837036  0.162406  0.078611  1
  Al  Al21  1  0.162964  0.837594  0.921389  1
  Al  Al22  1  0.560887  0.120883  0.248537  1
  Al  Al23  1  0.439113  0.879117  0.751463  1
  Al  Al24  1  0.878669  0.439223  0.248598  1
  Al  Al25  1  0.121331  0.560777  0.751402  1
  Al  Al26  1  0.563583  0.436999  0.254463  1
  Al  Al27  1  0.436417  0.563001  0.745537  1
  Al  Al28  1  0.998920  0.000397  0.250366  1
  Al  Al29  1  0.001080  0.999603  0.749634  1
  Zn  Zn30  1  0.500000  0.500000  0.000000  1
  Ru  Ru31  1  0.500000  0.000000  0.000000  1
  Ru  Ru32  1  0.000000  0.500000  0.000000  1
  Ru  Ru33  1  0.500000  0.000000  0.500000  1
  Ru  Ru34  1  0.000000  0.500000  0.500000  1
  Ru  Ru35  1  0.500000  0.500000  0.500000  1
  Ru  Ru36  1  0.000000  0.000000  0.000000  1
  Ru  Ru37  1  0.000000  0.000000  0.500000  1
