# generated using pymatgen
data_Tb3YbGa17SiIr6
_symmetry_space_group_name_H-M   'P 1'
_cell_length_a   7.58792036
_cell_length_b   7.56656518
_cell_length_c   9.52576561
_cell_angle_alpha   90.05612818
_cell_angle_beta   89.86002097
_cell_angle_gamma   119.90504899
_symmetry_Int_Tables_number   1
_chemical_formula_structural   Tb3YbGa17SiIr6
_chemical_formula_sum   'Tb3 Yb1 Ga17 Si1 Ir6'
_cell_volume   474.09512016
_cell_formula_units_Z   1
loop_
 _symmetry_equiv_pos_site_id
 _symmetry_equiv_pos_as_xyz
  1  'x, y, z'
loop_
 _atom_site_type_symbol
 _atom_site_label
 _atom_site_symmetry_multiplicity
 _atom_site_fract_x
 _atom_site_fract_y
 _atom_site_fract_z
 _atom_site_occupancy
  Tb  Tb0  1  0.998367  0.665122  0.247664  1
  Tb  Tb1  1  0.003072  0.332018  0.751454  1
  Tb  Tb2  1  0.672735  0.002918  0.247772  1
  Yb  Yb3  1  0.330866  0.002743  0.749193  1
  Ga  Ga4  1  0.130321  0.129322  0.250665  1
  Ga  Ga5  1  0.873116  0.874255  0.750882  1
  Ga  Ga6  1  0.000443  0.673530  0.918545  1
  Ga  Ga7  1  0.001462  0.668083  0.579436  1
  Ga  Ga8  1  0.333604  0.998450  0.422230  1
  Ga  Ga9  1  0.999710  0.334263  0.421200  1
  Ga  Ga10  1  0.662732  0.998711  0.579542  1
  Ga  Ga11  1  0.656453  0.993782  0.918694  1
  Ga  Ga12  1  0.333377  0.998416  0.078793  1
  Ga  Ga13  1  0.333785  0.330568  0.563674  1
  Ga  Ga14  1  0.668039  0.668475  0.434353  1
  Ga  Ga15  1  0.667668  0.669033  0.068074  1
  Ga  Ga16  1  0.340151  0.331536  0.935231  1
  Ga  Ga17  1  0.339500  0.545330  0.251042  1
  Ga  Ga18  1  0.662182  0.451994  0.751743  1
  Ga  Ga19  1  0.546233  0.338007  0.250560  1
  Ga  Ga20  1  0.452363  0.660892  0.750686  1
  Si  Si21  1  0.000011  0.334024  0.071934  1
  Ir  Ir22  1  0.684717  0.330355  0.004174  1
  Ir  Ir23  1  0.313104  0.655191  0.001773  1
  Ir  Ir24  1  0.327437  0.669075  0.499861  1
  Ir  Ir25  1  0.672179  0.329242  0.499933  1
  Ir  Ir26  1  0.997772  0.014337  0.001778  1
  Ir  Ir27  1  0.998601  0.000333  0.499112  1
