# generated using pymatgen
data_YEr3Al12(GaIr)6
_symmetry_space_group_name_H-M   'P 1'
_cell_length_a   7.51775404
_cell_length_b   7.51843975
_cell_length_c   9.55703300
_cell_angle_alpha   90.00000000
_cell_angle_beta   90.00000000
_cell_angle_gamma   119.72483275
_symmetry_Int_Tables_number   1
_chemical_formula_structural   YEr3Al12(GaIr)6
_chemical_formula_sum   'Y1 Er3 Al12 Ga6 Ir6'
_cell_volume   469.10178501
_cell_formula_units_Z   1
loop_
 _symmetry_equiv_pos_site_id
 _symmetry_equiv_pos_as_xyz
  1  'x, y, z'
loop_
 _atom_site_type_symbol
 _atom_site_label
 _atom_site_symmetry_multiplicity
 _atom_site_fract_x
 _atom_site_fract_y
 _atom_site_fract_z
 _atom_site_occupancy
  Y  Y0  1  0.997223  0.669214  0.750000  1
  Er  Er1  1  0.002747  0.330752  0.250000  1
  Er  Er2  1  0.669237  0.997281  0.750000  1
  Er  Er3  1  0.330740  0.002739  0.250000  1
  Al  Al4  1  0.001742  0.334024  0.572718  1
  Al  Al5  1  0.998265  0.665679  0.426801  1
  Al  Al6  1  0.998265  0.665679  0.073199  1
  Al  Al7  1  0.334621  0.002032  0.927272  1
  Al  Al8  1  0.001742  0.334024  0.927282  1
  Al  Al9  1  0.665679  0.998265  0.072939  1
  Al  Al10  1  0.665679  0.998265  0.427061  1
  Al  Al11  1  0.334621  0.002032  0.572728  1
  Al  Al12  1  0.333953  0.333954  0.057741  1
  Al  Al13  1  0.665767  0.666047  0.942485  1
  Al  Al14  1  0.665767  0.666047  0.557515  1
  Al  Al15  1  0.333953  0.333954  0.442259  1
  Ga  Ga16  1  0.127378  0.127682  0.750000  1
  Ga  Ga17  1  0.872717  0.872721  0.250000  1
  Ga  Ga18  1  0.338829  0.546765  0.750000  1
  Ga  Ga19  1  0.661454  0.453163  0.250000  1
  Ga  Ga20  1  0.546360  0.338130  0.750000  1
  Ga  Ga21  1  0.453176  0.661484  0.250000  1
  Ir  Ir22  1  0.671782  0.327954  0.499875  1
  Ir  Ir23  1  0.328211  0.671889  0.499844  1
  Ir  Ir24  1  0.328211  0.671889  0.000156  1
  Ir  Ir25  1  0.671782  0.327954  0.000125  1
  Ir  Ir26  1  0.000051  0.000192  0.499850  1
  Ir  Ir27  1  0.000051  0.000192  0.000150  1
