# generated using pymatgen
data_Dy3Er17(IrPt)6
_symmetry_space_group_name_H-M   'P 1'
_cell_length_a   10.95760230
_cell_length_b   10.94855002
_cell_length_c   6.29627300
_cell_angle_alpha   90.00187408
_cell_angle_beta   90.01397174
_cell_angle_gamma   89.99420381
_symmetry_Int_Tables_number   1
_chemical_formula_structural   Dy3Er17(IrPt)6
_chemical_formula_sum   'Dy3 Er17 Ir6 Pt6'
_cell_volume   755.36294376
_cell_formula_units_Z   1
loop_
 _symmetry_equiv_pos_site_id
 _symmetry_equiv_pos_as_xyz
  1  'x, y, z'
loop_
 _atom_site_type_symbol
 _atom_site_label
 _atom_site_symmetry_multiplicity
 _atom_site_fract_x
 _atom_site_fract_y
 _atom_site_fract_z
 _atom_site_occupancy
  Dy  Dy0  1  0.294823  0.090619  0.372204  1
  Dy  Dy1  1  0.294800  0.909417  0.872177  1
  Dy  Dy2  1  0.705233  0.087273  0.871556  1
  Er  Er3  1  0.704570  0.912677  0.372007  1
  Er  Er4  1  0.583978  0.791766  0.872361  1
  Er  Er5  1  0.583984  0.208060  0.372368  1
  Er  Er6  1  0.411519  0.792530  0.377228  1
  Er  Er7  1  0.411179  0.207439  0.877278  1
  Er  Er8  1  0.209424  0.414369  0.624385  1
  Er  Er9  1  0.209448  0.585633  0.124448  1
  Er  Er10  1  0.794994  0.412663  0.125861  1
  Er  Er11  1  0.794855  0.587372  0.625801  1
  Er  Er12  1  0.913801  0.704600  0.127441  1
  Er  Er13  1  0.913995  0.295536  0.627097  1
  Er  Er14  1  0.090741  0.704489  0.627785  1
  Er  Er15  1  0.090760  0.295577  0.127648  1
  Er  Er16  1  0.999403  0.999755  0.500025  1
  Er  Er17  1  0.999650  0.000083  0.000192  1
  Er  Er18  1  0.497305  0.499096  0.000118  1
  Er  Er19  1  0.497286  0.500831  0.500031  1
  Ir  Ir20  1  0.346412  0.346389  0.249718  1
  Ir  Ir21  1  0.346403  0.653622  0.749721  1
  Ir  Ir22  1  0.500610  0.999629  0.121992  1
  Ir  Ir23  1  0.500663  0.999908  0.621188  1
  Ir  Ir24  1  0.999525  0.500158  0.878420  1
  Ir  Ir25  1  0.999521  0.499961  0.378465  1
  Pt  Pt26  1  0.846183  0.153919  0.251520  1
  Pt  Pt27  1  0.846047  0.845889  0.750146  1
  Pt  Pt28  1  0.152162  0.154305  0.750406  1
  Pt  Pt29  1  0.152259  0.845724  0.250440  1
  Pt  Pt30  1  0.654164  0.346755  0.749853  1
  Pt  Pt31  1  0.654302  0.653958  0.250122  1
