# generated using pymatgen
data_Tb10(TlSb)3
_symmetry_space_group_name_H-M   'P 1'
_cell_length_a   9.02497300
_cell_length_b   8.99861525
_cell_length_c   6.61511100
_cell_angle_alpha   90.00000000
_cell_angle_beta   90.00000000
_cell_angle_gamma   120.09693720
_symmetry_Int_Tables_number   1
_chemical_formula_structural   Tb10(TlSb)3
_chemical_formula_sum   'Tb10 Tl3 Sb3'
_cell_volume   464.79806642
_cell_formula_units_Z   1
loop_
 _symmetry_equiv_pos_site_id
 _symmetry_equiv_pos_as_xyz
  1  'x, y, z'
loop_
 _atom_site_type_symbol
 _atom_site_label
 _atom_site_symmetry_multiplicity
 _atom_site_fract_x
 _atom_site_fract_y
 _atom_site_fract_z
 _atom_site_occupancy
  Tb  Tb0  1  0.002007  0.762336  0.750000  1
  Tb  Tb1  1  0.003121  0.240327  0.250000  1
  Tb  Tb2  1  0.762793  0.759673  0.250000  1
  Tb  Tb3  1  0.760837  0.000000  0.750000  1
  Tb  Tb4  1  0.239671  0.237664  0.750000  1
  Tb  Tb5  1  0.238096  0.000000  0.250000  1
  Tb  Tb6  1  0.330896  0.665982  0.500074  1
  Tb  Tb7  1  0.664916  0.334018  0.999926  1
  Tb  Tb8  1  0.664916  0.334018  0.500074  1
  Tb  Tb9  1  0.330896  0.665982  0.999926  1
  Tl  Tl10  1  0.396531  0.000000  0.750000  1
  Tl  Tl11  1  0.395087  0.396611  0.250000  1
  Tl  Tl12  1  0.998475  0.603389  0.250000  1
  Sb  Sb13  1  0.997978  0.391958  0.750000  1
  Sb  Sb14  1  0.606019  0.608042  0.750000  1
  Sb  Sb15  1  0.607761  0.000000  0.250000  1
