# generated using pymatgen
data_Sr2TlCoH12Pt
_symmetry_space_group_name_H-M   'P 1'
_cell_length_a   5.34862900
_cell_length_b   5.34862961
_cell_length_c   8.58569700
_cell_angle_alpha   90.00000000
_cell_angle_beta   90.00000000
_cell_angle_gamma   120.00000244
_symmetry_Int_Tables_number   1
_chemical_formula_structural   Sr2TlCoH12Pt
_chemical_formula_sum   'Sr2 Tl1 Co1 H12 Pt1'
_cell_volume   212.71160143
_cell_formula_units_Z   1
loop_
 _symmetry_equiv_pos_site_id
 _symmetry_equiv_pos_as_xyz
  1  'x, y, z'
loop_
 _atom_site_type_symbol
 _atom_site_label
 _atom_site_symmetry_multiplicity
 _atom_site_fract_x
 _atom_site_fract_y
 _atom_site_fract_z
 _atom_site_occupancy
  Sr  Sr0  1  0.666667  0.333333  0.372659  1
  Sr  Sr1  1  0.333333  0.666667  0.662523  1
  Tl  Tl2  1  0.000000  0.000000  0.954116  1
  Co  Co3  1  0.666667  0.333333  0.735722  1
  H  H4  1  0.183336  0.816664  0.374360  1
  H  H5  1  0.633329  0.816664  0.374360  1
  H  H6  1  0.183336  0.366671  0.374360  1
  H  H7  1  0.807016  0.192984  0.632717  1
  H  H8  1  0.385967  0.192984  0.632717  1
  H  H9  1  0.807016  0.614033  0.632717  1
  H  H10  1  0.538687  0.077371  0.849222  1
  H  H11  1  0.538687  0.461313  0.849222  1
  H  H12  1  0.922629  0.461313  0.849222  1
  H  H13  1  0.470726  0.941451  0.146754  1
  H  H14  1  0.470726  0.529274  0.146754  1
  H  H15  1  0.058549  0.529274  0.146754  1
  Pt  Pt16  1  0.333333  0.666667  0.265814  1
