# generated using pymatgen
data_NaDyFe8Ni4P7
_symmetry_space_group_name_H-M   'P 1'
_cell_length_a   9.04250084
_cell_length_b   9.02630324
_cell_length_c   3.60068700
_cell_angle_alpha   90.00000000
_cell_angle_beta   90.00000000
_cell_angle_gamma   120.30531702
_symmetry_Int_Tables_number   1
_chemical_formula_structural   NaDyFe8Ni4P7
_chemical_formula_sum   'Na1 Dy1 Fe8 Ni4 P7'
_cell_volume   253.72899607
_cell_formula_units_Z   1
loop_
 _symmetry_equiv_pos_site_id
 _symmetry_equiv_pos_as_xyz
  1  'x, y, z'
loop_
 _atom_site_type_symbol
 _atom_site_label
 _atom_site_symmetry_multiplicity
 _atom_site_fract_x
 _atom_site_fract_y
 _atom_site_fract_z
 _atom_site_occupancy
  Na  Na0  1  0.998712  0.999673  0.500000  1
  Dy  Dy1  1  0.334338  0.666105  0.000000  1
  Fe  Fe2  1  0.942474  0.491246  0.000000  1
  Fe  Fe3  1  0.511824  0.449947  0.000000  1
  Fe  Fe4  1  0.548340  0.060728  0.000000  1
  Fe  Fe5  1  0.279430  0.380150  0.500000  1
  Fe  Fe6  1  0.616798  0.896877  0.500000  1
  Fe  Fe7  1  0.766957  0.561928  0.500000  1
  Fe  Fe8  1  0.448979  0.213470  0.500000  1
  Fe  Fe9  1  0.789698  0.235336  0.500000  1
  Ni  Ni10  1  0.726342  0.766150  0.000000  1
  Ni  Ni11  1  0.231057  0.959412  0.000000  1
  Ni  Ni12  1  0.037085  0.270475  0.000000  1
  Ni  Ni13  1  0.104935  0.720516  0.500000  1
  P  P14  1  0.957229  0.739017  0.000000  1
  P  P15  1  0.259027  0.220900  0.000000  1
  P  P16  1  0.775890  0.037271  0.000000  1
  P  P17  1  0.067086  0.443999  0.500000  1
  P  P18  1  0.547175  0.615706  0.500000  1
  P  P19  1  0.387826  0.936020  0.500000  1
  P  P20  1  0.668801  0.335071  0.000000  1
