# generated using pymatgen
data_Pr8Nd2AlSi4Ge
_symmetry_space_group_name_H-M   'P 1'
_cell_length_a   7.85926000
_cell_length_b   9.12028849
_cell_length_c   7.85926000
_cell_angle_alpha   115.52259236
_cell_angle_beta   90.00000000
_cell_angle_gamma   115.52259236
_symmetry_Int_Tables_number   1
_chemical_formula_structural   Pr8Nd2AlSi4Ge
_chemical_formula_sum   'Pr8 Nd2 Al1 Si4 Ge1'
_cell_volume   446.67962960
_cell_formula_units_Z   1
loop_
 _symmetry_equiv_pos_site_id
 _symmetry_equiv_pos_as_xyz
  1  'x, y, z'
loop_
 _atom_site_type_symbol
 _atom_site_label
 _atom_site_symmetry_multiplicity
 _atom_site_fract_x
 _atom_site_fract_y
 _atom_site_fract_z
 _atom_site_occupancy
  Pr  Pr0  1  0.526334  0.716501  0.673354  1
  Pr  Pr1  1  0.190169  0.716501  0.043148  1
  Pr  Pr2  1  0.673354  0.716501  0.190169  1
  Pr  Pr3  1  0.043148  0.716501  0.526334  1
  Pr  Pr4  1  0.456852  0.283499  0.309831  1
  Pr  Pr5  1  0.826646  0.283499  0.973666  1
  Pr  Pr6  1  0.309831  0.283499  0.826646  1
  Pr  Pr7  1  0.973666  0.283499  0.456852  1
  Nd  Nd8  1  0.977126  0.954253  0.977126  1
  Nd  Nd9  1  0.522874  0.045747  0.522874  1
  Al  Al10  1  0.750000  0.500000  0.750000  1
  Si  Si11  1  0.885530  0.000000  0.614470  1
  Si  Si12  1  0.114470  0.000000  0.385530  1
  Si  Si13  1  0.614470  0.000000  0.114470  1
  Si  Si14  1  0.385530  0.000000  0.885530  1
  Ge  Ge15  1  0.250000  0.500000  0.250000  1
