# generated using pymatgen
data_Ca6Th2GePd24
_symmetry_space_group_name_H-M   'P 1'
_cell_length_a   8.35837118
_cell_length_b   8.35837132
_cell_length_c   8.35837100
_cell_angle_alpha   89.90219427
_cell_angle_beta   89.90219427
_cell_angle_gamma   89.90219198
_symmetry_Int_Tables_number   1
_chemical_formula_structural   Ca6Th2GePd24
_chemical_formula_sum   'Ca6 Th2 Ge1 Pd24'
_cell_volume   583.93305703
_cell_formula_units_Z   1
loop_
 _symmetry_equiv_pos_site_id
 _symmetry_equiv_pos_as_xyz
  1  'x, y, z'
loop_
 _atom_site_type_symbol
 _atom_site_label
 _atom_site_symmetry_multiplicity
 _atom_site_fract_x
 _atom_site_fract_y
 _atom_site_fract_z
 _atom_site_occupancy
  Ca  Ca0  1  0.748967  0.748967  0.251337  1
  Ca  Ca1  1  0.748967  0.251337  0.748967  1
  Ca  Ca2  1  0.251033  0.251033  0.748663  1
  Ca  Ca3  1  0.251033  0.748663  0.251033  1
  Ca  Ca4  1  0.251337  0.748967  0.748967  1
  Ca  Ca5  1  0.748663  0.251033  0.251033  1
  Th  Th6  1  0.255094  0.255094  0.255094  1
  Th  Th7  1  0.744906  0.744906  0.744906  1
  Ge  Ge8  1  0.000000  0.000000  0.000000  1
  Pd  Pd9  1  0.260595  0.498768  0.000139  1
  Pd  Pd10  1  0.739405  0.501232  0.999861  1
  Pd  Pd11  1  0.000139  0.260595  0.498768  1
  Pd  Pd12  1  0.498768  0.260595  0.000139  1
  Pd  Pd13  1  0.999861  0.739405  0.501232  1
  Pd  Pd14  1  0.501232  0.739405  0.999861  1
  Pd  Pd15  1  0.498768  0.000139  0.260595  1
  Pd  Pd16  1  0.260595  0.000139  0.498768  1
  Pd  Pd17  1  0.501232  0.999861  0.739405  1
  Pd  Pd18  1  0.739405  0.999861  0.501232  1
  Pd  Pd19  1  0.000139  0.498768  0.260595  1
  Pd  Pd20  1  0.999861  0.501232  0.739405  1
  Pd  Pd21  1  0.253491  0.500143  0.500143  1
  Pd  Pd22  1  0.746509  0.499857  0.499857  1
  Pd  Pd23  1  0.500143  0.253491  0.500143  1
  Pd  Pd24  1  0.499857  0.746509  0.499857  1
  Pd  Pd25  1  0.500143  0.500143  0.253491  1
  Pd  Pd26  1  0.499857  0.499857  0.746509  1
  Pd  Pd27  1  0.291614  0.999614  0.999614  1
  Pd  Pd28  1  0.708386  0.000386  0.000386  1
  Pd  Pd29  1  0.999614  0.291614  0.999614  1
  Pd  Pd30  1  0.000386  0.708386  0.000386  1
  Pd  Pd31  1  0.999614  0.999614  0.291614  1
  Pd  Pd32  1  0.000386  0.000386  0.708386  1
