# generated using pymatgen
data_ZrScPa2(Al3Rh)6
_symmetry_space_group_name_H-M   'P 1'
_cell_length_a   7.54652326
_cell_length_b   7.54499015
_cell_length_c   9.32736200
_cell_angle_alpha   90.00000000
_cell_angle_beta   90.00000000
_cell_angle_gamma   119.51713012
_symmetry_Int_Tables_number   1
_chemical_formula_structural   ZrScPa2(Al3Rh)6
_chemical_formula_sum   'Zr1 Sc1 Pa2 Al18 Rh6'
_cell_volume   462.15506014
_cell_formula_units_Z   1
loop_
 _symmetry_equiv_pos_site_id
 _symmetry_equiv_pos_as_xyz
  1  'x, y, z'
loop_
 _atom_site_type_symbol
 _atom_site_label
 _atom_site_symmetry_multiplicity
 _atom_site_fract_x
 _atom_site_fract_y
 _atom_site_fract_z
 _atom_site_occupancy
  Zr  Zr0  1  0.994504  0.671229  0.250000  1
  Sc  Sc1  1  0.672511  0.995180  0.250000  1
  Pa  Pa2  1  0.007995  0.325866  0.750000  1
  Pa  Pa3  1  0.328036  0.009114  0.750000  1
  Al  Al4  1  0.118080  0.117294  0.250000  1
  Al  Al5  1  0.865031  0.864243  0.750000  1
  Al  Al6  1  0.995825  0.335327  0.083145  1
  Al  Al7  1  0.997471  0.663777  0.932133  1
  Al  Al8  1  0.997471  0.663777  0.567867  1
  Al  Al9  1  0.335380  0.996276  0.416333  1
  Al  Al10  1  0.995825  0.335327  0.416855  1
  Al  Al11  1  0.663996  0.996668  0.568799  1
  Al  Al12  1  0.663996  0.996668  0.931201  1
  Al  Al13  1  0.335380  0.996276  0.083667  1
  Al  Al14  1  0.337079  0.337688  0.543848  1
  Al  Al15  1  0.671700  0.671537  0.435799  1
  Al  Al16  1  0.671700  0.671537  0.064201  1
  Al  Al17  1  0.337079  0.337688  0.956152  1
  Al  Al18  1  0.338086  0.557492  0.250000  1
  Al  Al19  1  0.661051  0.454372  0.750000  1
  Al  Al20  1  0.558802  0.341689  0.250000  1
  Al  Al21  1  0.452755  0.659560  0.750000  1
  Rh  Rh22  1  0.672350  0.326630  0.999404  1
  Rh  Rh23  1  0.327220  0.673031  0.999986  1
  Rh  Rh24  1  0.327220  0.673031  0.500014  1
  Rh  Rh25  1  0.672350  0.326630  0.500596  1
  Rh  Rh26  1  0.000554  0.001048  0.998424  1
  Rh  Rh27  1  0.000554  0.001048  0.501576  1
