# generated using pymatgen
data_Hf18Mn2ZnRe6Se
_symmetry_space_group_name_H-M   'P 1'
_cell_length_a   8.56931100
_cell_length_b   8.56931023
_cell_length_c   8.47828000
_cell_angle_alpha   90.00000000
_cell_angle_beta   90.00000000
_cell_angle_gamma   119.99999138
_symmetry_Int_Tables_number   1
_chemical_formula_structural   Hf18Mn2ZnRe6Se
_chemical_formula_sum   'Hf18 Mn2 Zn1 Re6 Se1'
_cell_volume   539.17555644
_cell_formula_units_Z   1
loop_
 _symmetry_equiv_pos_site_id
 _symmetry_equiv_pos_as_xyz
  1  'x, y, z'
loop_
 _atom_site_type_symbol
 _atom_site_label
 _atom_site_symmetry_multiplicity
 _atom_site_fract_x
 _atom_site_fract_y
 _atom_site_fract_z
 _atom_site_occupancy
  Hf  Hf0  1  0.190911  0.809089  0.451038  1
  Hf  Hf1  1  0.190911  0.381823  0.451038  1
  Hf  Hf2  1  0.618177  0.809089  0.451038  1
  Hf  Hf3  1  0.808669  0.191331  0.551896  1
  Hf  Hf4  1  0.808669  0.617338  0.551896  1
  Hf  Hf5  1  0.382662  0.191331  0.551896  1
  Hf  Hf6  1  0.808669  0.191331  0.948104  1
  Hf  Hf7  1  0.808669  0.617338  0.948104  1
  Hf  Hf8  1  0.382662  0.191331  0.948104  1
  Hf  Hf9  1  0.190911  0.809089  0.048962  1
  Hf  Hf10  1  0.190911  0.381823  0.048962  1
  Hf  Hf11  1  0.618177  0.809089  0.048962  1
  Hf  Hf12  1  0.545021  0.454979  0.250000  1
  Hf  Hf13  1  0.545021  0.090042  0.250000  1
  Hf  Hf14  1  0.909958  0.454979  0.250000  1
  Hf  Hf15  1  0.458496  0.541504  0.750000  1
  Hf  Hf16  1  0.458496  0.916992  0.750000  1
  Hf  Hf17  1  0.083008  0.541504  0.750000  1
  Mn  Mn18  1  0.000000  0.000000  0.499415  1
  Mn  Mn19  1  0.000000  0.000000  0.000585  1
  Zn  Zn20  1  0.666667  0.333333  0.750000  1
  Re  Re21  1  0.892597  0.107403  0.250000  1
  Re  Re22  1  0.892597  0.785195  0.250000  1
  Re  Re23  1  0.214805  0.107403  0.250000  1
  Re  Re24  1  0.107489  0.892511  0.750000  1
  Re  Re25  1  0.107489  0.214976  0.750000  1
  Re  Re26  1  0.785024  0.892511  0.750000  1
  Se  Se27  1  0.333333  0.666667  0.250000  1
