# generated using pymatgen
data_Zr6Mn2Co16SiP11
_symmetry_space_group_name_H-M   'P 1'
_cell_length_a   11.94577409
_cell_length_b   11.99225492
_cell_length_c   3.62514600
_cell_angle_alpha   90.00000000
_cell_angle_beta   90.00000000
_cell_angle_gamma   120.07895688
_symmetry_Int_Tables_number   1
_chemical_formula_structural   Zr6Mn2Co16SiP11
_chemical_formula_sum   'Zr6 Mn2 Co16 Si1 P11'
_cell_volume   449.39185692
_cell_formula_units_Z   1
loop_
 _symmetry_equiv_pos_site_id
 _symmetry_equiv_pos_as_xyz
  1  'x, y, z'
loop_
 _atom_site_type_symbol
 _atom_site_label
 _atom_site_symmetry_multiplicity
 _atom_site_fract_x
 _atom_site_fract_y
 _atom_site_fract_z
 _atom_site_occupancy
  Zr  Zr0  1  0.000619  0.555611  0.000000  1
  Zr  Zr1  1  0.666179  0.332783  0.000000  1
  Zr  Zr2  1  0.334323  0.666242  0.000000  1
  Zr  Zr3  1  0.819265  0.819128  0.500000  1
  Zr  Zr4  1  0.182641  0.000054  0.500000  1
  Zr  Zr5  1  0.999997  0.176381  0.500000  1
  Mn  Mn6  1  0.442737  0.442277  0.000000  1
  Mn  Mn7  1  0.554135  0.000327  0.000000  1
  Co  Co8  1  0.198777  0.373868  0.000000  1
  Co  Co9  1  0.182635  0.810540  0.000000  1
  Co  Co10  1  0.820948  0.627441  0.000000  1
  Co  Co11  1  0.800622  0.174692  0.000000  1
  Co  Co12  1  0.376458  0.197846  0.000000  1
  Co  Co13  1  0.128323  0.478809  0.500000  1
  Co  Co14  1  0.359455  0.875748  0.500000  1
  Co  Co15  1  0.513806  0.644286  0.500000  1
  Co  Co16  1  0.639765  0.514302  0.500000  1
  Co  Co17  1  0.871982  0.350342  0.500000  1
  Co  Co18  1  0.483445  0.128343  0.500000  1
  Co  Co19  1  0.000609  0.002013  0.000000  1
  Co  Co20  1  0.716048  0.000400  0.500000  1
  Co  Co21  1  0.001571  0.723302  0.500000  1
  Co  Co22  1  0.622718  0.825428  0.000000  1
  Co  Co23  1  0.283986  0.283352  0.500000  1
  Si  Si24  1  0.638610  0.643152  0.000000  1
  P  P25  1  0.361313  0.004456  0.000000  1
  P  P26  1  0.999755  0.344081  0.000000  1
  P  P27  1  0.481586  0.314678  0.500000  1
  P  P28  1  0.683662  0.165564  0.500000  1
  P  P29  1  0.823782  0.516925  0.500000  1
  P  P30  1  0.518042  0.832858  0.500000  1
  P  P31  1  0.176514  0.693073  0.500000  1
  P  P32  1  0.821307  0.997924  0.000000  1
  P  P33  1  0.999748  0.825763  0.000000  1
  P  P34  1  0.315948  0.481184  0.500000  1
  P  P35  1  0.178690  0.176829  0.000000  1
