# generated using pymatgen
data_Er4Ga6CuIr
_symmetry_space_group_name_H-M   'P 1'
_cell_length_a   6.94856400
_cell_length_b   8.81739110
_cell_length_c   8.81739200
_cell_angle_alpha   119.99999589
_cell_angle_beta   90.00000000
_cell_angle_gamma   90.00000000
_symmetry_Int_Tables_number   1
_chemical_formula_structural   Er4Ga6CuIr
_chemical_formula_sum   'Er8 Ga12 Cu2 Ir2'
_cell_volume   467.84927940
_cell_formula_units_Z   2
loop_
 _symmetry_equiv_pos_site_id
 _symmetry_equiv_pos_as_xyz
  1  'x, y, z'
loop_
 _atom_site_type_symbol
 _atom_site_label
 _atom_site_symmetry_multiplicity
 _atom_site_fract_x
 _atom_site_fract_y
 _atom_site_fract_z
 _atom_site_occupancy
  Er  Er0  1  0.748603  0.000000  0.000000  1
  Er  Er1  1  0.251397  0.000000  0.000000  1
  Er  Er2  1  0.741953  0.478584  0.521416  1
  Er  Er3  1  0.258047  0.521416  0.478584  1
  Er  Er4  1  0.741953  0.042831  0.521416  1
  Er  Er5  1  0.258047  0.957169  0.478584  1
  Er  Er6  1  0.741953  0.478584  0.957169  1
  Er  Er7  1  0.258047  0.521416  0.042831  1
  Ga  Ga8  1  0.954018  0.831290  0.168710  1
  Ga  Ga9  1  0.045982  0.168710  0.831290  1
  Ga  Ga10  1  0.954018  0.337421  0.168710  1
  Ga  Ga11  1  0.453141  0.168449  0.831551  1
  Ga  Ga12  1  0.045982  0.662579  0.831290  1
  Ga  Ga13  1  0.546859  0.831551  0.168449  1
  Ga  Ga14  1  0.954018  0.831290  0.662579  1
  Ga  Ga15  1  0.453141  0.663102  0.831551  1
  Ga  Ga16  1  0.045982  0.168710  0.337421  1
  Ga  Ga17  1  0.546859  0.336898  0.168449  1
  Ga  Ga18  1  0.453141  0.168449  0.336898  1
  Ga  Ga19  1  0.546859  0.831551  0.663102  1
  Cu  Cu20  1  0.946614  0.666667  0.333333  1
  Cu  Cu21  1  0.053386  0.333333  0.666667  1
  Ir  Ir22  1  0.481710  0.333333  0.666667  1
  Ir  Ir23  1  0.518290  0.666667  0.333333  1
