# generated using pymatgen
data_Zr10InSn5S
_symmetry_space_group_name_H-M   'P 1'
_cell_length_a   5.88536888
_cell_length_b   8.57245681
_cell_length_c   8.58123000
_cell_angle_alpha   119.96996422
_cell_angle_beta   89.96871077
_cell_angle_gamma   90.06233615
_symmetry_Int_Tables_number   1
_chemical_formula_structural   Zr10InSn5S
_chemical_formula_sum   'Zr10 In1 Sn5 S1'
_cell_volume   375.05095455
_cell_formula_units_Z   1
loop_
 _symmetry_equiv_pos_site_id
 _symmetry_equiv_pos_as_xyz
  1  'x, y, z'
loop_
 _atom_site_type_symbol
 _atom_site_label
 _atom_site_symmetry_multiplicity
 _atom_site_fract_x
 _atom_site_fract_y
 _atom_site_fract_z
 _atom_site_occupancy
  Zr  Zr0  1  0.500333  0.332221  0.666146  1
  Zr  Zr1  1  0.500338  0.666067  0.333854  1
  Zr  Zr2  1  0.999506  0.666408  0.333467  1
  Zr  Zr3  1  0.999510  0.332943  0.666536  1
  Zr  Zr4  1  0.756348  0.249975  0.999995  1
  Zr  Zr5  1  0.758598  0.749789  0.749868  1
  Zr  Zr6  1  0.758594  0.999926  0.250141  1
  Zr  Zr7  1  0.239477  0.752335  0.999998  1
  Zr  Zr8  1  0.242793  0.250206  0.250035  1
  Zr  Zr9  1  0.242788  0.000170  0.749959  1
  In  In10  1  0.748001  0.606245  0.000023  1
  Sn  Sn11  1  0.750171  0.393141  0.393598  1
  Sn  Sn12  1  0.750141  0.999500  0.606382  1
  Sn  Sn13  1  0.250115  0.395470  0.000012  1
  Sn  Sn14  1  0.251140  0.606101  0.606492  1
  Sn  Sn15  1  0.251143  0.999585  0.393494  1
  S  S16  1  0.501001  0.999922  0.000001  1
