# generated using pymatgen
data_Tb10Y2Pd3Rh
_symmetry_space_group_name_H-M   'P 1'
_cell_length_a   6.43422000
_cell_length_b   7.12429500
_cell_length_c   9.70745600
_cell_angle_alpha   90.00000000
_cell_angle_beta   90.00000000
_cell_angle_gamma   89.99998980
_symmetry_Int_Tables_number   1
_chemical_formula_structural   Tb10Y2Pd3Rh
_chemical_formula_sum   'Tb10 Y2 Pd3 Rh1'
_cell_volume   444.98280728
_cell_formula_units_Z   1
loop_
 _symmetry_equiv_pos_site_id
 _symmetry_equiv_pos_as_xyz
  1  'x, y, z'
loop_
 _atom_site_type_symbol
 _atom_site_label
 _atom_site_symmetry_multiplicity
 _atom_site_fract_x
 _atom_site_fract_y
 _atom_site_fract_z
 _atom_site_occupancy
  Tb  Tb0  1  0.328927  0.681011  0.058823  1
  Tb  Tb1  1  0.169668  0.179282  0.440351  1
  Tb  Tb2  1  0.669898  0.323806  0.563030  1
  Tb  Tb3  1  0.825745  0.817295  0.937793  1
  Tb  Tb4  1  0.669898  0.323806  0.936970  1
  Tb  Tb5  1  0.825745  0.817295  0.562207  1
  Tb  Tb6  1  0.328927  0.681011  0.441177  1
  Tb  Tb7  1  0.169668  0.179282  0.059649  1
  Tb  Tb8  1  0.141531  0.475089  0.750000  1
  Tb  Tb9  1  0.369688  0.965060  0.750000  1
  Y  Y10  1  0.864212  0.524960  0.250000  1
  Y  Y11  1  0.635222  0.026486  0.250000  1
  Pd  Pd12  1  0.064915  0.886562  0.250000  1
  Pd  Pd13  1  0.433736  0.387544  0.250000  1
  Pd  Pd14  1  0.940239  0.114668  0.750000  1
  Rh  Rh15  1  0.561982  0.616842  0.750000  1
