# generated using pymatgen
data_Ta9Nb11(Al4Au)2
_symmetry_space_group_name_H-M   'P 1'
_cell_length_a   9.96883182
_cell_length_b   9.96883182
_cell_length_c   5.23186786
_cell_angle_alpha   89.95365854
_cell_angle_beta   89.95365854
_cell_angle_gamma   89.99554208
_symmetry_Int_Tables_number   1
_chemical_formula_structural   Ta9Nb11(Al4Au)2
_chemical_formula_sum   'Ta9 Nb11 Al8 Au2'
_cell_volume   519.93017071
_cell_formula_units_Z   1
loop_
 _symmetry_equiv_pos_site_id
 _symmetry_equiv_pos_as_xyz
  1  'x, y, z'
loop_
 _atom_site_type_symbol
 _atom_site_label
 _atom_site_symmetry_multiplicity
 _atom_site_fract_x
 _atom_site_fract_y
 _atom_site_fract_z
 _atom_site_occupancy
  Ta  Ta0  1  0.130372  0.463745  0.001063  1
  Ta  Ta1  1  0.965368  0.369193  0.499401  1
  Ta  Ta2  1  0.035193  0.630307  0.500166  1
  Ta  Ta3  1  0.869975  0.534966  0.999222  1
  Ta  Ta4  1  0.369193  0.965368  0.499401  1
  Ta  Ta5  1  0.630307  0.035193  0.500166  1
  Ta  Ta6  1  0.463745  0.130372  0.001063  1
  Ta  Ta7  1  0.534966  0.869975  0.999222  1
  Ta  Ta8  1  0.184755  0.184755  0.252400  1
  Nb  Nb9  1  0.397297  0.397297  0.999711  1
  Nb  Nb10  1  0.898924  0.102021  0.499943  1
  Nb  Nb11  1  0.102021  0.898924  0.499943  1
  Nb  Nb12  1  0.601676  0.601676  0.000429  1
  Nb  Nb13  1  0.685133  0.315346  0.752650  1
  Nb  Nb14  1  0.315346  0.685133  0.752650  1
  Nb  Nb15  1  0.814989  0.814989  0.252665  1
  Nb  Nb16  1  0.315442  0.685267  0.247317  1
  Nb  Nb17  1  0.685267  0.315442  0.247317  1
  Nb  Nb18  1  0.184936  0.184936  0.747551  1
  Nb  Nb19  1  0.815232  0.815232  0.747352  1
  Al  Al20  1  0.260109  0.934622  0.000028  1
  Al  Al21  1  0.434528  0.239954  0.500295  1
  Al  Al22  1  0.565354  0.760060  0.499699  1
  Al  Al23  1  0.739732  0.065371  0.999860  1
  Al  Al24  1  0.239954  0.434528  0.500295  1
  Al  Al25  1  0.760060  0.565354  0.499699  1
  Al  Al26  1  0.934622  0.260109  0.000028  1
  Al  Al27  1  0.065371  0.739732  0.999860  1
  Au  Au28  1  0.000455  0.000455  0.000689  1
  Au  Au29  1  0.499678  0.499678  0.499918  1
