# generated using pymatgen
data_HoTh9(In2Ru)4
_symmetry_space_group_name_H-M   'P 1'
_cell_length_a   8.19901387
_cell_length_b   18.38924388
_cell_length_c   3.81925300
_cell_angle_alpha   90.00000000
_cell_angle_beta   90.00000000
_cell_angle_gamma   90.71263449
_symmetry_Int_Tables_number   1
_chemical_formula_structural   HoTh9(In2Ru)4
_chemical_formula_sum   'Ho1 Th9 In8 Ru4'
_cell_volume   575.79823399
_cell_formula_units_Z   1
loop_
 _symmetry_equiv_pos_site_id
 _symmetry_equiv_pos_as_xyz
  1  'x, y, z'
loop_
 _atom_site_type_symbol
 _atom_site_label
 _atom_site_symmetry_multiplicity
 _atom_site_fract_x
 _atom_site_fract_y
 _atom_site_fract_z
 _atom_site_occupancy
  Ho  Ho0  1  0.000000  0.000000  0.000000  1
  Th  Th1  1  0.500000  0.500000  0.000000  1
  Th  Th2  1  0.756790  0.274962  0.000000  1
  Th  Th3  1  0.243210  0.725038  0.000000  1
  Th  Th4  1  0.745410  0.778370  0.000000  1
  Th  Th5  1  0.254590  0.221630  0.000000  1
  Th  Th6  1  0.617146  0.087665  0.000000  1
  Th  Th7  1  0.382854  0.912335  0.000000  1
  Th  Th8  1  0.875657  0.588802  0.000000  1
  Th  Th9  1  0.124343  0.411198  0.000000  1
  In  In10  1  0.715284  0.933519  0.500000  1
  In  In11  1  0.284716  0.066481  0.500000  1
  In  In12  1  0.793267  0.431839  0.500000  1
  In  In13  1  0.206733  0.568161  0.500000  1
  In  In14  1  0.555448  0.649612  0.500000  1
  In  In15  1  0.444552  0.350388  0.500000  1
  In  In16  1  0.942788  0.145971  0.500000  1
  In  In17  1  0.057212  0.854029  0.500000  1
  Ru  Ru18  1  0.515783  0.194422  0.500000  1
  Ru  Ru19  1  0.484217  0.805578  0.500000  1
  Ru  Ru20  1  0.986073  0.693658  0.500000  1
  Ru  Ru21  1  0.013927  0.306342  0.500000  1
