# generated using pymatgen
data_YbEr3Sc6(Si5Ir2)4
_symmetry_space_group_name_H-M   'P 1'
_cell_length_a   12.49763234
_cell_length_b   12.49763319
_cell_length_c   4.14412100
_cell_angle_alpha   90.00000000
_cell_angle_beta   90.00000000
_cell_angle_gamma   89.99851919
_symmetry_Int_Tables_number   1
_chemical_formula_structural   YbEr3Sc6(Si5Ir2)4
_chemical_formula_sum   'Yb1 Er3 Sc6 Si20 Ir8'
_cell_volume   647.27367677
_cell_formula_units_Z   1
loop_
 _symmetry_equiv_pos_site_id
 _symmetry_equiv_pos_as_xyz
  1  'x, y, z'
loop_
 _atom_site_type_symbol
 _atom_site_label
 _atom_site_symmetry_multiplicity
 _atom_site_fract_x
 _atom_site_fract_y
 _atom_site_fract_z
 _atom_site_occupancy
  Yb  Yb0  1  0.115835  0.615835  0.500000  1
  Er  Er1  1  0.883216  0.383216  0.500000  1
  Er  Er2  1  0.615827  0.884426  0.500000  1
  Er  Er3  1  0.384426  0.115827  0.500000  1
  Sc  Sc4  1  0.673560  0.173560  0.500000  1
  Sc  Sc5  1  0.327194  0.827194  0.500000  1
  Sc  Sc6  1  0.174689  0.325865  0.500000  1
  Sc  Sc7  1  0.825865  0.674689  0.500000  1
  Sc  Sc8  1  0.999983  0.000215  0.000000  1
  Sc  Sc9  1  0.500215  0.499983  0.000000  1
  Si  Si10  1  0.567247  0.067247  0.000000  1
  Si  Si11  1  0.432976  0.932976  0.000000  1
  Si  Si12  1  0.067481  0.432348  0.000000  1
  Si  Si13  1  0.932348  0.567481  0.000000  1
  Si  Si14  1  0.199283  0.165695  0.000000  1
  Si  Si15  1  0.799484  0.834410  0.000000  1
  Si  Si16  1  0.165912  0.800662  0.000000  1
  Si  Si17  1  0.699345  0.333738  0.000000  1
  Si  Si18  1  0.833738  0.199345  0.000000  1
  Si  Si19  1  0.300662  0.665912  0.000000  1
  Si  Si20  1  0.665695  0.699283  0.000000  1
  Si  Si21  1  0.334410  0.299484  0.000000  1
  Si  Si22  1  0.006420  0.150875  0.500000  1
  Si  Si23  1  0.993719  0.849341  0.500000  1
  Si  Si24  1  0.151577  0.992902  0.500000  1
  Si  Si25  1  0.506833  0.348867  0.500000  1
  Si  Si26  1  0.848867  0.006833  0.500000  1
  Si  Si27  1  0.492902  0.651577  0.500000  1
  Si  Si28  1  0.650875  0.506420  0.500000  1
  Si  Si29  1  0.349341  0.493719  0.500000  1
  Ir  Ir30  1  0.019344  0.244601  0.000000  1
  Ir  Ir31  1  0.978681  0.756525  0.000000  1
  Ir  Ir32  1  0.245088  0.980411  0.000000  1
  Ir  Ir33  1  0.520321  0.255105  0.000000  1
  Ir  Ir34  1  0.755105  0.020321  0.000000  1
  Ir  Ir35  1  0.480411  0.745088  0.000000  1
  Ir  Ir36  1  0.744601  0.519344  0.000000  1
  Ir  Ir37  1  0.256525  0.478681  0.000000  1
