# generated using pymatgen
data_K4ZnW3N8
_symmetry_space_group_name_H-M   'P 1'
_cell_length_a   5.87386500
_cell_length_b   8.46831800
_cell_length_c   11.99205300
_cell_angle_alpha   90.00000000
_cell_angle_beta   90.00000000
_cell_angle_gamma   90.00000000
_symmetry_Int_Tables_number   1
_chemical_formula_structural   K4ZnW3N8
_chemical_formula_sum   'K8 Zn2 W6 N16'
_cell_volume   596.50578277
_cell_formula_units_Z   2
loop_
 _symmetry_equiv_pos_site_id
 _symmetry_equiv_pos_as_xyz
  1  'x, y, z'
loop_
 _atom_site_type_symbol
 _atom_site_label
 _atom_site_symmetry_multiplicity
 _atom_site_fract_x
 _atom_site_fract_y
 _atom_site_fract_z
 _atom_site_occupancy
  K  K0  1  0.250000  0.186828  0.000000  1
  K  K1  1  0.750000  0.813172  0.500000  1
  K  K2  1  0.750000  0.880838  0.000000  1
  K  K3  1  0.250000  0.119162  0.500000  1
  K  K4  1  0.356607  0.382191  0.745736  1
  K  K5  1  0.856607  0.617809  0.754264  1
  K  K6  1  0.643393  0.617809  0.245736  1
  K  K7  1  0.143393  0.382191  0.254264  1
  Zn  Zn8  1  0.750000  0.357679  0.000000  1
  Zn  Zn9  1  0.250000  0.642321  0.500000  1
  W  W10  1  0.250000  0.619416  0.000000  1
  W  W11  1  0.750000  0.380584  0.500000  1
  W  W12  1  0.834776  0.113245  0.749409  1
  W  W13  1  0.334776  0.886755  0.750591  1
  W  W14  1  0.165224  0.886755  0.249409  1
  W  W15  1  0.665224  0.113245  0.250591  1
  N  N16  1  0.149439  0.067147  0.784121  1
  N  N17  1  0.649439  0.932853  0.715879  1
  N  N18  1  0.850561  0.932853  0.284121  1
  N  N19  1  0.350561  0.067147  0.215879  1
  N  N20  1  0.836247  0.252316  0.626999  1
  N  N21  1  0.336247  0.747684  0.873001  1
  N  N22  1  0.163753  0.747684  0.126999  1
  N  N23  1  0.663753  0.252316  0.373001  1
  N  N24  1  0.288213  0.789414  0.368016  1
  N  N25  1  0.788213  0.210586  0.131984  1
  N  N26  1  0.711787  0.210586  0.868016  1
  N  N27  1  0.211787  0.789414  0.631984  1
  N  N28  1  0.510417  0.504088  0.538944  1
  N  N29  1  0.010417  0.495912  0.961056  1
  N  N30  1  0.489583  0.495912  0.038944  1
  N  N31  1  0.989583  0.504088  0.461056  1
