# generated using pymatgen
data_YbCu2HgPd2
_symmetry_space_group_name_H-M   'P 1'
_cell_length_a   5.21038866
_cell_length_b   5.50908340
_cell_length_c   5.21038847
_cell_angle_alpha   58.08481217
_cell_angle_beta   58.13655406
_cell_angle_gamma   58.08481232
_symmetry_Int_Tables_number   1
_chemical_formula_structural   YbCu2HgPd2
_chemical_formula_sum   'Yb1 Cu2 Hg1 Pd2'
_cell_volume   101.15412570
_cell_formula_units_Z   1
loop_
 _symmetry_equiv_pos_site_id
 _symmetry_equiv_pos_as_xyz
  1  'x, y, z'
loop_
 _atom_site_type_symbol
 _atom_site_label
 _atom_site_symmetry_multiplicity
 _atom_site_fract_x
 _atom_site_fract_y
 _atom_site_fract_z
 _atom_site_occupancy
  Yb  Yb0  1  0.750686  0.749314  0.750686  1
  Cu  Cu1  1  0.874856  0.373380  0.378384  1
  Cu  Cu2  1  0.378384  0.373380  0.874856  1
  Hg  Hg3  1  0.996251  0.003749  0.996251  1
  Pd  Pd4  1  0.374912  0.875540  0.374912  1
  Pd  Pd5  1  0.374912  0.374637  0.374912  1
