# generated using pymatgen
data_HoEr5MnSi24Ru7
_symmetry_space_group_name_H-M   'P 1'
_cell_length_a   10.09421255
_cell_length_b   10.09421300
_cell_length_c   8.08360500
_cell_angle_alpha   90.03177482
_cell_angle_beta   90.03177482
_cell_angle_gamma   132.74710554
_symmetry_Int_Tables_number   1
_chemical_formula_structural   HoEr5MnSi24Ru7
_chemical_formula_sum   'Ho1 Er5 Mn1 Si24 Ru7'
_cell_volume   604.86255377
_cell_formula_units_Z   1
loop_
 _symmetry_equiv_pos_site_id
 _symmetry_equiv_pos_as_xyz
  1  'x, y, z'
loop_
 _atom_site_type_symbol
 _atom_site_label
 _atom_site_symmetry_multiplicity
 _atom_site_fract_x
 _atom_site_fract_y
 _atom_site_fract_z
 _atom_site_occupancy
  Ho  Ho0  1  0.498300  0.997690  0.248687  1
  Er  Er1  1  0.002954  0.501932  0.750856  1
  Er  Er2  1  0.501932  0.002954  0.750856  1
  Er  Er3  1  0.997690  0.498300  0.248687  1
  Er  Er4  1  0.501955  0.501955  0.501074  1
  Er  Er5  1  0.999050  0.999050  0.997719  1
  Mn  Mn6  1  0.625065  0.625065  0.874258  1
  Si  Si7  1  0.387442  0.154241  0.004797  1
  Si  Si8  1  0.654268  0.887477  0.494417  1
  Si  Si9  1  0.112618  0.345547  0.506213  1
  Si  Si10  1  0.842036  0.614175  0.989599  1
  Si  Si11  1  0.614175  0.842036  0.989599  1
  Si  Si12  1  0.345547  0.112618  0.506213  1
  Si  Si13  1  0.887477  0.654268  0.494417  1
  Si  Si14  1  0.154241  0.387442  0.004797  1
  Si  Si15  1  0.612521  0.378455  0.228879  1
  Si  Si16  1  0.877293  0.110582  0.271232  1
  Si  Si17  1  0.888780  0.122157  0.728728  1
  Si  Si18  1  0.624240  0.395838  0.772418  1
  Si  Si19  1  0.395838  0.624240  0.772418  1
  Si  Si20  1  0.122157  0.888780  0.728728  1
  Si  Si21  1  0.704468  0.294625  0.000122  1
  Si  Si22  1  0.794825  0.204974  0.500016  1
  Si  Si23  1  0.294625  0.704468  0.000122  1
  Si  Si24  1  0.204974  0.794825  0.500016  1
  Si  Si25  1  0.166796  0.166796  0.333711  1
  Si  Si26  1  0.667998  0.667998  0.161331  1
  Si  Si27  1  0.338132  0.338132  0.832573  1
  Si  Si28  1  0.825792  0.825792  0.673535  1
  Si  Si29  1  0.378455  0.612521  0.228879  1
  Si  Si30  1  0.110582  0.877293  0.271232  1
  Ru  Ru31  1  0.125368  0.125368  0.629170  1
  Ru  Ru32  1  0.871600  0.871600  0.373938  1
  Ru  Ru33  1  0.373784  0.373784  0.127218  1
  Ru  Ru34  1  0.330041  0.669940  0.501938  1
  Ru  Ru35  1  0.168161  0.828874  0.999834  1
  Ru  Ru36  1  0.669940  0.330041  0.501938  1
  Ru  Ru37  1  0.828874  0.168161  0.999834  1
