# generated using pymatgen
data_Pr8CoAg2Ir
_symmetry_space_group_name_H-M   'P 1'
_cell_length_a   9.88585193
_cell_length_b   9.88580931
_cell_length_c   9.83446202
_cell_angle_alpha   60.16992455
_cell_angle_beta   60.17051509
_cell_angle_gamma   60.55751312
_symmetry_Int_Tables_number   1
_chemical_formula_structural   Pr8CoAg2Ir
_chemical_formula_sum   'Pr16 Co2 Ag4 Ir2'
_cell_volume   684.19596398
_cell_formula_units_Z   2
loop_
 _symmetry_equiv_pos_site_id
 _symmetry_equiv_pos_as_xyz
  1  'x, y, z'
loop_
 _atom_site_type_symbol
 _atom_site_label
 _atom_site_symmetry_multiplicity
 _atom_site_fract_x
 _atom_site_fract_y
 _atom_site_fract_z
 _atom_site_occupancy
  Pr  Pr0  1  0.347030  0.347017  0.356287  1
  Pr  Pr1  1  0.347052  0.347051  0.949642  1
  Pr  Pr2  1  0.343402  0.953666  0.351489  1
  Pr  Pr3  1  0.953660  0.343413  0.351488  1
  Pr  Pr4  1  0.815012  0.190537  0.189063  1
  Pr  Pr5  1  0.190543  0.815051  0.805352  1
  Pr  Pr6  1  0.190535  0.815011  0.189062  1
  Pr  Pr7  1  0.815059  0.190537  0.805350  1
  Pr  Pr8  1  0.188872  0.188863  0.811100  1
  Pr  Pr9  1  0.809050  0.809050  0.190958  1
  Pr  Pr10  1  0.938367  0.563218  0.560286  1
  Pr  Pr11  1  0.563225  0.938367  0.938121  1
  Pr  Pr12  1  0.563216  0.938365  0.560284  1
  Pr  Pr13  1  0.938372  0.563224  0.938118  1
  Pr  Pr14  1  0.559966  0.559963  0.940034  1
  Pr  Pr15  1  0.936604  0.936606  0.563400  1
  Co  Co16  1  0.140842  0.140854  0.141102  1
  Co  Co17  1  0.140850  0.140853  0.577194  1
  Ag  Ag18  1  0.580571  0.580568  0.579573  1
  Ag  Ag19  1  0.580571  0.580569  0.259294  1
  Ag  Ag20  1  0.581511  0.258484  0.580011  1
  Ag  Ag21  1  0.258473  0.581516  0.580009  1
  Ir  Ir22  1  0.143195  0.574018  0.141393  1
  Ir  Ir23  1  0.574020  0.143196  0.141388  1
