# generated using pymatgen
data_CeTh3(B10Os)2
_symmetry_space_group_name_H-M   'P 1'
_cell_length_a   4.20703600
_cell_length_b   5.74091609
_cell_length_c   11.47094864
_cell_angle_alpha   90.00352493
_cell_angle_beta   90.00000000
_cell_angle_gamma   90.00000000
_symmetry_Int_Tables_number   1
_chemical_formula_structural   CeTh3(B10Os)2
_chemical_formula_sum   'Ce1 Th3 B20 Os2'
_cell_volume   277.04911168
_cell_formula_units_Z   1
loop_
 _symmetry_equiv_pos_site_id
 _symmetry_equiv_pos_as_xyz
  1  'x, y, z'
loop_
 _atom_site_type_symbol
 _atom_site_label
 _atom_site_symmetry_multiplicity
 _atom_site_fract_x
 _atom_site_fract_y
 _atom_site_fract_z
 _atom_site_occupancy
  Ce  Ce0  1  0.500000  0.217301  0.368926  1
  Th  Th1  1  0.500000  0.283041  0.869149  1
  Th  Th2  1  0.500000  0.717247  0.133092  1
  Th  Th3  1  0.500000  0.783188  0.629261  1
  B  B4  1  0.000000  0.118307  0.542299  1
  B  B5  1  0.000000  0.882128  0.456883  1
  B  B6  1  0.000000  0.618521  0.957354  1
  B  B7  1  0.000000  0.381928  0.042942  1
  B  B8  1  0.000000  0.131706  0.696718  1
  B  B9  1  0.000000  0.868119  0.303113  1
  B  B10  1  0.300939  0.221876  0.119423  1
  B  B11  1  0.300966  0.778534  0.880762  1
  B  B12  1  0.699016  0.721320  0.381073  1
  B  B13  1  0.699006  0.278612  0.618836  1
  B  B14  1  0.699034  0.778534  0.880762  1
  B  B15  1  0.699061  0.221876  0.119423  1
  B  B16  1  0.300994  0.278612  0.618836  1
  B  B17  1  0.300984  0.721320  0.381073  1
  B  B18  1  0.000000  0.058874  0.193183  1
  B  B19  1  0.000000  0.940991  0.806662  1
  B  B20  1  0.000000  0.557922  0.307254  1
  B  B21  1  0.000000  0.441000  0.692958  1
  B  B22  1  0.000000  0.367641  0.197478  1
  B  B23  1  0.000000  0.631745  0.802940  1
  Os  Os24  1  0.000000  0.499203  0.499713  1
  Os  Os25  1  0.000000  0.000455  0.999890  1
