# generated using pymatgen
data_Tb2Ho2(Al8Pt3)3
_symmetry_space_group_name_H-M   'P 1'
_cell_length_a   7.52500612
_cell_length_b   7.55065130
_cell_length_c   13.17808221
_cell_angle_alpha   84.58140711
_cell_angle_beta   79.13663733
_cell_angle_gamma   59.97927123
_symmetry_Int_Tables_number   1
_chemical_formula_structural   Tb2Ho2(Al8Pt3)3
_chemical_formula_sum   'Tb2 Ho2 Al24 Pt9'
_cell_volume   636.69284839
_cell_formula_units_Z   1
loop_
 _symmetry_equiv_pos_site_id
 _symmetry_equiv_pos_as_xyz
  1  'x, y, z'
loop_
 _atom_site_type_symbol
 _atom_site_label
 _atom_site_symmetry_multiplicity
 _atom_site_fract_x
 _atom_site_fract_y
 _atom_site_fract_z
 _atom_site_occupancy
  Tb  Tb0  1  0.393307  0.168738  0.807960  1
  Tb  Tb1  1  0.606693  0.831262  0.192040  1
  Ho  Ho2  1  0.734213  0.498508  0.807412  1
  Ho  Ho3  1  0.265787  0.501492  0.192588  1
  Al  Al4  1  0.684748  0.833577  0.944442  1
  Al  Al5  1  0.315252  0.166423  0.055558  1
  Al  Al6  1  0.146596  0.832411  0.561111  1
  Al  Al7  1  0.853404  0.167589  0.438889  1
  Al  Al8  1  0.479458  0.166675  0.558418  1
  Al  Al9  1  0.520542  0.833325  0.441582  1
  Al  Al10  1  0.217071  0.165375  0.329715  1
  Al  Al11  1  0.782929  0.834625  0.670285  1
  Al  Al12  1  0.437752  0.506335  0.670360  1
  Al  Al13  1  0.562248  0.493665  0.329640  1
  Al  Al14  1  0.109245  0.160265  0.669374  1
  Al  Al15  1  0.890755  0.839735  0.330626  1
  Al  Al16  1  0.353166  0.499649  0.944715  1
  Al  Al17  1  0.646834  0.500351  0.055285  1
  Al  Al18  1  0.015296  0.167678  0.952881  1
  Al  Al19  1  0.984704  0.832322  0.047119  1
  Al  Al20  1  0.186765  0.499216  0.441410  1
  Al  Al21  1  0.813235  0.500784  0.558590  1
  Al  Al22  1  0.734052  0.164051  0.183392  1
  Al  Al23  1  0.265948  0.835949  0.816608  1
  Al  Al24  1  0.061557  0.631538  0.815430  1
  Al  Al25  1  0.938443  0.368462  0.184570  1
  Al  Al26  1  0.855349  0.041707  0.815869  1
  Al  Al27  1  0.144651  0.958293  0.184131  1
  Pt  Pt28  1  0.119629  0.492289  0.638806  1
  Pt  Pt29  1  0.880371  0.507711  0.361194  1
  Pt  Pt30  1  0.657211  0.171344  0.999816  1
  Pt  Pt31  1  0.342789  0.828656  0.000184  1
  Pt  Pt32  1  0.538148  0.166938  0.361214  1
  Pt  Pt33  1  0.461852  0.833062  0.638786  1
  Pt  Pt34  1  0.778898  0.174934  0.637137  1
  Pt  Pt35  1  0.221102  0.825066  0.362863  1
  Pt  Pt36  1  0.000000  0.500000  0.000000  1
