# generated using pymatgen
data_ZrNi3MoIr3
_symmetry_space_group_name_H-M   'P 1'
_cell_length_a   5.52634600
_cell_length_b   5.52634561
_cell_length_c   4.27342100
_cell_angle_alpha   90.00000000
_cell_angle_beta   90.00000000
_cell_angle_gamma   120.00001430
_symmetry_Int_Tables_number   1
_chemical_formula_structural   ZrNi3MoIr3
_chemical_formula_sum   'Zr1 Ni3 Mo1 Ir3'
_cell_volume   113.02704226
_cell_formula_units_Z   1
loop_
 _symmetry_equiv_pos_site_id
 _symmetry_equiv_pos_as_xyz
  1  'x, y, z'
loop_
 _atom_site_type_symbol
 _atom_site_label
 _atom_site_symmetry_multiplicity
 _atom_site_fract_x
 _atom_site_fract_y
 _atom_site_fract_z
 _atom_site_occupancy
  Zr  Zr0  1  0.333333  0.666667  0.250000  1
  Ni  Ni1  1  0.155976  0.844024  0.750000  1
  Ni  Ni2  1  0.688049  0.844024  0.750000  1
  Ni  Ni3  1  0.155976  0.311951  0.750000  1
  Mo  Mo4  1  0.666667  0.333333  0.750000  1
  Ir  Ir5  1  0.836919  0.673840  0.250000  1
  Ir  Ir6  1  0.326160  0.163081  0.250000  1
  Ir  Ir7  1  0.836919  0.163081  0.250000  1
