# generated using pymatgen
data_Mn2Ga12IrRh
_symmetry_space_group_name_H-M   'P 1'
_cell_length_a   6.45205405
_cell_length_b   6.45205460
_cell_length_c   6.69942100
_cell_angle_alpha   90.00000000
_cell_angle_beta   90.00000000
_cell_angle_gamma   90.38157760
_symmetry_Int_Tables_number   1
_chemical_formula_structural   Mn2Ga12IrRh
_chemical_formula_sum   'Mn2 Ga12 Ir1 Rh1'
_cell_volume   278.88404588
_cell_formula_units_Z   1
loop_
 _symmetry_equiv_pos_site_id
 _symmetry_equiv_pos_as_xyz
  1  'x, y, z'
loop_
 _atom_site_type_symbol
 _atom_site_label
 _atom_site_symmetry_multiplicity
 _atom_site_fract_x
 _atom_site_fract_y
 _atom_site_fract_z
 _atom_site_occupancy
  Mn  Mn0  1  0.159875  0.840827  0.500000  1
  Mn  Mn1  1  0.840827  0.159875  0.500000  1
  Ga  Ga2  1  0.999796  0.500388  0.500000  1
  Ga  Ga3  1  0.500913  0.998225  0.000000  1
  Ga  Ga4  1  0.500388  0.999796  0.500000  1
  Ga  Ga5  1  0.998225  0.500913  0.000000  1
  Ga  Ga6  1  0.342449  0.657415  0.248175  1
  Ga  Ga7  1  0.657415  0.342449  0.248175  1
  Ga  Ga8  1  0.151879  0.151879  0.724347  1
  Ga  Ga9  1  0.847838  0.847838  0.724446  1
  Ga  Ga10  1  0.657415  0.342449  0.751825  1
  Ga  Ga11  1  0.342449  0.657415  0.751825  1
  Ga  Ga12  1  0.847838  0.847838  0.275554  1
  Ga  Ga13  1  0.151879  0.151879  0.275653  1
  Ir  Ir14  1  0.341477  0.341477  0.000000  1
  Rh  Rh15  1  0.659337  0.659337  0.000000  1
