# generated using pymatgen
data_K12ScAgSe8
_symmetry_space_group_name_H-M   'P 1'
_cell_length_a   10.55687300
_cell_length_b   10.55687257
_cell_length_c   8.02062000
_cell_angle_alpha   90.00000000
_cell_angle_beta   90.00000000
_cell_angle_gamma   119.99999820
_symmetry_Int_Tables_number   1
_chemical_formula_structural   K12ScAgSe8
_chemical_formula_sum   'K12 Sc1 Ag1 Se8'
_cell_volume   774.12154895
_cell_formula_units_Z   1
loop_
 _symmetry_equiv_pos_site_id
 _symmetry_equiv_pos_as_xyz
  1  'x, y, z'
loop_
 _atom_site_type_symbol
 _atom_site_label
 _atom_site_symmetry_multiplicity
 _atom_site_fract_x
 _atom_site_fract_y
 _atom_site_fract_z
 _atom_site_occupancy
  K  K0  1  0.855756  0.711510  0.541035  1
  K  K1  1  0.288490  0.144244  0.541035  1
  K  K2  1  0.855756  0.144244  0.541035  1
  K  K3  1  0.152318  0.304638  0.042794  1
  K  K4  1  0.695362  0.847682  0.042794  1
  K  K5  1  0.152318  0.847682  0.042794  1
  K  K6  1  0.461486  0.922973  0.385721  1
  K  K7  1  0.077027  0.538514  0.385721  1
  K  K8  1  0.461486  0.538514  0.385721  1
  K  K9  1  0.518289  0.036577  0.854085  1
  K  K10  1  0.963423  0.481711  0.854085  1
  K  K11  1  0.518289  0.481711  0.854085  1
  Sc  Sc12  1  0.666667  0.333333  0.247033  1
  Ag  Ag13  1  0.333333  0.666667  0.751823  1
  Se  Se14  1  0.666667  0.333333  0.571303  1
  Se  Se15  1  0.333333  0.666667  0.097730  1
  Se  Se16  1  0.801458  0.602920  0.145273  1
  Se  Se17  1  0.397080  0.198542  0.145273  1
  Se  Se18  1  0.801458  0.198542  0.145273  1
  Se  Se19  1  0.186162  0.372321  0.648256  1
  Se  Se20  1  0.627679  0.813838  0.648256  1
  Se  Se21  1  0.186162  0.813838  0.648256  1
