# generated using pymatgen
data_Sr8Zn4Si11Sn
_symmetry_space_group_name_H-M   'P 1'
_cell_length_a   12.02908903
_cell_length_b   10.45981113
_cell_length_c   8.43657339
_cell_angle_alpha   78.25548135
_cell_angle_beta   58.36443894
_cell_angle_gamma   43.31869706
_symmetry_Int_Tables_number   1
_chemical_formula_structural   Sr8Zn4Si11Sn
_chemical_formula_sum   'Sr8 Zn4 Si11 Sn1'
_cell_volume   590.52333279
_cell_formula_units_Z   1
loop_
 _symmetry_equiv_pos_site_id
 _symmetry_equiv_pos_as_xyz
  1  'x, y, z'
loop_
 _atom_site_type_symbol
 _atom_site_label
 _atom_site_symmetry_multiplicity
 _atom_site_fract_x
 _atom_site_fract_y
 _atom_site_fract_z
 _atom_site_occupancy
  Sr  Sr0  1  0.121915  0.118975  0.879165  1
  Sr  Sr1  1  0.876036  0.880528  0.117701  1
  Sr  Sr2  1  0.129859  0.123433  0.372032  1
  Sr  Sr3  1  0.382754  0.370050  0.118927  1
  Sr  Sr4  1  0.619129  0.621430  0.379163  1
  Sr  Sr5  1  0.378514  0.377687  0.620311  1
  Sr  Sr6  1  0.625054  0.630131  0.877806  1
  Sr  Sr7  1  0.870989  0.878296  0.632538  1
  Zn  Zn8  1  0.093056  0.403433  0.062739  1
  Zn  Zn9  1  0.833907  0.170110  0.831250  1
  Zn  Zn10  1  0.166377  0.831159  0.167848  1
  Zn  Zn11  1  0.416440  0.084307  0.416940  1
  Si  Si12  1  0.081875  0.406425  0.601764  1
  Si  Si13  1  0.416456  0.078805  0.920544  1
  Si  Si14  1  0.594408  0.920597  0.071996  1
  Si  Si15  1  0.329622  0.654925  0.834474  1
  Si  Si16  1  0.656047  0.330700  0.179497  1
  Si  Si17  1  0.833990  0.171603  0.332848  1
  Si  Si18  1  0.172262  0.833841  0.660895  1
  Si  Si19  1  0.910887  0.581687  0.922531  1
  Si  Si20  1  0.559222  0.931064  0.600363  1
  Si  Si21  1  0.337103  0.670302  0.328951  1
  Si  Si22  1  0.670532  0.338075  0.662484  1
  Sn  Sn23  1  0.923570  0.592443  0.407230  1
