# generated using pymatgen
data_Tb3Er3Al24Ru7Rh
_symmetry_space_group_name_H-M   'P 1'
_cell_length_a   8.77548405
_cell_length_b   8.77413801
_cell_length_c   9.59923822
_cell_angle_alpha   89.86754226
_cell_angle_beta   90.13422975
_cell_angle_gamma   119.86649127
_symmetry_Int_Tables_number   1
_chemical_formula_structural   Tb3Er3Al24Ru7Rh
_chemical_formula_sum   'Tb3 Er3 Al24 Ru7 Rh1'
_cell_volume   640.94987743
_cell_formula_units_Z   1
loop_
 _symmetry_equiv_pos_site_id
 _symmetry_equiv_pos_as_xyz
  1  'x, y, z'
loop_
 _atom_site_type_symbol
 _atom_site_label
 _atom_site_symmetry_multiplicity
 _atom_site_fract_x
 _atom_site_fract_y
 _atom_site_fract_z
 _atom_site_occupancy
  Tb  Tb0  1  0.191339  0.386136  0.250878  1
  Tb  Tb1  1  0.808524  0.613847  0.749117  1
  Tb  Tb2  1  0.613774  0.808611  0.250883  1
  Er  Er3  1  0.387043  0.191755  0.748978  1
  Er  Er4  1  0.194107  0.805909  0.250495  1
  Er  Er5  1  0.805787  0.193991  0.749465  1
  Al  Al6  1  0.332388  0.667611  0.019452  1
  Al  Al7  1  0.667269  0.332226  0.980299  1
  Al  Al8  1  0.666376  0.333068  0.518980  1
  Al  Al9  1  0.333307  0.666759  0.481308  1
  Al  Al10  1  0.163557  0.325513  0.577787  1
  Al  Al11  1  0.836591  0.674359  0.422403  1
  Al  Al12  1  0.674320  0.836540  0.577738  1
  Al  Al13  1  0.838830  0.674878  0.077776  1
  Al  Al14  1  0.325716  0.163439  0.422652  1
  Al  Al15  1  0.161329  0.325030  0.922046  1
  Al  Al16  1  0.163479  0.836925  0.577138  1
  Al  Al17  1  0.325182  0.161244  0.077564  1
  Al  Al18  1  0.836701  0.163344  0.423029  1
  Al  Al19  1  0.674865  0.838794  0.922069  1
  Al  Al20  1  0.837081  0.162985  0.077234  1
  Al  Al21  1  0.163058  0.837274  0.922596  1
  Al  Al22  1  0.561150  0.124167  0.249750  1
  Al  Al23  1  0.438793  0.876294  0.750238  1
  Al  Al24  1  0.875791  0.438810  0.249740  1
  Al  Al25  1  0.124255  0.561170  0.750262  1
  Al  Al26  1  0.561835  0.438142  0.250820  1
  Al  Al27  1  0.438082  0.561326  0.749203  1
  Al  Al28  1  0.999957  0.999985  0.250046  1
  Al  Al29  1  0.000474  0.000214  0.749974  1
  Ru  Ru30  1  0.499815  0.000230  0.999762  1
  Ru  Ru31  1  0.999809  0.499901  0.999930  1
  Ru  Ru32  1  0.499833  0.000202  0.500216  1
  Ru  Ru33  1  0.999824  0.499940  0.500049  1
  Ru  Ru34  1  0.499805  0.499581  0.500252  1
  Ru  Ru35  1  0.000033  0.000039  0.000010  1
  Ru  Ru36  1  0.000043  0.000047  0.500018  1
  Rh  Rh37  1  0.499880  0.499717  0.999844  1
