# generated using pymatgen
data_La2Pa2TlInRh4
_symmetry_space_group_name_H-M   'P 1'
_cell_length_a   7.87954372
_cell_length_b   7.93364657
_cell_length_c   3.68087400
_cell_angle_alpha   90.00000000
_cell_angle_beta   90.00000000
_cell_angle_gamma   90.17559407
_symmetry_Int_Tables_number   1
_chemical_formula_structural   La2Pa2TlInRh4
_chemical_formula_sum   'La2 Pa2 Tl1 In1 Rh4'
_cell_volume   230.10329148
_cell_formula_units_Z   1
loop_
 _symmetry_equiv_pos_site_id
 _symmetry_equiv_pos_as_xyz
  1  'x, y, z'
loop_
 _atom_site_type_symbol
 _atom_site_label
 _atom_site_symmetry_multiplicity
 _atom_site_fract_x
 _atom_site_fract_y
 _atom_site_fract_z
 _atom_site_occupancy
  La  La0  1  0.829167  0.671950  0.500000  1
  La  La1  1  0.331475  0.826519  0.500000  1
  Pa  Pa2  1  0.177017  0.332704  0.500000  1
  Pa  Pa3  1  0.673995  0.168740  0.500000  1
  Tl  Tl4  1  0.007802  0.004501  0.000000  1
  In  In5  1  0.506900  0.493235  0.000000  1
  Rh  Rh6  1  0.136387  0.577401  0.000000  1
  Rh  Rh7  1  0.632069  0.919146  0.000000  1
  Rh  Rh8  1  0.355899  0.159764  0.000000  1
  Rh  Rh9  1  0.849292  0.346041  0.000000  1
