# generated using pymatgen
data_Li2Tc3SnO8
_symmetry_space_group_name_H-M   'P 1'
_cell_length_a   5.84307796
_cell_length_b   5.84276104
_cell_length_c   10.38552324
_cell_angle_alpha   89.97688458
_cell_angle_beta   90.01060686
_cell_angle_gamma   120.00014623
_symmetry_Int_Tables_number   1
_chemical_formula_structural   Li2Tc3SnO8
_chemical_formula_sum   'Li4 Tc6 Sn2 O16'
_cell_volume   307.05639267
_cell_formula_units_Z   2
loop_
 _symmetry_equiv_pos_site_id
 _symmetry_equiv_pos_as_xyz
  1  'x, y, z'
loop_
 _atom_site_type_symbol
 _atom_site_label
 _atom_site_symmetry_multiplicity
 _atom_site_fract_x
 _atom_site_fract_y
 _atom_site_fract_z
 _atom_site_occupancy
  Li  Li0  1  0.333148  0.667266  0.891527  1
  Li  Li1  1  0.000054  0.998583  0.990882  1
  Li  Li2  1  0.999921  0.998460  0.490899  1
  Li  Li3  1  0.666837  0.334191  0.391542  1
  Tc  Tc4  1  0.187010  0.813270  0.214421  1
  Tc  Tc5  1  0.626408  0.813719  0.214171  1
  Tc  Tc6  1  0.373598  0.187228  0.714175  1
  Tc  Tc7  1  0.813777  0.187067  0.714127  1
  Tc  Tc8  1  0.186115  0.373212  0.214134  1
  Tc  Tc9  1  0.813078  0.626379  0.714375  1
  Sn  Sn10  1  0.333520  0.666654  0.499073  1
  Sn  Sn11  1  0.666509  0.333132  0.999072  1
  O  O12  1  0.158241  0.841556  0.600571  1
  O  O13  1  0.029582  0.515208  0.348244  1
  O  O14  1  0.333059  0.666876  0.081262  1
  O  O15  1  0.999701  0.999958  0.303747  1
  O  O16  1  0.000266  0.000335  0.803750  1
  O  O17  1  0.158050  0.315388  0.599828  1
  O  O18  1  0.485373  0.971249  0.348169  1
  O  O19  1  0.484771  0.515126  0.347817  1
  O  O20  1  0.315728  0.157430  0.100063  1
  O  O21  1  0.684262  0.841790  0.600075  1
  O  O22  1  0.514651  0.485842  0.848182  1
  O  O23  1  0.515147  0.030261  0.847859  1
  O  O24  1  0.666969  0.333846  0.581281  1
  O  O25  1  0.841855  0.683296  0.100618  1
  O  O26  1  0.970401  0.485641  0.848210  1
  O  O27  1  0.841968  0.157342  0.099764  1
