# generated using pymatgen
data_Er12InFeCo3Pd
_symmetry_space_group_name_H-M   'P 1'
_cell_length_a   8.23294646
_cell_length_b   8.23294567
_cell_length_c   8.23294651
_cell_angle_alpha   110.80942558
_cell_angle_beta   110.35503520
_cell_angle_gamma   107.27168155
_symmetry_Int_Tables_number   1
_chemical_formula_structural   Er12InFeCo3Pd
_chemical_formula_sum   'Er12 In1 Fe1 Co3 Pd1'
_cell_volume   429.10029538
_cell_formula_units_Z   1
loop_
 _symmetry_equiv_pos_site_id
 _symmetry_equiv_pos_as_xyz
  1  'x, y, z'
loop_
 _atom_site_type_symbol
 _atom_site_label
 _atom_site_symmetry_multiplicity
 _atom_site_fract_x
 _atom_site_fract_y
 _atom_site_fract_z
 _atom_site_occupancy
  Er  Er0  1  0.189446  0.295825  0.483029  1
  Er  Er1  1  0.812798  0.706418  0.516971  1
  Er  Er2  1  0.189446  0.706418  0.893620  1
  Er  Er3  1  0.812798  0.295825  0.106380  1
  Er  Er4  1  0.312289  0.615364  0.303074  1
  Er  Er5  1  0.685672  0.383205  0.697534  1
  Er  Er6  1  0.312289  0.009215  0.696926  1
  Er  Er7  1  0.685672  0.988138  0.302466  1
  Er  Er8  1  0.415520  0.214555  0.200964  1
  Er  Er9  1  0.585454  0.786389  0.799066  1
  Er  Er10  1  0.013592  0.214555  0.799036  1
  Er  Er11  1  0.987323  0.786389  0.200934  1
  In  In12  1  0.500665  0.500665  0.000000  1
  Fe  Fe13  1  0.108346  0.608346  0.500000  1
  Co  Co14  1  0.885651  0.385651  0.500000  1
  Co  Co15  1  0.381807  0.000641  0.381166  1
  Co  Co16  1  0.619476  0.000641  0.618834  1
  Pd  Pd17  1  0.001758  0.001758  0.000000  1
