# generated using pymatgen
data_Dy5Sc3As7P5Ir16
_symmetry_space_group_name_H-M   'P 1'
_cell_length_a   13.13380687
_cell_length_b   13.08687853
_cell_length_c   4.01270300
_cell_angle_alpha   90.00000000
_cell_angle_beta   90.00000000
_cell_angle_gamma   119.79637904
_symmetry_Int_Tables_number   1
_chemical_formula_structural   Dy5Sc3As7P5Ir16
_chemical_formula_sum   'Dy5 Sc3 As7 P5 Ir16'
_cell_volume   598.52430087
_cell_formula_units_Z   1
loop_
 _symmetry_equiv_pos_site_id
 _symmetry_equiv_pos_as_xyz
  1  'x, y, z'
loop_
 _atom_site_type_symbol
 _atom_site_label
 _atom_site_symmetry_multiplicity
 _atom_site_fract_x
 _atom_site_fract_y
 _atom_site_fract_z
 _atom_site_occupancy
  Dy  Dy0  1  0.333111  0.666475  0.500000  1
  Dy  Dy1  1  0.671435  0.337062  0.500000  1
  Dy  Dy2  1  0.000376  0.814585  0.000000  1
  Dy  Dy3  1  0.183192  0.184673  0.000000  1
  Dy  Dy4  1  0.813999  0.999561  0.000000  1
  Sc  Sc5  1  0.994168  0.439805  0.500000  1
  Sc  Sc6  1  0.561552  0.554070  0.500000  1
  Sc  Sc7  1  0.442615  0.001997  0.500000  1
  As  As8  1  0.000046  0.646131  0.500000  1
  As  As9  1  0.353226  0.355476  0.500000  1
  As  As10  1  0.645739  0.000675  0.500000  1
  As  As11  1  0.517416  0.683915  0.000000  1
  As  As12  1  0.314426  0.832544  0.000000  1
  As  As13  1  0.166834  0.483469  0.000000  1
  As  As14  1  0.485773  0.172926  0.000000  1
  P  P15  1  0.692402  0.520387  0.000000  1
  P  P16  1  0.830181  0.309761  0.000000  1
  P  P17  1  0.997853  0.174255  0.500000  1
  P  P18  1  0.825311  0.823025  0.500000  1
  P  P19  1  0.174783  0.002216  0.500000  1
  Ir  Ir20  1  0.514766  0.870166  0.000000  1
  Ir  Ir21  1  0.125945  0.645124  0.000000  1
  Ir  Ir22  1  0.354107  0.482448  0.000000  1
  Ir  Ir23  1  0.501256  0.367807  0.000000  1
  Ir  Ir24  1  0.861084  0.499867  0.000000  1
  Ir  Ir25  1  0.649470  0.133437  0.000000  1
  Ir  Ir26  1  0.995844  0.269479  0.000000  1
  Ir  Ir27  1  0.731178  0.725999  0.000000  1
  Ir  Ir28  1  0.268807  0.002057  0.000000  1
  Ir  Ir29  1  0.634945  0.805642  0.500000  1
  Ir  Ir30  1  0.194350  0.828332  0.500000  1
  Ir  Ir31  1  0.170177  0.365965  0.500000  1
  Ir  Ir32  1  0.367842  0.176454  0.500000  1
  Ir  Ir33  1  0.801455  0.623850  0.500000  1
  Ir  Ir34  1  0.825853  0.200886  0.500000  1
  Ir  Ir35  1  0.998485  0.999478  0.500000  1
