# generated using pymatgen
data_Sr18Yb3Cr14O56
_symmetry_space_group_name_H-M   'P 1'
_cell_length_a   11.24755482
_cell_length_b   11.24755584
_cell_length_c   14.92897300
_cell_angle_alpha   90.00000000
_cell_angle_beta   67.87043973
_cell_angle_gamma   120.00000060
_symmetry_Int_Tables_number   1
_chemical_formula_structural   Sr18Yb3Cr14O56
_chemical_formula_sum   'Sr18 Yb3 Cr14 O56'
_cell_volume   1472.76032256
_cell_formula_units_Z   1
loop_
 _symmetry_equiv_pos_site_id
 _symmetry_equiv_pos_as_xyz
  1  'x, y, z'
loop_
 _atom_site_type_symbol
 _atom_site_label
 _atom_site_symmetry_multiplicity
 _atom_site_fract_x
 _atom_site_fract_y
 _atom_site_fract_z
 _atom_site_occupancy
  Sr  Sr0  1  0.973468  0.286056  0.313696  1
  Sr  Sr1  1  0.998892  0.712836  0.313696  1
  Sr  Sr2  1  0.400248  0.687413  0.313696  1
  Sr  Sr3  1  0.398997  0.210105  0.814898  1
  Sr  Sr4  1  0.996210  0.786105  0.814898  1
  Sr  Sr5  1  0.974998  0.188892  0.814898  1
  Sr  Sr6  1  0.757262  0.088059  0.600072  1
  Sr  Sr7  1  0.730724  0.642665  0.600072  1
  Sr  Sr8  1  0.311868  0.669203  0.600072  1
  Sr  Sr9  1  0.311615  0.143583  0.107637  1
  Sr  Sr10  1  0.724331  0.580748  0.107637  1
  Sr  Sr11  1  0.748781  0.168032  0.107637  1
  Sr  Sr12  1  0.198866  0.399040  0.992518  1
  Sr  Sr13  1  0.207655  0.808615  0.992518  1
  Sr  Sr14  1  0.608442  0.799827  0.992518  1
  Sr  Sr15  1  0.615821  0.315181  0.496540  1
  Sr  Sr16  1  0.202821  0.887639  0.496540  1
  Sr  Sr17  1  0.188280  0.300639  0.496540  1
  Yb  Yb18  1  0.867450  0.433725  0.698825  1
  Yb  Yb19  1  0.467127  0.233563  0.299310  1
  Yb  Yb20  1  0.472146  0.736073  0.791782  1
  Cr  Cr21  1  0.379302  0.922059  0.196942  1
  Cr  Cr22  1  0.345815  0.423757  0.196942  1
  Cr  Cr23  1  0.881000  0.457242  0.196942  1
  Cr  Cr24  1  0.880090  0.922670  0.700179  1
  Cr  Cr25  1  0.342402  0.419732  0.700179  1
  Cr  Cr26  1  0.377152  0.957419  0.700179  1
  Cr  Cr27  1  0.602115  0.068825  0.891731  1
  Cr  Cr28  1  0.574978  0.506154  0.891731  1
  Cr  Cr29  1  0.039444  0.533290  0.891731  1
  Cr  Cr30  1  0.050463  0.009713  0.394876  1
  Cr  Cr31  1  0.564374  0.554661  0.394876  1
  Cr  Cr32  1  0.595410  0.040749  0.394876  1
  Cr  Cr33  1  0.004963  0.502481  0.492555  1
  Cr  Cr34  1  0.002079  0.001040  0.996881  1
  O  O35  1  0.270968  0.840300  0.320717  1
  O  O36  1  0.248616  0.408315  0.320717  1
  O  O37  1  0.838983  0.430667  0.320717  1
  O  O38  1  0.841114  0.909870  0.824934  1
  O  O39  1  0.243822  0.333952  0.824934  1
  O  O40  1  0.265197  0.931245  0.824934  1
  O  O41  1  0.091432  0.545717  0.362851  1
  O  O42  1  0.084461  0.042230  0.873309  1
  O  O43  1  0.705297  0.074654  0.955027  1
  O  O44  1  0.414330  0.339676  0.955027  1
  O  O45  1  0.970321  0.630643  0.955027  1
  O  O46  1  0.972127  0.837351  0.457433  1
  O  O47  1  0.407791  0.570441  0.457433  1
  O  O48  1  0.705217  0.134777  0.457433  1
  O  O49  1  0.741985  0.185775  0.776605  1
  O  O50  1  0.667186  0.481410  0.776605  1
  O  O51  1  0.037621  0.556211  0.776605  1
  O  O52  1  0.088591  0.997329  0.274899  1
  O  O53  1  0.633839  0.636510  0.274899  1
  O  O54  1  0.727772  0.091262  0.274899  1
  O  O55  1  0.497256  0.886657  0.897547  1
  O  O56  1  0.491855  0.605198  0.897547  1
  O  O57  1  0.215796  0.610599  0.897547  1
  O  O58  1  0.216143  0.104847  0.412631  1
  O  O59  1  0.476073  0.371226  0.412631  1
  O  O60  1  0.482522  0.111296  0.412631  1
  O  O61  1  0.519684  0.884768  0.155717  1
  O  O62  1  0.209366  0.324599  0.155717  1
  O  O63  1  0.959515  0.634916  0.155717  1
  O  O64  1  0.955316  0.820947  0.662379  1
  O  O65  1  0.203251  0.382305  0.662379  1
  O  O66  1  0.516674  0.134369  0.662379  1
  O  O67  1  0.817524  0.477098  0.557985  1
  O  O68  1  0.101589  0.624490  0.557985  1
  O  O69  1  0.964917  0.340426  0.557985  1
  O  O70  1  0.974445  0.129076  0.033227  1
  O  O71  1  0.121403  0.992327  0.033227  1
  O  O72  1  0.837696  0.845369  0.033227  1
  O  O73  1  0.255470  0.869170  0.142806  1
  O  O74  1  0.470894  0.601724  0.142806  1
  O  O75  1  0.988024  0.386300  0.142806  1
  O  O76  1  0.985075  0.100419  0.650378  1
  O  O77  1  0.464965  0.364546  0.650378  1
  O  O78  1  0.249203  0.884657  0.650378  1
  O  O79  1  0.473080  0.104654  0.175264  1
  O  O80  1  0.456311  0.351657  0.175264  1
  O  O81  1  0.720083  0.368426  0.175264  1
  O  O82  1  0.721487  0.853347  0.676658  1
  O  O83  1  0.455202  0.601854  0.676658  1
  O  O84  1  0.469993  0.868140  0.676658  1
  O  O85  1  0.464746  0.106970  0.939844  1
  O  O86  1  0.702381  0.595410  0.939844  1
  O  O87  1  0.953186  0.357777  0.939844  1
  O  O88  1  0.959353  0.097801  0.437889  1
  O  O89  1  0.700559  0.602757  0.437889  1
  O  O90  1  0.464309  0.861552  0.437889  1
