# generated using pymatgen
data_Sr2Tb2CuP4Pd3
_symmetry_space_group_name_H-M   'P 1'
_cell_length_a   4.15874300
_cell_length_b   8.11471098
_cell_length_c   7.24717006
_cell_angle_alpha   90.07778269
_cell_angle_beta   90.00000000
_cell_angle_gamma   90.00000000
_symmetry_Int_Tables_number   1
_chemical_formula_structural   Sr2Tb2CuP4Pd3
_chemical_formula_sum   'Sr2 Tb2 Cu1 P4 Pd3'
_cell_volume   244.57000440
_cell_formula_units_Z   1
loop_
 _symmetry_equiv_pos_site_id
 _symmetry_equiv_pos_as_xyz
  1  'x, y, z'
loop_
 _atom_site_type_symbol
 _atom_site_label
 _atom_site_symmetry_multiplicity
 _atom_site_fract_x
 _atom_site_fract_y
 _atom_site_fract_z
 _atom_site_occupancy
  Sr  Sr0  1  0.250000  0.501097  0.247902  1
  Sr  Sr1  1  0.750000  0.498344  0.752446  1
  Tb  Tb2  1  0.750000  0.002341  0.752747  1
  Tb  Tb3  1  0.250000  0.000178  0.247312  1
  Cu  Cu4  1  0.250000  0.773682  0.583101  1
  P  P5  1  0.250000  0.771479  0.904733  1
  P  P6  1  0.750000  0.223872  0.084538  1
  P  P7  1  0.750000  0.770016  0.424459  1
  P  P8  1  0.250000  0.220144  0.583677  1
  Pd  Pd9  1  0.750000  0.234291  0.417169  1
  Pd  Pd10  1  0.750000  0.769674  0.084344  1
  Pd  Pd11  1  0.250000  0.234880  0.917573  1
