# generated using pymatgen
data_Dy6Cr2Co15NiP12
_symmetry_space_group_name_H-M   'P 1'
_cell_length_a   3.69296400
_cell_length_b   10.51263700
_cell_length_c   12.19970300
_cell_angle_alpha   90.00000000
_cell_angle_beta   90.00000000
_cell_angle_gamma   90.00000000
_symmetry_Int_Tables_number   1
_chemical_formula_structural   Dy6Cr2Co15NiP12
_chemical_formula_sum   'Dy6 Cr2 Co15 Ni1 P12'
_cell_volume   473.62650746
_cell_formula_units_Z   1
loop_
 _symmetry_equiv_pos_site_id
 _symmetry_equiv_pos_as_xyz
  1  'x, y, z'
loop_
 _atom_site_type_symbol
 _atom_site_label
 _atom_site_symmetry_multiplicity
 _atom_site_fract_x
 _atom_site_fract_y
 _atom_site_fract_z
 _atom_site_occupancy
  Dy  Dy0  1  0.000000  0.500000  0.520181  1
  Dy  Dy1  1  0.500000  0.000000  0.478057  1
  Dy  Dy2  1  0.500000  0.817911  0.205136  1
  Dy  Dy3  1  0.500000  0.182089  0.205136  1
  Dy  Dy4  1  0.000000  0.683679  0.795835  1
  Dy  Dy5  1  0.000000  0.316321  0.795835  1
  Cr  Cr6  1  0.500000  0.500000  0.156019  1
  Cr  Cr7  1  0.000000  0.000000  0.844072  1
  Co  Co8  1  0.000000  0.000000  0.297612  1
  Co  Co9  1  0.000000  0.500000  0.986876  1
  Co  Co10  1  0.500000  0.000000  0.013424  1
  Co  Co11  1  0.500000  0.332454  0.992379  1
  Co  Co12  1  0.500000  0.667546  0.992379  1
  Co  Co13  1  0.000000  0.167056  0.007436  1
  Co  Co14  1  0.000000  0.832944  0.007436  1
  Co  Co15  1  0.500000  0.296567  0.430882  1
  Co  Co16  1  0.500000  0.703433  0.430882  1
  Co  Co17  1  0.000000  0.203210  0.568957  1
  Co  Co18  1  0.000000  0.796790  0.568957  1
  Co  Co19  1  0.500000  0.879335  0.709050  1
  Co  Co20  1  0.500000  0.120665  0.709050  1
  Co  Co21  1  0.000000  0.620568  0.290866  1
  Co  Co22  1  0.000000  0.379432  0.290866  1
  Ni  Ni23  1  0.500000  0.500000  0.702268  1
  P  P24  1  0.500000  0.500000  0.883218  1
  P  P25  1  0.000000  0.000000  0.118124  1
  P  P26  1  0.500000  0.500000  0.344084  1
  P  P27  1  0.000000  0.000000  0.656236  1
  P  P28  1  0.500000  0.310523  0.615398  1
  P  P29  1  0.500000  0.689477  0.615398  1
  P  P30  1  0.000000  0.188589  0.383843  1
  P  P31  1  0.000000  0.811411  0.383843  1
  P  P32  1  0.500000  0.848257  0.892492  1
  P  P33  1  0.500000  0.151743  0.892492  1
  P  P34  1  0.000000  0.652775  0.107641  1
  P  P35  1  0.000000  0.347225  0.107641  1
