# generated using pymatgen
data_Ho11Er3Lu6(CoBi2)4
_symmetry_space_group_name_H-M   'P 1'
_cell_length_a   7.87405738
_cell_length_b   8.87232245
_cell_length_c   12.37930501
_cell_angle_alpha   89.94040846
_cell_angle_beta   90.05846785
_cell_angle_gamma   90.05498602
_symmetry_Int_Tables_number   1
_chemical_formula_structural   Ho11Er3Lu6(CoBi2)4
_chemical_formula_sum   'Ho11 Er3 Lu6 Co4 Bi8'
_cell_volume   864.83149131
_cell_formula_units_Z   1
loop_
 _symmetry_equiv_pos_site_id
 _symmetry_equiv_pos_as_xyz
  1  'x, y, z'
loop_
 _atom_site_type_symbol
 _atom_site_label
 _atom_site_symmetry_multiplicity
 _atom_site_fract_x
 _atom_site_fract_y
 _atom_site_fract_z
 _atom_site_occupancy
  Ho  Ho0  1  0.653415  0.749690  0.699809  1
  Ho  Ho1  1  0.346685  0.250307  0.300188  1
  Ho  Ho2  1  0.152930  0.250035  0.800002  1
  Ho  Ho3  1  0.847097  0.749972  0.200058  1
  Ho  Ho4  1  0.120476  0.750853  0.815085  1
  Ho  Ho5  1  0.879513  0.249132  0.184877  1
  Ho  Ho6  1  0.619834  0.251712  0.685312  1
  Ho  Ho7  1  0.380131  0.748300  0.314656  1
  Ho  Ho8  1  0.556412  0.749607  0.996658  1
  Ho  Ho9  1  0.443563  0.250402  0.003335  1
  Ho  Ho10  1  0.054399  0.251747  0.502787  1
  Er  Er11  1  0.945540  0.748223  0.497202  1
  Er  Er12  1  0.674575  0.036294  0.435879  1
  Er  Er13  1  0.325447  0.963642  0.564150  1
  Lu  Lu14  1  0.829044  0.463490  0.936074  1
  Lu  Lu15  1  0.170952  0.536507  0.063927  1
  Lu  Lu16  1  0.329066  0.537595  0.564274  1
  Lu  Lu17  1  0.171162  0.963200  0.063854  1
  Lu  Lu18  1  0.670938  0.462474  0.435758  1
  Lu  Lu19  1  0.828840  0.036792  0.936159  1
  Co  Co20  1  0.937608  0.749909  0.993980  1
  Co  Co21  1  0.062399  0.250088  0.006018  1
  Co  Co22  1  0.436184  0.251494  0.506737  1
  Co  Co23  1  0.563897  0.748514  0.493258  1
  Bi  Bi24  1  0.932239  0.007630  0.672961  1
  Bi  Bi25  1  0.067700  0.992167  0.327031  1
  Bi  Bi26  1  0.434938  0.993223  0.827080  1
  Bi  Bi27  1  0.065446  0.507003  0.326273  1
  Bi  Bi28  1  0.565071  0.006779  0.172915  1
  Bi  Bi29  1  0.934489  0.493216  0.673711  1
  Bi  Bi30  1  0.566069  0.492565  0.172900  1
  Bi  Bi31  1  0.433939  0.507440  0.827091  1
