# generated using pymatgen
data_Sc2CoNiH8
_symmetry_space_group_name_H-M   'P 1'
_cell_length_a   5.84231668
_cell_length_b   5.84231579
_cell_length_c   4.53467200
_cell_angle_alpha   90.00000000
_cell_angle_beta   90.00000000
_cell_angle_gamma   146.48125892
_symmetry_Int_Tables_number   1
_chemical_formula_structural   Sc2CoNiH8
_chemical_formula_sum   'Sc2 Co1 Ni1 H8'
_cell_volume   85.47124768
_cell_formula_units_Z   1
loop_
 _symmetry_equiv_pos_site_id
 _symmetry_equiv_pos_as_xyz
  1  'x, y, z'
loop_
 _atom_site_type_symbol
 _atom_site_label
 _atom_site_symmetry_multiplicity
 _atom_site_fract_x
 _atom_site_fract_y
 _atom_site_fract_z
 _atom_site_occupancy
  Sc  Sc0  1  0.862770  0.137230  0.750000  1
  Sc  Sc1  1  0.133527  0.866473  0.250000  1
  Co  Co2  1  0.401563  0.598437  0.250000  1
  Ni  Ni3  1  0.601268  0.398732  0.750000  1
  H  H4  1  0.091266  0.908734  0.750000  1
  H  H5  1  0.908974  0.091026  0.250000  1
  H  H6  1  0.695142  0.304858  0.481172  1
  H  H7  1  0.304666  0.695334  0.507066  1
  H  H8  1  0.695142  0.304858  0.018828  1
  H  H9  1  0.304666  0.695334  0.992934  1
  H  H10  1  0.500509  0.499491  0.002914  1
  H  H11  1  0.500509  0.499491  0.497086  1
