# generated using pymatgen
data_Sc5Si12Mo3Ir16
_symmetry_space_group_name_H-M   'P 1'
_cell_length_a   12.75605700
_cell_length_b   12.75605689
_cell_length_c   3.96269600
_cell_angle_alpha   90.00000000
_cell_angle_beta   90.00000000
_cell_angle_gamma   120.00000287
_symmetry_Int_Tables_number   1
_chemical_formula_structural   Sc5Si12Mo3Ir16
_chemical_formula_sum   'Sc5 Si12 Mo3 Ir16'
_cell_volume   558.41139806
_cell_formula_units_Z   1
loop_
 _symmetry_equiv_pos_site_id
 _symmetry_equiv_pos_as_xyz
  1  'x, y, z'
loop_
 _atom_site_type_symbol
 _atom_site_label
 _atom_site_symmetry_multiplicity
 _atom_site_fract_x
 _atom_site_fract_y
 _atom_site_fract_z
 _atom_site_occupancy
  Sc  Sc0  1  0.333333  0.666667  0.000000  1
  Sc  Sc1  1  0.666667  0.333333  0.000000  1
  Sc  Sc2  1  0.813861  0.000000  0.500000  1
  Sc  Sc3  1  0.000000  0.813861  0.500000  1
  Sc  Sc4  1  0.186139  0.186139  0.500000  1
  Si  Si5  1  0.178459  0.000000  0.000000  1
  Si  Si6  1  0.000000  0.178459  0.000000  1
  Si  Si7  1  0.821541  0.821541  0.000000  1
  Si  Si8  1  0.168818  0.480835  0.500000  1
  Si  Si9  1  0.519165  0.687981  0.500000  1
  Si  Si10  1  0.312019  0.831182  0.500000  1
  Si  Si11  1  0.687981  0.519165  0.500000  1
  Si  Si12  1  0.831182  0.312019  0.500000  1
  Si  Si13  1  0.480835  0.168818  0.500000  1
  Si  Si14  1  0.630154  0.000000  0.000000  1
  Si  Si15  1  0.000000  0.630154  0.000000  1
  Si  Si16  1  0.369846  0.369846  0.000000  1
  Mo  Mo17  1  0.438226  0.000000  0.000000  1
  Mo  Mo18  1  0.000000  0.438226  0.000000  1
  Mo  Mo19  1  0.561774  0.561774  0.000000  1
  Ir  Ir20  1  0.360246  0.488513  0.500000  1
  Ir  Ir21  1  0.511487  0.871733  0.500000  1
  Ir  Ir22  1  0.128267  0.639754  0.500000  1
  Ir  Ir23  1  0.871733  0.511487  0.500000  1
  Ir  Ir24  1  0.639754  0.128267  0.500000  1
  Ir  Ir25  1  0.488513  0.360246  0.500000  1
  Ir  Ir26  1  0.182213  0.372491  0.000000  1
  Ir  Ir27  1  0.627509  0.809722  0.000000  1
  Ir  Ir28  1  0.190278  0.817787  0.000000  1
  Ir  Ir29  1  0.809722  0.627509  0.000000  1
  Ir  Ir30  1  0.817787  0.190278  0.000000  1
  Ir  Ir31  1  0.372491  0.182213  0.000000  1
  Ir  Ir32  1  0.277773  0.000000  0.500000  1
  Ir  Ir33  1  0.000000  0.277773  0.500000  1
  Ir  Ir34  1  0.722227  0.722227  0.500000  1
  Ir  Ir35  1  0.000000  0.000000  0.000000  1
