# generated using pymatgen
data_Ta5Al(B2Ru5)2
_symmetry_space_group_name_H-M   'P 1'
_cell_length_a   3.01285600
_cell_length_b   9.37456300
_cell_length_c   9.37456300
_cell_angle_alpha   90.00000000
_cell_angle_beta   90.00000000
_cell_angle_gamma   90.00000000
_symmetry_Int_Tables_number   1
_chemical_formula_structural   Ta5Al(B2Ru5)2
_chemical_formula_sum   'Ta5 Al1 B4 Ru10'
_cell_volume   264.77711086
_cell_formula_units_Z   1
loop_
 _symmetry_equiv_pos_site_id
 _symmetry_equiv_pos_as_xyz
  1  'x, y, z'
loop_
 _atom_site_type_symbol
 _atom_site_label
 _atom_site_symmetry_multiplicity
 _atom_site_fract_x
 _atom_site_fract_y
 _atom_site_fract_z
 _atom_site_occupancy
  Ta  Ta0  1  0.000000  0.674410  0.818978  1
  Ta  Ta1  1  0.000000  0.325590  0.181022  1
  Ta  Ta2  1  0.000000  0.818978  0.325590  1
  Ta  Ta3  1  0.000000  0.181022  0.674410  1
  Ta  Ta4  1  0.000000  0.000000  0.000000  1
  Al  Al5  1  0.000000  0.500000  0.500000  1
  B  B6  1  0.000000  0.870284  0.616254  1
  B  B7  1  0.000000  0.129716  0.383746  1
  B  B8  1  0.000000  0.616254  0.129716  1
  B  B9  1  0.000000  0.383746  0.870284  1
  Ru  Ru10  1  0.500000  0.714161  0.568303  1
  Ru  Ru11  1  0.500000  0.285839  0.431697  1
  Ru  Ru12  1  0.500000  0.780229  0.071329  1
  Ru  Ru13  1  0.500000  0.219771  0.928671  1
  Ru  Ru14  1  0.500000  0.568303  0.285839  1
  Ru  Ru15  1  0.500000  0.431697  0.714161  1
  Ru  Ru16  1  0.500000  0.071329  0.219771  1
  Ru  Ru17  1  0.500000  0.928671  0.780229  1
  Ru  Ru18  1  0.500000  0.000000  0.500000  1
  Ru  Ru19  1  0.500000  0.500000  0.000000  1
