# generated using pymatgen
data_MnAl5(PdPt)5
_symmetry_space_group_name_H-M   'P 1'
_cell_length_a   4.09078800
_cell_length_b   5.43471043
_cell_length_c   10.66964987
_cell_angle_alpha   89.55971985
_cell_angle_beta   90.00000000
_cell_angle_gamma   90.00000000
_symmetry_Int_Tables_number   1
_chemical_formula_structural   MnAl5(PdPt)5
_chemical_formula_sum   'Mn1 Al5 Pd5 Pt5'
_cell_volume   237.20330101
_cell_formula_units_Z   1
loop_
 _symmetry_equiv_pos_site_id
 _symmetry_equiv_pos_as_xyz
  1  'x, y, z'
loop_
 _atom_site_type_symbol
 _atom_site_label
 _atom_site_symmetry_multiplicity
 _atom_site_fract_x
 _atom_site_fract_y
 _atom_site_fract_z
 _atom_site_occupancy
  Mn  Mn0  1  0.500000  0.184997  0.638374  1
  Al  Al1  1  0.500000  0.823282  0.359810  1
  Al  Al2  1  0.500000  0.678521  0.855867  1
  Al  Al3  1  0.500000  0.327791  0.141419  1
  Al  Al4  1  0.000000  0.481540  0.504683  1
  Al  Al5  1  0.000000  0.995429  0.998137  1
  Pd  Pd6  1  0.000000  0.435355  0.744034  1
  Pd  Pd7  1  0.000000  0.581662  0.267678  1
  Pd  Pd8  1  0.000000  0.934160  0.762820  1
  Pd  Pd9  1  0.000000  0.081620  0.230138  1
  Pd  Pd10  1  0.000000  0.497468  0.004326  1
  Pt  Pt11  1  0.500000  0.301612  0.388114  1
  Pt  Pt12  1  0.500000  0.692494  0.607613  1
  Pt  Pt13  1  0.500000  0.803816  0.106921  1
  Pt  Pt14  1  0.500000  0.196808  0.896904  1
  Pt  Pt15  1  0.000000  0.983445  0.493166  1
