# generated using pymatgen
data_SmHo7AlPd24
_symmetry_space_group_name_H-M   'P 1'
_cell_length_a   8.35030007
_cell_length_b   8.35030015
_cell_length_c   8.35030000
_cell_angle_alpha   89.99238371
_cell_angle_beta   89.99238371
_cell_angle_gamma   89.99238270
_symmetry_Int_Tables_number   1
_chemical_formula_structural   SmHo7AlPd24
_chemical_formula_sum   'Sm1 Ho7 Al1 Pd24'
_cell_volume   582.24562750
_cell_formula_units_Z   1
loop_
 _symmetry_equiv_pos_site_id
 _symmetry_equiv_pos_as_xyz
  1  'x, y, z'
loop_
 _atom_site_type_symbol
 _atom_site_label
 _atom_site_symmetry_multiplicity
 _atom_site_fract_x
 _atom_site_fract_y
 _atom_site_fract_z
 _atom_site_occupancy
  Sm  Sm0  1  0.252201  0.252201  0.252201  1
  Ho  Ho1  1  0.748111  0.748111  0.748111  1
  Ho  Ho2  1  0.748235  0.748235  0.251811  1
  Ho  Ho3  1  0.748235  0.251811  0.748235  1
  Ho  Ho4  1  0.251765  0.251765  0.748244  1
  Ho  Ho5  1  0.251765  0.748244  0.251765  1
  Ho  Ho6  1  0.251811  0.748235  0.748235  1
  Ho  Ho7  1  0.748244  0.251765  0.251765  1
  Al  Al8  1  0.999857  0.999857  0.999857  1
  Pd  Pd9  1  0.259159  0.501496  0.998177  1
  Pd  Pd10  1  0.740450  0.500268  0.999873  1
  Pd  Pd11  1  0.998177  0.259159  0.501496  1
  Pd  Pd12  1  0.501496  0.259159  0.998177  1
  Pd  Pd13  1  0.999873  0.740450  0.500268  1
  Pd  Pd14  1  0.500268  0.740450  0.999873  1
  Pd  Pd15  1  0.501496  0.998177  0.259159  1
  Pd  Pd16  1  0.259159  0.998177  0.501496  1
  Pd  Pd17  1  0.500268  0.999873  0.740450  1
  Pd  Pd18  1  0.740450  0.999873  0.500268  1
  Pd  Pd19  1  0.998177  0.501496  0.259159  1
  Pd  Pd20  1  0.999873  0.500268  0.740450  1
  Pd  Pd21  1  0.252508  0.502086  0.502086  1
  Pd  Pd22  1  0.747602  0.500118  0.500118  1
  Pd  Pd23  1  0.502086  0.252508  0.502086  1
  Pd  Pd24  1  0.500118  0.747602  0.500118  1
  Pd  Pd25  1  0.502086  0.502086  0.252508  1
  Pd  Pd26  1  0.500118  0.500118  0.747602  1
  Pd  Pd27  1  0.288603  0.998282  0.998282  1
  Pd  Pd28  1  0.711363  0.999940  0.999940  1
  Pd  Pd29  1  0.998282  0.288603  0.998282  1
  Pd  Pd30  1  0.999940  0.711363  0.999940  1
  Pd  Pd31  1  0.998282  0.998282  0.288603  1
  Pd  Pd32  1  0.999940  0.999940  0.711363  1
