# generated using pymatgen
data_LiLa8IrPt5
_symmetry_space_group_name_H-M   'P 1'
_cell_length_a   7.84845687
_cell_length_b   7.89069342
_cell_length_c   7.86304244
_cell_angle_alpha   69.54434490
_cell_angle_beta   69.84977655
_cell_angle_gamma   69.99583345
_symmetry_Int_Tables_number   1
_chemical_formula_structural   LiLa8IrPt5
_chemical_formula_sum   'Li1 La8 Ir1 Pt5'
_cell_volume   414.49621010
_cell_formula_units_Z   1
loop_
 _symmetry_equiv_pos_site_id
 _symmetry_equiv_pos_as_xyz
  1  'x, y, z'
loop_
 _atom_site_type_symbol
 _atom_site_label
 _atom_site_symmetry_multiplicity
 _atom_site_fract_x
 _atom_site_fract_y
 _atom_site_fract_z
 _atom_site_occupancy
  Li  Li0  1  0.999426  0.000448  0.001928  1
  La  La1  1  0.817938  0.816968  0.813687  1
  La  La2  1  0.187681  0.186335  0.189798  1
  La  La3  1  0.315170  0.621548  0.853238  1
  La  La4  1  0.863495  0.311558  0.614617  1
  La  La5  1  0.610579  0.858269  0.320646  1
  La  La6  1  0.684011  0.385945  0.137936  1
  La  La7  1  0.140642  0.687502  0.387956  1
  La  La8  1  0.379144  0.135526  0.681736  1
  Ir  Ir9  1  0.187165  0.948472  0.572587  1
  Pt  Pt10  1  0.577119  0.180597  0.951489  1
  Pt  Pt11  1  0.950125  0.576082  0.185677  1
  Pt  Pt12  1  0.815703  0.048718  0.423043  1
  Pt  Pt13  1  0.425554  0.818200  0.046854  1
  Pt  Pt14  1  0.046248  0.423831  0.818809  1
