# generated using pymatgen
data_Hf16IrPd7N4
_symmetry_space_group_name_H-M   'P 1'
_cell_length_a   8.75585347
_cell_length_b   8.75994857
_cell_length_c   8.75994900
_cell_angle_alpha   60.00000217
_cell_angle_beta   59.98452962
_cell_angle_gamma   59.98452498
_symmetry_Int_Tables_number   1
_chemical_formula_structural   Hf16IrPd7N4
_chemical_formula_sum   'Hf16 Ir1 Pd7 N4'
_cell_volume   474.99060636
_cell_formula_units_Z   1
loop_
 _symmetry_equiv_pos_site_id
 _symmetry_equiv_pos_as_xyz
  1  'x, y, z'
loop_
 _atom_site_type_symbol
 _atom_site_label
 _atom_site_symmetry_multiplicity
 _atom_site_fract_x
 _atom_site_fract_y
 _atom_site_fract_z
 _atom_site_occupancy
  Hf  Hf0  1  0.125144  0.624952  0.624952  1
  Hf  Hf1  1  0.625432  0.127848  0.623360  1
  Hf  Hf2  1  0.625432  0.623360  0.127848  1
  Hf  Hf3  1  0.625432  0.623360  0.623360  1
  Hf  Hf4  1  0.817432  0.817276  0.182646  1
  Hf  Hf5  1  0.181001  0.181718  0.818641  1
  Hf  Hf6  1  0.817432  0.182646  0.817276  1
  Hf  Hf7  1  0.181001  0.818641  0.181718  1
  Hf  Hf8  1  0.181001  0.818641  0.818641  1
  Hf  Hf9  1  0.817432  0.182646  0.182646  1
  Hf  Hf10  1  0.431407  0.431682  0.068456  1
  Hf  Hf11  1  0.064845  0.071560  0.431798  1
  Hf  Hf12  1  0.431407  0.068456  0.431682  1
  Hf  Hf13  1  0.064845  0.431798  0.071560  1
  Hf  Hf14  1  0.064845  0.431798  0.431798  1
  Hf  Hf15  1  0.431407  0.068456  0.068456  1
  Ir  Ir16  1  0.782563  0.405813  0.405813  1
  Pd  Pd17  1  0.408802  0.774044  0.408578  1
  Pd  Pd18  1  0.408802  0.408578  0.774044  1
  Pd  Pd19  1  0.408802  0.408578  0.408578  1
  Pd  Pd20  1  0.475533  0.841489  0.841489  1
  Pd  Pd21  1  0.842001  0.476160  0.840919  1
  Pd  Pd22  1  0.842001  0.840919  0.476160  1
  Pd  Pd23  1  0.842001  0.840919  0.840919  1
  N  N24  1  0.627075  0.124308  0.124308  1
  N  N25  1  0.125642  0.625136  0.124611  1
  N  N26  1  0.125642  0.124611  0.625136  1
  N  N27  1  0.125642  0.124611  0.124611  1
