# generated using pymatgen
data_Ti3Cr2P3Ru
_symmetry_space_group_name_H-M   'P 1'
_cell_length_a   6.38619760
_cell_length_b   6.39617918
_cell_length_c   3.34200700
_cell_angle_alpha   90.00000000
_cell_angle_beta   90.00000000
_cell_angle_gamma   120.05170743
_symmetry_Int_Tables_number   1
_chemical_formula_structural   Ti3Cr2P3Ru
_chemical_formula_sum   'Ti3 Cr2 P3 Ru1'
_cell_volume   118.16107700
_cell_formula_units_Z   1
loop_
 _symmetry_equiv_pos_site_id
 _symmetry_equiv_pos_as_xyz
  1  'x, y, z'
loop_
 _atom_site_type_symbol
 _atom_site_label
 _atom_site_symmetry_multiplicity
 _atom_site_fract_x
 _atom_site_fract_y
 _atom_site_fract_z
 _atom_site_occupancy
  Ti  Ti0  1  0.414727  0.408875  0.500000  1
  Ti  Ti1  1  0.585273  0.994149  0.500000  1
  Ti  Ti2  1  0.000000  0.600128  0.500000  1
  Cr  Cr3  1  0.252215  0.000092  0.000000  1
  Cr  Cr4  1  0.747785  0.747878  0.000000  1
  P  P5  1  0.665258  0.334467  0.000000  1
  P  P6  1  0.334742  0.669210  0.000000  1
  P  P7  1  0.000000  0.995667  0.500000  1
  Ru  Ru8  1  0.000000  0.249534  0.000000  1
