# generated using pymatgen
data_Er2In8Rh
_symmetry_space_group_name_H-M   'P 1'
_cell_length_a   4.66155800
_cell_length_b   4.66155800
_cell_length_c   12.10251000
_cell_angle_alpha   90.00000000
_cell_angle_beta   90.00000000
_cell_angle_gamma   90.00000000
_symmetry_Int_Tables_number   1
_chemical_formula_structural   Er2In8Rh
_chemical_formula_sum   'Er2 In8 Rh1'
_cell_volume   262.98903076
_cell_formula_units_Z   1
loop_
 _symmetry_equiv_pos_site_id
 _symmetry_equiv_pos_as_xyz
  1  'x, y, z'
loop_
 _atom_site_type_symbol
 _atom_site_label
 _atom_site_symmetry_multiplicity
 _atom_site_fract_x
 _atom_site_fract_y
 _atom_site_fract_z
 _atom_site_occupancy
  Er  Er0  1  0.500000  0.500000  0.691139  1
  Er  Er1  1  0.500000  0.500000  0.308861  1
  In  In2  1  0.000000  0.500000  0.500000  1
  In  In3  1  0.500000  0.000000  0.500000  1
  In  In4  1  0.000000  0.500000  0.876349  1
  In  In5  1  0.500000  0.000000  0.876349  1
  In  In6  1  0.000000  0.500000  0.123651  1
  In  In7  1  0.500000  0.000000  0.123651  1
  In  In8  1  0.000000  0.000000  0.690013  1
  In  In9  1  0.000000  0.000000  0.309987  1
  Rh  Rh10  1  0.500000  0.500000  0.000000  1
