# generated using pymatgen
data_Sc10Bi5Ir
_symmetry_space_group_name_H-M   'P 1'
_cell_length_a   7.62859600
_cell_length_b   8.94514100
_cell_length_c   11.42633100
_cell_angle_alpha   90.00000000
_cell_angle_beta   90.00000000
_cell_angle_gamma   90.00000000
_symmetry_Int_Tables_number   1
_chemical_formula_structural   Sc10Bi5Ir
_chemical_formula_sum   'Sc20 Bi10 Ir2'
_cell_volume   779.71987972
_cell_formula_units_Z   2
loop_
 _symmetry_equiv_pos_site_id
 _symmetry_equiv_pos_as_xyz
  1  'x, y, z'
loop_
 _atom_site_type_symbol
 _atom_site_label
 _atom_site_symmetry_multiplicity
 _atom_site_fract_x
 _atom_site_fract_y
 _atom_site_fract_z
 _atom_site_occupancy
  Sc  Sc0  1  0.184303  0.029268  0.936290  1
  Sc  Sc1  1  0.315697  0.029268  0.436290  1
  Sc  Sc2  1  0.315697  0.470732  0.436290  1
  Sc  Sc3  1  0.340635  0.750000  0.706888  1
  Sc  Sc4  1  0.447081  0.750000  0.999101  1
  Sc  Sc5  1  0.159942  0.250000  0.222307  1
  Sc  Sc6  1  0.818670  0.925316  0.061573  1
  Sc  Sc7  1  0.629226  0.750000  0.302045  1
  Sc  Sc8  1  0.052919  0.750000  0.499101  1
  Sc  Sc9  1  0.681330  0.925316  0.561573  1
  Sc  Sc10  1  0.184303  0.470732  0.936290  1
  Sc  Sc11  1  0.340058  0.250000  0.722307  1
  Sc  Sc12  1  0.159365  0.750000  0.206888  1
  Sc  Sc13  1  0.989975  0.250000  0.493002  1
  Sc  Sc14  1  0.681330  0.574684  0.561573  1
  Sc  Sc15  1  0.679699  0.250000  0.270570  1
  Sc  Sc16  1  0.818670  0.574684  0.061573  1
  Sc  Sc17  1  0.510025  0.250000  0.993002  1
  Sc  Sc18  1  0.820301  0.250000  0.770570  1
  Sc  Sc19  1  0.870774  0.750000  0.802045  1
  Bi  Bi20  1  0.065409  0.490642  0.672931  1
  Bi  Bi21  1  0.569449  0.509569  0.826235  1
  Bi  Bi22  1  0.930551  0.990431  0.326235  1
  Bi  Bi23  1  0.434591  0.009358  0.172931  1
  Bi  Bi24  1  0.569449  0.990431  0.826235  1
  Bi  Bi25  1  0.434591  0.490642  0.172931  1
  Bi  Bi26  1  0.065409  0.009358  0.672931  1
  Bi  Bi27  1  0.930551  0.509569  0.326235  1
  Bi  Bi28  1  0.594932  0.250000  0.527479  1
  Bi  Bi29  1  0.905068  0.250000  0.027479  1
  Ir  Ir30  1  0.418682  0.750000  0.484549  1
  Ir  Ir31  1  0.081318  0.750000  0.984549  1
