# generated using pymatgen
data_Ce4Y3Ho(ReC2)4
_symmetry_space_group_name_H-M   'P 1'
_cell_length_a   5.23308500
_cell_length_b   6.54366909
_cell_length_c   9.89439013
_cell_angle_alpha   89.98145935
_cell_angle_beta   90.00000000
_cell_angle_gamma   90.00000000
_symmetry_Int_Tables_number   1
_chemical_formula_structural   Ce4Y3Ho(ReC2)4
_chemical_formula_sum   'Ce4 Y3 Ho1 Re4 C8'
_cell_volume   338.81928795
_cell_formula_units_Z   1
loop_
 _symmetry_equiv_pos_site_id
 _symmetry_equiv_pos_as_xyz
  1  'x, y, z'
loop_
 _atom_site_type_symbol
 _atom_site_label
 _atom_site_symmetry_multiplicity
 _atom_site_fract_x
 _atom_site_fract_y
 _atom_site_fract_z
 _atom_site_occupancy
  Ce  Ce0  1  0.250000  0.469552  0.782430  1
  Ce  Ce1  1  0.750000  0.030410  0.281755  1
  Ce  Ce2  1  0.250000  0.969724  0.717779  1
  Ce  Ce3  1  0.750000  0.530260  0.217539  1
  Y  Y4  1  0.250000  0.819536  0.051850  1
  Y  Y5  1  0.750000  0.680631  0.552073  1
  Y  Y6  1  0.250000  0.319284  0.447977  1
  Ho  Ho7  1  0.750000  0.179187  0.947574  1
  Re  Re8  1  0.250000  0.278505  0.134219  1
  Re  Re9  1  0.750000  0.221594  0.634992  1
  Re  Re10  1  0.250000  0.778467  0.365206  1
  Re  Re11  1  0.750000  0.721496  0.865584  1
  C  C12  1  0.250000  0.175893  0.947500  1
  C  C13  1  0.750000  0.825309  0.052128  1
  C  C14  1  0.250000  0.676328  0.552149  1
  C  C15  1  0.750000  0.323938  0.447923  1
  C  C16  1  0.250000  0.045724  0.259233  1
  C  C17  1  0.750000  0.453700  0.760195  1
  C  C18  1  0.250000  0.545596  0.240489  1
  C  C19  1  0.750000  0.954865  0.741405  1
