# generated using pymatgen
data_Hf5ZnSn2Sb
_symmetry_space_group_name_H-M   'P 1'
_cell_length_a   8.61661040
_cell_length_b   8.60334583
_cell_length_c   5.81136200
_cell_angle_alpha   90.00000000
_cell_angle_beta   90.00000000
_cell_angle_gamma   119.94908575
_symmetry_Int_Tables_number   1
_chemical_formula_structural   Hf5ZnSn2Sb
_chemical_formula_sum   'Hf10 Zn2 Sn4 Sb2'
_cell_volume   373.28022480
_cell_formula_units_Z   2
loop_
 _symmetry_equiv_pos_site_id
 _symmetry_equiv_pos_as_xyz
  1  'x, y, z'
loop_
 _atom_site_type_symbol
 _atom_site_label
 _atom_site_symmetry_multiplicity
 _atom_site_fract_x
 _atom_site_fract_y
 _atom_site_fract_z
 _atom_site_occupancy
  Hf  Hf0  1  0.731210  0.731600  0.250000  1
  Hf  Hf1  1  0.731210  0.999610  0.750000  1
  Hf  Hf2  1  0.999757  0.267678  0.250000  1
  Hf  Hf3  1  0.999757  0.732078  0.750000  1
  Hf  Hf4  1  0.268588  0.268406  0.750000  1
  Hf  Hf5  1  0.268588  0.000182  0.250000  1
  Hf  Hf6  1  0.334174  0.667088  0.500000  1
  Hf  Hf7  1  0.666539  0.333269  0.000000  1
  Hf  Hf8  1  0.666539  0.333269  0.500000  1
  Hf  Hf9  1  0.334174  0.667088  0.000000  1
  Zn  Zn10  1  0.001400  0.000700  0.000000  1
  Zn  Zn11  1  0.001400  0.000700  0.500000  1
  Sn  Sn12  1  0.384035  0.999793  0.750000  1
  Sn  Sn13  1  0.384035  0.384241  0.250000  1
  Sn  Sn14  1  0.000261  0.614813  0.250000  1
  Sn  Sn15  1  0.000261  0.385448  0.750000  1
  Sb  Sb16  1  0.614038  0.613545  0.750000  1
  Sb  Sb17  1  0.614038  0.000493  0.250000  1
