# generated using pymatgen
data_Zr8In4PdPt7
_symmetry_space_group_name_H-M   'P 1'
_cell_length_a   7.59944684
_cell_length_b   7.59944684
_cell_length_c   6.86180542
_cell_angle_alpha   90.05213528
_cell_angle_beta   90.05213528
_cell_angle_gamma   90.01381550
_symmetry_Int_Tables_number   1
_chemical_formula_structural   Zr8In4PdPt7
_chemical_formula_sum   'Zr8 In4 Pd1 Pt7'
_cell_volume   396.27984940
_cell_formula_units_Z   1
loop_
 _symmetry_equiv_pos_site_id
 _symmetry_equiv_pos_as_xyz
  1  'x, y, z'
loop_
 _atom_site_type_symbol
 _atom_site_label
 _atom_site_symmetry_multiplicity
 _atom_site_fract_x
 _atom_site_fract_y
 _atom_site_fract_z
 _atom_site_occupancy
  Zr  Zr0  1  0.653823  0.653823  0.500369  1
  Zr  Zr1  1  0.814538  0.183617  0.499199  1
  Zr  Zr2  1  0.684581  0.684581  0.999870  1
  Zr  Zr3  1  0.844869  0.151662  0.001172  1
  Zr  Zr4  1  0.183617  0.814538  0.499199  1
  Zr  Zr5  1  0.317126  0.317126  0.001296  1
  Zr  Zr6  1  0.151662  0.844869  0.001172  1
  Zr  Zr7  1  0.348197  0.348197  0.498327  1
  In  In8  1  0.999635  0.499426  0.250222  1
  In  In9  1  0.498298  0.000444  0.750009  1
  In  In10  1  0.499426  0.999635  0.250222  1
  In  In11  1  0.000444  0.498298  0.750009  1
  Pd  Pd12  1  0.131821  0.131821  0.716694  1
  Pt  Pt13  1  0.630166  0.369892  0.219636  1
  Pt  Pt14  1  0.369612  0.630370  0.780860  1
  Pt  Pt15  1  0.872028  0.872028  0.720644  1
  Pt  Pt16  1  0.630370  0.369612  0.780860  1
  Pt  Pt17  1  0.369892  0.630166  0.219636  1
  Pt  Pt18  1  0.130224  0.130224  0.279138  1
  Pt  Pt19  1  0.869671  0.869671  0.281464  1
