# generated using pymatgen
data_La2Tb3(Sn5Rh2)2
_symmetry_space_group_name_H-M   'P 1'
_cell_length_a   14.22237700
_cell_length_b   14.22237700
_cell_length_c   4.57717300
_cell_angle_alpha   90.00000000
_cell_angle_beta   90.00000000
_cell_angle_gamma   90.00000000
_symmetry_Int_Tables_number   1
_chemical_formula_structural   La2Tb3(Sn5Rh2)2
_chemical_formula_sum   'La4 Tb6 Sn20 Rh8'
_cell_volume   925.85228021
_cell_formula_units_Z   2
loop_
 _symmetry_equiv_pos_site_id
 _symmetry_equiv_pos_as_xyz
  1  'x, y, z'
loop_
 _atom_site_type_symbol
 _atom_site_label
 _atom_site_symmetry_multiplicity
 _atom_site_fract_x
 _atom_site_fract_y
 _atom_site_fract_z
 _atom_site_occupancy
  La  La0  1  0.888732  0.388732  0.500000  1
  La  La1  1  0.111268  0.611268  0.500000  1
  La  La2  1  0.388732  0.111268  0.500000  1
  La  La3  1  0.611268  0.888732  0.500000  1
  Tb  Tb4  1  0.500000  0.500000  0.000000  1
  Tb  Tb5  1  0.000000  0.000000  0.000000  1
  Tb  Tb6  1  0.677354  0.177354  0.500000  1
  Tb  Tb7  1  0.322646  0.822646  0.500000  1
  Tb  Tb8  1  0.177354  0.322646  0.500000  1
  Tb  Tb9  1  0.822646  0.677354  0.500000  1
  Sn  Sn10  1  0.570991  0.070991  0.000000  1
  Sn  Sn11  1  0.429009  0.929009  0.000000  1
  Sn  Sn12  1  0.070991  0.429009  0.000000  1
  Sn  Sn13  1  0.929009  0.570991  0.000000  1
  Sn  Sn14  1  0.654341  0.697530  0.000000  1
  Sn  Sn15  1  0.345659  0.302470  0.000000  1
  Sn  Sn16  1  0.154341  0.802470  0.000000  1
  Sn  Sn17  1  0.845659  0.197530  0.000000  1
  Sn  Sn18  1  0.302470  0.654341  0.000000  1
  Sn  Sn19  1  0.697530  0.345659  0.000000  1
  Sn  Sn20  1  0.197530  0.154341  0.000000  1
  Sn  Sn21  1  0.802470  0.845659  0.000000  1
  Sn  Sn22  1  0.660956  0.506625  0.500000  1
  Sn  Sn23  1  0.339044  0.493375  0.500000  1
  Sn  Sn24  1  0.160956  0.993375  0.500000  1
  Sn  Sn25  1  0.839044  0.006625  0.500000  1
  Sn  Sn26  1  0.493375  0.660956  0.500000  1
  Sn  Sn27  1  0.506625  0.339044  0.500000  1
  Sn  Sn28  1  0.006625  0.160956  0.500000  1
  Sn  Sn29  1  0.993375  0.839044  0.500000  1
  Rh  Rh30  1  0.745700  0.528956  0.000000  1
  Rh  Rh31  1  0.254300  0.471044  0.000000  1
  Rh  Rh32  1  0.245700  0.971044  0.000000  1
  Rh  Rh33  1  0.754300  0.028956  0.000000  1
  Rh  Rh34  1  0.471044  0.745700  0.000000  1
  Rh  Rh35  1  0.528956  0.254300  0.000000  1
  Rh  Rh36  1  0.028956  0.245700  0.000000  1
  Rh  Rh37  1  0.971044  0.754300  0.000000  1
