# generated using pymatgen
data_Yb3Lu(Si5Os3)2
_symmetry_space_group_name_H-M   'P 1'
_cell_length_a   8.25595024
_cell_length_b   8.26945157
_cell_length_c   5.62611828
_cell_angle_alpha   70.05270239
_cell_angle_beta   70.04508966
_cell_angle_gamma   95.28403343
_symmetry_Int_Tables_number   1
_chemical_formula_structural   Yb3Lu(Si5Os3)2
_chemical_formula_sum   'Yb3 Lu1 Si10 Os6'
_cell_volume   329.79918203
_cell_formula_units_Z   1
loop_
 _symmetry_equiv_pos_site_id
 _symmetry_equiv_pos_as_xyz
  1  'x, y, z'
loop_
 _atom_site_type_symbol
 _atom_site_label
 _atom_site_symmetry_multiplicity
 _atom_site_fract_x
 _atom_site_fract_y
 _atom_site_fract_z
 _atom_site_occupancy
  Yb  Yb0  1  0.402446  0.131560  0.733352  1
  Yb  Yb1  1  0.132317  0.400443  0.233962  1
  Yb  Yb2  1  0.597306  0.869519  0.266105  1
  Lu  Lu3  1  0.869267  0.598652  0.765571  1
  Si  Si4  1  0.074343  0.265746  0.831912  1
  Si  Si5  1  0.732108  0.924728  0.669623  1
  Si  Si6  1  0.924796  0.734258  0.169277  1
  Si  Si7  1  0.267517  0.074435  0.329929  1
  Si  Si8  1  0.208894  0.792809  0.748842  1
  Si  Si9  1  0.792741  0.208775  0.247872  1
  Si  Si10  1  0.499240  0.499144  0.748756  1
  Si  Si11  1  0.498866  0.499716  0.252867  1
  Si  Si12  1  0.792835  0.209054  0.750701  1
  Si  Si13  1  0.209043  0.792162  0.249680  1
  Os  Os14  1  0.258100  0.553837  0.594771  1
  Os  Os15  1  0.445893  0.737672  0.907612  1
  Os  Os16  1  0.741954  0.448144  0.404588  1
  Os  Os17  1  0.554767  0.263578  0.091406  1
  Os  Os18  1  0.997499  0.999180  0.751024  1
  Os  Os19  1  0.000072  0.996589  0.252149  1
