# generated using pymatgen
data_Nd3Y11Au20
_symmetry_space_group_name_H-M   'P 1'
_cell_length_a   8.81213712
_cell_length_b   8.81213665
_cell_length_c   10.47249537
_cell_angle_alpha   89.92486845
_cell_angle_beta   89.92486720
_cell_angle_gamma   107.13480244
_symmetry_Int_Tables_number   1
_chemical_formula_structural   Nd3Y11Au20
_chemical_formula_sum   'Nd3 Y11 Au20'
_cell_volume   777.13093610
_cell_formula_units_Z   1
loop_
 _symmetry_equiv_pos_site_id
 _symmetry_equiv_pos_as_xyz
  1  'x, y, z'
loop_
 _atom_site_type_symbol
 _atom_site_label
 _atom_site_symmetry_multiplicity
 _atom_site_fract_x
 _atom_site_fract_y
 _atom_site_fract_z
 _atom_site_occupancy
  Nd  Nd0  1  0.690131  0.690131  0.808145  1
  Nd  Nd1  1  0.189308  0.189308  0.690698  1
  Nd  Nd2  1  0.810981  0.810981  0.308711  1
  Y  Y3  1  0.694343  0.305314  0.000146  1
  Y  Y4  1  0.305314  0.694343  0.000146  1
  Y  Y5  1  0.805007  0.194746  0.500043  1
  Y  Y6  1  0.194746  0.805007  0.500043  1
  Y  Y7  1  0.001137  0.001137  0.000747  1
  Y  Y8  1  0.498991  0.498991  0.498853  1
  Y  Y9  1  0.003727  0.502657  0.250202  1
  Y  Y10  1  0.996689  0.496279  0.750406  1
  Y  Y11  1  0.496279  0.996689  0.750406  1
  Y  Y12  1  0.502657  0.003727  0.250202  1
  Y  Y13  1  0.313117  0.313117  0.188734  1
  Au  Au14  1  0.860171  0.153534  0.208545  1
  Au  Au15  1  0.139408  0.846565  0.792317  1
  Au  Au16  1  0.638224  0.346713  0.708686  1
  Au  Au17  1  0.649864  0.360139  0.290321  1
  Au  Au18  1  0.360139  0.649864  0.290321  1
  Au  Au19  1  0.346713  0.638224  0.708686  1
  Au  Au20  1  0.846565  0.139408  0.792317  1
  Au  Au21  1  0.153534  0.860171  0.208545  1
  Au  Au22  1  0.939298  0.644521  0.005469  1
  Au  Au23  1  0.063059  0.354951  0.997259  1
  Au  Au24  1  0.559689  0.854945  0.504569  1
  Au  Au25  1  0.144194  0.439541  0.495263  1
  Au  Au26  1  0.439541  0.144194  0.495263  1
  Au  Au27  1  0.854945  0.559689  0.504569  1
  Au  Au28  1  0.354951  0.063059  0.997259  1
  Au  Au29  1  0.644521  0.939298  0.005469  1
  Au  Au30  1  0.106875  0.106875  0.395562  1
  Au  Au31  1  0.898538  0.898538  0.598746  1
  Au  Au32  1  0.396246  0.396246  0.902332  1
  Au  Au33  1  0.601098  0.601098  0.101021  1
