# generated using pymatgen
data_CsYBi2S5
_symmetry_space_group_name_H-M   'P 1'
_cell_length_a   4.04506600
_cell_length_b   12.02643500
_cell_length_c   22.30211800
_cell_angle_alpha   90.00000000
_cell_angle_beta   90.00000000
_cell_angle_gamma   90.00000000
_symmetry_Int_Tables_number   1
_chemical_formula_structural   CsYBi2S5
_chemical_formula_sum   'Cs4 Y4 Bi8 S20'
_cell_volume   1084.94726591
_cell_formula_units_Z   4
loop_
 _symmetry_equiv_pos_site_id
 _symmetry_equiv_pos_as_xyz
  1  'x, y, z'
loop_
 _atom_site_type_symbol
 _atom_site_label
 _atom_site_symmetry_multiplicity
 _atom_site_fract_x
 _atom_site_fract_y
 _atom_site_fract_z
 _atom_site_occupancy
  Cs  Cs0  1  0.250000  0.488009  0.211678  1
  Cs  Cs1  1  0.750000  0.511991  0.788322  1
  Cs  Cs2  1  0.750000  0.988009  0.288322  1
  Cs  Cs3  1  0.250000  0.011991  0.711678  1
  Y  Y4  1  0.250000  0.364138  0.023546  1
  Y  Y5  1  0.750000  0.635862  0.976454  1
  Y  Y6  1  0.750000  0.864138  0.476454  1
  Y  Y7  1  0.250000  0.135862  0.523546  1
  Bi  Bi8  1  0.250000  0.801000  0.120302  1
  Bi  Bi9  1  0.750000  0.199000  0.879698  1
  Bi  Bi10  1  0.750000  0.301000  0.379698  1
  Bi  Bi11  1  0.250000  0.699000  0.620302  1
  Bi  Bi12  1  0.250000  0.594070  0.426354  1
  Bi  Bi13  1  0.750000  0.405930  0.573646  1
  Bi  Bi14  1  0.750000  0.094070  0.073646  1
  Bi  Bi15  1  0.250000  0.905930  0.926354  1
  S  S16  1  0.250000  0.807892  0.396577  1
  S  S17  1  0.750000  0.192108  0.603423  1
  S  S18  1  0.750000  0.307892  0.103423  1
  S  S19  1  0.250000  0.692108  0.896577  1
  S  S20  1  0.250000  0.248905  0.306163  1
  S  S21  1  0.750000  0.751095  0.693837  1
  S  S22  1  0.750000  0.748905  0.193837  1
  S  S23  1  0.250000  0.251095  0.806163  1
  S  S24  1  0.250000  0.353630  0.482521  1
  S  S25  1  0.750000  0.646370  0.517479  1
  S  S26  1  0.750000  0.853630  0.017479  1
  S  S27  1  0.250000  0.146370  0.982521  1
  S  S28  1  0.250000  0.024345  0.151056  1
  S  S29  1  0.750000  0.975655  0.848944  1
  S  S30  1  0.750000  0.524345  0.348944  1
  S  S31  1  0.250000  0.475655  0.651056  1
  S  S32  1  0.250000  0.583028  0.055604  1
  S  S33  1  0.750000  0.416972  0.944396  1
  S  S34  1  0.750000  0.083028  0.444396  1
  S  S35  1  0.250000  0.916972  0.555604  1
