# generated using pymatgen
data_Pr8CdHgIrOs
_symmetry_space_group_name_H-M   'P 1'
_cell_length_a   10.02031243
_cell_length_b   10.02031327
_cell_length_c   10.10391600
_cell_angle_alpha   59.72361909
_cell_angle_beta   59.72361631
_cell_angle_gamma   59.59205196
_symmetry_Int_Tables_number   1
_chemical_formula_structural   Pr8CdHgIrOs
_chemical_formula_sum   'Pr16 Cd2 Hg2 Ir2 Os2'
_cell_volume   712.13885233
_cell_formula_units_Z   2
loop_
 _symmetry_equiv_pos_site_id
 _symmetry_equiv_pos_as_xyz
  1  'x, y, z'
loop_
 _atom_site_type_symbol
 _atom_site_label
 _atom_site_symmetry_multiplicity
 _atom_site_fract_x
 _atom_site_fract_y
 _atom_site_fract_z
 _atom_site_occupancy
  Pr  Pr0  1  0.346666  0.346666  0.348830  1
  Pr  Pr1  1  0.346666  0.346666  0.957835  1
  Pr  Pr2  1  0.345847  0.957702  0.348225  1
  Pr  Pr3  1  0.957702  0.345847  0.348225  1
  Pr  Pr4  1  0.809363  0.190757  0.192526  1
  Pr  Pr5  1  0.190757  0.809363  0.807354  1
  Pr  Pr6  1  0.190757  0.809363  0.192526  1
  Pr  Pr7  1  0.809363  0.190757  0.807354  1
  Pr  Pr8  1  0.191198  0.191198  0.808802  1
  Pr  Pr9  1  0.807296  0.807296  0.192704  1
  Pr  Pr10  1  0.939707  0.557741  0.561724  1
  Pr  Pr11  1  0.557741  0.939707  0.940828  1
  Pr  Pr12  1  0.557741  0.939707  0.561724  1
  Pr  Pr13  1  0.939707  0.557741  0.940828  1
  Pr  Pr14  1  0.560226  0.560226  0.939774  1
  Pr  Pr15  1  0.940931  0.940931  0.559069  1
  Cd  Cd16  1  0.578282  0.262112  0.579803  1
  Cd  Cd17  1  0.262112  0.578282  0.579803  1
  Hg  Hg18  1  0.582477  0.582477  0.584831  1
  Hg  Hg19  1  0.582477  0.582477  0.250215  1
  Ir  Ir20  1  0.142346  0.579092  0.139282  1
  Ir  Ir21  1  0.579092  0.142346  0.139282  1
  Os  Os22  1  0.140774  0.140774  0.136880  1
  Os  Os23  1  0.140774  0.140774  0.581573  1
