# generated using pymatgen
data_LiCe2Pt3
_symmetry_space_group_name_H-M   'P 1'
_cell_length_a   5.37760731
_cell_length_b   5.37760607
_cell_length_c   5.72214070
_cell_angle_alpha   83.22129587
_cell_angle_beta   96.77870411
_cell_angle_gamma   132.14588149
_symmetry_Int_Tables_number   1
_chemical_formula_structural   LiCe2Pt3
_chemical_formula_sum   'Li1 Ce2 Pt3'
_cell_volume   121.66352307
_cell_formula_units_Z   1
loop_
 _symmetry_equiv_pos_site_id
 _symmetry_equiv_pos_as_xyz
  1  'x, y, z'
loop_
 _atom_site_type_symbol
 _atom_site_label
 _atom_site_symmetry_multiplicity
 _atom_site_fract_x
 _atom_site_fract_y
 _atom_site_fract_z
 _atom_site_occupancy
  Li  Li0  1  0.000000  0.000000  0.000000  1
  Ce  Ce1  1  0.684751  0.315249  0.719817  1
  Ce  Ce2  1  0.315249  0.684751  0.280183  1
  Pt  Pt3  1  0.000000  0.000000  0.500000  1
  Pt  Pt4  1  0.386240  0.613760  0.796291  1
  Pt  Pt5  1  0.613760  0.386240  0.203709  1
