# generated using pymatgen
data_Ho6Er4Si5As
_symmetry_space_group_name_H-M   'P 1'
_cell_length_a   8.39477600
_cell_length_b   8.40730456
_cell_length_c   6.26101700
_cell_angle_alpha   90.00000000
_cell_angle_beta   90.00000000
_cell_angle_gamma   119.95070895
_symmetry_Int_Tables_number   1
_chemical_formula_structural   Ho6Er4Si5As
_chemical_formula_sum   'Ho6 Er4 Si5 As1'
_cell_volume   382.87490553
_cell_formula_units_Z   1
loop_
 _symmetry_equiv_pos_site_id
 _symmetry_equiv_pos_as_xyz
  1  'x, y, z'
loop_
 _atom_site_type_symbol
 _atom_site_label
 _atom_site_symmetry_multiplicity
 _atom_site_fract_x
 _atom_site_fract_y
 _atom_site_fract_z
 _atom_site_occupancy
  Ho  Ho0  1  0.996784  0.754175  0.750000  1
  Ho  Ho1  1  0.000337  0.243796  0.250000  1
  Ho  Ho2  1  0.756542  0.756204  0.250000  1
  Ho  Ho3  1  0.758375  0.000000  0.750000  1
  Ho  Ho4  1  0.242609  0.245825  0.750000  1
  Ho  Ho5  1  0.242855  0.000000  0.250000  1
  Er  Er6  1  0.333130  0.664552  0.498866  1
  Er  Er7  1  0.668578  0.335448  0.001134  1
  Er  Er8  1  0.668578  0.335448  0.498866  1
  Er  Er9  1  0.333130  0.664552  0.001134  1
  Si  Si10  1  0.394452  0.393352  0.250000  1
  Si  Si11  1  0.001100  0.606648  0.250000  1
  Si  Si12  1  0.999843  0.394322  0.750000  1
  Si  Si13  1  0.605521  0.605678  0.750000  1
  Si  Si14  1  0.606747  0.000000  0.250000  1
  As  As15  1  0.391418  0.000000  0.750000  1
