# generated using pymatgen
data_Er8TiTc11Ge16
_symmetry_space_group_name_H-M   'P 1'
_cell_length_a   6.93851395
_cell_length_b   6.94082413
_cell_length_c   12.91751348
_cell_angle_alpha   90.16712967
_cell_angle_beta   90.36008493
_cell_angle_gamma   90.22070659
_symmetry_Int_Tables_number   1
_chemical_formula_structural   Er8TiTc11Ge16
_chemical_formula_sum   'Er8 Ti1 Tc11 Ge16'
_cell_volume   622.07500554
_cell_formula_units_Z   1
loop_
 _symmetry_equiv_pos_site_id
 _symmetry_equiv_pos_as_xyz
  1  'x, y, z'
loop_
 _atom_site_type_symbol
 _atom_site_label
 _atom_site_symmetry_multiplicity
 _atom_site_fract_x
 _atom_site_fract_y
 _atom_site_fract_z
 _atom_site_occupancy
  Er  Er0  1  0.335973  0.990367  0.469357  1
  Er  Er1  1  0.506510  0.834698  0.723645  1
  Er  Er2  1  0.491110  0.159283  0.221100  1
  Er  Er3  1  0.838622  0.506174  0.276202  1
  Er  Er4  1  0.160813  0.484775  0.780341  1
  Er  Er5  1  0.658847  0.004817  0.973173  1
  Er  Er6  1  0.995758  0.338965  0.526801  1
  Er  Er7  1  0.008567  0.656295  0.028205  1
  Ti  Ti8  1  0.992200  0.825876  0.623302  1
  Tc  Tc9  1  0.333435  0.336083  0.000707  1
  Tc  Tc10  1  0.164192  0.835158  0.248178  1
  Tc  Tc11  1  0.838702  0.157124  0.748339  1
  Tc  Tc12  1  0.669011  0.665547  0.502142  1
  Tc  Tc13  1  0.197001  0.972122  0.867267  1
  Tc  Tc14  1  0.521539  0.691450  0.122023  1
  Tc  Tc15  1  0.488789  0.322458  0.624377  1
  Tc  Tc16  1  0.683201  0.507512  0.878358  1
  Tc  Tc17  1  0.315530  0.483006  0.379515  1
  Tc  Tc18  1  0.819055  0.024852  0.375214  1
  Tc  Tc19  1  0.973141  0.195437  0.132424  1
  Ge  Ge20  1  0.196999  0.114113  0.678509  1
  Ge  Ge21  1  0.388337  0.686317  0.932778  1
  Ge  Ge22  1  0.614118  0.313343  0.433104  1
  Ge  Ge23  1  0.686501  0.388877  0.068266  1
  Ge  Ge24  1  0.309019  0.618889  0.569247  1
  Ge  Ge25  1  0.812742  0.888541  0.182033  1
  Ge  Ge26  1  0.116178  0.192590  0.318408  1
  Ge  Ge27  1  0.889137  0.804960  0.821031  1
  Ge  Ge28  1  0.266257  0.985102  0.063331  1
  Ge  Ge29  1  0.521985  0.775734  0.315419  1
  Ge  Ge30  1  0.481205  0.217709  0.814969  1
  Ge  Ge31  1  0.782479  0.516990  0.685182  1
  Ge  Ge32  1  0.228649  0.483716  0.185690  1
  Ge  Ge33  1  0.708050  0.034831  0.566187  1
  Ge  Ge34  1  0.983695  0.262096  0.936068  1
  Ge  Ge35  1  0.022660  0.724192  0.429110  1
