# generated using pymatgen
data_La5Pr6Dy5(CdIr)4
_symmetry_space_group_name_H-M   'P 1'
_cell_length_a   9.92895452
_cell_length_b   9.93640206
_cell_length_c   9.93640253
_cell_angle_alpha   59.73126108
_cell_angle_beta   60.02479070
_cell_angle_gamma   60.02478898
_symmetry_Int_Tables_number   1
_chemical_formula_structural   La5Pr6Dy5(CdIr)4
_chemical_formula_sum   'La5 Pr6 Dy5 Cd4 Ir4'
_cell_volume   692.02057743
_cell_formula_units_Z   1
loop_
 _symmetry_equiv_pos_site_id
 _symmetry_equiv_pos_as_xyz
  1  'x, y, z'
loop_
 _atom_site_type_symbol
 _atom_site_label
 _atom_site_symmetry_multiplicity
 _atom_site_fract_x
 _atom_site_fract_y
 _atom_site_fract_z
 _atom_site_occupancy
  La  La0  1  0.345441  0.350624  0.350624  1
  La  La1  1  0.349433  0.349020  0.952113  1
  La  La2  1  0.349433  0.952113  0.349020  1
  La  La3  1  0.953309  0.350624  0.350624  1
  La  La4  1  0.815286  0.184714  0.184714  1
  Pr  Pr5  1  0.938654  0.561346  0.561346  1
  Pr  Pr6  1  0.560661  0.939339  0.939339  1
  Pr  Pr7  1  0.558886  0.937831  0.562265  1
  Pr  Pr8  1  0.941018  0.562265  0.937831  1
  Pr  Pr9  1  0.558886  0.562265  0.937831  1
  Pr  Pr10  1  0.941018  0.937831  0.562265  1
  Dy  Dy11  1  0.184634  0.815366  0.815366  1
  Dy  Dy12  1  0.189102  0.811682  0.184413  1
  Dy  Dy13  1  0.814804  0.184413  0.811682  1
  Dy  Dy14  1  0.189102  0.184413  0.811682  1
  Dy  Dy15  1  0.814804  0.811682  0.184413  1
  Cd  Cd16  1  0.580259  0.579469  0.579469  1
  Cd  Cd17  1  0.578650  0.581985  0.260713  1
  Cd  Cd18  1  0.578650  0.260713  0.581985  1
  Cd  Cd19  1  0.260801  0.579469  0.579469  1
  Ir  Ir20  1  0.139196  0.140343  0.140343  1
  Ir  Ir21  1  0.138926  0.140829  0.581318  1
  Ir  Ir22  1  0.138926  0.581318  0.140829  1
  Ir  Ir23  1  0.580117  0.140343  0.140343  1
