# generated using pymatgen
data_Tm6CrB14Os
_symmetry_space_group_name_H-M   'P 1'
_cell_length_a   7.95987214
_cell_length_b   7.95987283
_cell_length_c   9.24888400
_cell_angle_alpha   90.00000000
_cell_angle_beta   90.00000000
_cell_angle_gamma   154.97113260
_symmetry_Int_Tables_number   1
_chemical_formula_structural   Tm6CrB14Os
_chemical_formula_sum   'Tm6 Cr1 B14 Os1'
_cell_volume   247.92410063
_cell_formula_units_Z   1
loop_
 _symmetry_equiv_pos_site_id
 _symmetry_equiv_pos_as_xyz
  1  'x, y, z'
loop_
 _atom_site_type_symbol
 _atom_site_label
 _atom_site_symmetry_multiplicity
 _atom_site_fract_x
 _atom_site_fract_y
 _atom_site_fract_z
 _atom_site_occupancy
  Tm  Tm0  1  0.894298  0.105702  0.438393  1
  Tm  Tm1  1  0.105797  0.894203  0.558105  1
  Tm  Tm2  1  0.894298  0.105702  0.061607  1
  Tm  Tm3  1  0.105797  0.894203  0.941895  1
  Tm  Tm4  1  0.242377  0.757623  0.250000  1
  Tm  Tm5  1  0.755472  0.244528  0.750000  1
  Cr  Cr6  1  0.052310  0.947690  0.250000  1
  B  B7  1  0.728135  0.271865  0.466021  1
  B  B8  1  0.272725  0.727275  0.534438  1
  B  B9  1  0.728135  0.271865  0.033979  1
  B  B10  1  0.272725  0.727275  0.965562  1
  B  B11  1  0.631466  0.368534  0.151509  1
  B  B12  1  0.367971  0.632029  0.850493  1
  B  B13  1  0.631466  0.368534  0.348491  1
  B  B14  1  0.367971  0.632029  0.649507  1
  B  B15  1  0.520413  0.479587  0.095635  1
  B  B16  1  0.480203  0.519797  0.905526  1
  B  B17  1  0.520413  0.479587  0.404365  1
  B  B18  1  0.480203  0.519797  0.594474  1
  B  B19  1  0.455834  0.544166  0.250000  1
  B  B20  1  0.545518  0.454482  0.750000  1
  Os  Os21  1  0.946474  0.053526  0.750000  1
