# generated using pymatgen
data_CaNd16Er3Sn16
_symmetry_space_group_name_H-M   'P 1'
_cell_length_a   8.21816849
_cell_length_b   8.38903952
_cell_length_c   15.98140900
_cell_angle_alpha   90.00000000
_cell_angle_beta   90.00000000
_cell_angle_gamma   89.93108833
_symmetry_Int_Tables_number   1
_chemical_formula_structural   CaNd16Er3Sn16
_chemical_formula_sum   'Ca1 Nd16 Er3 Sn16'
_cell_volume   1101.79813529
_cell_formula_units_Z   1
loop_
 _symmetry_equiv_pos_site_id
 _symmetry_equiv_pos_as_xyz
  1  'x, y, z'
loop_
 _atom_site_type_symbol
 _atom_site_label
 _atom_site_symmetry_multiplicity
 _atom_site_fract_x
 _atom_site_fract_y
 _atom_site_fract_z
 _atom_site_occupancy
  Ca  Ca0  1  0.198165  0.502217  0.250000  1
  Nd  Nd1  1  0.017657  0.181753  0.401960  1
  Nd  Nd2  1  0.367693  0.836924  0.120445  1
  Nd  Nd3  1  0.132607  0.337182  0.621253  1
  Nd  Nd4  1  0.481909  0.680802  0.901366  1
  Nd  Nd5  1  0.868419  0.662478  0.120344  1
  Nd  Nd6  1  0.132607  0.337182  0.878747  1
  Nd  Nd7  1  0.481909  0.680802  0.598634  1
  Nd  Nd8  1  0.632405  0.162490  0.620946  1
  Nd  Nd9  1  0.868419  0.662478  0.379656  1
  Nd  Nd10  1  0.017657  0.181753  0.098040  1
  Nd  Nd11  1  0.982342  0.818914  0.901559  1
  Nd  Nd12  1  0.632405  0.162490  0.879054  1
  Nd  Nd13  1  0.517471  0.318843  0.097902  1
  Nd  Nd14  1  0.367693  0.836924  0.379555  1
  Nd  Nd15  1  0.982342  0.818914  0.598441  1
  Nd  Nd16  1  0.517471  0.318843  0.402098  1
  Er  Er17  1  0.698389  0.998710  0.250000  1
  Er  Er18  1  0.300963  0.002002  0.750000  1
  Er  Er19  1  0.801088  0.498030  0.750000  1
  Sn  Sn20  1  0.792460  0.464673  0.543623  1
  Sn  Sn21  1  0.707752  0.965146  0.456017  1
  Sn  Sn22  1  0.675178  0.853139  0.750000  1
  Sn  Sn23  1  0.207742  0.536494  0.459055  1
  Sn  Sn24  1  0.292211  0.034827  0.956153  1
  Sn  Sn25  1  0.819018  0.353021  0.250000  1
  Sn  Sn26  1  0.792460  0.464673  0.956377  1
  Sn  Sn27  1  0.568267  0.616363  0.250000  1
  Sn  Sn28  1  0.207742  0.536494  0.040945  1
  Sn  Sn29  1  0.435658  0.383625  0.750000  1
  Sn  Sn30  1  0.175396  0.646252  0.750000  1
  Sn  Sn31  1  0.935905  0.116502  0.750000  1
  Sn  Sn32  1  0.292211  0.034827  0.543847  1
  Sn  Sn33  1  0.707752  0.965146  0.043983  1
  Sn  Sn34  1  0.326284  0.140688  0.250000  1
  Sn  Sn35  1  0.064359  0.888398  0.250000  1
