# generated using pymatgen
data_Dy8Re3TcC8
_symmetry_space_group_name_H-M   'P 1'
_cell_length_a   5.11321200
_cell_length_b   6.57667894
_cell_length_c   9.88825305
_cell_angle_alpha   90.03643718
_cell_angle_beta   90.00000000
_cell_angle_gamma   90.00000000
_symmetry_Int_Tables_number   1
_chemical_formula_structural   Dy8Re3TcC8
_chemical_formula_sum   'Dy8 Re3 Tc1 C8'
_cell_volume   332.52164828
_cell_formula_units_Z   1
loop_
 _symmetry_equiv_pos_site_id
 _symmetry_equiv_pos_as_xyz
  1  'x, y, z'
loop_
 _atom_site_type_symbol
 _atom_site_label
 _atom_site_symmetry_multiplicity
 _atom_site_fract_x
 _atom_site_fract_y
 _atom_site_fract_z
 _atom_site_occupancy
  Dy  Dy0  1  0.750000  0.532673  0.784491  1
  Dy  Dy1  1  0.250000  0.966309  0.284066  1
  Dy  Dy2  1  0.750000  0.679165  0.443732  1
  Dy  Dy3  1  0.250000  0.822041  0.943683  1
  Dy  Dy4  1  0.750000  0.178565  0.056749  1
  Dy  Dy5  1  0.250000  0.320518  0.557054  1
  Dy  Dy6  1  0.250000  0.466080  0.216174  1
  Dy  Dy7  1  0.750000  0.033175  0.716167  1
  Re  Re8  1  0.250000  0.781157  0.634067  1
  Re  Re9  1  0.750000  0.219715  0.366023  1
  Re  Re10  1  0.750000  0.719416  0.134319  1
  Tc  Tc11  1  0.250000  0.280940  0.865779  1
  C  C12  1  0.250000  0.677727  0.451149  1
  C  C13  1  0.250000  0.548806  0.757677  1
  C  C14  1  0.750000  0.452882  0.241349  1
  C  C15  1  0.750000  0.821587  0.951403  1
  C  C16  1  0.250000  0.047078  0.740752  1
  C  C17  1  0.250000  0.177518  0.047503  1
  C  C18  1  0.750000  0.322046  0.548818  1
  C  C19  1  0.750000  0.952600  0.259045  1
