# generated using pymatgen
data_Er3Tm3Pa2(ReB6)4
_symmetry_space_group_name_H-M   'P 1'
_cell_length_a   3.67876000
_cell_length_b   9.11972367
_cell_length_c   11.48715902
_cell_angle_alpha   90.31923795
_cell_angle_beta   90.00000000
_cell_angle_gamma   90.00000000
_symmetry_Int_Tables_number   1
_chemical_formula_structural   Er3Tm3Pa2(ReB6)4
_chemical_formula_sum   'Er3 Tm3 Pa2 Re4 B24'
_cell_volume   385.37987068
_cell_formula_units_Z   1
loop_
 _symmetry_equiv_pos_site_id
 _symmetry_equiv_pos_as_xyz
  1  'x, y, z'
loop_
 _atom_site_type_symbol
 _atom_site_label
 _atom_site_symmetry_multiplicity
 _atom_site_fract_x
 _atom_site_fract_y
 _atom_site_fract_z
 _atom_site_occupancy
  Er  Er0  1  0.000000  0.823437  0.085490  1
  Er  Er1  1  0.000000  0.176548  0.914437  1
  Er  Er2  1  0.000000  0.944780  0.372336  1
  Tm  Tm3  1  0.000000  0.055257  0.627873  1
  Tm  Tm4  1  0.000000  0.443743  0.126195  1
  Tm  Tm5  1  0.000000  0.556259  0.873771  1
  Pa  Pa6  1  0.000000  0.321119  0.413144  1
  Pa  Pa7  1  0.000000  0.678931  0.586955  1
  Re  Re8  1  0.000000  0.635486  0.323820  1
  Re  Re9  1  0.000000  0.364246  0.676180  1
  Re  Re10  1  0.000000  0.140476  0.181195  1
  Re  Re11  1  0.000000  0.859710  0.818623  1
  B  B12  1  0.500000  0.553706  0.432746  1
  B  B13  1  0.500000  0.446236  0.567281  1
  B  B14  1  0.500000  0.053286  0.066875  1
  B  B15  1  0.500000  0.946739  0.933072  1
  B  B16  1  0.500000  0.749116  0.419263  1
  B  B17  1  0.500000  0.250652  0.580786  1
  B  B18  1  0.500000  0.248499  0.079728  1
  B  B19  1  0.500000  0.751523  0.920255  1
  B  B20  1  0.500000  0.791826  0.264819  1
  B  B21  1  0.500000  0.207938  0.735097  1
  B  B22  1  0.500000  0.292240  0.233497  1
  B  B23  1  0.500000  0.707832  0.766488  1
  B  B24  1  0.500000  0.631136  0.184638  1
  B  B25  1  0.500000  0.368815  0.815330  1
  B  B26  1  0.500000  0.131495  0.314060  1
  B  B27  1  0.500000  0.868713  0.685866  1
  B  B28  1  0.500000  0.981564  0.211768  1
  B  B29  1  0.500000  0.018551  0.788042  1
  B  B30  1  0.500000  0.482637  0.285990  1
  B  B31  1  0.500000  0.517330  0.714002  1
  B  B32  1  0.500000  0.603850  0.028984  1
  B  B33  1  0.500000  0.396145  0.971006  1
  B  B34  1  0.500000  0.107723  0.470373  1
  B  B35  1  0.500000  0.892456  0.530012  1
