# generated using pymatgen
data_Ac8Tb9Th3Pb16
_symmetry_space_group_name_H-M   'P 1'
_cell_length_a   8.50192900
_cell_length_b   8.57522073
_cell_length_c   16.26226400
_cell_angle_alpha   90.00000000
_cell_angle_beta   90.00000000
_cell_angle_gamma   89.97638071
_symmetry_Int_Tables_number   1
_chemical_formula_structural   Ac8Tb9Th3Pb16
_chemical_formula_sum   'Ac8 Tb9 Th3 Pb16'
_cell_volume   1185.61518159
_cell_formula_units_Z   1
loop_
 _symmetry_equiv_pos_site_id
 _symmetry_equiv_pos_as_xyz
  1  'x, y, z'
loop_
 _atom_site_type_symbol
 _atom_site_label
 _atom_site_symmetry_multiplicity
 _atom_site_fract_x
 _atom_site_fract_y
 _atom_site_fract_z
 _atom_site_occupancy
  Ac  Ac0  1  0.518564  0.323967  0.903996  1
  Ac  Ac1  1  0.019402  0.176412  0.595898  1
  Ac  Ac2  1  0.481010  0.677030  0.404058  1
  Ac  Ac3  1  0.981117  0.823233  0.095811  1
  Ac  Ac4  1  0.481010  0.677030  0.095942  1
  Ac  Ac5  1  0.981117  0.823233  0.404189  1
  Ac  Ac6  1  0.518564  0.323967  0.596004  1
  Ac  Ac7  1  0.019402  0.176412  0.904102  1
  Tb  Tb8  1  0.357631  0.843380  0.876469  1
  Tb  Tb9  1  0.859114  0.655679  0.623731  1
  Tb  Tb10  1  0.641177  0.155867  0.376181  1
  Tb  Tb11  1  0.141302  0.344332  0.123297  1
  Tb  Tb12  1  0.641177  0.155867  0.123819  1
  Tb  Tb13  1  0.141302  0.344332  0.376703  1
  Tb  Tb14  1  0.357631  0.843380  0.623531  1
  Tb  Tb15  1  0.859114  0.655679  0.876269  1
  Tb  Tb16  1  0.196123  0.504248  0.750000  1
  Th  Th17  1  0.694783  0.996312  0.750000  1
  Th  Th18  1  0.805665  0.497430  0.250000  1
  Th  Th19  1  0.305928  0.002699  0.250000  1
  Pb  Pb20  1  0.303852  0.046555  0.044958  1
  Pb  Pb21  1  0.803231  0.453126  0.455179  1
  Pb  Pb22  1  0.695739  0.953997  0.545129  1
  Pb  Pb23  1  0.196480  0.546750  0.954521  1
  Pb  Pb24  1  0.695739  0.953997  0.954871  1
  Pb  Pb25  1  0.196480  0.546750  0.545479  1
  Pb  Pb26  1  0.303852  0.046555  0.455042  1
  Pb  Pb27  1  0.803231  0.453126  0.044821  1
  Pb  Pb28  1  0.553044  0.631845  0.750000  1
  Pb  Pb29  1  0.058285  0.863426  0.750000  1
  Pb  Pb30  1  0.442856  0.366828  0.250000  1
  Pb  Pb31  1  0.943548  0.133559  0.250000  1
  Pb  Pb32  1  0.328126  0.145424  0.750000  1
  Pb  Pb33  1  0.829991  0.357766  0.750000  1
  Pb  Pb34  1  0.672444  0.857528  0.250000  1
  Pb  Pb35  1  0.171966  0.642278  0.250000  1
