# generated using pymatgen
data_AcLa(AgGe)2
_symmetry_space_group_name_H-M   'P 1'
_cell_length_a   4.64437000
_cell_length_b   4.64436965
_cell_length_c   8.15414600
_cell_angle_alpha   90.00000000
_cell_angle_beta   90.00000000
_cell_angle_gamma   120.00000250
_symmetry_Int_Tables_number   1
_chemical_formula_structural   AcLa(AgGe)2
_chemical_formula_sum   'Ac1 La1 Ag2 Ge2'
_cell_volume   152.32202106
_cell_formula_units_Z   1
loop_
 _symmetry_equiv_pos_site_id
 _symmetry_equiv_pos_as_xyz
  1  'x, y, z'
loop_
 _atom_site_type_symbol
 _atom_site_label
 _atom_site_symmetry_multiplicity
 _atom_site_fract_x
 _atom_site_fract_y
 _atom_site_fract_z
 _atom_site_occupancy
  Ac  Ac0  1  0.000000  0.000000  0.244078  1
  La  La1  1  0.000000  0.000000  0.742690  1
  Ag  Ag2  1  0.666667  0.333333  0.519194  1
  Ag  Ag3  1  0.333333  0.666667  0.992049  1
  Ge  Ge4  1  0.666667  0.333333  0.947338  1
  Ge  Ge5  1  0.333333  0.666667  0.473850  1
