# generated using pymatgen
data_DyHo3(Sc3Ga4)2
_symmetry_space_group_name_H-M   'P 1'
_cell_length_a   7.26599800
_cell_length_b   7.56914302
_cell_length_c   14.45387803
_cell_angle_alpha   90.00684639
_cell_angle_beta   90.00214264
_cell_angle_gamma   90.00261847
_symmetry_Int_Tables_number   1
_chemical_formula_structural   DyHo3(Sc3Ga4)2
_chemical_formula_sum   'Dy2 Ho6 Sc12 Ga16'
_cell_volume   794.92538695
_cell_formula_units_Z   2
loop_
 _symmetry_equiv_pos_site_id
 _symmetry_equiv_pos_as_xyz
  1  'x, y, z'
loop_
 _atom_site_type_symbol
 _atom_site_label
 _atom_site_symmetry_multiplicity
 _atom_site_fract_x
 _atom_site_fract_y
 _atom_site_fract_z
 _atom_site_occupancy
  Dy  Dy0  1  0.010978  0.180224  0.094419  1
  Dy  Dy1  1  0.989022  0.819776  0.905581  1
  Ho  Ho2  1  0.489016  0.680273  0.905594  1
  Ho  Ho3  1  0.989026  0.819726  0.594423  1
  Ho  Ho4  1  0.510984  0.319727  0.094406  1
  Ho  Ho5  1  0.010974  0.180274  0.405577  1
  Ho  Ho6  1  0.510989  0.319721  0.405587  1
  Ho  Ho7  1  0.489011  0.680279  0.594413  1
  Sc  Sc8  1  0.162361  0.503232  0.749988  1
  Sc  Sc9  1  0.837639  0.496768  0.250012  1
  Sc  Sc10  1  0.337701  0.003230  0.250016  1
  Sc  Sc11  1  0.662299  0.996770  0.749984  1
  Sc  Sc12  1  0.329657  0.172235  0.624589  1
  Sc  Sc13  1  0.670343  0.827765  0.375411  1
  Sc  Sc14  1  0.170344  0.672251  0.375422  1
  Sc  Sc15  1  0.670291  0.827742  0.124594  1
  Sc  Sc16  1  0.829656  0.327749  0.624578  1
  Sc  Sc17  1  0.329709  0.172258  0.875406  1
  Sc  Sc18  1  0.829626  0.327764  0.875391  1
  Sc  Sc19  1  0.170374  0.672236  0.124609  1
  Ga  Ga20  1  0.030162  0.116301  0.749984  1
  Ga  Ga21  1  0.969838  0.883699  0.250016  1
  Ga  Ga22  1  0.469845  0.616276  0.250001  1
  Ga  Ga23  1  0.530155  0.383724  0.749999  1
  Ga  Ga24  1  0.283126  0.870814  0.749968  1
  Ga  Ga25  1  0.716874  0.129186  0.250032  1
  Ga  Ga26  1  0.216960  0.370839  0.250022  1
  Ga  Ga27  1  0.783040  0.629161  0.749978  1
  Ga  Ga28  1  0.162196  0.465020  0.540531  1
  Ga  Ga29  1  0.837804  0.534980  0.459469  1
  Ga  Ga30  1  0.337809  0.965009  0.459465  1
  Ga  Ga31  1  0.837754  0.535014  0.040539  1
  Ga  Ga32  1  0.662191  0.034991  0.540535  1
  Ga  Ga33  1  0.162246  0.464986  0.959461  1
  Ga  Ga34  1  0.662079  0.035019  0.959481  1
  Ga  Ga35  1  0.337921  0.964981  0.040519  1
