# generated using pymatgen
data_Pm4Te7As
_symmetry_space_group_name_H-M   'P 1'
_cell_length_a   4.40121104
_cell_length_b   8.76274138
_cell_length_c   9.28086527
_cell_angle_alpha   90.00951145
_cell_angle_beta   90.00512088
_cell_angle_gamma   89.38105725
_symmetry_Int_Tables_number   1
_chemical_formula_structural   Pm4Te7As
_chemical_formula_sum   'Pm4 Te7 As1'
_cell_volume   357.91121535
_cell_formula_units_Z   1
loop_
 _symmetry_equiv_pos_site_id
 _symmetry_equiv_pos_as_xyz
  1  'x, y, z'
loop_
 _atom_site_type_symbol
 _atom_site_label
 _atom_site_symmetry_multiplicity
 _atom_site_fract_x
 _atom_site_fract_y
 _atom_site_fract_z
 _atom_site_occupancy
  Pm  Pm0  1  0.251595  0.628429  0.730012  1
  Pm  Pm1  1  0.750256  0.375057  0.265007  1
  Pm  Pm2  1  0.247655  0.121504  0.730108  1
  Pm  Pm3  1  0.750185  0.875060  0.275019  1
  Te  Te4  1  0.250378  0.374889  0.001253  1
  Te  Te5  1  0.749646  0.874933  0.626485  1
  Te  Te6  1  0.249484  0.126317  0.373672  1
  Te  Te7  1  0.250612  0.623897  0.373621  1
  Te  Te8  1  0.743135  0.095079  0.999140  1
  Te  Te9  1  0.749702  0.374931  0.626588  1
  Te  Te10  1  0.757268  0.654979  0.999074  1
  As  As11  1  0.250084  0.874925  0.000022  1
