# generated using pymatgen
data_TbP2Ru2Rh
_symmetry_space_group_name_H-M   'P 1'
_cell_length_a   3.95120500
_cell_length_b   11.25480700
_cell_length_c   12.60371600
_cell_angle_alpha   90.00000000
_cell_angle_beta   90.00000000
_cell_angle_gamma   90.00000000
_symmetry_Int_Tables_number   1
_chemical_formula_structural   TbP2Ru2Rh
_chemical_formula_sum   'Tb6 P12 Ru12 Rh6'
_cell_volume   560.48787683
_cell_formula_units_Z   6
loop_
 _symmetry_equiv_pos_site_id
 _symmetry_equiv_pos_as_xyz
  1  'x, y, z'
loop_
 _atom_site_type_symbol
 _atom_site_label
 _atom_site_symmetry_multiplicity
 _atom_site_fract_x
 _atom_site_fract_y
 _atom_site_fract_z
 _atom_site_occupancy
  Tb  Tb0  1  0.000000  0.500000  0.522780  1
  Tb  Tb1  1  0.500000  0.000000  0.477220  1
  Tb  Tb2  1  0.500000  0.819625  0.204473  1
  Tb  Tb3  1  0.500000  0.180375  0.204473  1
  Tb  Tb4  1  0.000000  0.680375  0.795527  1
  Tb  Tb5  1  0.000000  0.319625  0.795527  1
  P  P6  1  0.500000  0.500000  0.882549  1
  P  P7  1  0.000000  0.000000  0.117451  1
  P  P8  1  0.500000  0.500000  0.345123  1
  P  P9  1  0.000000  0.000000  0.654877  1
  P  P10  1  0.500000  0.306655  0.615070  1
  P  P11  1  0.500000  0.693345  0.615070  1
  P  P12  1  0.000000  0.193345  0.384930  1
  P  P13  1  0.000000  0.806655  0.384930  1
  P  P14  1  0.500000  0.844151  0.896244  1
  P  P15  1  0.500000  0.155849  0.896244  1
  P  P16  1  0.000000  0.655849  0.103756  1
  P  P17  1  0.000000  0.344151  0.103756  1
  Ru  Ru18  1  0.500000  0.500000  0.158701  1
  Ru  Ru19  1  0.000000  0.000000  0.841299  1
  Ru  Ru20  1  0.000000  0.500000  0.988147  1
  Ru  Ru21  1  0.500000  0.000000  0.011853  1
  Ru  Ru22  1  0.500000  0.332696  0.991723  1
  Ru  Ru23  1  0.500000  0.667304  0.991723  1
  Ru  Ru24  1  0.000000  0.167304  0.008277  1
  Ru  Ru25  1  0.000000  0.832696  0.008277  1
  Ru  Ru26  1  0.500000  0.297337  0.428324  1
  Ru  Ru27  1  0.500000  0.702663  0.428324  1
  Ru  Ru28  1  0.000000  0.202663  0.571676  1
  Ru  Ru29  1  0.000000  0.797337  0.571676  1
  Rh  Rh30  1  0.500000  0.500000  0.696501  1
  Rh  Rh31  1  0.000000  0.000000  0.303499  1
  Rh  Rh32  1  0.500000  0.876090  0.714855  1
  Rh  Rh33  1  0.500000  0.123910  0.714855  1
  Rh  Rh34  1  0.000000  0.623910  0.285145  1
  Rh  Rh35  1  0.000000  0.376090  0.285145  1
