# generated using pymatgen
data_K5DyO4
_symmetry_space_group_name_H-M   'P 1'
_cell_length_a   6.33594000
_cell_length_b   8.32008200
_cell_length_c   8.71125200
_cell_angle_alpha   90.00000000
_cell_angle_beta   90.00000000
_cell_angle_gamma   90.00000000
_symmetry_Int_Tables_number   1
_chemical_formula_structural   K5DyO4
_chemical_formula_sum   'K10 Dy2 O8'
_cell_volume   459.21835628
_cell_formula_units_Z   2
loop_
 _symmetry_equiv_pos_site_id
 _symmetry_equiv_pos_as_xyz
  1  'x, y, z'
loop_
 _atom_site_type_symbol
 _atom_site_label
 _atom_site_symmetry_multiplicity
 _atom_site_fract_x
 _atom_site_fract_y
 _atom_site_fract_z
 _atom_site_occupancy
  K  K0  1  0.257357  0.763113  0.810387  1
  K  K1  1  0.257357  0.236887  0.810387  1
  K  K2  1  0.814951  0.500000  0.000000  1
  K  K3  1  0.257357  0.763113  0.189613  1
  K  K4  1  0.257357  0.236887  0.189613  1
  K  K5  1  0.742643  0.736887  0.310387  1
  K  K6  1  0.742643  0.263113  0.310387  1
  K  K7  1  0.185049  0.000000  0.500000  1
  K  K8  1  0.742643  0.736887  0.689613  1
  K  K9  1  0.742643  0.263113  0.689613  1
  Dy  Dy10  1  0.780957  0.000000  0.000000  1
  Dy  Dy11  1  0.219043  0.500000  0.500000  1
  O  O12  1  0.967105  0.000000  0.788957  1
  O  O13  1  0.598435  0.779467  0.000000  1
  O  O14  1  0.598435  0.220533  0.000000  1
  O  O15  1  0.967105  0.000000  0.211043  1
  O  O16  1  0.032895  0.500000  0.288957  1
  O  O17  1  0.401565  0.720533  0.500000  1
  O  O18  1  0.401565  0.279467  0.500000  1
  O  O19  1  0.032895  0.500000  0.711043  1
