# generated using pymatgen
data_Zr5TiTe8
_symmetry_space_group_name_H-M   'P 1'
_cell_length_a   11.06348072
_cell_length_b   11.01806376
_cell_length_c   3.95463900
_cell_angle_alpha   90.00000000
_cell_angle_beta   90.00000000
_cell_angle_gamma   119.27496726
_symmetry_Int_Tables_number   1
_chemical_formula_structural   Zr5TiTe8
_chemical_formula_sum   'Zr5 Ti1 Te8'
_cell_volume   420.49546784
_cell_formula_units_Z   1
loop_
 _symmetry_equiv_pos_site_id
 _symmetry_equiv_pos_as_xyz
  1  'x, y, z'
loop_
 _atom_site_type_symbol
 _atom_site_label
 _atom_site_symmetry_multiplicity
 _atom_site_fract_x
 _atom_site_fract_y
 _atom_site_fract_z
 _atom_site_occupancy
  Zr  Zr0  1  0.509054  0.636464  0.750000  1
  Zr  Zr1  1  0.874678  0.506931  0.250000  1
  Zr  Zr2  1  0.634741  0.129169  0.250000  1
  Zr  Zr3  1  0.362848  0.877010  0.750000  1
  Zr  Zr4  1  0.125684  0.486516  0.750000  1
  Ti  Ti5  1  0.494180  0.365641  0.250000  1
  Te  Te6  1  0.653685  0.945814  0.750000  1
  Te  Te7  1  0.703621  0.646657  0.250000  1
  Te  Te8  1  0.945722  0.284733  0.250000  1
  Te  Te9  1  0.053366  0.708812  0.750000  1
  Te  Te10  1  0.303632  0.346117  0.750000  1
  Te  Te11  1  0.346279  0.063106  0.250000  1
  Te  Te12  1  0.330762  0.666569  0.250000  1
  Te  Te13  1  0.661745  0.336459  0.750000  1
