# generated using pymatgen
data_Li4La3Pb4
_symmetry_space_group_name_H-M   'P 1'
_cell_length_a   4.84475608
_cell_length_b   7.45141832
_cell_length_c   9.14273637
_cell_angle_alpha   114.04818891
_cell_angle_beta   105.36406588
_cell_angle_gamma   89.99998914
_symmetry_Int_Tables_number   1
_chemical_formula_structural   Li4La3Pb4
_chemical_formula_sum   'Li4 La3 Pb4'
_cell_volume   288.44299492
_cell_formula_units_Z   1
loop_
 _symmetry_equiv_pos_site_id
 _symmetry_equiv_pos_as_xyz
  1  'x, y, z'
loop_
 _atom_site_type_symbol
 _atom_site_label
 _atom_site_symmetry_multiplicity
 _atom_site_fract_x
 _atom_site_fract_y
 _atom_site_fract_z
 _atom_site_occupancy
  Li  Li0  1  0.671294  0.981498  0.342586  1
  Li  Li1  1  0.328706  0.018502  0.657414  1
  Li  Li2  1  0.328706  0.638913  0.657414  1
  Li  Li3  1  0.671294  0.361087  0.342586  1
  La  La4  1  0.000000  0.000000  0.000000  1
  La  La5  1  0.131519  0.631519  0.263037  1
  La  La6  1  0.868481  0.368481  0.736963  1
  Pb  Pb7  1  0.500000  0.701673  0.000000  1
  Pb  Pb8  1  0.500000  0.298327  0.000000  1
  Pb  Pb9  1  0.786601  0.786601  0.573201  1
  Pb  Pb10  1  0.213399  0.213399  0.426799  1
