# generated using pymatgen
data_Li4CdGe2Se7
_symmetry_space_group_name_H-M   'P 1'
_cell_length_a   9.77648350
_cell_length_b   9.77648486
_cell_length_c   10.83983984
_cell_angle_alpha   86.17948745
_cell_angle_beta   86.17946258
_cell_angle_gamma   43.02048984
_symmetry_Int_Tables_number   1
_chemical_formula_structural   Li4CdGe2Se7
_chemical_formula_sum   'Li8 Cd2 Ge4 Se14'
_cell_volume   705.05240556
_cell_formula_units_Z   2
loop_
 _symmetry_equiv_pos_site_id
 _symmetry_equiv_pos_as_xyz
  1  'x, y, z'
loop_
 _atom_site_type_symbol
 _atom_site_label
 _atom_site_symmetry_multiplicity
 _atom_site_fract_x
 _atom_site_fract_y
 _atom_site_fract_z
 _atom_site_occupancy
  Li  Li0  1  0.558750  0.278439  0.292827  1
  Li  Li1  1  0.278438  0.558750  0.792828  1
  Li  Li2  1  0.023647  0.677563  0.137100  1
  Li  Li3  1  0.677563  0.023646  0.637100  1
  Li  Li4  1  0.978843  0.307723  0.218128  1
  Li  Li5  1  0.307722  0.978844  0.718128  1
  Li  Li6  1  0.898722  0.527576  0.855122  1
  Li  Li7  1  0.527576  0.898723  0.355122  1
  Cd  Cd8  1  0.814114  0.172294  0.944012  1
  Cd  Cd9  1  0.172294  0.814114  0.444013  1
  Ge  Ge10  1  0.449091  0.114372  0.019502  1
  Ge  Ge11  1  0.114370  0.449093  0.519502  1
  Ge  Ge12  1  0.397286  0.743513  0.079838  1
  Ge  Ge13  1  0.743513  0.397286  0.579838  1
  Se  Se14  1  0.511119  0.844897  0.928080  1
  Se  Se15  1  0.844897  0.511119  0.428080  1
  Se  Se16  1  0.674989  0.399672  0.139841  1
  Se  Se17  1  0.399672  0.674990  0.639841  1
  Se  Se18  1  0.271788  0.933341  0.261063  1
  Se  Se19  1  0.933341  0.271788  0.761062  1
  Se  Se20  1  0.156003  0.782123  0.987638  1
  Se  Se21  1  0.782122  0.156002  0.487637  1
  Se  Se22  1  0.654449  0.983790  0.190522  1
  Se  Se23  1  0.983791  0.654448  0.690522  1
  Se  Se24  1  0.099746  0.393028  0.050050  1
  Se  Se25  1  0.393028  0.099744  0.550050  1
  Se  Se26  1  0.563019  0.183823  0.849298  1
  Se  Se27  1  0.183823  0.563019  0.349298  1
