# generated using pymatgen
data_Ac11La(Si2Ni)4
_symmetry_space_group_name_H-M   'P 1'
_cell_length_a   4.42503300
_cell_length_b   12.40531999
_cell_length_c   12.32397852
_cell_angle_alpha   90.33152497
_cell_angle_beta   90.00000000
_cell_angle_gamma   90.00000000
_symmetry_Int_Tables_number   1
_chemical_formula_structural   Ac11La(Si2Ni)4
_chemical_formula_sum   'Ac11 La1 Si8 Ni4'
_cell_volume   676.50053982
_cell_formula_units_Z   1
loop_
 _symmetry_equiv_pos_site_id
 _symmetry_equiv_pos_as_xyz
  1  'x, y, z'
loop_
 _atom_site_type_symbol
 _atom_site_label
 _atom_site_symmetry_multiplicity
 _atom_site_fract_x
 _atom_site_fract_y
 _atom_site_fract_z
 _atom_site_occupancy
  Ac  Ac0  1  0.250000  0.371547  0.558614  1
  Ac  Ac1  1  0.750000  0.556310  0.116580  1
  Ac  Ac2  1  0.750000  0.195870  0.787653  1
  Ac  Ac3  1  0.250000  0.693785  0.709469  1
  Ac  Ac4  1  0.750000  0.624276  0.438012  1
  Ac  Ac5  1  0.750000  0.876357  0.937922  1
  Ac  Ac6  1  0.250000  0.813843  0.209469  1
  Ac  Ac7  1  0.250000  0.445612  0.884777  1
  Ac  Ac8  1  0.750000  0.298658  0.288039  1
  Ac  Ac9  1  0.250000  0.125779  0.062294  1
  Ac  Ac10  1  0.750000  0.941516  0.615207  1
  La  La11  1  0.250000  0.052604  0.390927  1
  Si  Si12  1  0.250000  0.483931  0.298870  1
  Si  Si13  1  0.250000  0.817389  0.462704  1
  Si  Si14  1  0.250000  0.685178  0.965536  1
  Si  Si15  1  0.750000  0.999866  0.212575  1
  Si  Si16  1  0.750000  0.509758  0.700573  1
  Si  Si17  1  0.250000  0.011896  0.797491  1
  Si  Si18  1  0.750000  0.179471  0.532452  1
  Si  Si19  1  0.750000  0.315935  0.033623  1
  Ni  Ni20  1  0.250000  0.129563  0.624987  1
  Ni  Ni21  1  0.750000  0.869331  0.374082  1
  Ni  Ni22  1  0.250000  0.366300  0.126455  1
  Ni  Ni23  1  0.750000  0.635221  0.871687  1
