# generated using pymatgen
data_HoTm11(ThSn2)8
_symmetry_space_group_name_H-M   'P 1'
_cell_length_a   8.09411908
_cell_length_b   8.17355506
_cell_length_c   15.43579104
_cell_angle_alpha   89.99791197
_cell_angle_beta   89.99167658
_cell_angle_gamma   89.98582708
_symmetry_Int_Tables_number   1
_chemical_formula_structural   HoTm11(ThSn2)8
_chemical_formula_sum   'Ho1 Tm11 Th8 Sn16'
_cell_volume   1021.19682293
_cell_formula_units_Z   1
loop_
 _symmetry_equiv_pos_site_id
 _symmetry_equiv_pos_as_xyz
  1  'x, y, z'
loop_
 _atom_site_type_symbol
 _atom_site_label
 _atom_site_symmetry_multiplicity
 _atom_site_fract_x
 _atom_site_fract_y
 _atom_site_fract_z
 _atom_site_occupancy
  Ho  Ho0  1  0.361950  0.837358  0.875907  1
  Tm  Tm1  1  0.861920  0.662560  0.624203  1
  Tm  Tm2  1  0.638087  0.162578  0.375760  1
  Tm  Tm3  1  0.138093  0.337395  0.124293  1
  Tm  Tm4  1  0.638070  0.162546  0.124208  1
  Tm  Tm5  1  0.138092  0.337413  0.375755  1
  Tm  Tm6  1  0.361881  0.837439  0.624174  1
  Tm  Tm7  1  0.861889  0.662609  0.875752  1
  Tm  Tm8  1  0.191367  0.498555  0.749926  1
  Tm  Tm9  1  0.691615  0.001407  0.749920  1
  Tm  Tm10  1  0.808541  0.501299  0.250002  1
  Tm  Tm11  1  0.308553  0.998705  0.250016  1
  Th  Th12  1  0.519500  0.321144  0.904005  1
  Th  Th13  1  0.019460  0.178925  0.595980  1
  Th  Th14  1  0.480464  0.678892  0.403968  1
  Th  Th15  1  0.980533  0.821133  0.096002  1
  Th  Th16  1  0.480536  0.678822  0.096152  1
  Th  Th17  1  0.980496  0.821111  0.403982  1
  Th  Th18  1  0.519562  0.321118  0.595983  1
  Th  Th19  1  0.019452  0.178961  0.904013  1
  Sn  Sn20  1  0.299107  0.040702  0.042782  1
  Sn  Sn21  1  0.799190  0.459560  0.457475  1
  Sn  Sn22  1  0.700797  0.959537  0.542509  1
  Sn  Sn23  1  0.200527  0.539896  0.957603  1
  Sn  Sn24  1  0.701298  0.959748  0.957581  1
  Sn  Sn25  1  0.200829  0.540430  0.542508  1
  Sn  Sn26  1  0.299173  0.040445  0.457481  1
  Sn  Sn27  1  0.799219  0.459560  0.042524  1
  Sn  Sn28  1  0.557776  0.623654  0.749788  1
  Sn  Sn29  1  0.057213  0.876088  0.749852  1
  Sn  Sn30  1  0.442476  0.376043  0.250005  1
  Sn  Sn31  1  0.942484  0.123970  0.250023  1
  Sn  Sn32  1  0.326489  0.143075  0.749860  1
  Sn  Sn33  1  0.826496  0.357272  0.750001  1
  Sn  Sn34  1  0.673424  0.857267  0.250007  1
  Sn  Sn35  1  0.173442  0.642785  0.249998  1
