# generated using pymatgen
data_La4Sb8Ir4PtRh
_symmetry_space_group_name_H-M   'P 1'
_cell_length_a   4.61785800
_cell_length_b   11.23250800
_cell_length_c   16.40880400
_cell_angle_alpha   90.00000000
_cell_angle_beta   90.00000000
_cell_angle_gamma   90.00000000
_symmetry_Int_Tables_number   1
_chemical_formula_structural   La4Sb8Ir4PtRh
_chemical_formula_sum   'La8 Sb16 Ir8 Pt2 Rh2'
_cell_volume   851.12674621
_cell_formula_units_Z   2
loop_
 _symmetry_equiv_pos_site_id
 _symmetry_equiv_pos_as_xyz
  1  'x, y, z'
loop_
 _atom_site_type_symbol
 _atom_site_label
 _atom_site_symmetry_multiplicity
 _atom_site_fract_x
 _atom_site_fract_y
 _atom_site_fract_z
 _atom_site_occupancy
  La  La0  1  0.250000  0.746960  0.505601  1
  La  La1  1  0.250000  0.753040  0.005601  1
  La  La2  1  0.750000  0.252529  0.495177  1
  La  La3  1  0.750000  0.247471  0.995177  1
  La  La4  1  0.250000  0.588104  0.750823  1
  La  La5  1  0.250000  0.911896  0.250823  1
  La  La6  1  0.750000  0.411730  0.248682  1
  La  La7  1  0.750000  0.088270  0.748682  1
  Sb  Sb8  1  0.250000  0.274143  0.650262  1
  Sb  Sb9  1  0.250000  0.225857  0.150262  1
  Sb  Sb10  1  0.750000  0.730551  0.348072  1
  Sb  Sb11  1  0.750000  0.769449  0.848072  1
  Sb  Sb12  1  0.250000  0.886026  0.710112  1
  Sb  Sb13  1  0.250000  0.613974  0.210112  1
  Sb  Sb14  1  0.750000  0.113982  0.289580  1
  Sb  Sb15  1  0.750000  0.386018  0.789580  1
  Sb  Sb16  1  0.250000  0.071249  0.897187  1
  Sb  Sb17  1  0.250000  0.428751  0.397187  1
  Sb  Sb18  1  0.750000  0.935290  0.105211  1
  Sb  Sb19  1  0.750000  0.564710  0.605211  1
  Sb  Sb20  1  0.250000  0.446831  0.932562  1
  Sb  Sb21  1  0.250000  0.053169  0.432562  1
  Sb  Sb22  1  0.750000  0.552581  0.067984  1
  Sb  Sb23  1  0.750000  0.947419  0.567984  1
  Ir  Ir24  1  0.250000  0.055406  0.593388  1
  Ir  Ir25  1  0.250000  0.444594  0.093388  1
  Ir  Ir26  1  0.750000  0.946447  0.407308  1
  Ir  Ir27  1  0.750000  0.553553  0.907308  1
  Ir  Ir28  1  0.250000  0.278076  0.817952  1
  Ir  Ir29  1  0.250000  0.221924  0.317952  1
  Ir  Ir30  1  0.750000  0.722829  0.181095  1
  Ir  Ir31  1  0.750000  0.777171  0.681095  1
  Pt  Pt32  1  0.750000  0.536091  0.442119  1
  Pt  Pt33  1  0.750000  0.963909  0.942119  1
  Rh  Rh34  1  0.250000  0.465824  0.556884  1
  Rh  Rh35  1  0.250000  0.034176  0.056884  1
