# generated using pymatgen
data_TaBi2OsO8
_symmetry_space_group_name_H-M   'P 1'
_cell_length_a   5.56188365
_cell_length_b   7.83986937
_cell_length_c   7.81037226
_cell_angle_alpha   103.87758515
_cell_angle_beta   89.94505161
_cell_angle_gamma   91.64736988
_symmetry_Int_Tables_number   1
_chemical_formula_structural   TaBi2OsO8
_chemical_formula_sum   'Ta2 Bi4 Os2 O16'
_cell_volume   330.48306707
_cell_formula_units_Z   2
loop_
 _symmetry_equiv_pos_site_id
 _symmetry_equiv_pos_as_xyz
  1  'x, y, z'
loop_
 _atom_site_type_symbol
 _atom_site_label
 _atom_site_symmetry_multiplicity
 _atom_site_fract_x
 _atom_site_fract_y
 _atom_site_fract_z
 _atom_site_occupancy
  Ta  Ta0  1  0.736731  0.838290  0.705054  1
  Ta  Ta1  1  0.255675  0.169466  0.795764  1
  Bi  Bi2  1  0.280312  0.614227  0.406822  1
  Bi  Bi3  1  0.216528  0.666411  0.902660  1
  Bi  Bi4  1  0.741632  0.369226  0.604089  1
  Bi  Bi5  1  0.777951  0.386790  0.096728  1
  Os  Os6  1  0.742175  0.835255  0.207589  1
  Os  Os7  1  0.254348  0.163960  0.293282  1
  O  O8  1  0.485418  0.989506  0.233180  1
  O  O9  1  0.504168  0.599526  0.670555  1
  O  O10  1  0.044374  0.368363  0.357524  1
  O  O11  1  0.688919  0.806143  0.450367  1
  O  O12  1  0.308408  0.183093  0.547897  1
  O  O13  1  0.796492  0.826223  0.952892  1
  O  O14  1  0.051319  0.400371  0.841589  1
  O  O15  1  0.547849  0.318898  0.846627  1
  O  O16  1  0.422245  0.945628  0.762663  1
  O  O17  1  0.935728  0.043865  0.725529  1
  O  O18  1  0.507707  0.360866  0.326173  1
  O  O19  1  0.211957  0.179365  0.045482  1
  O  O20  1  0.992099  0.650441  0.175664  1
  O  O21  1  0.985403  0.010606  0.272967  1
  O  O22  1  0.988041  0.649740  0.648528  1
  O  O23  1  0.524521  0.623744  0.130375  1
