# generated using pymatgen
data_RbScTe3O8
_symmetry_space_group_name_H-M   'P 1'
_cell_length_a   5.82721967
_cell_length_b   7.69316038
_cell_length_c   11.24745726
_cell_angle_alpha   99.94559224
_cell_angle_beta   89.34537633
_cell_angle_gamma   109.19516624
_symmetry_Int_Tables_number   1
_chemical_formula_structural   RbScTe3O8
_chemical_formula_sum   'Rb2 Sc2 Te6 O16'
_cell_volume   468.47390051
_cell_formula_units_Z   2
loop_
 _symmetry_equiv_pos_site_id
 _symmetry_equiv_pos_as_xyz
  1  'x, y, z'
loop_
 _atom_site_type_symbol
 _atom_site_label
 _atom_site_symmetry_multiplicity
 _atom_site_fract_x
 _atom_site_fract_y
 _atom_site_fract_z
 _atom_site_occupancy
  Rb  Rb0  1  0.837122  0.118095  0.167007  1
  Rb  Rb1  1  0.162878  0.881905  0.832993  1
  Sc  Sc2  1  0.500000  0.500000  0.000000  1
  Sc  Sc3  1  0.000000  0.500000  0.500000  1
  Te  Te4  1  0.221941  0.989555  0.417769  1
  Te  Te5  1  0.778059  0.010445  0.582231  1
  Te  Te6  1  0.068111  0.673636  0.148398  1
  Te  Te7  1  0.931889  0.326364  0.851602  1
  Te  Te8  1  0.515970  0.527281  0.335836  1
  Te  Te9  1  0.484030  0.472719  0.664164  1
  O  O10  1  0.178708  0.735807  0.421912  1
  O  O11  1  0.821292  0.264193  0.578088  1
  O  O12  1  0.239335  0.929565  0.228249  1
  O  O13  1  0.760665  0.070435  0.771751  1
  O  O14  1  0.885555  0.965956  0.395601  1
  O  O15  1  0.114445  0.034044  0.604399  1
  O  O16  1  0.271975  0.673976  0.016121  1
  O  O17  1  0.728025  0.326024  0.983879  1
  O  O18  1  0.816450  0.728790  0.075148  1
  O  O19  1  0.183550  0.271210  0.924852  1
  O  O20  1  0.399851  0.433754  0.172295  1
  O  O21  1  0.600149  0.566246  0.827705  1
  O  O22  1  0.245619  0.371648  0.409035  1
  O  O23  1  0.754381  0.628352  0.590965  1
  O  O24  1  0.737561  0.397099  0.348350  1
  O  O25  1  0.262439  0.602901  0.651650  1
