# generated using pymatgen
data_Ta3Ti8NbSn4
_symmetry_space_group_name_H-M   'P 1'
_cell_length_a   7.49678027
_cell_length_b   7.49792074
_cell_length_c   6.28424930
_cell_angle_alpha   65.17301263
_cell_angle_beta   65.16047164
_cell_angle_gamma   80.95551522
_symmetry_Int_Tables_number   1
_chemical_formula_structural   Ta3Ti8NbSn4
_chemical_formula_sum   'Ta3 Ti8 Nb1 Sn4'
_cell_volume   290.85523640
_cell_formula_units_Z   1
loop_
 _symmetry_equiv_pos_site_id
 _symmetry_equiv_pos_as_xyz
  1  'x, y, z'
loop_
 _atom_site_type_symbol
 _atom_site_label
 _atom_site_symmetry_multiplicity
 _atom_site_fract_x
 _atom_site_fract_y
 _atom_site_fract_z
 _atom_site_occupancy
  Ta  Ta0  1  0.006043  0.243133  0.125677  1
  Ta  Ta1  1  0.494284  0.255618  0.375032  1
  Ta  Ta2  1  0.506757  0.744057  0.624392  1
  Ti  Ti3  1  0.227665  0.523097  0.124436  1
  Ti  Ti4  1  0.726999  0.022160  0.123631  1
  Ti  Ti5  1  0.772834  0.478203  0.375717  1
  Ti  Ti6  1  0.271862  0.977348  0.374138  1
  Ti  Ti7  1  0.727787  0.022860  0.626417  1
  Ti  Ti8  1  0.226733  0.522266  0.625614  1
  Ti  Ti9  1  0.273012  0.978160  0.875826  1
  Ti  Ti10  1  0.771882  0.477165  0.874141  1
  Nb  Nb11  1  0.994275  0.755825  0.874949  1
  Sn  Sn12  1  0.531405  0.717705  0.125497  1
  Sn  Sn13  1  0.968130  0.782016  0.374871  1
  Sn  Sn14  1  0.032237  0.218369  0.624791  1
  Sn  Sn15  1  0.468096  0.282021  0.874865  1
