# generated using pymatgen
data_La3Nd3SmP12Pd17
_symmetry_space_group_name_H-M   'P 1'
_cell_length_a   12.44986050
_cell_length_b   12.44985979
_cell_length_c   13.69453723
_cell_angle_alpha   68.14436309
_cell_angle_beta   68.14436408
_cell_angle_gamma   18.95361816
_symmetry_Int_Tables_number   1
_chemical_formula_structural   La3Nd3SmP12Pd17
_chemical_formula_sum   'La3 Nd3 Sm1 P12 Pd17'
_cell_volume   638.44956485
_cell_formula_units_Z   1
loop_
 _symmetry_equiv_pos_site_id
 _symmetry_equiv_pos_as_xyz
  1  'x, y, z'
loop_
 _atom_site_type_symbol
 _atom_site_label
 _atom_site_symmetry_multiplicity
 _atom_site_fract_x
 _atom_site_fract_y
 _atom_site_fract_z
 _atom_site_occupancy
  La  La0  1  0.499982  0.499982  0.500009  1
  La  La1  1  0.417555  0.417555  0.261582  1
  La  La2  1  0.582468  0.582468  0.738453  1
  Nd  Nd3  1  0.364780  0.364780  0.999936  1
  Nd  Nd4  1  0.635244  0.635244  0.999979  1
  Nd  Nd5  1  0.233282  0.233282  0.314240  1
  Sm  Sm6  1  0.766889  0.766889  0.685521  1
  P  P7  1  0.061152  0.061152  0.926744  1
  P  P8  1  0.938904  0.938904  0.073200  1
  P  P9  1  0.886686  0.886686  0.828539  1
  P  P10  1  0.113339  0.113339  0.171493  1
  P  P11  1  0.189269  0.189269  0.619967  1
  P  P12  1  0.810987  0.810987  0.380195  1
  P  P13  1  0.363306  0.363306  0.581114  1
  P  P14  1  0.636341  0.636341  0.419336  1
  P  P15  1  0.010551  0.010551  0.670903  1
  P  P16  1  0.989429  0.989429  0.329123  1
  P  P17  1  0.232684  0.232684  0.882418  1
  P  P18  1  0.767370  0.767370  0.117153  1
  Pd  Pd19  1  0.838360  0.838360  0.193104  1
  Pd  Pd20  1  0.161935  0.161935  0.806557  1
  Pd  Pd21  1  0.026664  0.026664  0.123829  1
  Pd  Pd22  1  0.973349  0.973349  0.876160  1
  Pd  Pd23  1  0.889365  0.889365  0.458925  1
  Pd  Pd24  1  0.110589  0.110589  0.541122  1
  Pd  Pd25  1  0.499999  0.499999  0.000014  1
  Pd  Pd26  1  0.547868  0.547868  0.252129  1
  Pd  Pd27  1  0.452103  0.452103  0.747885  1
  Pd  Pd28  1  0.295986  0.295986  0.489069  1
  Pd  Pd29  1  0.703993  0.703993  0.511749  1
  Pd  Pd30  1  0.667180  0.667180  0.222656  1
  Pd  Pd31  1  0.332549  0.332549  0.776904  1
  Pd  Pd32  1  0.906374  0.906374  0.645615  1
  Pd  Pd33  1  0.093464  0.093464  0.354475  1
  Pd  Pd34  1  0.217448  0.217448  0.069704  1
  Pd  Pd35  1  0.782555  0.782555  0.930198  1
