# generated using pymatgen
data_YTm(PaPt6)2
_symmetry_space_group_name_H-M   'P 1'
_cell_length_a   5.80261600
_cell_length_b   5.80261648
_cell_length_c   9.69467300
_cell_angle_alpha   90.00000000
_cell_angle_beta   90.00000000
_cell_angle_gamma   119.99998584
_symmetry_Int_Tables_number   1
_chemical_formula_structural   YTm(PaPt6)2
_chemical_formula_sum   'Y1 Tm1 Pa2 Pt12'
_cell_volume   282.69072339
_cell_formula_units_Z   1
loop_
 _symmetry_equiv_pos_site_id
 _symmetry_equiv_pos_as_xyz
  1  'x, y, z'
loop_
 _atom_site_type_symbol
 _atom_site_label
 _atom_site_symmetry_multiplicity
 _atom_site_fract_x
 _atom_site_fract_y
 _atom_site_fract_z
 _atom_site_occupancy
  Y  Y0  1  0.000000  0.000000  0.500000  1
  Tm  Tm1  1  0.000000  0.000000  0.000000  1
  Pa  Pa2  1  0.333333  0.666667  0.250416  1
  Pa  Pa3  1  0.666667  0.333333  0.749584  1
  Pt  Pt4  1  0.500000  0.500000  0.500000  1
  Pt  Pt5  1  0.500000  0.000000  0.500000  1
  Pt  Pt6  1  0.000000  0.500000  0.500000  1
  Pt  Pt7  1  0.500000  0.500000  0.000000  1
  Pt  Pt8  1  0.500000  0.000000  0.000000  1
  Pt  Pt9  1  0.000000  0.500000  0.000000  1
  Pt  Pt10  1  0.827730  0.655458  0.247547  1
  Pt  Pt11  1  0.344542  0.172270  0.247547  1
  Pt  Pt12  1  0.827730  0.172270  0.247547  1
  Pt  Pt13  1  0.172270  0.344542  0.752453  1
  Pt  Pt14  1  0.655458  0.827730  0.752453  1
  Pt  Pt15  1  0.172270  0.827730  0.752453  1
