# generated using pymatgen
data_EuMo2(P2O7)2
_symmetry_space_group_name_H-M   'P 1'
_cell_length_a   5.08985643
_cell_length_b   7.23512235
_cell_length_c   8.40861099
_cell_angle_alpha   91.07285369
_cell_angle_beta   93.12766035
_cell_angle_gamma   105.64124810
_symmetry_Int_Tables_number   1
_chemical_formula_structural   EuMo2(P2O7)2
_chemical_formula_sum   'Eu1 Mo2 P4 O14'
_cell_volume   297.56220023
_cell_formula_units_Z   1
loop_
 _symmetry_equiv_pos_site_id
 _symmetry_equiv_pos_as_xyz
  1  'x, y, z'
loop_
 _atom_site_type_symbol
 _atom_site_label
 _atom_site_symmetry_multiplicity
 _atom_site_fract_x
 _atom_site_fract_y
 _atom_site_fract_z
 _atom_site_occupancy
  Eu  Eu0  1  0.642701  0.996998  0.006687  1
  Mo  Mo1  1  0.497093  0.000972  0.502611  1
  Mo  Mo2  1  0.998680  0.504280  0.999883  1
  P  P3  1  0.484785  0.377691  0.242845  1
  P  P4  1  0.508339  0.618367  0.757028  1
  P  P5  1  0.873481  0.765717  0.298772  1
  P  P6  1  0.123678  0.230571  0.704717  1
  O  O7  1  0.676770  0.896308  0.298760  1
  O  O8  1  0.327794  0.107995  0.707858  1
  O  O9  1  0.893384  0.176095  0.578204  1
  O  O10  1  0.107790  0.816328  0.422195  1
  O  O11  1  0.238112  0.448229  0.195939  1
  O  O12  1  0.756711  0.548746  0.801301  1
  O  O13  1  0.025656  0.240057  0.877540  1
  O  O14  1  0.951771  0.762290  0.121437  1
  O  O15  1  0.282918  0.449074  0.661377  1
  O  O16  1  0.706550  0.550541  0.340863  1
  O  O17  1  0.632270  0.326369  0.096790  1
  O  O18  1  0.370159  0.671954  0.906483  1
  O  O19  1  0.583561  0.792321  0.655113  1
  O  O20  1  0.412697  0.209299  0.349898  1
