# generated using pymatgen
data_NbGa8Ru9
_symmetry_space_group_name_H-M   'P 1'
_cell_length_a   7.45559850
_cell_length_b   7.45559886
_cell_length_c   5.29576324
_cell_angle_alpha   90.03855017
_cell_angle_beta   90.03854710
_cell_angle_gamma   119.98190005
_symmetry_Int_Tables_number   1
_chemical_formula_structural   NbGa8Ru9
_chemical_formula_sum   'Nb1 Ga8 Ru9'
_cell_volume   254.97818523
_cell_formula_units_Z   1
loop_
 _symmetry_equiv_pos_site_id
 _symmetry_equiv_pos_as_xyz
  1  'x, y, z'
loop_
 _atom_site_type_symbol
 _atom_site_label
 _atom_site_symmetry_multiplicity
 _atom_site_fract_x
 _atom_site_fract_y
 _atom_site_fract_z
 _atom_site_occupancy
  Nb  Nb0  1  0.667169  0.667169  0.892518  1
  Ga  Ga1  1  0.665774  0.994779  0.221334  1
  Ga  Ga2  1  0.339057  0.339056  0.220831  1
  Ga  Ga3  1  0.994779  0.665775  0.221334  1
  Ga  Ga4  1  0.666644  0.338366  0.562427  1
  Ga  Ga5  1  0.338367  0.666645  0.562427  1
  Ga  Ga6  1  0.994973  0.994973  0.565070  1
  Ga  Ga7  1  0.332952  0.999961  0.891687  1
  Ga  Ga8  1  0.999961  0.332951  0.891687  1
  Ru  Ru9  1  0.666752  0.326212  0.063988  1
  Ru  Ru10  1  0.326213  0.666753  0.063988  1
  Ru  Ru11  1  0.007166  0.007166  0.065330  1
  Ru  Ru12  1  0.332855  0.999779  0.391411  1
  Ru  Ru13  1  0.999779  0.332854  0.391411  1
  Ru  Ru14  1  0.667195  0.667195  0.392454  1
  Ru  Ru15  1  0.666561  0.007118  0.719981  1
  Ru  Ru16  1  0.326687  0.326687  0.719980  1
  Ru  Ru17  1  0.007118  0.666561  0.719981  1
