# generated using pymatgen
data_TbEr(ZrPb)2
_symmetry_space_group_name_H-M   'P 1'
_cell_length_a   4.45563900
_cell_length_b   4.45563900
_cell_length_c   8.32379900
_cell_angle_alpha   90.00000000
_cell_angle_beta   90.00000000
_cell_angle_gamma   90.00000000
_symmetry_Int_Tables_number   1
_chemical_formula_structural   TbEr(ZrPb)2
_chemical_formula_sum   'Tb1 Er1 Zr2 Pb2'
_cell_volume   165.25004171
_cell_formula_units_Z   1
loop_
 _symmetry_equiv_pos_site_id
 _symmetry_equiv_pos_as_xyz
  1  'x, y, z'
loop_
 _atom_site_type_symbol
 _atom_site_label
 _atom_site_symmetry_multiplicity
 _atom_site_fract_x
 _atom_site_fract_y
 _atom_site_fract_z
 _atom_site_occupancy
  Tb  Tb0  1  0.500000  0.000000  0.666230  1
  Er  Er1  1  0.000000  0.500000  0.330469  1
  Zr  Zr2  1  0.000000  0.000000  0.001058  1
  Zr  Zr3  1  0.500000  0.500000  0.001058  1
  Pb  Pb4  1  0.000000  0.500000  0.726475  1
  Pb  Pb5  1  0.500000  0.000000  0.274711  1
