# generated using pymatgen
data_Sc2Ta(TiSi2)2
_symmetry_space_group_name_H-M   'P 1'
_cell_length_a   6.87674800
_cell_length_b   6.87674800
_cell_length_c   12.61756800
_cell_angle_alpha   90.00000000
_cell_angle_beta   90.00000000
_cell_angle_gamma   90.00000000
_symmetry_Int_Tables_number   1
_chemical_formula_structural   Sc2Ta(TiSi2)2
_chemical_formula_sum   'Sc8 Ta4 Ti8 Si16'
_cell_volume   596.68053930
_cell_formula_units_Z   4
loop_
 _symmetry_equiv_pos_site_id
 _symmetry_equiv_pos_as_xyz
  1  'x, y, z'
loop_
 _atom_site_type_symbol
 _atom_site_label
 _atom_site_symmetry_multiplicity
 _atom_site_fract_x
 _atom_site_fract_y
 _atom_site_fract_z
 _atom_site_occupancy
  Sc  Sc0  1  0.001649  0.660417  0.032151  1
  Sc  Sc1  1  0.998351  0.339583  0.532151  1
  Sc  Sc2  1  0.339583  0.998351  0.467849  1
  Sc  Sc3  1  0.160417  0.498351  0.782151  1
  Sc  Sc4  1  0.839583  0.501649  0.282151  1
  Sc  Sc5  1  0.498351  0.160417  0.217849  1
  Sc  Sc6  1  0.501649  0.839583  0.717849  1
  Sc  Sc7  1  0.660417  0.001649  0.967849  1
  Ta  Ta8  1  0.670546  0.670546  0.500000  1
  Ta  Ta9  1  0.170546  0.829454  0.250000  1
  Ta  Ta10  1  0.329454  0.329454  0.000000  1
  Ta  Ta11  1  0.829454  0.170546  0.750000  1
  Ti  Ti12  1  0.992810  0.848018  0.626263  1
  Ti  Ti13  1  0.007190  0.151982  0.126263  1
  Ti  Ti14  1  0.848018  0.992810  0.373737  1
  Ti  Ti15  1  0.348018  0.507190  0.376263  1
  Ti  Ti16  1  0.651982  0.492810  0.876263  1
  Ti  Ti17  1  0.507190  0.348018  0.623737  1
  Ti  Ti18  1  0.492810  0.651982  0.123737  1
  Ti  Ti19  1  0.151982  0.007190  0.873737  1
  Si  Si20  1  0.043500  0.701021  0.436283  1
  Si  Si21  1  0.634691  0.293817  0.428882  1
  Si  Si22  1  0.365309  0.706183  0.928882  1
  Si  Si23  1  0.206183  0.134691  0.678882  1
  Si  Si24  1  0.293817  0.634691  0.571118  1
  Si  Si25  1  0.706183  0.365309  0.071118  1
  Si  Si26  1  0.793817  0.865309  0.178882  1
  Si  Si27  1  0.134691  0.206183  0.321118  1
  Si  Si28  1  0.956500  0.298979  0.936283  1
  Si  Si29  1  0.701021  0.043500  0.563717  1
  Si  Si30  1  0.201021  0.456500  0.186283  1
  Si  Si31  1  0.798979  0.543500  0.686283  1
  Si  Si32  1  0.456500  0.201021  0.813717  1
  Si  Si33  1  0.543500  0.798979  0.313717  1
  Si  Si34  1  0.298979  0.956500  0.063717  1
  Si  Si35  1  0.865309  0.793817  0.821118  1
