# generated using pymatgen
data_LaPrPd2F14
_symmetry_space_group_name_H-M   'P 1'
_cell_length_a   5.69703800
_cell_length_b   9.21709122
_cell_length_c   12.34064075
_cell_angle_alpha   61.98459318
_cell_angle_beta   90.00000000
_cell_angle_gamma   90.00000000
_symmetry_Int_Tables_number   1
_chemical_formula_structural   LaPrPd2F14
_chemical_formula_sum   'La2 Pr2 Pd4 F28'
_cell_volume   572.07573156
_cell_formula_units_Z   2
loop_
 _symmetry_equiv_pos_site_id
 _symmetry_equiv_pos_as_xyz
  1  'x, y, z'
loop_
 _atom_site_type_symbol
 _atom_site_label
 _atom_site_symmetry_multiplicity
 _atom_site_fract_x
 _atom_site_fract_y
 _atom_site_fract_z
 _atom_site_occupancy
  La  La0  1  0.760602  0.809311  0.764693  1
  La  La1  1  0.260602  0.190689  0.735307  1
  Pr  Pr2  1  0.239201  0.189842  0.235428  1
  Pr  Pr3  1  0.739201  0.810158  0.264572  1
  Pd  Pd4  1  0.756211  0.271943  0.959452  1
  Pd  Pd5  1  0.256211  0.728057  0.540548  1
  Pd  Pd6  1  0.243148  0.725742  0.044631  1
  Pd  Pd7  1  0.743148  0.274258  0.455369  1
  F  F8  1  0.428873  0.706102  0.919890  1
  F  F9  1  0.928873  0.293898  0.580110  1
  F  F10  1  0.570250  0.293000  0.083673  1
  F  F11  1  0.070250  0.707000  0.416327  1
  F  F12  1  0.453652  0.283035  0.536260  1
  F  F13  1  0.953652  0.716965  0.963740  1
  F  F14  1  0.547469  0.717855  0.460979  1
  F  F15  1  0.047469  0.282145  0.039021  1
  F  F16  1  0.765126  0.510756  0.863763  1
  F  F17  1  0.265126  0.489244  0.636237  1
  F  F18  1  0.233837  0.486560  0.139519  1
  F  F19  1  0.733837  0.513440  0.360481  1
  F  F20  1  0.757226  0.032816  0.048820  1
  F  F21  1  0.257226  0.967184  0.451180  1
  F  F22  1  0.243233  0.964465  0.954262  1
  F  F23  1  0.743233  0.035535  0.545738  1
  F  F24  1  0.970642  0.728802  0.626594  1
  F  F25  1  0.470642  0.271198  0.873406  1
  F  F26  1  0.028619  0.272774  0.369061  1
  F  F27  1  0.528619  0.727226  0.130939  1
  F  F28  1  0.060290  0.740941  0.172420  1
  F  F29  1  0.560290  0.259059  0.327580  1
  F  F30  1  0.937803  0.257545  0.831037  1
  F  F31  1  0.437803  0.742455  0.668963  1
  F  F32  1  0.406530  0.967164  0.230791  1
  F  F33  1  0.906530  0.032836  0.269209  1
  F  F34  1  0.597289  0.034489  0.769178  1
  F  F35  1  0.097289  0.965511  0.730822  1
