# generated using pymatgen
data_Dy8Sc12Ga15Sb
_symmetry_space_group_name_H-M   'P 1'
_cell_length_a   7.29321843
_cell_length_b   7.57465889
_cell_length_c   14.52768219
_cell_angle_alpha   90.10463565
_cell_angle_beta   89.79012155
_cell_angle_gamma   89.91213157
_symmetry_Int_Tables_number   1
_chemical_formula_structural   Dy8Sc12Ga15Sb
_chemical_formula_sum   'Dy8 Sc12 Ga15 Sb1'
_cell_volume   802.55439648
_cell_formula_units_Z   1
loop_
 _symmetry_equiv_pos_site_id
 _symmetry_equiv_pos_as_xyz
  1  'x, y, z'
loop_
 _atom_site_type_symbol
 _atom_site_label
 _atom_site_symmetry_multiplicity
 _atom_site_fract_x
 _atom_site_fract_y
 _atom_site_fract_z
 _atom_site_occupancy
  Dy  Dy0  1  0.011042  0.179748  0.095057  1
  Dy  Dy1  1  0.990029  0.821430  0.905606  1
  Dy  Dy2  1  0.489301  0.677045  0.905906  1
  Dy  Dy3  1  0.987503  0.827100  0.596346  1
  Dy  Dy4  1  0.510902  0.321740  0.094717  1
  Dy  Dy5  1  0.004855  0.174250  0.401362  1
  Dy  Dy6  1  0.511920  0.315914  0.402549  1
  Dy  Dy7  1  0.501313  0.685400  0.598269  1
  Sc  Sc8  1  0.166472  0.502627  0.754284  1
  Sc  Sc9  1  0.834631  0.497552  0.248399  1
  Sc  Sc10  1  0.333817  0.004988  0.249222  1
  Sc  Sc11  1  0.668043  0.998038  0.752456  1
  Sc  Sc12  1  0.338735  0.158920  0.628051  1
  Sc  Sc13  1  0.665522  0.832374  0.373731  1
  Sc  Sc14  1  0.166036  0.679971  0.371294  1
  Sc  Sc15  1  0.668724  0.826722  0.123029  1
  Sc  Sc16  1  0.824038  0.325062  0.625792  1
  Sc  Sc17  1  0.329626  0.173010  0.876747  1
  Sc  Sc18  1  0.831395  0.327015  0.876871  1
  Sc  Sc19  1  0.170311  0.672683  0.123751  1
  Ga  Ga20  1  0.034458  0.118461  0.749301  1
  Ga  Ga21  1  0.964893  0.883288  0.247352  1
  Ga  Ga22  1  0.467013  0.616721  0.250908  1
  Ga  Ga23  1  0.533379  0.381635  0.751341  1
  Ga  Ga24  1  0.287061  0.868492  0.751326  1
  Ga  Ga25  1  0.712542  0.127913  0.248407  1
  Ga  Ga26  1  0.212171  0.373002  0.251121  1
  Ga  Ga27  1  0.789251  0.627962  0.749963  1
  Ga  Ga28  1  0.825751  0.538662  0.457276  1
  Ga  Ga29  1  0.336882  0.964354  0.460236  1
  Ga  Ga30  1  0.839236  0.533688  0.040738  1
  Ga  Ga31  1  0.662418  0.037563  0.538851  1
  Ga  Ga32  1  0.160435  0.465504  0.960023  1
  Ga  Ga33  1  0.659951  0.035616  0.959277  1
  Ga  Ga34  1  0.340063  0.964100  0.040683  1
  Sb  Sb35  1  0.170280  0.461452  0.539757  1
