# generated using pymatgen
data_Dy3Er2Nb2P12Ir17
_symmetry_space_group_name_H-M   'P 1'
_cell_length_a   12.58871300
_cell_length_b   12.78945880
_cell_length_c   4.00111600
_cell_angle_alpha   90.00000000
_cell_angle_beta   90.00000000
_cell_angle_gamma   119.48212095
_symmetry_Int_Tables_number   1
_chemical_formula_structural   Dy3Er2Nb2P12Ir17
_chemical_formula_sum   'Dy3 Er2 Nb2 P12 Ir17'
_cell_volume   560.77425141
_cell_formula_units_Z   1
loop_
 _symmetry_equiv_pos_site_id
 _symmetry_equiv_pos_as_xyz
  1  'x, y, z'
loop_
 _atom_site_type_symbol
 _atom_site_label
 _atom_site_symmetry_multiplicity
 _atom_site_fract_x
 _atom_site_fract_y
 _atom_site_fract_z
 _atom_site_occupancy
  Dy  Dy0  1  0.999321  0.813439  0.000000  1
  Dy  Dy1  1  0.185882  0.186561  0.000000  1
  Dy  Dy2  1  0.814968  0.000000  0.000000  1
  Er  Er3  1  0.330356  0.661304  0.500000  1
  Er  Er4  1  0.669053  0.338696  0.500000  1
  Nb  Nb5  1  0.997362  0.450835  0.500000  1
  Nb  Nb6  1  0.546527  0.549165  0.500000  1
  P  P7  1  0.002846  0.642140  0.500000  1
  P  P8  1  0.360706  0.357860  0.500000  1
  P  P9  1  0.645739  0.000000  0.500000  1
  P  P10  1  0.514209  0.683225  0.000000  1
  P  P11  1  0.308793  0.823436  0.000000  1
  P  P12  1  0.163487  0.480986  0.000000  1
  P  P13  1  0.485357  0.176564  0.000000  1
  P  P14  1  0.682500  0.519014  0.000000  1
  P  P15  1  0.830984  0.316775  0.000000  1
  P  P16  1  0.000208  0.175710  0.500000  1
  P  P17  1  0.824497  0.824290  0.500000  1
  P  P18  1  0.181095  0.000000  0.500000  1
  Ir  Ir19  1  0.505105  0.863456  0.000000  1
  Ir  Ir20  1  0.128161  0.640972  0.000000  1
  Ir  Ir21  1  0.354518  0.493892  0.000000  1
  Ir  Ir22  1  0.487190  0.359028  0.000000  1
  Ir  Ir23  1  0.860629  0.506108  0.000000  1
  Ir  Ir24  1  0.641650  0.136544  0.000000  1
  Ir  Ir25  1  0.464559  0.000000  0.500000  1
  Ir  Ir26  1  0.997314  0.282223  0.000000  1
  Ir  Ir27  1  0.715090  0.717777  0.000000  1
  Ir  Ir28  1  0.291622  0.000000  0.000000  1
  Ir  Ir29  1  0.624239  0.806971  0.500000  1
  Ir  Ir30  1  0.201618  0.823660  0.500000  1
  Ir  Ir31  1  0.177560  0.368666  0.500000  1
  Ir  Ir32  1  0.377958  0.176340  0.500000  1
  Ir  Ir33  1  0.808893  0.631334  0.500000  1
  Ir  Ir34  1  0.817268  0.193029  0.500000  1
  Ir  Ir35  1  0.002735  0.000000  0.500000  1
