# generated using pymatgen
data_DyY11(Zn3C)4
_symmetry_space_group_name_H-M   'P 1'
_cell_length_a   9.18795127
_cell_length_b   9.18877156
_cell_length_c   9.18877103
_cell_angle_alpha   59.99562589
_cell_angle_beta   60.00295302
_cell_angle_gamma   60.00295609
_symmetry_Int_Tables_number   1
_chemical_formula_structural   DyY11(Zn3C)4
_chemical_formula_sum   'Dy1 Y11 Zn12 C4'
_cell_volume   548.55932670
_cell_formula_units_Z   1
loop_
 _symmetry_equiv_pos_site_id
 _symmetry_equiv_pos_as_xyz
  1  'x, y, z'
loop_
 _atom_site_type_symbol
 _atom_site_label
 _atom_site_symmetry_multiplicity
 _atom_site_fract_x
 _atom_site_fract_y
 _atom_site_fract_z
 _atom_site_occupancy
  Dy  Dy0  1  0.197341  0.802659  0.802659  1
  Y  Y1  1  0.447350  0.447371  0.052624  1
  Y  Y2  1  0.052655  0.447371  0.052624  1
  Y  Y3  1  0.447347  0.052653  0.052653  1
  Y  Y4  1  0.052655  0.052624  0.447371  1
  Y  Y5  1  0.447350  0.052624  0.447371  1
  Y  Y6  1  0.052632  0.447368  0.447368  1
  Y  Y7  1  0.802659  0.802648  0.197346  1
  Y  Y8  1  0.197348  0.802648  0.197346  1
  Y  Y9  1  0.802648  0.197352  0.197352  1
  Y  Y10  1  0.197348  0.197346  0.802648  1
  Y  Y11  1  0.802659  0.197346  0.802648  1
  Zn  Zn12  1  0.826074  0.826094  0.521760  1
  Zn  Zn13  1  0.826074  0.521760  0.826094  1
  Zn  Zn14  1  0.521750  0.826077  0.826077  1
  Zn  Zn15  1  0.826097  0.826077  0.826077  1
  Zn  Zn16  1  0.423921  0.423921  0.728236  1
  Zn  Zn17  1  0.423921  0.728236  0.423921  1
  Zn  Zn18  1  0.728224  0.423926  0.423926  1
  Zn  Zn19  1  0.423924  0.423926  0.423926  1
  Zn  Zn20  1  0.625005  0.624993  0.124996  1
  Zn  Zn21  1  0.625005  0.124996  0.624993  1
  Zn  Zn22  1  0.125003  0.625002  0.625002  1
  Zn  Zn23  1  0.624993  0.625002  0.625002  1
  C  C24  1  0.125013  0.124911  0.625063  1
  C  C25  1  0.125013  0.625063  0.124911  1
  C  C26  1  0.624994  0.125003  0.125003  1
  C  C27  1  0.125000  0.125003  0.125003  1
