# generated using pymatgen
data_Na2Ca2ScP12Ir17Ru2
_symmetry_space_group_name_H-M   'P 1'
_cell_length_a   12.62732200
_cell_length_b   12.62121270
_cell_length_c   3.94728000
_cell_angle_alpha   90.00000000
_cell_angle_beta   90.00000000
_cell_angle_gamma   120.23860464
_symmetry_Int_Tables_number   1
_chemical_formula_structural   Na2Ca2ScP12Ir17Ru2
_chemical_formula_sum   'Na2 Ca2 Sc1 P12 Ir17 Ru2'
_cell_volume   543.49016131
_cell_formula_units_Z   1
loop_
 _symmetry_equiv_pos_site_id
 _symmetry_equiv_pos_as_xyz
  1  'x, y, z'
loop_
 _atom_site_type_symbol
 _atom_site_label
 _atom_site_symmetry_multiplicity
 _atom_site_fract_x
 _atom_site_fract_y
 _atom_site_fract_z
 _atom_site_occupancy
  Na  Na0  1  0.332591  0.667496  0.000000  1
  Na  Na1  1  0.180035  0.179990  0.500000  1
  Ca  Ca2  1  0.819039  0.000354  0.500000  1
  Ca  Ca3  1  0.000448  0.819162  0.500000  1
  Sc  Sc4  1  0.668000  0.331237  0.000000  1
  P  P5  1  0.180802  0.002834  0.000000  1
  P  P6  1  0.002430  0.180564  0.000000  1
  P  P7  1  0.819620  0.819265  0.000000  1
  P  P8  1  0.172917  0.487339  0.500000  1
  P  P9  1  0.511814  0.688158  0.500000  1
  P  P10  1  0.314726  0.828689  0.500000  1
  P  P11  1  0.691780  0.514810  0.500000  1
  P  P12  1  0.828531  0.311874  0.500000  1
  P  P13  1  0.484448  0.173253  0.500000  1
  P  P14  1  0.635058  0.996962  0.000000  1
  P  P15  1  0.003385  0.638102  0.000000  1
  P  P16  1  0.355504  0.358788  0.000000  1
  Ir  Ir17  1  0.540006  0.538839  0.000000  1
  Ir  Ir18  1  0.359700  0.488431  0.500000  1
  Ir  Ir19  1  0.514028  0.874881  0.500000  1
  Ir  Ir20  1  0.128978  0.640985  0.500000  1
  Ir  Ir21  1  0.867774  0.504975  0.500000  1
  Ir  Ir22  1  0.639273  0.136221  0.500000  1
  Ir  Ir23  1  0.498214  0.362253  0.500000  1
  Ir  Ir24  1  0.180750  0.379627  0.000000  1
  Ir  Ir25  1  0.620691  0.800165  0.000000  1
  Ir  Ir26  1  0.197788  0.820945  0.000000  1
  Ir  Ir27  1  0.803317  0.619593  0.000000  1
  Ir  Ir28  1  0.816555  0.194662  0.000000  1
  Ir  Ir29  1  0.380484  0.185335  0.000000  1
  Ir  Ir30  1  0.289241  0.001142  0.500000  1
  Ir  Ir31  1  0.998847  0.288168  0.500000  1
  Ir  Ir32  1  0.709862  0.709011  0.500000  1
  Ir  Ir33  1  0.998752  0.998757  0.000000  1
  Ru  Ru34  1  0.456854  0.003167  0.000000  1
  Ru  Ru35  1  0.997759  0.453967  0.000000  1
