# generated using pymatgen
data_Hf6Zn19Ni4C
_symmetry_space_group_name_H-M   'P 1'
_cell_length_a   8.60296588
_cell_length_b   8.60127201
_cell_length_c   8.60348900
_cell_angle_alpha   59.64405099
_cell_angle_beta   59.60576948
_cell_angle_gamma   59.65328676
_symmetry_Int_Tables_number   1
_chemical_formula_structural   Hf6Zn19Ni4C
_chemical_formula_sum   'Hf6 Zn19 Ni4 C1'
_cell_volume   446.42330883
_cell_formula_units_Z   1
loop_
 _symmetry_equiv_pos_site_id
 _symmetry_equiv_pos_as_xyz
  1  'x, y, z'
loop_
 _atom_site_type_symbol
 _atom_site_label
 _atom_site_symmetry_multiplicity
 _atom_site_fract_x
 _atom_site_fract_y
 _atom_site_fract_z
 _atom_site_occupancy
  Hf  Hf0  1  0.685124  0.311390  0.311425  1
  Hf  Hf1  1  0.314876  0.688610  0.688575  1
  Hf  Hf2  1  0.311438  0.685082  0.311461  1
  Hf  Hf3  1  0.688562  0.314918  0.688539  1
  Hf  Hf4  1  0.311400  0.311389  0.685122  1
  Hf  Hf5  1  0.688600  0.688611  0.314878  1
  Zn  Zn6  1  0.116715  0.116717  0.116716  1
  Zn  Zn7  1  0.883285  0.883283  0.883284  1
  Zn  Zn8  1  0.122553  0.122571  0.645422  1
  Zn  Zn9  1  0.122578  0.645457  0.122573  1
  Zn  Zn10  1  0.877447  0.877429  0.354578  1
  Zn  Zn11  1  0.877422  0.354543  0.877427  1
  Zn  Zn12  1  0.645431  0.122577  0.122553  1
  Zn  Zn13  1  0.354569  0.877423  0.877447  1
  Zn  Zn14  1  0.500000  0.000000  0.000000  1
  Zn  Zn15  1  0.000000  0.500000  0.000000  1
  Zn  Zn16  1  0.000000  0.000000  0.500000  1
  Zn  Zn17  1  0.332120  0.332075  0.332144  1
  Zn  Zn18  1  0.667880  0.667925  0.667856  1
  Zn  Zn19  1  0.336090  0.336106  0.002862  1
  Zn  Zn20  1  0.336127  0.002858  0.336126  1
  Zn  Zn21  1  0.663910  0.663894  0.997138  1
  Zn  Zn22  1  0.663873  0.997142  0.663874  1
  Zn  Zn23  1  0.002865  0.336115  0.336096  1
  Zn  Zn24  1  0.997135  0.663885  0.663904  1
  Ni  Ni25  1  0.000000  0.500000  0.500000  1
  Ni  Ni26  1  0.500000  0.000000  0.500000  1
  Ni  Ni27  1  0.500000  0.500000  0.000000  1
  Ni  Ni28  1  0.000000  0.000000  0.000000  1
  C  C29  1  0.500000  0.500000  0.500000  1
