# generated using pymatgen
data_NaY(ReH9)2
_symmetry_space_group_name_H-M   'P 1'
_cell_length_a   5.14727380
_cell_length_b   5.14730254
_cell_length_c   8.77692800
_cell_angle_alpha   92.88031534
_cell_angle_beta   87.12497375
_cell_angle_gamma   124.85764120
_symmetry_Int_Tables_number   1
_chemical_formula_structural   NaY(ReH9)2
_chemical_formula_sum   'Na1 Y1 Re2 H18'
_cell_volume   190.51095518
_cell_formula_units_Z   1
loop_
 _symmetry_equiv_pos_site_id
 _symmetry_equiv_pos_as_xyz
  1  'x, y, z'
loop_
 _atom_site_type_symbol
 _atom_site_label
 _atom_site_symmetry_multiplicity
 _atom_site_fract_x
 _atom_site_fract_y
 _atom_site_fract_z
 _atom_site_occupancy
  Na  Na0  1  0.000000  0.000000  0.000000  1
  Y  Y1  1  0.000000  0.000000  0.500000  1
  Re  Re2  1  0.337197  0.662959  0.722301  1
  Re  Re3  1  0.662803  0.337041  0.277699  1
  H  H4  1  0.386461  0.613788  0.530192  1
  H  H5  1  0.613539  0.386212  0.469808  1
  H  H6  1  0.420298  0.579830  0.887662  1
  H  H7  1  0.579702  0.420170  0.112338  1
  H  H8  1  0.469951  0.960791  0.853829  1
  H  H9  1  0.960621  0.469745  0.146191  1
  H  H10  1  0.597005  0.024805  0.651205  1
  H  H11  1  0.024622  0.596770  0.348868  1
  H  H12  1  0.530049  0.039209  0.146171  1
  H  H13  1  0.039379  0.530255  0.853809  1
  H  H14  1  0.402995  0.975195  0.348795  1
  H  H15  1  0.975378  0.403230  0.651132  1
  H  H16  1  0.705116  0.728566  0.716994  1
  H  H17  1  0.728439  0.704965  0.283041  1
  H  H18  1  0.294884  0.271434  0.283006  1
  H  H19  1  0.271561  0.295035  0.716959  1
  H  H20  1  0.153163  0.847132  0.696795  1
  H  H21  1  0.846837  0.152868  0.303205  1
