# generated using pymatgen
data_CaLa3As7Ir8
_symmetry_space_group_name_H-M   'P 1'
_cell_length_a   4.15468800
_cell_length_b   13.22597345
_cell_length_c   13.69280876
_cell_angle_alpha   82.16722447
_cell_angle_beta   90.00000000
_cell_angle_gamma   90.00000000
_symmetry_Int_Tables_number   1
_chemical_formula_structural   CaLa3As7Ir8
_chemical_formula_sum   'Ca2 La6 As14 Ir16'
_cell_volume   745.39699135
_cell_formula_units_Z   2
loop_
 _symmetry_equiv_pos_site_id
 _symmetry_equiv_pos_as_xyz
  1  'x, y, z'
loop_
 _atom_site_type_symbol
 _atom_site_label
 _atom_site_symmetry_multiplicity
 _atom_site_fract_x
 _atom_site_fract_y
 _atom_site_fract_z
 _atom_site_occupancy
  Ca  Ca0  1  0.250000  0.211220  0.435417  1
  Ca  Ca1  1  0.750000  0.788780  0.564583  1
  La  La2  1  0.250000  0.100891  0.796068  1
  La  La3  1  0.750000  0.899109  0.203932  1
  La  La4  1  0.250000  0.288102  0.104943  1
  La  La5  1  0.750000  0.711898  0.895057  1
  La  La6  1  0.250000  0.516312  0.291752  1
  La  La7  1  0.750000  0.483688  0.708248  1
  As  As8  1  0.250000  0.059243  0.100394  1
  As  As9  1  0.750000  0.940757  0.899606  1
  As  As10  1  0.250000  0.310423  0.686648  1
  As  As11  1  0.750000  0.689577  0.313352  1
  As  As12  1  0.250000  0.610360  0.564261  1
  As  As13  1  0.750000  0.389640  0.435739  1
  As  As14  1  0.250000  0.848613  0.718233  1
  As  As15  1  0.750000  0.151387  0.281767  1
  As  As16  1  0.750000  0.255212  0.917351  1
  As  As17  1  0.250000  0.744788  0.082649  1
  As  As18  1  0.750000  0.095843  0.585045  1
  As  As19  1  0.250000  0.904157  0.414955  1
  As  As20  1  0.750000  0.471472  0.127236  1
  As  As21  1  0.250000  0.528528  0.872764  1
  Ir  Ir22  1  0.250000  0.987990  0.573022  1
  Ir  Ir23  1  0.750000  0.012010  0.426978  1
  Ir  Ir24  1  0.250000  0.664968  0.732233  1
  Ir  Ir25  1  0.750000  0.335032  0.267767  1
  Ir  Ir26  1  0.250000  0.554189  0.047723  1
  Ir  Ir27  1  0.750000  0.445811  0.952277  1
  Ir  Ir28  1  0.250000  0.053822  0.280566  1
  Ir  Ir29  1  0.750000  0.946178  0.719434  1
  Ir  Ir30  1  0.250000  0.425580  0.527014  1
  Ir  Ir31  1  0.750000  0.574420  0.472986  1
  Ir  Ir32  1  0.250000  0.920206  0.997151  1
  Ir  Ir33  1  0.750000  0.079794  0.002849  1
  Ir  Ir34  1  0.250000  0.721746  0.401109  1
  Ir  Ir35  1  0.750000  0.278254  0.598891  1
  Ir  Ir36  1  0.250000  0.342169  0.859739  1
  Ir  Ir37  1  0.750000  0.657831  0.140261  1
