# generated using pymatgen
data_Tb5W2C7
_symmetry_space_group_name_H-M   'P 1'
_cell_length_a   8.48276366
_cell_length_b   8.48276293
_cell_length_c   3.44282900
_cell_angle_alpha   90.00000000
_cell_angle_beta   90.00000000
_cell_angle_gamma   123.03369703
_symmetry_Int_Tables_number   1
_chemical_formula_structural   Tb5W2C7
_chemical_formula_sum   'Tb5 W2 C7'
_cell_volume   207.68999406
_cell_formula_units_Z   1
loop_
 _symmetry_equiv_pos_site_id
 _symmetry_equiv_pos_as_xyz
  1  'x, y, z'
loop_
 _atom_site_type_symbol
 _atom_site_label
 _atom_site_symmetry_multiplicity
 _atom_site_fract_x
 _atom_site_fract_y
 _atom_site_fract_z
 _atom_site_occupancy
  Tb  Tb0  1  0.500000  0.500000  0.000000  1
  Tb  Tb1  1  0.073189  0.330636  0.500000  1
  Tb  Tb2  1  0.926811  0.669364  0.500000  1
  Tb  Tb3  1  0.669364  0.926811  0.500000  1
  Tb  Tb4  1  0.330636  0.073189  0.500000  1
  W  W5  1  0.712711  0.287289  0.000000  1
  W  W6  1  0.287289  0.712711  0.000000  1
  C  C7  1  0.626491  0.373509  0.500000  1
  C  C8  1  0.373509  0.626491  0.500000  1
  C  C9  1  0.000000  0.000000  0.000000  1
  C  C10  1  0.167521  0.167521  0.000000  1
  C  C11  1  0.832479  0.832479  0.000000  1
  C  C12  1  0.000000  0.500000  0.000000  1
  C  C13  1  0.500000  0.000000  0.000000  1
