# generated using pymatgen
data_Tm2TaOs3
_symmetry_space_group_name_H-M   'P 1'
_cell_length_a   5.53215405
_cell_length_b   5.53215364
_cell_length_c   8.47235600
_cell_angle_alpha   90.00000000
_cell_angle_beta   90.00000000
_cell_angle_gamma   120.00466232
_symmetry_Int_Tables_number   1
_chemical_formula_structural   Tm2TaOs3
_chemical_formula_sum   'Tm4 Ta2 Os6'
_cell_volume   224.54475761
_cell_formula_units_Z   2
loop_
 _symmetry_equiv_pos_site_id
 _symmetry_equiv_pos_as_xyz
  1  'x, y, z'
loop_
 _atom_site_type_symbol
 _atom_site_label
 _atom_site_symmetry_multiplicity
 _atom_site_fract_x
 _atom_site_fract_y
 _atom_site_fract_z
 _atom_site_occupancy
  Tm  Tm0  1  0.666666  0.333334  0.564977  1
  Tm  Tm1  1  0.333334  0.666666  0.435023  1
  Tm  Tm2  1  0.333334  0.666666  0.064977  1
  Tm  Tm3  1  0.666666  0.333334  0.935023  1
  Ta  Ta4  1  0.000000  0.000000  0.500000  1
  Ta  Ta5  1  0.000000  0.000000  0.000000  1
  Os  Os6  1  0.174009  0.348017  0.750000  1
  Os  Os7  1  0.174023  0.825977  0.750000  1
  Os  Os8  1  0.651983  0.825991  0.750000  1
  Os  Os9  1  0.825991  0.651983  0.250000  1
  Os  Os10  1  0.825977  0.174023  0.250000  1
  Os  Os11  1  0.348017  0.174009  0.250000  1
