# generated using pymatgen
data_EuGeSbO6
_symmetry_space_group_name_H-M   'P 1'
_cell_length_a   5.14081400
_cell_length_b   5.14081442
_cell_length_c   5.07296100
_cell_angle_alpha   90.00000000
_cell_angle_beta   90.00000000
_cell_angle_gamma   119.99999733
_symmetry_Int_Tables_number   1
_chemical_formula_structural   EuGeSbO6
_chemical_formula_sum   'Eu1 Ge1 Sb1 O6'
_cell_volume   116.10635305
_cell_formula_units_Z   1
loop_
 _symmetry_equiv_pos_site_id
 _symmetry_equiv_pos_as_xyz
  1  'x, y, z'
loop_
 _atom_site_type_symbol
 _atom_site_label
 _atom_site_symmetry_multiplicity
 _atom_site_fract_x
 _atom_site_fract_y
 _atom_site_fract_z
 _atom_site_occupancy
  Eu  Eu0  1  0.000000  0.000000  0.000000  1
  Ge  Ge1  1  0.666668  0.333334  0.500000  1
  Sb  Sb2  1  0.333333  0.666666  0.500000  1
  O  O3  1  0.373621  0.011743  0.285254  1
  O  O4  1  0.988257  0.361879  0.285254  1
  O  O5  1  0.638123  0.626379  0.285254  1
  O  O6  1  0.638123  0.011743  0.714746  1
  O  O7  1  0.373621  0.361879  0.714746  1
  O  O8  1  0.988257  0.626379  0.714746  1
