# generated using pymatgen
data_Ac9Ce2US20
_symmetry_space_group_name_H-M   'P 1'
_cell_length_a   7.76462938
_cell_length_b   8.37497500
_cell_length_c   12.33755300
_cell_angle_alpha   90.00000000
_cell_angle_beta   89.91094929
_cell_angle_gamma   90.00000000
_symmetry_Int_Tables_number   1
_chemical_formula_structural   Ac9Ce2US20
_chemical_formula_sum   'Ac9 Ce2 U1 S20'
_cell_volume   802.29254533
_cell_formula_units_Z   1
loop_
 _symmetry_equiv_pos_site_id
 _symmetry_equiv_pos_as_xyz
  1  'x, y, z'
loop_
 _atom_site_type_symbol
 _atom_site_label
 _atom_site_symmetry_multiplicity
 _atom_site_fract_x
 _atom_site_fract_y
 _atom_site_fract_z
 _atom_site_occupancy
  Ac  Ac0  1  0.931214  0.750000  0.491904  1
  Ac  Ac1  1  0.467241  0.998290  0.323511  1
  Ac  Ac2  1  0.970804  0.002070  0.173703  1
  Ac  Ac3  1  0.530078  0.497342  0.675830  1
  Ac  Ac4  1  0.032904  0.501709  0.827118  1
  Ac  Ac5  1  0.530072  0.002656  0.675822  1
  Ac  Ac6  1  0.032906  0.998289  0.827113  1
  Ac  Ac7  1  0.467235  0.501705  0.323505  1
  Ac  Ac8  1  0.970802  0.497927  0.173696  1
  Ce  Ce9  1  0.438558  0.249986  0.007547  1
  Ce  Ce10  1  0.568871  0.750030  0.990570  1
  U  U11  1  0.053478  0.249995  0.504258  1
  S  S12  1  0.171085  0.750004  0.302600  1
  S  S13  1  0.661466  0.249993  0.186661  1
  S  S14  1  0.840601  0.249995  0.681734  1
  S  S15  1  0.336609  0.750008  0.811894  1
  S  S16  1  0.536344  0.750004  0.497874  1
  S  S17  1  0.053645  0.249993  0.004309  1
  S  S18  1  0.444024  0.249993  0.501013  1
  S  S19  1  0.949392  0.750009  0.998427  1
  S  S20  1  0.806819  0.750003  0.721114  1
  S  S21  1  0.317822  0.249993  0.794462  1
  S  S22  1  0.184458  0.249996  0.292641  1
  S  S23  1  0.690267  0.750006  0.213005  1
  S  S24  1  0.163566  0.515448  0.594870  1
  S  S25  1  0.665658  0.460680  0.910250  1
  S  S26  1  0.837050  0.057688  0.407444  1
  S  S27  1  0.340347  0.961779  0.087296  1
  S  S28  1  0.837048  0.442311  0.407448  1
  S  S29  1  0.340380  0.538185  0.087279  1
  S  S30  1  0.163564  0.984548  0.594873  1
  S  S31  1  0.665690  0.039367  0.910231  1
