# generated using pymatgen
data_Fe2Re4TcAs12
_symmetry_space_group_name_H-M   'P 1'
_cell_length_a   3.10271200
_cell_length_b   12.88278201
_cell_length_c   15.85218474
_cell_angle_alpha   89.87260107
_cell_angle_beta   90.00000000
_cell_angle_gamma   90.00000000
_symmetry_Int_Tables_number   1
_chemical_formula_structural   Fe2Re4TcAs12
_chemical_formula_sum   'Fe4 Re8 Tc2 As24'
_cell_volume   633.63502402
_cell_formula_units_Z   2
loop_
 _symmetry_equiv_pos_site_id
 _symmetry_equiv_pos_as_xyz
  1  'x, y, z'
loop_
 _atom_site_type_symbol
 _atom_site_label
 _atom_site_symmetry_multiplicity
 _atom_site_fract_x
 _atom_site_fract_y
 _atom_site_fract_z
 _atom_site_occupancy
  Fe  Fe0  1  0.500000  0.125337  0.344554  1
  Fe  Fe1  1  0.500000  0.874663  0.655446  1
  Fe  Fe2  1  0.000000  0.375705  0.843836  1
  Fe  Fe3  1  0.000000  0.624295  0.156164  1
  Re  Re4  1  0.500000  0.315640  0.103019  1
  Re  Re5  1  0.500000  0.684360  0.896981  1
  Re  Re6  1  0.000000  0.183528  0.603953  1
  Re  Re7  1  0.000000  0.816472  0.396047  1
  Re  Re8  1  0.500000  0.913272  0.261583  1
  Re  Re9  1  0.500000  0.086728  0.738417  1
  Re  Re10  1  0.500000  0.500000  0.500000  1
  Re  Re11  1  0.000000  0.000000  0.000000  1
  Tc  Tc12  1  0.000000  0.586298  0.761174  1
  Tc  Tc13  1  0.000000  0.413702  0.238826  1
  As  As14  1  0.500000  0.902574  0.097330  1
  As  As15  1  0.500000  0.097426  0.902670  1
  As  As16  1  0.000000  0.597335  0.597190  1
  As  As17  1  0.000000  0.402665  0.402810  1
  As  As18  1  0.500000  0.566527  0.259704  1
  As  As19  1  0.500000  0.433473  0.740296  1
  As  As20  1  0.000000  0.932349  0.759927  1
  As  As21  1  0.000000  0.067651  0.240073  1
  As  As22  1  0.500000  0.654319  0.405257  1
  As  As23  1  0.500000  0.345681  0.594743  1
  As  As24  1  0.000000  0.845075  0.906108  1
  As  As25  1  0.000000  0.154925  0.093892  1
  As  As26  1  0.500000  0.969062  0.420582  1
  As  As27  1  0.500000  0.030938  0.579418  1
  As  As28  1  0.000000  0.531083  0.921023  1
  As  As29  1  0.000000  0.468917  0.078977  1
  As  As30  1  0.500000  0.705985  0.060391  1
  As  As31  1  0.500000  0.294015  0.939609  1
  As  As32  1  0.000000  0.793525  0.559981  1
  As  As33  1  0.000000  0.206475  0.440019  1
  As  As34  1  0.500000  0.730751  0.741978  1
  As  As35  1  0.500000  0.269249  0.258022  1
  As  As36  1  0.000000  0.767551  0.241461  1
  As  As37  1  0.000000  0.232449  0.758539  1
