# generated using pymatgen
data_La8Tb7Y5(CoBi2)4
_symmetry_space_group_name_H-M   'P 1'
_cell_length_a   8.40457004
_cell_length_b   9.25067020
_cell_length_c   12.37621585
_cell_angle_alpha   89.99724860
_cell_angle_beta   89.97468922
_cell_angle_gamma   89.99272613
_symmetry_Int_Tables_number   1
_chemical_formula_structural   La8Tb7Y5(CoBi2)4
_chemical_formula_sum   'La8 Tb7 Y5 Co4 Bi8'
_cell_volume   962.22475823
_cell_formula_units_Z   1
loop_
 _symmetry_equiv_pos_site_id
 _symmetry_equiv_pos_as_xyz
  1  'x, y, z'
loop_
 _atom_site_type_symbol
 _atom_site_label
 _atom_site_symmetry_multiplicity
 _atom_site_fract_x
 _atom_site_fract_y
 _atom_site_fract_z
 _atom_site_occupancy
  La  La0  1  0.856208  0.749858  0.808956  1
  La  La1  1  0.143683  0.249816  0.190672  1
  La  La2  1  0.356345  0.249880  0.690564  1
  La  La3  1  0.643452  0.749881  0.309938  1
  La  La4  1  0.386772  0.749880  0.683656  1
  La  La5  1  0.613146  0.250177  0.316057  1
  La  La6  1  0.886796  0.250334  0.815968  1
  La  La7  1  0.113240  0.750250  0.184299  1
  Tb  Tb8  1  0.321121  0.965530  0.436530  1
  Tb  Tb9  1  0.179289  0.965513  0.936430  1
  Tb  Tb10  1  0.319850  0.534506  0.435990  1
  Tb  Tb11  1  0.820459  0.034389  0.063766  1
  Tb  Tb12  1  0.679063  0.465297  0.563733  1
  Tb  Tb13  1  0.820495  0.465744  0.063571  1
  Tb  Tb14  1  0.179463  0.534598  0.936440  1
  Y  Y15  1  0.959180  0.749277  0.502841  1
  Y  Y16  1  0.041246  0.250552  0.496807  1
  Y  Y17  1  0.459354  0.249910  0.996980  1
  Y  Y18  1  0.540962  0.750126  0.002821  1
  Y  Y19  1  0.681007  0.034829  0.564487  1
  Co  Co20  1  0.554757  0.749260  0.505466  1
  Co  Co21  1  0.445143  0.250038  0.494596  1
  Co  Co22  1  0.054182  0.249992  0.994537  1
  Co  Co23  1  0.945798  0.750111  0.005470  1
  Bi  Bi24  1  0.573829  0.492842  0.831949  1
  Bi  Bi25  1  0.425893  0.507264  0.167994  1
  Bi  Bi26  1  0.073921  0.507180  0.668344  1
  Bi  Bi27  1  0.426210  0.992761  0.168051  1
  Bi  Bi28  1  0.926096  0.492721  0.331410  1
  Bi  Bi29  1  0.574023  0.007205  0.831598  1
  Bi  Bi30  1  0.925936  0.007370  0.332119  1
  Bi  Bi31  1  0.073077  0.992910  0.667956  1
