# generated using pymatgen
data_HfSc3Si6Ir7
_symmetry_space_group_name_H-M   'P 1'
_cell_length_a   6.97978462
_cell_length_b   6.99816613
_cell_length_c   6.99816602
_cell_angle_alpha   109.52436705
_cell_angle_beta   109.41802095
_cell_angle_gamma   109.41802215
_symmetry_Int_Tables_number   1
_chemical_formula_structural   HfSc3Si6Ir7
_chemical_formula_sum   'Hf1 Sc3 Si6 Ir7'
_cell_volume   263.31362674
_cell_formula_units_Z   1
loop_
 _symmetry_equiv_pos_site_id
 _symmetry_equiv_pos_as_xyz
  1  'x, y, z'
loop_
 _atom_site_type_symbol
 _atom_site_label
 _atom_site_symmetry_multiplicity
 _atom_site_fract_x
 _atom_site_fract_y
 _atom_site_fract_z
 _atom_site_occupancy
  Hf  Hf0  1  0.500000  0.000000  0.000000  1
  Sc  Sc1  1  0.000000  0.000000  0.500000  1
  Sc  Sc2  1  0.000000  0.500000  0.000000  1
  Sc  Sc3  1  0.500000  0.500000  0.500000  1
  Si  Si4  1  0.684279  0.681580  0.000000  1
  Si  Si5  1  0.315721  0.000000  0.318420  1
  Si  Si6  1  0.002699  0.318420  0.318420  1
  Si  Si7  1  0.315721  0.318420  0.000000  1
  Si  Si8  1  0.684279  0.000000  0.681580  1
  Si  Si9  1  0.997301  0.681580  0.681580  1
  Ir  Ir10  1  0.749242  0.249242  0.498484  1
  Ir  Ir11  1  0.749242  0.498484  0.249242  1
  Ir  Ir12  1  0.500000  0.249242  0.750758  1
  Ir  Ir13  1  0.250758  0.501516  0.750758  1
  Ir  Ir14  1  0.250758  0.750758  0.501516  1
  Ir  Ir15  1  0.500000  0.750758  0.249242  1
  Ir  Ir16  1  0.000000  0.000000  0.000000  1
