# generated using pymatgen
data_Hf3Sc(Ta3Si4)2
_symmetry_space_group_name_H-M   'P 1'
_cell_length_a   6.85736405
_cell_length_b   6.85329703
_cell_length_c   12.70135900
_cell_angle_alpha   90.00000000
_cell_angle_beta   90.00000000
_cell_angle_gamma   90.00125848
_symmetry_Int_Tables_number   1
_chemical_formula_structural   Hf3Sc(Ta3Si4)2
_chemical_formula_sum   'Hf6 Sc2 Ta12 Si16'
_cell_volume   596.90738546
_cell_formula_units_Z   2
loop_
 _symmetry_equiv_pos_site_id
 _symmetry_equiv_pos_as_xyz
  1  'x, y, z'
loop_
 _atom_site_type_symbol
 _atom_site_label
 _atom_site_symmetry_multiplicity
 _atom_site_fract_x
 _atom_site_fract_y
 _atom_site_fract_z
 _atom_site_occupancy
  Hf  Hf0  1  0.003622  0.660085  0.030376  1
  Hf  Hf1  1  0.837859  0.502257  0.280202  1
  Hf  Hf2  1  0.162141  0.497743  0.780202  1
  Hf  Hf3  1  0.502185  0.837665  0.719145  1
  Hf  Hf4  1  0.497815  0.162335  0.219145  1
  Hf  Hf5  1  0.996378  0.339915  0.530376  1
  Sc  Sc6  1  0.662067  0.000992  0.970084  1
  Sc  Sc7  1  0.337933  0.999008  0.470084  1
  Ta  Ta8  1  0.329477  0.332152  0.999798  1
  Ta  Ta9  1  0.169041  0.830695  0.249578  1
  Ta  Ta10  1  0.830959  0.169305  0.749578  1
  Ta  Ta11  1  0.670523  0.667848  0.499798  1
  Ta  Ta12  1  0.003743  0.154281  0.126726  1
  Ta  Ta13  1  0.347213  0.504039  0.375959  1
  Ta  Ta14  1  0.652787  0.495961  0.875959  1
  Ta  Ta15  1  0.505189  0.347234  0.624392  1
  Ta  Ta16  1  0.494811  0.652766  0.124392  1
  Ta  Ta17  1  0.996257  0.845719  0.626726  1
  Ta  Ta18  1  0.153088  0.004382  0.873439  1
  Ta  Ta19  1  0.846912  0.995618  0.373439  1
  Si  Si20  1  0.301487  0.958324  0.063239  1
  Si  Si21  1  0.541451  0.802240  0.314076  1
  Si  Si22  1  0.458549  0.197760  0.814076  1
  Si  Si23  1  0.801358  0.542695  0.686707  1
  Si  Si24  1  0.198642  0.457305  0.186707  1
  Si  Si25  1  0.698513  0.041676  0.563239  1
  Si  Si26  1  0.956496  0.300065  0.936181  1
  Si  Si27  1  0.043504  0.699935  0.436181  1
  Si  Si28  1  0.707109  0.364199  0.072929  1
  Si  Si29  1  0.136324  0.207007  0.322994  1
  Si  Si30  1  0.863676  0.792993  0.822994  1
  Si  Si31  1  0.207350  0.135972  0.677392  1
  Si  Si32  1  0.792650  0.864028  0.177392  1
  Si  Si33  1  0.292891  0.635801  0.572929  1
  Si  Si34  1  0.364555  0.708222  0.926785  1
  Si  Si35  1  0.635445  0.291778  0.426785  1
