# generated using pymatgen
data_Tb2Dy10Tc3Rh
_symmetry_space_group_name_H-M   'P 1'
_cell_length_a   6.29785788
_cell_length_b   7.40535303
_cell_length_c   9.19779300
_cell_angle_alpha   90.00000000
_cell_angle_beta   90.00000000
_cell_angle_gamma   89.87080169
_symmetry_Int_Tables_number   1
_chemical_formula_structural   Tb2Dy10Tc3Rh
_chemical_formula_sum   'Tb2 Dy10 Tc3 Rh1'
_cell_volume   428.96430044
_cell_formula_units_Z   1
loop_
 _symmetry_equiv_pos_site_id
 _symmetry_equiv_pos_as_xyz
  1  'x, y, z'
loop_
 _atom_site_type_symbol
 _atom_site_label
 _atom_site_symmetry_multiplicity
 _atom_site_fract_x
 _atom_site_fract_y
 _atom_site_fract_z
 _atom_site_occupancy
  Tb  Tb0  1  0.872843  0.541617  0.250000  1
  Tb  Tb1  1  0.131418  0.457627  0.750000  1
  Dy  Dy2  1  0.332943  0.676904  0.066108  1
  Dy  Dy3  1  0.162981  0.176575  0.436256  1
  Dy  Dy4  1  0.663319  0.320962  0.561416  1
  Dy  Dy5  1  0.837706  0.826001  0.938509  1
  Dy  Dy6  1  0.663319  0.320962  0.938584  1
  Dy  Dy7  1  0.837706  0.826001  0.561491  1
  Dy  Dy8  1  0.332943  0.676904  0.433892  1
  Dy  Dy9  1  0.162981  0.176575  0.063744  1
  Dy  Dy10  1  0.624706  0.038916  0.250000  1
  Dy  Dy11  1  0.370832  0.959151  0.750000  1
  Tc  Tc12  1  0.039066  0.884191  0.250000  1
  Tc  Tc13  1  0.462123  0.386448  0.250000  1
  Tc  Tc14  1  0.960201  0.115846  0.750000  1
  Rh  Rh15  1  0.544913  0.615318  0.750000  1
