# generated using pymatgen
data_Dy2Ho8Ga3CoBi2
_symmetry_space_group_name_H-M   'P 1'
_cell_length_a   8.58298027
_cell_length_b   8.58008159
_cell_length_c   8.75411090
_cell_angle_alpha   124.77929805
_cell_angle_beta   124.79934712
_cell_angle_gamma   80.56371893
_symmetry_Int_Tables_number   1
_chemical_formula_structural   Dy2Ho8Ga3CoBi2
_chemical_formula_sum   'Dy2 Ho8 Ga3 Co1 Bi2'
_cell_volume   422.14535615
_cell_formula_units_Z   1
loop_
 _symmetry_equiv_pos_site_id
 _symmetry_equiv_pos_as_xyz
  1  'x, y, z'
loop_
 _atom_site_type_symbol
 _atom_site_label
 _atom_site_symmetry_multiplicity
 _atom_site_fract_x
 _atom_site_fract_y
 _atom_site_fract_z
 _atom_site_occupancy
  Dy  Dy0  1  0.703837  0.517097  0.500183  1
  Dy  Dy1  1  0.480961  0.000720  0.203695  1
  Ho  Ho2  1  0.776498  0.296622  0.796206  1
  Ho  Ho3  1  0.499063  0.019359  0.795468  1
  Ho  Ho4  1  0.997073  0.998663  0.995686  1
  Ho  Ho5  1  0.049143  0.191281  0.500022  1
  Ho  Ho6  1  0.308153  0.451441  0.500142  1
  Ho  Ho7  1  0.203398  0.723565  0.204309  1
  Ho  Ho8  1  0.982921  0.795673  0.500021  1
  Ho  Ho9  1  0.501471  0.502647  0.004097  1
  Ga  Ga10  1  0.142222  0.641762  0.783789  1
  Ga  Ga11  1  0.858253  0.357772  0.215637  1
  Ga  Ga12  1  0.632362  0.867765  0.500300  1
  Co  Co13  1  0.378592  0.121648  0.500470  1
  Bi  Bi14  1  0.242604  0.257123  0.999705  1
  Bi  Bi15  1  0.743449  0.756862  0.000269  1
