# generated using pymatgen
data_Y2Ho3Er3Pt4
_symmetry_space_group_name_H-M   'P 1'
_cell_length_a   4.75714400
_cell_length_b   7.13486554
_cell_length_c   8.75165502
_cell_angle_alpha   89.77951580
_cell_angle_beta   90.00000000
_cell_angle_gamma   90.00000000
_symmetry_Int_Tables_number   1
_chemical_formula_structural   Y2Ho3Er3Pt4
_chemical_formula_sum   'Y2 Ho3 Er3 Pt4'
_cell_volume   297.04282389
_cell_formula_units_Z   1
loop_
 _symmetry_equiv_pos_site_id
 _symmetry_equiv_pos_as_xyz
  1  'x, y, z'
loop_
 _atom_site_type_symbol
 _atom_site_label
 _atom_site_symmetry_multiplicity
 _atom_site_fract_x
 _atom_site_fract_y
 _atom_site_fract_z
 _atom_site_occupancy
  Y  Y0  1  0.250000  0.489614  0.169307  1
  Y  Y1  1  0.750000  0.510087  0.829614  1
  Ho  Ho2  1  0.750000  0.645435  0.420382  1
  Ho  Ho3  1  0.250000  0.990876  0.332138  1
  Ho  Ho4  1  0.750000  0.009959  0.668998  1
  Er  Er5  1  0.250000  0.856328  0.920587  1
  Er  Er6  1  0.250000  0.354903  0.579283  1
  Er  Er7  1  0.750000  0.143803  0.079755  1
  Pt  Pt8  1  0.250000  0.254597  0.906105  1
  Pt  Pt9  1  0.250000  0.758033  0.593679  1
  Pt  Pt10  1  0.750000  0.745052  0.092470  1
  Pt  Pt11  1  0.750000  0.241312  0.407684  1
