# generated using pymatgen
data_Dy15Th(AlRu)4
_symmetry_space_group_name_H-M   'P 1'
_cell_length_a   9.54425955
_cell_length_b   9.54425971
_cell_length_c   9.54425950
_cell_angle_alpha   59.98272252
_cell_angle_beta   59.98273063
_cell_angle_gamma   59.98272202
_symmetry_Int_Tables_number   1
_chemical_formula_structural   Dy15Th(AlRu)4
_chemical_formula_sum   'Dy15 Th1 Al4 Ru4'
_cell_volume   614.52786508
_cell_formula_units_Z   1
loop_
 _symmetry_equiv_pos_site_id
 _symmetry_equiv_pos_as_xyz
  1  'x, y, z'
loop_
 _atom_site_type_symbol
 _atom_site_label
 _atom_site_symmetry_multiplicity
 _atom_site_fract_x
 _atom_site_fract_y
 _atom_site_fract_z
 _atom_site_occupancy
  Dy  Dy0  1  0.603789  0.603789  0.192275  1
  Dy  Dy1  1  0.603789  0.192275  0.603789  1
  Dy  Dy2  1  0.192275  0.603789  0.603789  1
  Dy  Dy3  1  0.056929  0.443752  0.443752  1
  Dy  Dy4  1  0.444030  0.055320  0.055320  1
  Dy  Dy5  1  0.443752  0.056929  0.443752  1
  Dy  Dy6  1  0.055320  0.444030  0.055320  1
  Dy  Dy7  1  0.443752  0.443752  0.056929  1
  Dy  Dy8  1  0.055320  0.055320  0.444030  1
  Dy  Dy9  1  0.186215  0.813811  0.813811  1
  Dy  Dy10  1  0.809553  0.192309  0.192309  1
  Dy  Dy11  1  0.813811  0.186215  0.813811  1
  Dy  Dy12  1  0.192309  0.809553  0.192309  1
  Dy  Dy13  1  0.813811  0.813811  0.186215  1
  Dy  Dy14  1  0.192309  0.192309  0.809553  1
  Th  Th15  1  0.595601  0.595601  0.595601  1
  Al  Al16  1  0.826740  0.826740  0.826740  1
  Al  Al17  1  0.826085  0.826085  0.517609  1
  Al  Al18  1  0.826085  0.517609  0.826085  1
  Al  Al19  1  0.517609  0.826085  0.826085  1
  Ru  Ru20  1  0.390586  0.390586  0.390586  1
  Ru  Ru21  1  0.390958  0.390958  0.828416  1
  Ru  Ru22  1  0.390958  0.828416  0.390958  1
  Ru  Ru23  1  0.828416  0.390958  0.390958  1
