# generated using pymatgen
data_PuSnF7
_symmetry_space_group_name_H-M   'P 1'
_cell_length_a   5.83554900
_cell_length_b   9.28654623
_cell_length_c   12.45814393
_cell_angle_alpha   62.17075041
_cell_angle_beta   90.00000000
_cell_angle_gamma   90.00000000
_symmetry_Int_Tables_number   1
_chemical_formula_structural   PuSnF7
_chemical_formula_sum   'Pu4 Sn4 F28'
_cell_volume   597.04892145
_cell_formula_units_Z   4
loop_
 _symmetry_equiv_pos_site_id
 _symmetry_equiv_pos_as_xyz
  1  'x, y, z'
loop_
 _atom_site_type_symbol
 _atom_site_label
 _atom_site_symmetry_multiplicity
 _atom_site_fract_x
 _atom_site_fract_y
 _atom_site_fract_z
 _atom_site_occupancy
  Pu  Pu0  1  0.742025  0.813965  0.264318  1
  Pu  Pu1  1  0.242025  0.186035  0.235682  1
  Pu  Pu2  1  0.257975  0.186035  0.735682  1
  Pu  Pu3  1  0.757975  0.813965  0.764318  1
  Sn  Sn4  1  0.743425  0.274214  0.456739  1
  Sn  Sn5  1  0.243425  0.725786  0.043261  1
  Sn  Sn6  1  0.256575  0.725786  0.543261  1
  Sn  Sn7  1  0.756575  0.274214  0.956739  1
  F  F8  1  0.448845  0.710848  0.919613  1
  F  F9  1  0.948845  0.289152  0.580387  1
  F  F10  1  0.551155  0.289152  0.080387  1
  F  F11  1  0.051155  0.710848  0.419613  1
  F  F12  1  0.455722  0.281990  0.543785  1
  F  F13  1  0.955722  0.718010  0.956215  1
  F  F14  1  0.544278  0.718010  0.456215  1
  F  F15  1  0.044278  0.281990  0.043785  1
  F  F16  1  0.770073  0.516783  0.860597  1
  F  F17  1  0.270073  0.483217  0.639403  1
  F  F18  1  0.229927  0.483217  0.139403  1
  F  F19  1  0.729927  0.516783  0.360597  1
  F  F20  1  0.759111  0.030338  0.053136  1
  F  F21  1  0.259111  0.969662  0.446864  1
  F  F22  1  0.240889  0.969662  0.946864  1
  F  F23  1  0.740889  0.030338  0.553136  1
  F  F24  1  0.982443  0.730806  0.639100  1
  F  F25  1  0.482443  0.269194  0.860900  1
  F  F26  1  0.017557  0.269194  0.360900  1
  F  F27  1  0.517557  0.730806  0.139100  1
  F  F28  1  0.047475  0.743633  0.170240  1
  F  F29  1  0.547475  0.256367  0.329760  1
  F  F30  1  0.952525  0.256367  0.829760  1
  F  F31  1  0.452525  0.743633  0.670240  1
  F  F32  1  0.415375  0.966944  0.234772  1
  F  F33  1  0.915375  0.033056  0.265228  1
  F  F34  1  0.584625  0.033056  0.765228  1
  F  F35  1  0.084625  0.966944  0.734772  1
