# generated using pymatgen
data_Si3Ni8Mo12PC2
_symmetry_space_group_name_H-M   'P 1'
_cell_length_a   7.71636569
_cell_length_b   7.71636520
_cell_length_c   7.71636514
_cell_angle_alpha   60.10796876
_cell_angle_beta   60.10796648
_cell_angle_gamma   60.10796759
_symmetry_Int_Tables_number   1
_chemical_formula_structural   Si3Ni8Mo12PC2
_chemical_formula_sum   'Si3 Ni8 Mo12 P1 C2'
_cell_volume   325.67500774
_cell_formula_units_Z   1
loop_
 _symmetry_equiv_pos_site_id
 _symmetry_equiv_pos_as_xyz
  1  'x, y, z'
loop_
 _atom_site_type_symbol
 _atom_site_label
 _atom_site_symmetry_multiplicity
 _atom_site_fract_x
 _atom_site_fract_y
 _atom_site_fract_z
 _atom_site_occupancy
  Si  Si0  1  0.125000  0.625000  0.125000  1
  Si  Si1  1  0.125000  0.125000  0.625000  1
  Si  Si2  1  0.625000  0.125000  0.125000  1
  Ni  Ni3  1  0.329842  0.329842  0.005576  1
  Ni  Ni4  1  0.331409  0.331409  0.331409  1
  Ni  Ni5  1  0.244424  0.920158  0.920158  1
  Ni  Ni6  1  0.918591  0.918591  0.918591  1
  Ni  Ni7  1  0.005576  0.329842  0.329842  1
  Ni  Ni8  1  0.329842  0.005576  0.329842  1
  Ni  Ni9  1  0.920158  0.920158  0.244424  1
  Ni  Ni10  1  0.920158  0.244424  0.920158  1
  Mo  Mo11  1  0.305601  0.694885  0.694885  1
  Mo  Mo12  1  0.694885  0.694885  0.305601  1
  Mo  Mo13  1  0.694885  0.305601  0.694885  1
  Mo  Mo14  1  0.305472  0.694622  0.305472  1
  Mo  Mo15  1  0.555115  0.944399  0.555115  1
  Mo  Mo16  1  0.555378  0.944528  0.944528  1
  Mo  Mo17  1  0.944399  0.555115  0.555115  1
  Mo  Mo18  1  0.944528  0.555378  0.944528  1
  Mo  Mo19  1  0.305472  0.305472  0.694622  1
  Mo  Mo20  1  0.555115  0.555115  0.944399  1
  Mo  Mo21  1  0.944528  0.944528  0.555378  1
  Mo  Mo22  1  0.694622  0.305472  0.305472  1
  P  P23  1  0.125000  0.125000  0.125000  1
  C  C24  1  0.500029  0.500029  0.500029  1
  C  C25  1  0.749971  0.749971  0.749971  1
