# generated using pymatgen
data_Y3Tl2InAg2Rh
_symmetry_space_group_name_H-M   'P 1'
_cell_length_a   8.04444229
_cell_length_b   8.03375478
_cell_length_c   3.77712700
_cell_angle_alpha   90.00000000
_cell_angle_beta   90.00000000
_cell_angle_gamma   120.16198659
_symmetry_Int_Tables_number   1
_chemical_formula_structural   Y3Tl2InAg2Rh
_chemical_formula_sum   'Y3 Tl2 In1 Ag2 Rh1'
_cell_volume   211.05494024
_cell_formula_units_Z   1
loop_
 _symmetry_equiv_pos_site_id
 _symmetry_equiv_pos_as_xyz
  1  'x, y, z'
loop_
 _atom_site_type_symbol
 _atom_site_label
 _atom_site_symmetry_multiplicity
 _atom_site_fract_x
 _atom_site_fract_y
 _atom_site_fract_z
 _atom_site_occupancy
  Y  Y0  1  0.971367  0.582407  0.500000  1
  Y  Y1  1  0.416135  0.386408  0.500000  1
  Y  Y2  1  0.611299  0.031837  0.500000  1
  Tl  Tl3  1  0.006751  0.278011  0.000000  1
  Tl  Tl4  1  0.269210  0.990274  0.000000  1
  In  In5  1  0.723622  0.729023  0.000000  1
  Ag  Ag6  1  0.340975  0.667969  0.000000  1
  Ag  Ag7  1  0.992756  0.993831  0.500000  1
  Rh  Rh8  1  0.667886  0.340241  0.000000  1
