# generated using pymatgen
data_Sm8Zr12Si15Os
_symmetry_space_group_name_H-M   'P 1'
_cell_length_a   7.16585127
_cell_length_b   7.42777908
_cell_length_c   14.12901700
_cell_angle_alpha   90.00000000
_cell_angle_beta   90.00000000
_cell_angle_gamma   90.13025757
_symmetry_Int_Tables_number   1
_chemical_formula_structural   Sm8Zr12Si15Os
_chemical_formula_sum   'Sm8 Zr12 Si15 Os1'
_cell_volume   752.03420412
_cell_formula_units_Z   1
loop_
 _symmetry_equiv_pos_site_id
 _symmetry_equiv_pos_as_xyz
  1  'x, y, z'
loop_
 _atom_site_type_symbol
 _atom_site_label
 _atom_site_symmetry_multiplicity
 _atom_site_fract_x
 _atom_site_fract_y
 _atom_site_fract_z
 _atom_site_occupancy
  Sm  Sm0  1  0.012858  0.176332  0.097211  1
  Sm  Sm1  1  0.988212  0.824022  0.905628  1
  Sm  Sm2  1  0.488577  0.673850  0.904601  1
  Sm  Sm3  1  0.988212  0.824022  0.594372  1
  Sm  Sm4  1  0.512936  0.324726  0.097909  1
  Sm  Sm5  1  0.012858  0.176332  0.402789  1
  Sm  Sm6  1  0.512936  0.324726  0.402091  1
  Sm  Sm7  1  0.488577  0.673850  0.595399  1
  Zr  Zr8  1  0.153830  0.502427  0.750000  1
  Zr  Zr9  1  0.844061  0.504514  0.250000  1
  Zr  Zr10  1  0.344596  0.998461  0.250000  1
  Zr  Zr11  1  0.664369  0.004688  0.750000  1
  Zr  Zr12  1  0.321818  0.174370  0.624870  1
  Zr  Zr13  1  0.668546  0.823989  0.374037  1
  Zr  Zr14  1  0.171912  0.677392  0.374975  1
  Zr  Zr15  1  0.668546  0.823989  0.125963  1
  Zr  Zr16  1  0.834849  0.322258  0.625575  1
  Zr  Zr17  1  0.321818  0.174370  0.875130  1
  Zr  Zr18  1  0.834849  0.322258  0.874425  1
  Zr  Zr19  1  0.171912  0.677392  0.125025  1
  Si  Si20  1  0.966941  0.877925  0.250000  1
  Si  Si21  1  0.466037  0.621938  0.250000  1
  Si  Si22  1  0.533096  0.378443  0.750000  1
  Si  Si23  1  0.284492  0.874073  0.750000  1
  Si  Si24  1  0.716983  0.124863  0.250000  1
  Si  Si25  1  0.215763  0.378188  0.250000  1
  Si  Si26  1  0.779038  0.623163  0.750000  1
  Si  Si27  1  0.156140  0.468046  0.539215  1
  Si  Si28  1  0.845637  0.533760  0.457202  1
  Si  Si29  1  0.348394  0.966237  0.458443  1
  Si  Si30  1  0.845637  0.533760  0.042798  1
  Si  Si31  1  0.652837  0.033516  0.538898  1
  Si  Si32  1  0.156140  0.468046  0.960785  1
  Si  Si33  1  0.652837  0.033516  0.961102  1
  Si  Si34  1  0.348394  0.966237  0.041557  1
  Os  Os35  1  0.025365  0.114321  0.750000  1
