# generated using pymatgen
data_Ta8Fe3As
_symmetry_space_group_name_H-M   'P 1'
_cell_length_a   6.13933200
_cell_length_b   6.13933200
_cell_length_c   5.11913400
_cell_angle_alpha   90.00000000
_cell_angle_beta   90.00000000
_cell_angle_gamma   90.00000000
_symmetry_Int_Tables_number   1
_chemical_formula_structural   Ta8Fe3As
_chemical_formula_sum   'Ta8 Fe3 As1'
_cell_volume   192.94731397
_cell_formula_units_Z   1
loop_
 _symmetry_equiv_pos_site_id
 _symmetry_equiv_pos_as_xyz
  1  'x, y, z'
loop_
 _atom_site_type_symbol
 _atom_site_label
 _atom_site_symmetry_multiplicity
 _atom_site_fract_x
 _atom_site_fract_y
 _atom_site_fract_z
 _atom_site_occupancy
  Ta  Ta0  1  0.331937  0.156847  0.505068  1
  Ta  Ta1  1  0.668063  0.843153  0.505068  1
  Ta  Ta2  1  0.156847  0.668063  0.505068  1
  Ta  Ta3  1  0.843153  0.331937  0.505068  1
  Ta  Ta4  1  0.331937  0.843153  0.994932  1
  Ta  Ta5  1  0.843153  0.668063  0.994932  1
  Ta  Ta6  1  0.156847  0.331937  0.994932  1
  Ta  Ta7  1  0.668063  0.156847  0.994932  1
  Fe  Fe8  1  0.000000  0.000000  0.750000  1
  Fe  Fe9  1  0.000000  0.000000  0.250000  1
  Fe  Fe10  1  0.500000  0.500000  0.750000  1
  As  As11  1  0.500000  0.500000  0.250000  1
