# generated using pymatgen
data_YbPd(S2O7)2
_symmetry_space_group_name_H-M   'P 1'
_cell_length_a   5.67786477
_cell_length_b   6.93954941
_cell_length_c   9.01834056
_cell_angle_alpha   106.55319757
_cell_angle_beta   93.18588972
_cell_angle_gamma   102.68286305
_symmetry_Int_Tables_number   1
_chemical_formula_structural   YbPd(S2O7)2
_chemical_formula_sum   'Yb1 Pd1 S4 O14'
_cell_volume   329.63962595
_cell_formula_units_Z   1
loop_
 _symmetry_equiv_pos_site_id
 _symmetry_equiv_pos_as_xyz
  1  'x, y, z'
loop_
 _atom_site_type_symbol
 _atom_site_label
 _atom_site_symmetry_multiplicity
 _atom_site_fract_x
 _atom_site_fract_y
 _atom_site_fract_z
 _atom_site_occupancy
  Yb  Yb0  1  0.500000  0.000000  0.000000  1
  Pd  Pd1  1  0.500000  0.500000  0.500000  1
  S  S2  1  0.921572  0.729612  0.765777  1
  S  S3  1  0.078428  0.270388  0.234223  1
  S  S4  1  0.654392  0.311939  0.745453  1
  S  S5  1  0.345608  0.688061  0.254547  1
  O  O6  1  0.848279  0.665038  0.594258  1
  O  O7  1  0.151721  0.334962  0.405742  1
  O  O8  1  0.459511  0.401584  0.691996  1
  O  O9  1  0.540489  0.598416  0.308004  1
  O  O10  1  0.179639  0.826390  0.802717  1
  O  O11  1  0.820361  0.173610  0.197283  1
  O  O12  1  0.766008  0.844976  0.856518  1
  O  O13  1  0.233992  0.155024  0.143482  1
  O  O14  1  0.596024  0.262834  0.887412  1
  O  O15  1  0.403976  0.737166  0.112588  1
  O  O16  1  0.898431  0.519474  0.815144  1
  O  O17  1  0.101569  0.480526  0.184856  1
  O  O18  1  0.737717  0.165018  0.628157  1
  O  O19  1  0.262283  0.834982  0.371843  1
