# generated using pymatgen
data_Nd3DyHo4(CdIr)2
_symmetry_space_group_name_H-M   'P 1'
_cell_length_a   9.73079167
_cell_length_b   9.73079592
_cell_length_c   9.73542700
_cell_angle_alpha   59.98340712
_cell_angle_beta   59.98329751
_cell_angle_gamma   59.97465365
_symmetry_Int_Tables_number   1
_chemical_formula_structural   Nd3DyHo4(CdIr)2
_chemical_formula_sum   'Nd6 Dy2 Ho8 Cd4 Ir4'
_cell_volume   651.54437582
_cell_formula_units_Z   2
loop_
 _symmetry_equiv_pos_site_id
 _symmetry_equiv_pos_as_xyz
  1  'x, y, z'
loop_
 _atom_site_type_symbol
 _atom_site_label
 _atom_site_symmetry_multiplicity
 _atom_site_fract_x
 _atom_site_fract_y
 _atom_site_fract_z
 _atom_site_occupancy
  Nd  Nd0  1  0.941002  0.558678  0.559175  1
  Nd  Nd1  1  0.558675  0.941004  0.941145  1
  Nd  Nd2  1  0.558677  0.941002  0.559175  1
  Nd  Nd3  1  0.941003  0.558674  0.941144  1
  Nd  Nd4  1  0.559347  0.559347  0.940652  1
  Nd  Nd5  1  0.941433  0.941431  0.558566  1
  Dy  Dy6  1  0.347781  0.347782  0.347073  1
  Dy  Dy7  1  0.347781  0.347782  0.957364  1
  Ho  Ho8  1  0.347907  0.957478  0.347313  1
  Ho  Ho9  1  0.957477  0.347908  0.347313  1
  Ho  Ho10  1  0.812339  0.186813  0.188021  1
  Ho  Ho11  1  0.186814  0.812341  0.812829  1
  Ho  Ho12  1  0.186815  0.812340  0.188018  1
  Ho  Ho13  1  0.812341  0.186815  0.812828  1
  Ho  Ho14  1  0.187362  0.187359  0.812633  1
  Ho  Ho15  1  0.812511  0.812511  0.187493  1
  Cd  Cd16  1  0.579520  0.579520  0.579314  1
  Cd  Cd17  1  0.579521  0.579522  0.261640  1
  Cd  Cd18  1  0.579712  0.261176  0.579554  1
  Cd  Cd19  1  0.261177  0.579712  0.579555  1
  Ir  Ir20  1  0.141391  0.141391  0.141056  1
  Ir  Ir21  1  0.141391  0.141392  0.576159  1
  Ir  Ir22  1  0.141360  0.576661  0.140989  1
  Ir  Ir23  1  0.576660  0.141361  0.140989  1
