# generated using pymatgen
data_Y5Be3P9Ir19
_symmetry_space_group_name_H-M   'P 1'
_cell_length_a   12.63096700
_cell_length_b   12.63096649
_cell_length_c   3.95388600
_cell_angle_alpha   90.00000000
_cell_angle_beta   90.00000000
_cell_angle_gamma   119.99999871
_symmetry_Int_Tables_number   1
_chemical_formula_structural   Y5Be3P9Ir19
_chemical_formula_sum   'Y5 Be3 P9 Ir19'
_cell_volume   546.29592920
_cell_formula_units_Z   1
loop_
 _symmetry_equiv_pos_site_id
 _symmetry_equiv_pos_as_xyz
  1  'x, y, z'
loop_
 _atom_site_type_symbol
 _atom_site_label
 _atom_site_symmetry_multiplicity
 _atom_site_fract_x
 _atom_site_fract_y
 _atom_site_fract_z
 _atom_site_occupancy
  Y  Y0  1  0.666667  0.333333  0.000000  1
  Y  Y1  1  0.333333  0.666667  0.000000  1
  Y  Y2  1  0.815382  0.809274  0.500000  1
  Y  Y3  1  0.190726  0.006108  0.500000  1
  Y  Y4  1  0.993892  0.184618  0.500000  1
  Be  Be5  1  0.683279  0.162293  0.500000  1
  Be  Be6  1  0.837707  0.520985  0.500000  1
  Be  Be7  1  0.479015  0.316721  0.500000  1
  P  P8  1  0.177784  0.696621  0.500000  1
  P  P9  1  0.518836  0.822216  0.500000  1
  P  P10  1  0.303379  0.481164  0.500000  1
  P  P11  1  0.639451  0.626397  0.000000  1
  P  P12  1  0.373603  0.013053  0.000000  1
  P  P13  1  0.986947  0.360549  0.000000  1
  P  P14  1  0.178922  0.181624  0.000000  1
  P  P15  1  0.818376  0.997299  0.000000  1
  P  P16  1  0.002701  0.821078  0.000000  1
  Ir  Ir17  1  0.801397  0.175437  0.000000  1
  Ir  Ir18  1  0.824563  0.625960  0.000000  1
  Ir  Ir19  1  0.374040  0.198603  0.000000  1
  Ir  Ir20  1  0.190243  0.812547  0.000000  1
  Ir  Ir21  1  0.622304  0.809757  0.000000  1
  Ir  Ir22  1  0.187453  0.377696  0.000000  1
  Ir  Ir23  1  0.455137  0.446527  0.000000  1
  Ir  Ir24  1  0.553473  0.008610  0.000000  1
  Ir  Ir25  1  0.991390  0.544863  0.000000  1
  Ir  Ir26  1  0.281051  0.288119  0.500000  1
  Ir  Ir27  1  0.711881  0.992932  0.500000  1
  Ir  Ir28  1  0.007068  0.718949  0.500000  1
  Ir  Ir29  1  0.871358  0.354535  0.500000  1
  Ir  Ir30  1  0.645465  0.516824  0.500000  1
  Ir  Ir31  1  0.483176  0.128642  0.500000  1
  Ir  Ir32  1  0.369525  0.871066  0.500000  1
  Ir  Ir33  1  0.501543  0.630475  0.500000  1
  Ir  Ir34  1  0.128934  0.498457  0.500000  1
  Ir  Ir35  1  0.000000  0.000000  0.000000  1
