# generated using pymatgen
data_Tb2Zn19Cu3
_symmetry_space_group_name_H-M   'P 1'
_cell_length_a   8.14441835
_cell_length_b   8.14489451
_cell_length_c   8.14441831
_cell_angle_alpha   99.75106511
_cell_angle_beta   99.78631199
_cell_angle_gamma   131.34636836
_symmetry_Int_Tables_number   1
_chemical_formula_structural   Tb2Zn19Cu3
_chemical_formula_sum   'Tb2 Zn19 Cu3'
_cell_volume   369.59040727
_cell_formula_units_Z   1
loop_
 _symmetry_equiv_pos_site_id
 _symmetry_equiv_pos_as_xyz
  1  'x, y, z'
loop_
 _atom_site_type_symbol
 _atom_site_label
 _atom_site_symmetry_multiplicity
 _atom_site_fract_x
 _atom_site_fract_y
 _atom_site_fract_z
 _atom_site_occupancy
  Tb  Tb0  1  0.499780  0.499261  0.999480  1
  Tb  Tb1  1  0.750219  0.250738  0.500520  1
  Zn  Zn2  1  0.924804  0.600379  0.919417  1
  Zn  Zn3  1  0.852931  0.434705  0.176318  1
  Zn  Zn4  1  0.262416  0.673736  0.827533  1
  Zn  Zn5  1  0.684979  0.010036  0.083752  1
  Zn  Zn6  1  0.403797  0.076263  0.088679  1
  Zn  Zn7  1  0.991613  0.315294  0.918226  1
  Zn  Zn8  1  0.569037  0.149621  0.824425  1
  Zn  Zn9  1  0.323718  0.739964  0.174943  1
  Zn  Zn10  1  0.325196  0.149621  0.580583  1
  Zn  Zn11  1  0.397069  0.315294  0.323682  1
  Zn  Zn12  1  0.987584  0.076263  0.672467  1
  Zn  Zn13  1  0.565021  0.739963  0.416248  1
  Zn  Zn14  1  0.846203  0.673736  0.411322  1
  Zn  Zn15  1  0.258387  0.434705  0.581774  1
  Zn  Zn16  1  0.680963  0.600379  0.675574  1
  Zn  Zn17  1  0.926283  0.010036  0.325057  1
  Zn  Zn18  1  0.125000  0.875000  0.750000  1
  Zn  Zn19  1  0.252784  0.748731  0.495947  1
  Zn  Zn20  1  0.997216  0.001269  0.004053  1
  Cu  Cu21  1  0.125001  0.875001  0.250001  1
  Cu  Cu22  1  0.125002  0.375002  0.250000  1
  Cu  Cu23  1  0.625000  0.875001  0.749999  1
