# generated using pymatgen
data_YSc4Pa3(ReB6)4
_symmetry_space_group_name_H-M   'P 1'
_cell_length_a   3.63108800
_cell_length_b   9.00075889
_cell_length_c   11.37322703
_cell_angle_alpha   90.07993755
_cell_angle_beta   90.00000000
_cell_angle_gamma   90.00000000
_symmetry_Int_Tables_number   1
_chemical_formula_structural   YSc4Pa3(ReB6)4
_chemical_formula_sum   'Y1 Sc4 Pa3 Re4 B24'
_cell_volume   371.70567179
_cell_formula_units_Z   1
loop_
 _symmetry_equiv_pos_site_id
 _symmetry_equiv_pos_as_xyz
  1  'x, y, z'
loop_
 _atom_site_type_symbol
 _atom_site_label
 _atom_site_symmetry_multiplicity
 _atom_site_fract_x
 _atom_site_fract_y
 _atom_site_fract_z
 _atom_site_occupancy
  Y  Y0  1  0.000000  0.181404  0.913349  1
  Sc  Sc1  1  0.000000  0.946117  0.374885  1
  Sc  Sc2  1  0.000000  0.055091  0.626527  1
  Sc  Sc3  1  0.000000  0.444229  0.124502  1
  Sc  Sc4  1  0.000000  0.553520  0.874681  1
  Pa  Pa5  1  0.000000  0.319286  0.413922  1
  Pa  Pa6  1  0.000000  0.680018  0.586650  1
  Pa  Pa7  1  0.000000  0.821384  0.085584  1
  Re  Re8  1  0.000000  0.640446  0.319451  1
  Re  Re9  1  0.000000  0.361623  0.678479  1
  Re  Re10  1  0.000000  0.139927  0.182871  1
  Re  Re11  1  0.000000  0.857395  0.819003  1
  B  B12  1  0.500000  0.554796  0.432456  1
  B  B13  1  0.500000  0.445437  0.567023  1
  B  B14  1  0.500000  0.054432  0.067806  1
  B  B15  1  0.500000  0.944415  0.932685  1
  B  B16  1  0.500000  0.753746  0.419367  1
  B  B17  1  0.500000  0.246580  0.581456  1
  B  B18  1  0.500000  0.253194  0.080473  1
  B  B19  1  0.500000  0.747101  0.919473  1
  B  B20  1  0.500000  0.794435  0.264640  1
  B  B21  1  0.500000  0.205550  0.735284  1
  B  B22  1  0.500000  0.294547  0.234293  1
  B  B23  1  0.500000  0.705378  0.765126  1
  B  B24  1  0.500000  0.629674  0.182349  1
  B  B25  1  0.500000  0.370412  0.817014  1
  B  B26  1  0.500000  0.129871  0.317311  1
  B  B27  1  0.500000  0.870182  0.683420  1
  B  B28  1  0.500000  0.981634  0.214009  1
  B  B29  1  0.500000  0.018729  0.785557  1
  B  B30  1  0.500000  0.481864  0.284626  1
  B  B31  1  0.500000  0.517893  0.715286  1
  B  B32  1  0.500000  0.599608  0.027347  1
  B  B33  1  0.500000  0.399956  0.972432  1
  B  B34  1  0.500000  0.100455  0.472944  1
  B  B35  1  0.500000  0.899668  0.527716  1
