# generated using pymatgen
data_Tm6Zn23As
_symmetry_space_group_name_H-M   'P 1'
_cell_length_a   9.01458339
_cell_length_b   9.01458269
_cell_length_c   9.01458100
_cell_angle_alpha   60.00003644
_cell_angle_beta   60.00000994
_cell_angle_gamma   60.00000982
_symmetry_Int_Tables_number   1
_chemical_formula_structural   Tm6Zn23As
_chemical_formula_sum   'Tm6 Zn23 As1'
_cell_volume   517.99076771
_cell_formula_units_Z   1
loop_
 _symmetry_equiv_pos_site_id
 _symmetry_equiv_pos_as_xyz
  1  'x, y, z'
loop_
 _atom_site_type_symbol
 _atom_site_label
 _atom_site_symmetry_multiplicity
 _atom_site_fract_x
 _atom_site_fract_y
 _atom_site_fract_z
 _atom_site_occupancy
  Tm  Tm0  1  0.715022  0.284978  0.284978  1
  Tm  Tm1  1  0.715021  0.284978  0.715022  1
  Tm  Tm2  1  0.715021  0.715022  0.284978  1
  Tm  Tm3  1  0.284978  0.715022  0.715022  1
  Tm  Tm4  1  0.284979  0.715022  0.284978  1
  Tm  Tm5  1  0.284978  0.284978  0.715023  1
  Zn  Zn6  1  0.624250  0.125250  0.125250  1
  Zn  Zn7  1  0.125250  0.624249  0.125250  1
  Zn  Zn8  1  0.125250  0.125251  0.624250  1
  Zn  Zn9  1  0.125252  0.125251  0.125252  1
  Zn  Zn10  1  0.375751  0.874750  0.874749  1
  Zn  Zn11  1  0.874749  0.375751  0.874749  1
  Zn  Zn12  1  0.874750  0.874750  0.375750  1
  Zn  Zn13  1  0.874749  0.874749  0.874749  1
  Zn  Zn14  1  0.500000  0.000000  0.000000  1
  Zn  Zn15  1  0.500000  0.000000  0.500000  1
  Zn  Zn16  1  0.500000  0.500000  0.000000  1
  Zn  Zn17  1  0.000000  0.500001  0.500000  1
  Zn  Zn18  1  0.000001  0.500000  0.000000  1
  Zn  Zn19  1  0.000000  0.000000  0.500000  1
  Zn  Zn20  1  0.000000  0.000000  0.000000  1
  Zn  Zn21  1  0.010006  0.329999  0.329998  1
  Zn  Zn22  1  0.329998  0.010007  0.329999  1
  Zn  Zn23  1  0.329998  0.329998  0.010008  1
  Zn  Zn24  1  0.329998  0.329998  0.329999  1
  Zn  Zn25  1  0.989994  0.670002  0.670002  1
  Zn  Zn26  1  0.670002  0.989993  0.670002  1
  Zn  Zn27  1  0.670002  0.670002  0.989992  1
  Zn  Zn28  1  0.670001  0.670001  0.670001  1
  As  As29  1  0.500000  0.500000  0.500000  1
