# generated using pymatgen
data_Er12Si12IrRh3
_symmetry_space_group_name_H-M   'P 1'
_cell_length_a   4.19308500
_cell_length_b   10.61792206
_cell_length_c   12.22759900
_cell_angle_alpha   90.06607573
_cell_angle_beta   90.00000000
_cell_angle_gamma   90.00000000
_symmetry_Int_Tables_number   1
_chemical_formula_structural   Er12Si12IrRh3
_chemical_formula_sum   'Er12 Si12 Ir1 Rh3'
_cell_volume   544.39496315
_cell_formula_units_Z   1
loop_
 _symmetry_equiv_pos_site_id
 _symmetry_equiv_pos_as_xyz
  1  'x, y, z'
loop_
 _atom_site_type_symbol
 _atom_site_label
 _atom_site_symmetry_multiplicity
 _atom_site_fract_x
 _atom_site_fract_y
 _atom_site_fract_z
 _atom_site_occupancy
  Er  Er0  1  0.250000  0.878883  0.020037  1
  Er  Er1  1  0.250000  0.620168  0.520460  1
  Er  Er2  1  0.750000  0.120858  0.979520  1
  Er  Er3  1  0.750000  0.379448  0.480154  1
  Er  Er4  1  0.250000  0.920541  0.603380  1
  Er  Er5  1  0.250000  0.579486  0.103902  1
  Er  Er6  1  0.750000  0.079986  0.396718  1
  Er  Er7  1  0.750000  0.420376  0.895839  1
  Er  Er8  1  0.250000  0.660697  0.800314  1
  Er  Er9  1  0.250000  0.839781  0.300788  1
  Er  Er10  1  0.750000  0.339516  0.199032  1
  Er  Er11  1  0.750000  0.159297  0.699349  1
  Si  Si12  1  0.250000  0.014440  0.822728  1
  Si  Si13  1  0.250000  0.485802  0.322324  1
  Si  Si14  1  0.750000  0.985511  0.177351  1
  Si  Si15  1  0.750000  0.512713  0.678020  1
  Si  Si16  1  0.250000  0.247572  0.840495  1
  Si  Si17  1  0.250000  0.252882  0.342083  1
  Si  Si18  1  0.750000  0.752187  0.158628  1
  Si  Si19  1  0.750000  0.747326  0.657921  1
  Si  Si20  1  0.250000  0.200923  0.543732  1
  Si  Si21  1  0.250000  0.302048  0.041141  1
  Si  Si22  1  0.750000  0.801453  0.457966  1
  Si  Si23  1  0.750000  0.697639  0.957959  1
  Ir  Ir24  1  0.250000  0.390960  0.680684  1
  Rh  Rh25  1  0.250000  0.109672  0.181438  1
  Rh  Rh26  1  0.750000  0.609497  0.319382  1
  Rh  Rh27  1  0.750000  0.890339  0.818654  1
