# generated using pymatgen
data_Cs2BeS2
_symmetry_space_group_name_H-M   'P 1'
_cell_length_a   8.39081635
_cell_length_b   8.39081596
_cell_length_c   8.39081595
_cell_angle_alpha   138.22995870
_cell_angle_beta   128.02412390
_cell_angle_gamma   68.78813721
_symmetry_Int_Tables_number   1
_chemical_formula_structural   Cs2BeS2
_chemical_formula_sum   'Cs4 Be2 S4'
_cell_volume   304.59547482
_cell_formula_units_Z   2
loop_
 _symmetry_equiv_pos_site_id
 _symmetry_equiv_pos_as_xyz
  1  'x, y, z'
loop_
 _atom_site_type_symbol
 _atom_site_label
 _atom_site_symmetry_multiplicity
 _atom_site_fract_x
 _atom_site_fract_y
 _atom_site_fract_z
 _atom_site_occupancy
  Cs  Cs0  1  0.470173  0.146648  0.323526  1
  Cs  Cs1  1  0.529827  0.853352  0.676474  1
  Cs  Cs2  1  0.176878  0.353352  0.823526  1
  Cs  Cs3  1  0.823122  0.646648  0.176474  1
  Be  Be4  1  0.000000  0.750000  0.750000  1
  Be  Be5  1  0.000000  0.250000  0.250000  1
  S  S6  1  0.766548  0.416306  0.350242  1
  S  S7  1  0.233452  0.583694  0.649758  1
  S  S8  1  0.066065  0.916306  0.149758  1
  S  S9  1  0.933935  0.083694  0.850242  1
