# generated using pymatgen
data_Lu4FeTc7
_symmetry_space_group_name_H-M   'P 1'
_cell_length_a   5.34468156
_cell_length_b   5.34468160
_cell_length_c   8.71687100
_cell_angle_alpha   90.00000000
_cell_angle_beta   90.00000000
_cell_angle_gamma   121.20102858
_symmetry_Int_Tables_number   1
_chemical_formula_structural   Lu4FeTc7
_chemical_formula_sum   'Lu4 Fe1 Tc7'
_cell_volume   212.98581021
_cell_formula_units_Z   1
loop_
 _symmetry_equiv_pos_site_id
 _symmetry_equiv_pos_as_xyz
  1  'x, y, z'
loop_
 _atom_site_type_symbol
 _atom_site_label
 _atom_site_symmetry_multiplicity
 _atom_site_fract_x
 _atom_site_fract_y
 _atom_site_fract_z
 _atom_site_occupancy
  Lu  Lu0  1  0.334410  0.665590  0.436985  1
  Lu  Lu1  1  0.666396  0.333604  0.561329  1
  Lu  Lu2  1  0.666396  0.333604  0.938671  1
  Lu  Lu3  1  0.334410  0.665590  0.063015  1
  Fe  Fe4  1  0.827854  0.172146  0.250000  1
  Tc  Tc5  1  0.002478  0.997522  0.493155  1
  Tc  Tc6  1  0.002478  0.997522  0.006845  1
  Tc  Tc7  1  0.823764  0.655967  0.250000  1
  Tc  Tc8  1  0.344033  0.176236  0.250000  1
  Tc  Tc9  1  0.169897  0.830103  0.750000  1
  Tc  Tc10  1  0.170392  0.342508  0.750000  1
  Tc  Tc11  1  0.657492  0.829608  0.750000  1
