# generated using pymatgen
data_Tb3Y3Ho2(CdPt)2
_symmetry_space_group_name_H-M   'P 1'
_cell_length_a   9.70607516
_cell_length_b   9.69866733
_cell_length_c   9.69866783
_cell_angle_alpha   60.05054555
_cell_angle_beta   59.97473182
_cell_angle_gamma   59.97473557
_symmetry_Int_Tables_number   1
_chemical_formula_structural   Tb3Y3Ho2(CdPt)2
_chemical_formula_sum   'Tb6 Y6 Ho4 Cd4 Pt4'
_cell_volume   645.58337240
_cell_formula_units_Z   2
loop_
 _symmetry_equiv_pos_site_id
 _symmetry_equiv_pos_as_xyz
  1  'x, y, z'
loop_
 _atom_site_type_symbol
 _atom_site_label
 _atom_site_symmetry_multiplicity
 _atom_site_fract_x
 _atom_site_fract_y
 _atom_site_fract_z
 _atom_site_occupancy
  Tb  Tb0  1  0.352168  0.352552  0.352552  1
  Tb  Tb1  1  0.352552  0.352168  0.942729  1
  Tb  Tb2  1  0.352552  0.942729  0.352168  1
  Tb  Tb3  1  0.942729  0.352552  0.352552  1
  Tb  Tb4  1  0.810911  0.189089  0.189089  1
  Tb  Tb5  1  0.189089  0.810911  0.810911  1
  Y  Y6  1  0.935800  0.564200  0.564200  1
  Y  Y7  1  0.564200  0.935800  0.935800  1
  Y  Y8  1  0.564219  0.935781  0.564219  1
  Y  Y9  1  0.935781  0.564219  0.935781  1
  Y  Y10  1  0.564219  0.564219  0.935781  1
  Y  Y11  1  0.935781  0.935781  0.564219  1
  Ho  Ho12  1  0.189378  0.810622  0.189378  1
  Ho  Ho13  1  0.810622  0.189378  0.810622  1
  Ho  Ho14  1  0.189378  0.189378  0.810622  1
  Ho  Ho15  1  0.810622  0.810622  0.189378  1
  Cd  Cd16  1  0.582045  0.581774  0.581774  1
  Cd  Cd17  1  0.581774  0.582045  0.254407  1
  Cd  Cd18  1  0.581774  0.254407  0.582045  1
  Cd  Cd19  1  0.254407  0.581774  0.581774  1
  Pt  Pt20  1  0.143551  0.142927  0.142927  1
  Pt  Pt21  1  0.142927  0.143551  0.570596  1
  Pt  Pt22  1  0.142927  0.570596  0.143551  1
  Pt  Pt23  1  0.570596  0.142927  0.142927  1
