# generated using pymatgen
data_DyEr4Bi2P
_symmetry_space_group_name_H-M   'P 1'
_cell_length_a   7.93775513
_cell_length_b   8.92660810
_cell_length_c   12.07764433
_cell_angle_alpha   90.01693060
_cell_angle_beta   90.02087160
_cell_angle_gamma   90.00062335
_symmetry_Int_Tables_number   1
_chemical_formula_structural   DyEr4Bi2P
_chemical_formula_sum   'Dy4 Er16 Bi8 P4'
_cell_volume   855.78831888
_cell_formula_units_Z   4
loop_
 _symmetry_equiv_pos_site_id
 _symmetry_equiv_pos_as_xyz
  1  'x, y, z'
loop_
 _atom_site_type_symbol
 _atom_site_label
 _atom_site_symmetry_multiplicity
 _atom_site_fract_x
 _atom_site_fract_y
 _atom_site_fract_z
 _atom_site_occupancy
  Dy  Dy0  1  0.816283  0.048698  0.064171  1
  Dy  Dy1  1  0.683655  0.451057  0.564157  1
  Dy  Dy2  1  0.816316  0.451229  0.064203  1
  Dy  Dy3  1  0.183742  0.548931  0.935851  1
  Er  Er4  1  0.851695  0.750105  0.794636  1
  Er  Er5  1  0.148355  0.249997  0.205421  1
  Er  Er6  1  0.351695  0.249896  0.705389  1
  Er  Er7  1  0.648258  0.750001  0.294702  1
  Er  Er8  1  0.376459  0.750068  0.699440  1
  Er  Er9  1  0.623411  0.249975  0.300637  1
  Er  Er10  1  0.876532  0.249925  0.800463  1
  Er  Er11  1  0.123616  0.750032  0.199645  1
  Er  Er12  1  0.959125  0.750091  0.502045  1
  Er  Er13  1  0.041103  0.249942  0.497890  1
  Er  Er14  1  0.458845  0.249922  0.997848  1
  Er  Er15  1  0.540929  0.750064  0.002108  1
  Er  Er16  1  0.683165  0.049155  0.564118  1
  Er  Er17  1  0.316779  0.950678  0.435911  1
  Er  Er18  1  0.183214  0.950836  0.935920  1
  Er  Er19  1  0.316788  0.549402  0.435882  1
  Bi  Bi20  1  0.577598  0.490903  0.826569  1
  Bi  Bi21  1  0.422294  0.509140  0.173534  1
  Bi  Bi22  1  0.077580  0.509105  0.673265  1
  Bi  Bi23  1  0.422324  0.990912  0.173454  1
  Bi  Bi24  1  0.922480  0.490848  0.326676  1
  Bi  Bi25  1  0.577621  0.009131  0.826495  1
  Bi  Bi26  1  0.922509  0.009093  0.326758  1
  Bi  Bi27  1  0.077626  0.990856  0.673338  1
  P  P28  1  0.572647  0.750663  0.511845  1
  P  P29  1  0.426687  0.249558  0.487887  1
  P  P30  1  0.073373  0.249349  0.987903  1
  P  P31  1  0.927296  0.750436  0.011841  1
