# generated using pymatgen
data_Y4Sc6Ga5Sn3
_symmetry_space_group_name_H-M   'P 1'
_cell_length_a   7.38338700
_cell_length_b   7.70228138
_cell_length_c   14.66146200
_cell_angle_alpha   89.98188651
_cell_angle_beta   90.00000000
_cell_angle_gamma   90.00000000
_symmetry_Int_Tables_number   1
_chemical_formula_structural   Y4Sc6Ga5Sn3
_chemical_formula_sum   'Y8 Sc12 Ga10 Sn6'
_cell_volume   833.78153017
_cell_formula_units_Z   2
loop_
 _symmetry_equiv_pos_site_id
 _symmetry_equiv_pos_as_xyz
  1  'x, y, z'
loop_
 _atom_site_type_symbol
 _atom_site_label
 _atom_site_symmetry_multiplicity
 _atom_site_fract_x
 _atom_site_fract_y
 _atom_site_fract_z
 _atom_site_occupancy
  Y  Y0  1  0.513970  0.677621  0.590079  1
  Y  Y1  1  0.013970  0.822379  0.909921  1
  Y  Y2  1  0.484786  0.331612  0.089852  1
  Y  Y3  1  0.984786  0.168388  0.410148  1
  Y  Y4  1  0.496393  0.319120  0.409412  1
  Y  Y5  1  0.996393  0.180880  0.090588  1
  Y  Y6  1  0.510427  0.669773  0.908253  1
  Y  Y7  1  0.010427  0.830227  0.591747  1
  Sc  Sc8  1  0.672363  0.174657  0.621013  1
  Sc  Sc9  1  0.172363  0.325343  0.878987  1
  Sc  Sc10  1  0.317813  0.820898  0.121491  1
  Sc  Sc11  1  0.817813  0.679102  0.378509  1
  Sc  Sc12  1  0.333586  0.833858  0.376632  1
  Sc  Sc13  1  0.833586  0.666142  0.123368  1
  Sc  Sc14  1  0.672988  0.183837  0.876014  1
  Sc  Sc15  1  0.172988  0.316163  0.623986  1
  Sc  Sc16  1  0.833537  0.492606  0.750108  1
  Sc  Sc17  1  0.333537  0.007394  0.749892  1
  Sc  Sc18  1  0.167690  0.508176  0.247438  1
  Sc  Sc19  1  0.667690  0.991824  0.252562  1
  Ga  Ga20  1  0.657251  0.964418  0.459123  1
  Ga  Ga21  1  0.157251  0.535582  0.040877  1
  Ga  Ga22  1  0.334089  0.036164  0.956480  1
  Ga  Ga23  1  0.834089  0.463836  0.543520  1
  Ga  Ga24  1  0.341682  0.034681  0.541525  1
  Ga  Ga25  1  0.841682  0.465319  0.958475  1
  Ga  Ga26  1  0.473793  0.376468  0.748519  1
  Ga  Ga27  1  0.973793  0.123532  0.751481  1
  Ga  Ga28  1  0.525934  0.625437  0.249035  1
  Ga  Ga29  1  0.025934  0.874563  0.250965  1
  Sn  Sn30  1  0.663168  0.964030  0.041191  1
  Sn  Sn31  1  0.163168  0.535970  0.458809  1
  Sn  Sn32  1  0.714277  0.867536  0.751296  1
  Sn  Sn33  1  0.214277  0.632464  0.748704  1
  Sn  Sn34  1  0.286254  0.134595  0.249389  1
  Sn  Sn35  1  0.786254  0.365405  0.250611  1
