# generated using pymatgen
data_Lu5CoTe4
_symmetry_space_group_name_H-M   'P 1'
_cell_length_a   7.49618245
_cell_length_b   7.49618252
_cell_length_c   10.62538467
_cell_angle_alpha   60.51039892
_cell_angle_beta   60.51039785
_cell_angle_gamma   31.59683961
_symmetry_Int_Tables_number   1
_chemical_formula_structural   Lu5CoTe4
_chemical_formula_sum   'Lu5 Co1 Te4'
_cell_volume   268.79098728
_cell_formula_units_Z   1
loop_
 _symmetry_equiv_pos_site_id
 _symmetry_equiv_pos_as_xyz
  1  'x, y, z'
loop_
 _atom_site_type_symbol
 _atom_site_label
 _atom_site_symmetry_multiplicity
 _atom_site_fract_x
 _atom_site_fract_y
 _atom_site_fract_z
 _atom_site_occupancy
  Lu  Lu0  1  0.000000  0.000000  0.500000  1
  Lu  Lu1  1  0.575415  0.575415  0.079641  1
  Lu  Lu2  1  0.175516  0.175516  0.746431  1
  Lu  Lu3  1  0.824484  0.824484  0.253569  1
  Lu  Lu4  1  0.424585  0.424585  0.920359  1
  Co  Co5  1  0.000000  0.000000  0.000000  1
  Te  Te6  1  0.614045  0.614045  0.579104  1
  Te  Te7  1  0.188442  0.188442  0.194374  1
  Te  Te8  1  0.811558  0.811558  0.805626  1
  Te  Te9  1  0.385955  0.385955  0.420896  1
