# generated using pymatgen
data_CaLaPrB10O19
_symmetry_space_group_name_H-M   'P 1'
_cell_length_a   6.46145016
_cell_length_b   6.46169072
_cell_length_c   9.19256081
_cell_angle_alpha   88.39620675
_cell_angle_beta   91.56780274
_cell_angle_gamma   118.39185068
_symmetry_Int_Tables_number   1
_chemical_formula_structural   CaLaPrB10O19
_chemical_formula_sum   'Ca1 La1 Pr1 B10 O19'
_cell_volume   337.46571685
_cell_formula_units_Z   1
loop_
 _symmetry_equiv_pos_site_id
 _symmetry_equiv_pos_as_xyz
  1  'x, y, z'
loop_
 _atom_site_type_symbol
 _atom_site_label
 _atom_site_symmetry_multiplicity
 _atom_site_fract_x
 _atom_site_fract_y
 _atom_site_fract_z
 _atom_site_occupancy
  Ca  Ca0  1  0.812238  0.810414  0.499445  1
  La  La1  1  0.836418  0.158189  0.854930  1
  Pr  Pr2  1  0.155543  0.834682  0.144222  1
  B  B3  1  0.283221  0.363594  0.161050  1
  B  B4  1  0.364568  0.283226  0.839362  1
  B  B5  1  0.838539  0.186335  0.207547  1
  B  B6  1  0.187135  0.838032  0.793176  1
  B  B7  1  0.674041  0.445835  0.269513  1
  B  B8  1  0.446194  0.673207  0.728645  1
  B  B9  1  0.252696  0.788460  0.528838  1
  B  B10  1  0.785908  0.252458  0.470804  1
  B  B11  1  0.623700  0.760845  0.125790  1
  B  B12  1  0.760380  0.624717  0.874357  1
  O  O13  1  0.143103  0.851314  0.636794  1
  O  O14  1  0.849311  0.141987  0.364354  1
  O  O15  1  0.363588  0.592160  0.114374  1
  O  O16  1  0.591881  0.366164  0.887805  1
  O  O17  1  0.406016  0.702436  0.572093  1
  O  O18  1  0.700062  0.405062  0.426483  1
  O  O19  1  0.192486  0.809069  0.389754  1
  O  O20  1  0.806459  0.195391  0.610934  1
  O  O21  1  0.724939  0.694230  0.253105  1
  O  O22  1  0.694415  0.723742  0.745639  1
  O  O23  1  0.426417  0.281991  0.220012  1
  O  O24  1  0.282696  0.423667  0.776428  1
  O  O25  1  0.842489  0.411883  0.181874  1
  O  O26  1  0.410579  0.838433  0.818100  1
  O  O27  1  0.051368  0.194482  0.134828  1
  O  O28  1  0.198331  0.050921  0.868482  1
  O  O29  1  0.633234  0.992056  0.134676  1
  O  O30  1  0.992128  0.634395  0.866564  1
  O  O31  1  0.764818  0.765522  0.000023  1
