# generated using pymatgen
data_ErTm(CuP)3
_symmetry_space_group_name_H-M   'P 1'
_cell_length_a   3.82155100
_cell_length_b   10.62405200
_cell_length_c   12.90835200
_cell_angle_alpha   90.00000000
_cell_angle_beta   90.00000000
_cell_angle_gamma   90.00000000
_symmetry_Int_Tables_number   1
_chemical_formula_structural   ErTm(CuP)3
_chemical_formula_sum   'Er4 Tm4 Cu12 P12'
_cell_volume   524.08369360
_cell_formula_units_Z   4
loop_
 _symmetry_equiv_pos_site_id
 _symmetry_equiv_pos_as_xyz
  1  'x, y, z'
loop_
 _atom_site_type_symbol
 _atom_site_label
 _atom_site_symmetry_multiplicity
 _atom_site_fract_x
 _atom_site_fract_y
 _atom_site_fract_z
 _atom_site_occupancy
  Er  Er0  1  0.250000  0.931097  0.791807  1
  Er  Er1  1  0.750000  0.431097  0.708193  1
  Er  Er2  1  0.250000  0.568903  0.291807  1
  Er  Er3  1  0.750000  0.068903  0.208193  1
  Tm  Tm4  1  0.250000  0.840611  0.503562  1
  Tm  Tm5  1  0.750000  0.340611  0.996438  1
  Tm  Tm6  1  0.250000  0.659389  0.003562  1
  Tm  Tm7  1  0.750000  0.159389  0.496438  1
  Cu  Cu8  1  0.250000  0.405592  0.512970  1
  Cu  Cu9  1  0.750000  0.905592  0.987030  1
  Cu  Cu10  1  0.250000  0.094408  0.012970  1
  Cu  Cu11  1  0.750000  0.594408  0.487030  1
  Cu  Cu12  1  0.250000  0.271709  0.331497  1
  Cu  Cu13  1  0.750000  0.771709  0.168503  1
  Cu  Cu14  1  0.250000  0.228291  0.831497  1
  Cu  Cu15  1  0.750000  0.728291  0.668503  1
  Cu  Cu16  1  0.250000  0.859753  0.282387  1
  Cu  Cu17  1  0.750000  0.359753  0.217613  1
  Cu  Cu18  1  0.250000  0.640247  0.782387  1
  Cu  Cu19  1  0.750000  0.140247  0.717613  1
  P  P20  1  0.250000  0.243302  0.641321  1
  P  P21  1  0.750000  0.743302  0.858679  1
  P  P22  1  0.250000  0.256698  0.141321  1
  P  P23  1  0.750000  0.756698  0.358679  1
  P  P24  1  0.250000  0.605589  0.602648  1
  P  P25  1  0.750000  0.105589  0.897352  1
  P  P26  1  0.250000  0.894411  0.102648  1
  P  P27  1  0.750000  0.394411  0.397352  1
  P  P28  1  0.250000  0.056317  0.370745  1
  P  P29  1  0.750000  0.556317  0.129255  1
  P  P30  1  0.250000  0.443683  0.870745  1
  P  P31  1  0.750000  0.943683  0.629255  1
