# generated using pymatgen
data_Hf6Zn5AuN2
_symmetry_space_group_name_H-M   'P 1'
_cell_length_a   8.52775708
_cell_length_b   8.52775760
_cell_length_c   8.56399425
_cell_angle_alpha   60.13987189
_cell_angle_beta   60.13987323
_cell_angle_gamma   60.00000187
_symmetry_Int_Tables_number   1
_chemical_formula_structural   Hf6Zn5AuN2
_chemical_formula_sum   'Hf12 Zn10 Au2 N4'
_cell_volume   441.31225590
_cell_formula_units_Z   2
loop_
 _symmetry_equiv_pos_site_id
 _symmetry_equiv_pos_as_xyz
  1  'x, y, z'
loop_
 _atom_site_type_symbol
 _atom_site_label
 _atom_site_symmetry_multiplicity
 _atom_site_fract_x
 _atom_site_fract_y
 _atom_site_fract_z
 _atom_site_occupancy
  Hf  Hf0  1  0.816156  0.188018  0.179670  1
  Hf  Hf1  1  0.188018  0.816156  0.179670  1
  Hf  Hf2  1  0.816156  0.816156  0.179670  1
  Hf  Hf3  1  0.186324  0.813508  0.813844  1
  Hf  Hf4  1  0.813508  0.186324  0.813844  1
  Hf  Hf5  1  0.186324  0.186324  0.813844  1
  Hf  Hf6  1  0.435391  0.056919  0.072298  1
  Hf  Hf7  1  0.056919  0.435391  0.072298  1
  Hf  Hf8  1  0.435391  0.435391  0.072298  1
  Hf  Hf9  1  0.065147  0.434104  0.435602  1
  Hf  Hf10  1  0.434104  0.065147  0.435602  1
  Hf  Hf11  1  0.065147  0.065147  0.435602  1
  Zn  Zn12  1  0.414152  0.414152  0.423495  1
  Zn  Zn13  1  0.748201  0.414152  0.423495  1
  Zn  Zn14  1  0.414152  0.748201  0.423495  1
  Zn  Zn15  1  0.834756  0.834756  0.495732  1
  Zn  Zn16  1  0.835791  0.835791  0.827866  1
  Zn  Zn17  1  0.500553  0.835791  0.827866  1
  Zn  Zn18  1  0.835791  0.500553  0.827866  1
  Zn  Zn19  1  0.630067  0.630067  0.618892  1
  Zn  Zn20  1  0.120973  0.630067  0.618892  1
  Zn  Zn21  1  0.630067  0.120973  0.618892  1
  Au  Au22  1  0.413126  0.413126  0.760621  1
  Au  Au23  1  0.624559  0.624559  0.126323  1
  N  N24  1  0.124373  0.124373  0.626882  1
  N  N25  1  0.125234  0.125234  0.125148  1
  N  N26  1  0.624384  0.125234  0.125148  1
  N  N27  1  0.125234  0.624384  0.125148  1
