# generated using pymatgen
data_CsSm3CBr6
_symmetry_space_group_name_H-M   'P 1'
_cell_length_a   8.99750806
_cell_length_b   9.04627205
_cell_length_c   9.64670684
_cell_angle_alpha   70.51853931
_cell_angle_beta   85.06449930
_cell_angle_gamma   89.20277229
_symmetry_Int_Tables_number   1
_chemical_formula_structural   CsSm3CBr6
_chemical_formula_sum   'Cs2 Sm6 C2 Br12'
_cell_volume   737.39503977
_cell_formula_units_Z   2
loop_
 _symmetry_equiv_pos_site_id
 _symmetry_equiv_pos_as_xyz
  1  'x, y, z'
loop_
 _atom_site_type_symbol
 _atom_site_label
 _atom_site_symmetry_multiplicity
 _atom_site_fract_x
 _atom_site_fract_y
 _atom_site_fract_z
 _atom_site_occupancy
  Cs  Cs0  1  0.467829  0.362909  0.330472  1
  Cs  Cs1  1  0.532172  0.637091  0.669528  1
  Sm  Sm2  1  0.915378  0.742006  0.005461  1
  Sm  Sm3  1  0.084622  0.257994  0.994538  1
  Sm  Sm4  1  0.741010  0.086534  0.001298  1
  Sm  Sm5  1  0.258989  0.913466  0.998703  1
  Sm  Sm6  1  0.974426  0.884129  0.325377  1
  Sm  Sm7  1  0.025573  0.115871  0.674624  1
  C  C8  1  0.006020  0.026623  0.922130  1
  C  C9  1  0.993979  0.973377  0.077870  1
  Br  Br10  1  0.077210  0.195376  0.325456  1
  Br  Br11  1  0.922790  0.804624  0.674544  1
  Br  Br12  1  0.204969  0.592180  0.001183  1
  Br  Br13  1  0.795032  0.407820  0.998817  1
  Br  Br14  1  0.403750  0.200731  0.001581  1
  Br  Br15  1  0.596249  0.799270  0.998418  1
  Br  Br16  1  0.668218  0.000489  0.325419  1
  Br  Br17  1  0.331782  0.999511  0.674581  1
  Br  Br18  1  0.281904  0.774377  0.321199  1
  Br  Br19  1  0.718096  0.225623  0.678801  1
  Br  Br20  1  0.850291  0.589173  0.327098  1
  Br  Br21  1  0.149708  0.410827  0.672902  1
