# generated using pymatgen
data_Ho4HgPt11
_symmetry_space_group_name_H-M   'P 1'
_cell_length_a   4.17901100
_cell_length_b   5.82915545
_cell_length_c   11.69684112
_cell_angle_alpha   88.61097870
_cell_angle_beta   90.00000000
_cell_angle_gamma   90.00000000
_symmetry_Int_Tables_number   1
_chemical_formula_structural   Ho4HgPt11
_chemical_formula_sum   'Ho4 Hg1 Pt11'
_cell_volume   284.85254698
_cell_formula_units_Z   1
loop_
 _symmetry_equiv_pos_site_id
 _symmetry_equiv_pos_as_xyz
  1  'x, y, z'
loop_
 _atom_site_type_symbol
 _atom_site_label
 _atom_site_symmetry_multiplicity
 _atom_site_fract_x
 _atom_site_fract_y
 _atom_site_fract_z
 _atom_site_occupancy
  Ho  Ho0  1  0.500000  0.752615  0.375335  1
  Ho  Ho1  1  0.500000  0.729205  0.865762  1
  Ho  Ho2  1  0.500000  0.270795  0.134238  1
  Ho  Ho3  1  0.500000  0.247385  0.624665  1
  Hg  Hg4  1  0.000000  0.000000  0.000000  1
  Pt  Pt5  1  0.000000  0.009238  0.251820  1
  Pt  Pt6  1  0.000000  0.990762  0.748180  1
  Pt  Pt7  1  0.000000  0.500000  0.000000  1
  Pt  Pt8  1  0.000000  0.500000  0.500000  1
  Pt  Pt9  1  0.000000  0.510602  0.250258  1
  Pt  Pt10  1  0.000000  0.489398  0.749742  1
  Pt  Pt11  1  0.500000  0.251463  0.377428  1
  Pt  Pt12  1  0.500000  0.239985  0.875976  1
  Pt  Pt13  1  0.500000  0.760015  0.124024  1
  Pt  Pt14  1  0.500000  0.748537  0.622572  1
  Pt  Pt15  1  0.000000  0.000000  0.500000  1
