# generated using pymatgen
data_Ce4InHgIrRh3
_symmetry_space_group_name_H-M   'P 1'
_cell_length_a   7.70158896
_cell_length_b   7.70235396
_cell_length_c   3.71831100
_cell_angle_alpha   90.00000000
_cell_angle_beta   90.00000000
_cell_angle_gamma   90.16473161
_symmetry_Int_Tables_number   1
_chemical_formula_structural   Ce4InHgIrRh3
_chemical_formula_sum   'Ce4 In1 Hg1 Ir1 Rh3'
_cell_volume   220.57065107
_cell_formula_units_Z   1
loop_
 _symmetry_equiv_pos_site_id
 _symmetry_equiv_pos_as_xyz
  1  'x, y, z'
loop_
 _atom_site_type_symbol
 _atom_site_label
 _atom_site_symmetry_multiplicity
 _atom_site_fract_x
 _atom_site_fract_y
 _atom_site_fract_z
 _atom_site_occupancy
  Ce  Ce0  1  0.671031  0.168939  0.500000  1
  Ce  Ce1  1  0.327756  0.830264  0.500000  1
  Ce  Ce2  1  0.169991  0.330889  0.500000  1
  Ce  Ce3  1  0.833018  0.672425  0.500000  1
  In  In4  1  0.501283  0.500120  0.000000  1
  Hg  Hg5  1  0.999662  0.001613  0.000000  1
  Ir  Ir6  1  0.136887  0.628927  0.000000  1
  Rh  Rh7  1  0.859183  0.366106  0.000000  1
  Rh  Rh8  1  0.632532  0.861644  0.000000  1
  Rh  Rh9  1  0.368657  0.139073  0.000000  1
