# generated using pymatgen
data_Dy3Ho5Tc3B24Os
_symmetry_space_group_name_H-M   'P 1'
_cell_length_a   3.67093100
_cell_length_b   9.14537571
_cell_length_c   11.53104200
_cell_angle_alpha   89.94768702
_cell_angle_beta   90.00000000
_cell_angle_gamma   90.00000000
_symmetry_Int_Tables_number   1
_chemical_formula_structural   Dy3Ho5Tc3B24Os
_chemical_formula_sum   'Dy3 Ho5 Tc3 B24 Os1'
_cell_volume   387.12047889
_cell_formula_units_Z   1
loop_
 _symmetry_equiv_pos_site_id
 _symmetry_equiv_pos_as_xyz
  1  'x, y, z'
loop_
 _atom_site_type_symbol
 _atom_site_label
 _atom_site_symmetry_multiplicity
 _atom_site_fract_x
 _atom_site_fract_y
 _atom_site_fract_z
 _atom_site_occupancy
  Dy  Dy0  1  0.000000  0.323498  0.413906  1
  Dy  Dy1  1  0.000000  0.675625  0.584412  1
  Dy  Dy2  1  0.000000  0.822885  0.087082  1
  Ho  Ho3  1  0.000000  0.178064  0.914567  1
  Ho  Ho4  1  0.000000  0.942494  0.369941  1
  Ho  Ho5  1  0.000000  0.058363  0.630157  1
  Ho  Ho6  1  0.000000  0.442706  0.130151  1
  Ho  Ho7  1  0.000000  0.557097  0.869460  1
  Tc  Tc8  1  0.000000  0.638205  0.320353  1
  Tc  Tc9  1  0.000000  0.361550  0.680293  1
  Tc  Tc10  1  0.000000  0.137727  0.178127  1
  B  B11  1  0.500000  0.553068  0.432810  1
  B  B12  1  0.500000  0.446784  0.567081  1
  B  B13  1  0.500000  0.053131  0.066769  1
  B  B14  1  0.500000  0.946515  0.932819  1
  B  B15  1  0.500000  0.748558  0.418544  1
  B  B16  1  0.500000  0.251119  0.581626  1
  B  B17  1  0.500000  0.249107  0.081187  1
  B  B18  1  0.500000  0.751386  0.918203  1
  B  B19  1  0.500000  0.791518  0.265451  1
  B  B20  1  0.500000  0.208570  0.735258  1
  B  B21  1  0.500000  0.291412  0.234612  1
  B  B22  1  0.500000  0.709343  0.765300  1
  B  B23  1  0.500000  0.630631  0.185532  1
  B  B24  1  0.500000  0.369087  0.815183  1
  B  B25  1  0.500000  0.130249  0.314022  1
  B  B26  1  0.500000  0.869447  0.685751  1
  B  B27  1  0.500000  0.981817  0.211745  1
  B  B28  1  0.500000  0.017312  0.788291  1
  B  B29  1  0.500000  0.481996  0.287962  1
  B  B30  1  0.500000  0.517678  0.711918  1
  B  B31  1  0.500000  0.601388  0.027970  1
  B  B32  1  0.500000  0.399373  0.971767  1
  B  B33  1  0.500000  0.101204  0.471952  1
  B  B34  1  0.500000  0.898976  0.528542  1
  Os  Os35  1  0.000000  0.862118  0.821256  1
