# generated using pymatgen
data_Nd12Ga3IrI12
_symmetry_space_group_name_H-M   'P 1'
_cell_length_a   10.91770057
_cell_length_b   10.86861527
_cell_length_c   10.86861486
_cell_angle_alpha   109.37954909
_cell_angle_beta   109.56272872
_cell_angle_gamma   109.56273675
_symmetry_Int_Tables_number   1
_chemical_formula_structural   Nd12Ga3IrI12
_chemical_formula_sum   'Nd12 Ga3 Ir1 I12'
_cell_volume   991.66731033
_cell_formula_units_Z   1
loop_
 _symmetry_equiv_pos_site_id
 _symmetry_equiv_pos_as_xyz
  1  'x, y, z'
loop_
 _atom_site_type_symbol
 _atom_site_label
 _atom_site_symmetry_multiplicity
 _atom_site_fract_x
 _atom_site_fract_y
 _atom_site_fract_z
 _atom_site_occupancy
  Nd  Nd0  1  0.462945  0.486626  0.226886  1
  Nd  Nd1  1  0.750000  0.235561  0.264439  1
  Nd  Nd2  1  0.750000  0.013532  0.486468  1
  Nd  Nd3  1  0.236468  0.472938  0.486468  1
  Nd  Nd4  1  0.263943  0.740261  0.226886  1
  Nd  Nd5  1  0.037055  0.273114  0.013374  1
  Nd  Nd6  1  0.014439  0.028877  0.264439  1
  Nd  Nd7  1  0.476317  0.740261  0.013374  1
  Nd  Nd8  1  0.485561  0.235561  0.471123  1
  Nd  Nd9  1  0.023683  0.486626  0.759739  1
  Nd  Nd10  1  0.263532  0.013532  0.027062  1
  Nd  Nd11  1  0.236057  0.273114  0.759739  1
  Ga  Ga12  1  0.250000  0.249513  0.250487  1
  Ga  Ga13  1  0.500487  0.000973  0.250487  1
  Ga  Ga14  1  0.999513  0.249513  0.499027  1
  Ir  Ir15  1  0.250000  0.500000  0.000000  1
  I  I16  1  0.250000  0.757730  0.742270  1
  I  I17  1  0.515172  0.506479  0.755649  1
  I  I18  1  0.984828  0.744351  0.993521  1
  I  I19  1  0.740476  0.249170  0.755649  1
  I  I20  1  0.992270  0.984541  0.742270  1
  I  I21  1  0.250000  0.993409  0.506591  1
  I  I22  1  0.756591  0.513180  0.506591  1
  I  I23  1  0.508695  0.249170  0.993521  1
  I  I24  1  0.759524  0.744351  0.250830  1
  I  I25  1  0.743409  0.993409  0.986820  1
  I  I26  1  0.991305  0.506479  0.250830  1
  I  I27  1  0.507730  0.757730  0.515459  1
