# generated using pymatgen
data_NbGaCl8
_symmetry_space_group_name_H-M   'P 1'
_cell_length_a   9.84221708
_cell_length_b   9.84221717
_cell_length_c   8.66522500
_cell_angle_alpha   90.00000000
_cell_angle_beta   90.00000000
_cell_angle_gamma   129.16658825
_symmetry_Int_Tables_number   1
_chemical_formula_structural   NbGaCl8
_chemical_formula_sum   'Nb2 Ga2 Cl16'
_cell_volume   650.79281429
_cell_formula_units_Z   2
loop_
 _symmetry_equiv_pos_site_id
 _symmetry_equiv_pos_as_xyz
  1  'x, y, z'
loop_
 _atom_site_type_symbol
 _atom_site_label
 _atom_site_symmetry_multiplicity
 _atom_site_fract_x
 _atom_site_fract_y
 _atom_site_fract_z
 _atom_site_occupancy
  Nb  Nb0  1  0.611159  0.388841  0.250000  1
  Nb  Nb1  1  0.388841  0.611159  0.750000  1
  Ga  Ga2  1  0.815515  0.184485  0.250000  1
  Ga  Ga3  1  0.184485  0.815515  0.750000  1
  Cl  Cl4  1  0.529304  0.073471  0.250000  1
  Cl  Cl5  1  0.073471  0.529304  0.750000  1
  Cl  Cl6  1  0.470696  0.926529  0.750000  1
  Cl  Cl7  1  0.926529  0.470696  0.250000  1
  Cl  Cl8  1  0.631470  0.368530  0.984837  1
  Cl  Cl9  1  0.368530  0.631470  0.015163  1
  Cl  Cl10  1  0.631470  0.368530  0.515163  1
  Cl  Cl11  1  0.368530  0.631470  0.484837  1
  Cl  Cl12  1  0.322078  0.259813  0.250000  1
  Cl  Cl13  1  0.259813  0.322078  0.750000  1
  Cl  Cl14  1  0.677922  0.740187  0.750000  1
  Cl  Cl15  1  0.740187  0.677922  0.250000  1
  Cl  Cl16  1  0.879086  0.120914  0.460598  1
  Cl  Cl17  1  0.120914  0.879086  0.539402  1
  Cl  Cl18  1  0.879086  0.120914  0.039402  1
  Cl  Cl19  1  0.120914  0.879086  0.960598  1
