# generated using pymatgen
data_Na4YbSi12Ir19
_symmetry_space_group_name_H-M   'P 1'
_cell_length_a   12.76387900
_cell_length_b   12.76388021
_cell_length_c   4.01108900
_cell_angle_alpha   90.00000000
_cell_angle_beta   90.00000000
_cell_angle_gamma   120.00000463
_symmetry_Int_Tables_number   1
_chemical_formula_structural   Na4YbSi12Ir19
_chemical_formula_sum   'Na4 Yb1 Si12 Ir19'
_cell_volume   565.92425541
_cell_formula_units_Z   1
loop_
 _symmetry_equiv_pos_site_id
 _symmetry_equiv_pos_as_xyz
  1  'x, y, z'
loop_
 _atom_site_type_symbol
 _atom_site_label
 _atom_site_symmetry_multiplicity
 _atom_site_fract_x
 _atom_site_fract_y
 _atom_site_fract_z
 _atom_site_occupancy
  Na  Na0  1  0.999988  0.816891  0.500000  1
  Na  Na1  1  0.183109  0.183097  0.500000  1
  Na  Na2  1  0.816903  0.000012  0.500000  1
  Na  Na3  1  0.666667  0.333333  0.000000  1
  Yb  Yb4  1  0.333333  0.666667  0.000000  1
  Si  Si5  1  0.999199  0.182036  0.000000  1
  Si  Si6  1  0.817964  0.817162  0.000000  1
  Si  Si7  1  0.182838  0.000801  0.000000  1
  Si  Si8  1  0.521642  0.688336  0.500000  1
  Si  Si9  1  0.311664  0.833305  0.500000  1
  Si  Si10  1  0.166695  0.478358  0.500000  1
  Si  Si11  1  0.480156  0.168189  0.500000  1
  Si  Si12  1  0.688033  0.519844  0.500000  1
  Si  Si13  1  0.831811  0.311967  0.500000  1
  Si  Si14  1  0.998875  0.629470  0.000000  1
  Si  Si15  1  0.370530  0.369404  0.000000  1
  Si  Si16  1  0.630596  0.001125  0.000000  1
  Ir  Ir17  1  0.999725  0.281878  0.500000  1
  Ir  Ir18  1  0.718122  0.717846  0.500000  1
  Ir  Ir19  1  0.282154  0.000275  0.500000  1
  Ir  Ir20  1  0.622246  0.807491  0.000000  1
  Ir  Ir21  1  0.192509  0.814754  0.000000  1
  Ir  Ir22  1  0.185246  0.377754  0.000000  1
  Ir  Ir23  1  0.378129  0.184361  0.000000  1
  Ir  Ir24  1  0.806232  0.621871  0.000000  1
  Ir  Ir25  1  0.815639  0.193768  0.000000  1
  Ir  Ir26  1  0.512238  0.873042  0.500000  1
  Ir  Ir27  1  0.126958  0.639195  0.500000  1
  Ir  Ir28  1  0.360805  0.487762  0.500000  1
  Ir  Ir29  1  0.486026  0.361236  0.500000  1
  Ir  Ir30  1  0.875209  0.513974  0.500000  1
  Ir  Ir31  1  0.638764  0.124791  0.500000  1
  Ir  Ir32  1  0.000000  0.000000  0.000000  1
  Ir  Ir33  1  0.002084  0.446961  0.000000  1
  Ir  Ir34  1  0.553039  0.555124  0.000000  1
  Ir  Ir35  1  0.444876  0.997916  0.000000  1
