# generated using pymatgen
data_Y3In3NiHgPd
_symmetry_space_group_name_H-M   'P 1'
_cell_length_a   7.89086600
_cell_length_b   7.89086651
_cell_length_c   3.74839200
_cell_angle_alpha   90.00000000
_cell_angle_beta   90.00000000
_cell_angle_gamma   119.99999787
_symmetry_Int_Tables_number   1
_chemical_formula_structural   Y3In3NiHgPd
_chemical_formula_sum   'Y3 In3 Ni1 Hg1 Pd1'
_cell_volume   202.12731550
_cell_formula_units_Z   1
loop_
 _symmetry_equiv_pos_site_id
 _symmetry_equiv_pos_as_xyz
  1  'x, y, z'
loop_
 _atom_site_type_symbol
 _atom_site_label
 _atom_site_symmetry_multiplicity
 _atom_site_fract_x
 _atom_site_fract_y
 _atom_site_fract_z
 _atom_site_occupancy
  Y  Y0  1  0.390915  0.410234  0.500000  1
  Y  Y1  1  0.589766  0.980681  0.500000  1
  Y  Y2  1  0.019319  0.609085  0.500000  1
  In  In3  1  0.750177  0.752137  0.000000  1
  In  In4  1  0.247863  0.998040  0.000000  1
  In  In5  1  0.001960  0.249823  0.000000  1
  Ni  Ni6  1  0.000000  0.000000  0.500000  1
  Hg  Hg7  1  0.666667  0.333333  0.000000  1
  Pd  Pd8  1  0.333333  0.666667  0.000000  1
