# generated using pymatgen
data_Sc10In8IrRh3
_symmetry_space_group_name_H-M   'P 1'
_cell_length_a   17.69572415
_cell_length_b   7.71415637
_cell_length_c   3.36376700
_cell_angle_alpha   90.00000000
_cell_angle_beta   90.00000000
_cell_angle_gamma   89.93163142
_symmetry_Int_Tables_number   1
_chemical_formula_structural   Sc10In8IrRh3
_chemical_formula_sum   'Sc10 In8 Ir1 Rh3'
_cell_volume   459.17937679
_cell_formula_units_Z   1
loop_
 _symmetry_equiv_pos_site_id
 _symmetry_equiv_pos_as_xyz
  1  'x, y, z'
loop_
 _atom_site_type_symbol
 _atom_site_label
 _atom_site_symmetry_multiplicity
 _atom_site_fract_x
 _atom_site_fract_y
 _atom_site_fract_z
 _atom_site_occupancy
  Sc  Sc0  1  0.000113  0.000127  0.000000  1
  Sc  Sc1  1  0.415029  0.124746  0.000000  1
  Sc  Sc2  1  0.720913  0.245308  0.000000  1
  Sc  Sc3  1  0.221206  0.253708  0.000000  1
  Sc  Sc4  1  0.914629  0.375610  0.000000  1
  Sc  Sc5  1  0.499952  0.500138  0.000000  1
  Sc  Sc6  1  0.085439  0.624322  0.000000  1
  Sc  Sc7  1  0.779060  0.745410  0.000000  1
  Sc  Sc8  1  0.279199  0.755475  0.000000  1
  Sc  Sc9  1  0.585365  0.875678  0.000000  1
  In  In10  1  0.850661  0.068794  0.500001  1
  In  In11  1  0.566728  0.203726  0.500001  1
  In  In12  1  0.066490  0.296398  0.500001  1
  In  In13  1  0.350752  0.431269  0.500001  1
  In  In14  1  0.649271  0.568855  0.500001  1
  In  In15  1  0.933377  0.703667  0.500001  1
  In  In16  1  0.433556  0.796029  0.500001  1
  In  In17  1  0.148918  0.930939  0.500001  1
  Ir  Ir18  1  0.305222  0.037467  0.500001  1
  Rh  Rh19  1  0.805712  0.462199  0.500001  1
  Rh  Rh20  1  0.194037  0.538012  0.500001  1
  Rh  Rh21  1  0.694371  0.962122  0.500001  1
