# generated using pymatgen
data_Hf8Co8Si13P
_symmetry_space_group_name_H-M   'P 1'
_cell_length_a   9.41332942
_cell_length_b   9.41333049
_cell_length_c   9.41926519
_cell_angle_alpha   94.16624764
_cell_angle_beta   94.16624355
_cell_angle_gamma   148.71635505
_symmetry_Int_Tables_number   1
_chemical_formula_structural   Hf8Co8Si13P
_chemical_formula_sum   'Hf8 Co8 Si13 P1'
_cell_volume   417.38185575
_cell_formula_units_Z   1
loop_
 _symmetry_equiv_pos_site_id
 _symmetry_equiv_pos_as_xyz
  1  'x, y, z'
loop_
 _atom_site_type_symbol
 _atom_site_label
 _atom_site_symmetry_multiplicity
 _atom_site_fract_x
 _atom_site_fract_y
 _atom_site_fract_z
 _atom_site_occupancy
  Hf  Hf0  1  0.139007  0.139007  0.278015  1
  Hf  Hf1  1  0.861384  0.861384  0.722768  1
  Hf  Hf2  1  0.137179  0.862503  0.999682  1
  Hf  Hf3  1  0.862503  0.137179  0.999682  1
  Hf  Hf4  1  0.304006  0.498284  0.802290  1
  Hf  Hf5  1  0.695379  0.499843  0.195222  1
  Hf  Hf6  1  0.499843  0.695379  0.195222  1
  Hf  Hf7  1  0.498284  0.304006  0.802290  1
  Co  Co8  1  0.101978  0.601978  0.203956  1
  Co  Co9  1  0.398210  0.898210  0.796422  1
  Co  Co10  1  0.902061  0.102540  0.501494  1
  Co  Co11  1  0.599433  0.398954  0.501494  1
  Co  Co12  1  0.601978  0.101978  0.203956  1
  Co  Co13  1  0.898210  0.398210  0.796422  1
  Co  Co14  1  0.102540  0.902061  0.501494  1
  Co  Co15  1  0.398954  0.599433  0.501494  1
  Si  Si16  1  0.707467  0.707467  0.414934  1
  Si  Si17  1  0.290325  0.709501  0.999827  1
  Si  Si18  1  0.709501  0.290325  0.999827  1
  Si  Si19  1  0.091402  0.500276  0.591678  1
  Si  Si20  1  0.908031  0.500705  0.408736  1
  Si  Si21  1  0.500705  0.908031  0.408736  1
  Si  Si22  1  0.500276  0.091402  0.591678  1
  Si  Si23  1  0.251360  0.251360  0.999339  1
  Si  Si24  1  0.747979  0.747979  0.999339  1
  Si  Si25  1  0.301064  0.999892  0.300956  1
  Si  Si26  1  0.698997  0.000062  0.699059  1
  Si  Si27  1  0.000062  0.698997  0.699059  1
  Si  Si28  1  0.999892  0.301064  0.300956  1
  P  P29  1  0.291988  0.291988  0.583977  1
