# generated using pymatgen
data_Na4Cu2H9
_symmetry_space_group_name_H-M   'P 1'
_cell_length_a   3.47634229
_cell_length_b   5.99947924
_cell_length_c   9.67778644
_cell_angle_alpha   80.17607325
_cell_angle_beta   77.43175184
_cell_angle_gamma   106.27888217
_symmetry_Int_Tables_number   1
_chemical_formula_structural   Na4Cu2H9
_chemical_formula_sum   'Na4 Cu2 H9'
_cell_volume   183.23762002
_cell_formula_units_Z   1
loop_
 _symmetry_equiv_pos_site_id
 _symmetry_equiv_pos_as_xyz
  1  'x, y, z'
loop_
 _atom_site_type_symbol
 _atom_site_label
 _atom_site_symmetry_multiplicity
 _atom_site_fract_x
 _atom_site_fract_y
 _atom_site_fract_z
 _atom_site_occupancy
  Na  Na0  1  0.176349  0.054926  0.304703  1
  Na  Na1  1  0.023338  0.033716  0.727233  1
  Na  Na2  1  0.141224  0.648093  0.042673  1
  Na  Na3  1  0.374683  0.624311  0.621908  1
  Cu  Cu4  1  0.593421  0.347786  0.862452  1
  Cu  Cu5  1  0.859294  0.115617  0.057094  1
  H  H6  1  0.044220  0.876190  0.531973  1
  H  H7  1  0.173969  0.427425  0.428070  1
  H  H8  1  0.741807  0.637373  0.850847  1
  H  H9  1  0.674157  0.304381  0.694375  1
  H  H10  1  0.675565  0.835372  0.140082  1
  H  H11  1  0.058595  0.317598  0.894853  1
  H  H12  1  0.368267  0.498997  0.366226  1
  H  H13  1  0.848837  0.267953  0.188048  1
  H  H14  1  0.386817  0.115538  0.013041  1
