# generated using pymatgen
data_SrYb(AlI4)4
_symmetry_space_group_name_H-M   'P 1'
_cell_length_a   8.52700936
_cell_length_b   8.42587998
_cell_length_c   15.52334700
_cell_angle_alpha   88.34904344
_cell_angle_beta   90.21912457
_cell_angle_gamma   90.13203025
_symmetry_Int_Tables_number   1
_chemical_formula_structural   SrYb(AlI4)4
_chemical_formula_sum   'Sr1 Yb1 Al4 I16'
_cell_volume   1114.84074533
_cell_formula_units_Z   1
loop_
 _symmetry_equiv_pos_site_id
 _symmetry_equiv_pos_as_xyz
  1  'x, y, z'
loop_
 _atom_site_type_symbol
 _atom_site_label
 _atom_site_symmetry_multiplicity
 _atom_site_fract_x
 _atom_site_fract_y
 _atom_site_fract_z
 _atom_site_occupancy
  Sr  Sr0  1  0.237222  0.084321  0.314575  1
  Yb  Yb1  1  0.755465  0.078301  0.810131  1
  Al  Al2  1  0.932348  0.213102  0.583720  1
  Al  Al3  1  0.057771  0.221117  0.075122  1
  Al  Al4  1  0.584701  0.644582  0.777999  1
  Al  Al5  1  0.427371  0.645205  0.279191  1
  I  I6  1  0.434680  0.614686  0.640948  1
  I  I7  1  0.567887  0.614525  0.139516  1
  I  I8  1  0.873422  0.735016  0.758913  1
  I  I9  1  0.134056  0.717544  0.260845  1
  I  I10  1  0.942324  0.470258  0.499651  1
  I  I11  1  0.059302  0.481123  0.993675  1
  I  I12  1  0.916132  0.997588  0.992059  1
  I  I13  1  0.070303  0.984962  0.504643  1
  I  I14  1  0.645966  0.125505  0.617022  1
  I  I15  1  0.341102  0.125394  0.108283  1
  I  I16  1  0.578318  0.386282  0.874925  1
  I  I17  1  0.443920  0.392838  0.379634  1
  I  I18  1  0.463057  0.869858  0.868054  1
  I  I19  1  0.553593  0.871195  0.367006  1
  I  I20  1  0.917958  0.231860  0.223730  1
  I  I21  1  0.063103  0.229537  0.734762  1
