# generated using pymatgen
data_Sm3YCS3
_symmetry_space_group_name_H-M   'P 1'
_cell_length_a   6.84868355
_cell_length_b   6.84868366
_cell_length_c   6.85958468
_cell_angle_alpha   79.64883064
_cell_angle_beta   79.64882932
_cell_angle_gamma   32.79577192
_symmetry_Int_Tables_number   1
_chemical_formula_structural   Sm3YCS3
_chemical_formula_sum   'Sm3 Y1 C1 S3'
_cell_volume   171.18792627
_cell_formula_units_Z   1
loop_
 _symmetry_equiv_pos_site_id
 _symmetry_equiv_pos_as_xyz
  1  'x, y, z'
loop_
 _atom_site_type_symbol
 _atom_site_label
 _atom_site_symmetry_multiplicity
 _atom_site_fract_x
 _atom_site_fract_y
 _atom_site_fract_z
 _atom_site_occupancy
  Sm  Sm0  1  0.234009  0.234009  0.232362  1
  Sm  Sm1  1  0.508101  0.508101  0.469680  1
  Sm  Sm2  1  0.741910  0.741910  0.779630  1
  Y  Y3  1  0.016084  0.016084  0.018659  1
  C  C4  1  0.623219  0.623219  0.122551  1
  S  S5  1  0.870048  0.870048  0.372352  1
  S  S6  1  0.123532  0.123532  0.628990  1
  S  S7  1  0.383096  0.383096  0.875776  1
