# generated using pymatgen
data_Er4ScIr2Os
_symmetry_space_group_name_H-M   'P 1'
_cell_length_a   10.64589900
_cell_length_b   10.64589900
_cell_length_c   6.26925900
_cell_angle_alpha   90.00000000
_cell_angle_beta   90.00000000
_cell_angle_gamma   90.00000000
_symmetry_Int_Tables_number   1
_chemical_formula_structural   Er4ScIr2Os
_chemical_formula_sum   'Er16 Sc4 Ir8 Os4'
_cell_volume   710.52750644
_cell_formula_units_Z   4
loop_
 _symmetry_equiv_pos_site_id
 _symmetry_equiv_pos_as_xyz
  1  'x, y, z'
loop_
 _atom_site_type_symbol
 _atom_site_label
 _atom_site_symmetry_multiplicity
 _atom_site_fract_x
 _atom_site_fract_y
 _atom_site_fract_z
 _atom_site_occupancy
  Er  Er0  1  0.290321  0.085129  0.375613  1
  Er  Er1  1  0.290321  0.914871  0.875613  1
  Er  Er2  1  0.709679  0.085129  0.875613  1
  Er  Er3  1  0.709679  0.914871  0.375613  1
  Er  Er4  1  0.585129  0.790321  0.875613  1
  Er  Er5  1  0.585129  0.209679  0.375613  1
  Er  Er6  1  0.414871  0.790321  0.375613  1
  Er  Er7  1  0.414871  0.209679  0.875613  1
  Er  Er8  1  0.209679  0.414871  0.624387  1
  Er  Er9  1  0.209679  0.585129  0.124387  1
  Er  Er10  1  0.790321  0.414871  0.124387  1
  Er  Er11  1  0.790321  0.585129  0.624387  1
  Er  Er12  1  0.914871  0.709679  0.124387  1
  Er  Er13  1  0.914871  0.290321  0.624387  1
  Er  Er14  1  0.085129  0.709679  0.624387  1
  Er  Er15  1  0.085129  0.290321  0.124387  1
  Sc  Sc16  1  0.000000  0.000000  0.500000  1
  Sc  Sc17  1  0.000000  0.000000  0.000000  1
  Sc  Sc18  1  0.500000  0.500000  0.000000  1
  Sc  Sc19  1  0.500000  0.500000  0.500000  1
  Ir  Ir20  1  0.852999  0.147001  0.250000  1
  Ir  Ir21  1  0.852999  0.852999  0.750000  1
  Ir  Ir22  1  0.147001  0.147001  0.750000  1
  Ir  Ir23  1  0.147001  0.852999  0.250000  1
  Ir  Ir24  1  0.647001  0.352999  0.750000  1
  Ir  Ir25  1  0.647001  0.647001  0.250000  1
  Ir  Ir26  1  0.352999  0.352999  0.250000  1
  Ir  Ir27  1  0.352999  0.647001  0.750000  1
  Os  Os28  1  0.500000  0.000000  0.123908  1
  Os  Os29  1  0.500000  0.000000  0.623908  1
  Os  Os30  1  0.000000  0.500000  0.876092  1
  Os  Os31  1  0.000000  0.500000  0.376092  1
