# generated using pymatgen
data_TbPa(Ga2Pd)2
_symmetry_space_group_name_H-M   'P 1'
_cell_length_a   5.53646056
_cell_length_b   5.53646051
_cell_length_c   6.60888500
_cell_angle_alpha   90.00000000
_cell_angle_beta   90.00000000
_cell_angle_gamma   132.03870724
_symmetry_Int_Tables_number   1
_chemical_formula_structural   TbPa(Ga2Pd)2
_chemical_formula_sum   'Tb1 Pa1 Ga4 Pd2'
_cell_volume   150.45329922
_cell_formula_units_Z   1
loop_
 _symmetry_equiv_pos_site_id
 _symmetry_equiv_pos_as_xyz
  1  'x, y, z'
loop_
 _atom_site_type_symbol
 _atom_site_label
 _atom_site_symmetry_multiplicity
 _atom_site_fract_x
 _atom_site_fract_y
 _atom_site_fract_z
 _atom_site_occupancy
  Tb  Tb0  1  0.905604  0.094396  0.250000  1
  Pa  Pa1  1  0.094367  0.905633  0.750000  1
  Ga  Ga2  1  0.376497  0.623503  0.551739  1
  Ga  Ga3  1  0.624333  0.375667  0.052075  1
  Ga  Ga4  1  0.624333  0.375667  0.447925  1
  Ga  Ga5  1  0.376497  0.623503  0.948261  1
  Pd  Pd6  1  0.802129  0.197871  0.750000  1
  Pd  Pd7  1  0.196241  0.803759  0.250000  1
