# generated using pymatgen
data_La2Ga3SnPt4
_symmetry_space_group_name_H-M   'P 1'
_cell_length_a   4.44984500
_cell_length_b   4.44984500
_cell_length_c   10.46719400
_cell_angle_alpha   90.00000000
_cell_angle_beta   90.00000000
_cell_angle_gamma   90.00000000
_symmetry_Int_Tables_number   1
_chemical_formula_structural   La2Ga3SnPt4
_chemical_formula_sum   'La2 Ga3 Sn1 Pt4'
_cell_volume   207.26216994
_cell_formula_units_Z   1
loop_
 _symmetry_equiv_pos_site_id
 _symmetry_equiv_pos_as_xyz
  1  'x, y, z'
loop_
 _atom_site_type_symbol
 _atom_site_label
 _atom_site_symmetry_multiplicity
 _atom_site_fract_x
 _atom_site_fract_y
 _atom_site_fract_z
 _atom_site_occupancy
  La  La0  1  0.000000  0.500000  0.243570  1
  La  La1  1  0.500000  0.000000  0.756430  1
  Ga  Ga2  1  0.000000  0.000000  0.500000  1
  Ga  Ga3  1  0.000000  0.500000  0.877981  1
  Ga  Ga4  1  0.500000  0.000000  0.122019  1
  Sn  Sn5  1  0.500000  0.500000  0.500000  1
  Pt  Pt6  1  0.000000  0.000000  0.000000  1
  Pt  Pt7  1  0.500000  0.500000  0.000000  1
  Pt  Pt8  1  0.000000  0.500000  0.640237  1
  Pt  Pt9  1  0.500000  0.000000  0.359763  1
