# generated using pymatgen
data_LiLu19(Cd3Ni)2
_symmetry_space_group_name_H-M   'P 1'
_cell_length_a   9.34947200
_cell_length_b   9.34947214
_cell_length_c   9.42603800
_cell_angle_alpha   90.00000000
_cell_angle_beta   90.00000000
_cell_angle_gamma   119.99999244
_symmetry_Int_Tables_number   1
_chemical_formula_structural   LiLu19(Cd3Ni)2
_chemical_formula_sum   'Li1 Lu19 Cd6 Ni2'
_cell_volume   713.56580193
_cell_formula_units_Z   1
loop_
 _symmetry_equiv_pos_site_id
 _symmetry_equiv_pos_as_xyz
  1  'x, y, z'
loop_
 _atom_site_type_symbol
 _atom_site_label
 _atom_site_symmetry_multiplicity
 _atom_site_fract_x
 _atom_site_fract_y
 _atom_site_fract_z
 _atom_site_occupancy
  Li  Li0  1  0.000000  0.000000  0.500000  1
  Lu  Lu1  1  0.000000  0.000000  0.000000  1
  Lu  Lu2  1  0.543078  0.456922  0.253643  1
  Lu  Lu3  1  0.543078  0.086154  0.253643  1
  Lu  Lu4  1  0.913846  0.456922  0.253643  1
  Lu  Lu5  1  0.456922  0.543078  0.746357  1
  Lu  Lu6  1  0.456922  0.913846  0.746357  1
  Lu  Lu7  1  0.086154  0.543078  0.746357  1
  Lu  Lu8  1  0.208970  0.791030  0.436714  1
  Lu  Lu9  1  0.208970  0.417943  0.436714  1
  Lu  Lu10  1  0.582057  0.791030  0.436714  1
  Lu  Lu11  1  0.791030  0.208970  0.563286  1
  Lu  Lu12  1  0.791030  0.582057  0.563286  1
  Lu  Lu13  1  0.417943  0.208970  0.563286  1
  Lu  Lu14  1  0.788432  0.211568  0.941446  1
  Lu  Lu15  1  0.788432  0.576863  0.941446  1
  Lu  Lu16  1  0.423137  0.211568  0.941446  1
  Lu  Lu17  1  0.211568  0.788432  0.058554  1
  Lu  Lu18  1  0.211568  0.423137  0.058554  1
  Lu  Lu19  1  0.576863  0.788432  0.058554  1
  Cd  Cd20  1  0.888273  0.111727  0.259177  1
  Cd  Cd21  1  0.888273  0.776547  0.259177  1
  Cd  Cd22  1  0.223453  0.111727  0.259177  1
  Cd  Cd23  1  0.111727  0.888273  0.740823  1
  Cd  Cd24  1  0.111727  0.223453  0.740823  1
  Cd  Cd25  1  0.776547  0.888273  0.740823  1
  Ni  Ni26  1  0.333333  0.666667  0.251711  1
  Ni  Ni27  1  0.666667  0.333333  0.748289  1
