# generated using pymatgen
data_Na7Th(P7Ir8)2
_symmetry_space_group_name_H-M   'P 1'
_cell_length_a   3.98191100
_cell_length_b   12.55821217
_cell_length_c   13.00973384
_cell_angle_alpha   81.87252647
_cell_angle_beta   90.00000000
_cell_angle_gamma   90.00000000
_symmetry_Int_Tables_number   1
_chemical_formula_structural   Na7Th(P7Ir8)2
_chemical_formula_sum   'Na7 Th1 P14 Ir16'
_cell_volume   644.02638514
_cell_formula_units_Z   1
loop_
 _symmetry_equiv_pos_site_id
 _symmetry_equiv_pos_as_xyz
  1  'x, y, z'
loop_
 _atom_site_type_symbol
 _atom_site_label
 _atom_site_symmetry_multiplicity
 _atom_site_fract_x
 _atom_site_fract_y
 _atom_site_fract_z
 _atom_site_occupancy
  Na  Na0  1  0.750000  0.783140  0.567520  1
  Na  Na1  1  0.250000  0.213485  0.436048  1
  Na  Na2  1  0.750000  0.485739  0.708156  1
  Na  Na3  1  0.250000  0.517760  0.291637  1
  Na  Na4  1  0.750000  0.714681  0.890268  1
  Na  Na5  1  0.250000  0.099882  0.797704  1
  Na  Na6  1  0.750000  0.898872  0.203596  1
  Th  Th7  1  0.250000  0.285935  0.108844  1
  P  P8  1  0.250000  0.906940  0.413003  1
  P  P9  1  0.750000  0.480925  0.127209  1
  P  P10  1  0.250000  0.527869  0.867397  1
  P  P11  1  0.750000  0.088536  0.589646  1
  P  P12  1  0.250000  0.745767  0.080013  1
  P  P13  1  0.750000  0.259228  0.916487  1
  P  P14  1  0.750000  0.152431  0.287127  1
  P  P15  1  0.250000  0.843187  0.717172  1
  P  P16  1  0.250000  0.056385  0.101222  1
  P  P17  1  0.750000  0.942351  0.902401  1
  P  P18  1  0.250000  0.301446  0.685272  1
  P  P19  1  0.750000  0.697050  0.313927  1
  P  P20  1  0.250000  0.607381  0.563462  1
  P  P21  1  0.750000  0.390673  0.437540  1
  Ir  Ir22  1  0.250000  0.983782  0.575899  1
  Ir  Ir23  1  0.750000  0.012550  0.427674  1
  Ir  Ir24  1  0.250000  0.662626  0.725122  1
  Ir  Ir25  1  0.750000  0.336130  0.263825  1
  Ir  Ir26  1  0.250000  0.558532  0.045475  1
  Ir  Ir27  1  0.750000  0.442742  0.953231  1
  Ir  Ir28  1  0.250000  0.060926  0.275887  1
  Ir  Ir29  1  0.750000  0.936649  0.727598  1
  Ir  Ir30  1  0.250000  0.422409  0.527978  1
  Ir  Ir31  1  0.750000  0.575944  0.470671  1
  Ir  Ir32  1  0.250000  0.919930  0.999248  1
  Ir  Ir33  1  0.750000  0.086876  0.003336  1
  Ir  Ir34  1  0.250000  0.725822  0.399633  1
  Ir  Ir35  1  0.750000  0.270762  0.600759  1
  Ir  Ir36  1  0.250000  0.337824  0.854881  1
  Ir  Ir37  1  0.750000  0.666834  0.143131  1
