# generated using pymatgen
data_Yb3Tm(Os3Ru)2
_symmetry_space_group_name_H-M   'P 1'
_cell_length_a   5.22542603
_cell_length_b   5.22542535
_cell_length_c   8.96607800
_cell_angle_alpha   89.99877492
_cell_angle_beta   90.00122746
_cell_angle_gamma   119.98352041
_symmetry_Int_Tables_number   1
_chemical_formula_structural   Yb3Tm(Os3Ru)2
_chemical_formula_sum   'Yb3 Tm1 Os6 Ru2'
_cell_volume   212.05503606
_cell_formula_units_Z   1
loop_
 _symmetry_equiv_pos_site_id
 _symmetry_equiv_pos_as_xyz
  1  'x, y, z'
loop_
 _atom_site_type_symbol
 _atom_site_label
 _atom_site_symmetry_multiplicity
 _atom_site_fract_x
 _atom_site_fract_y
 _atom_site_fract_z
 _atom_site_occupancy
  Yb  Yb0  1  0.333331  0.666669  0.431054  1
  Yb  Yb1  1  0.333333  0.666667  0.064733  1
  Yb  Yb2  1  0.666665  0.333335  0.939278  1
  Tm  Tm3  1  0.666675  0.333325  0.567741  1
  Os  Os4  1  0.171454  0.342892  0.748774  1
  Os  Os5  1  0.171433  0.828567  0.748776  1
  Os  Os6  1  0.657108  0.828546  0.748774  1
  Os  Os7  1  0.828884  0.657792  0.250859  1
  Os  Os8  1  0.828920  0.171080  0.250858  1
  Os  Os9  1  0.342208  0.171116  0.250859  1
  Ru  Ru10  1  0.999994  0.000006  0.499731  1
  Ru  Ru11  1  0.999995  0.000005  0.998563  1
