# generated using pymatgen
data_Pr6Si4Ir3Os
_symmetry_space_group_name_H-M   'P 1'
_cell_length_a   5.84787030
_cell_length_b   5.84786966
_cell_length_c   13.40004528
_cell_angle_alpha   90.39277053
_cell_angle_beta   89.60722905
_cell_angle_gamma   137.69825172
_symmetry_Int_Tables_number   1
_chemical_formula_structural   Pr6Si4Ir3Os
_chemical_formula_sum   'Pr6 Si4 Ir3 Os1'
_cell_volume   308.40943302
_cell_formula_units_Z   1
loop_
 _symmetry_equiv_pos_site_id
 _symmetry_equiv_pos_as_xyz
  1  'x, y, z'
loop_
 _atom_site_type_symbol
 _atom_site_label
 _atom_site_symmetry_multiplicity
 _atom_site_fract_x
 _atom_site_fract_y
 _atom_site_fract_z
 _atom_site_occupancy
  Pr  Pr0  1  0.769673  0.230327  0.603315  1
  Pr  Pr1  1  0.520950  0.479050  0.247530  1
  Pr  Pr2  1  0.230327  0.769673  0.396685  1
  Pr  Pr3  1  0.769587  0.230413  0.897000  1
  Pr  Pr4  1  0.479050  0.520950  0.752470  1
  Pr  Pr5  1  0.230413  0.769587  0.103000  1
  Si  Si6  1  0.057348  0.942652  0.588095  1
  Si  Si7  1  0.058088  0.941912  0.913323  1
  Si  Si8  1  0.942652  0.057348  0.411905  1
  Si  Si9  1  0.941912  0.058088  0.086677  1
  Ir  Ir10  1  0.819698  0.180302  0.251235  1
  Ir  Ir11  1  0.180302  0.819698  0.748765  1
  Ir  Ir12  1  0.500000  0.500000  0.500000  1
  Os  Os13  1  0.500000  0.500000  0.000000  1
