# generated using pymatgen
data_Tb3Lu2(AlTe)2
_symmetry_space_group_name_H-M   'P 1'
_cell_length_a   8.67194024
_cell_length_b   8.67194200
_cell_length_c   7.91093760
_cell_angle_alpha   90.18987840
_cell_angle_beta   90.18987439
_cell_angle_gamma   126.01007270
_symmetry_Int_Tables_number   1
_chemical_formula_structural   Tb3Lu2(AlTe)2
_chemical_formula_sum   'Tb6 Lu4 Al4 Te4'
_cell_volume   481.22833148
_cell_formula_units_Z   2
loop_
 _symmetry_equiv_pos_site_id
 _symmetry_equiv_pos_as_xyz
  1  'x, y, z'
loop_
 _atom_site_type_symbol
 _atom_site_label
 _atom_site_symmetry_multiplicity
 _atom_site_fract_x
 _atom_site_fract_y
 _atom_site_fract_z
 _atom_site_occupancy
  Tb  Tb0  1  0.797537  0.538888  0.169010  1
  Tb  Tb1  1  0.461112  0.202463  0.830990  1
  Tb  Tb2  1  0.961421  0.703852  0.667738  1
  Tb  Tb3  1  0.296148  0.038579  0.332262  1
  Tb  Tb4  1  0.201083  0.461867  0.831795  1
  Tb  Tb5  1  0.538133  0.798917  0.168205  1
  Lu  Lu6  1  0.999337  0.000663  0.000000  1
  Lu  Lu7  1  0.499646  0.500354  0.500000  1
  Lu  Lu8  1  0.039556  0.292664  0.333383  1
  Lu  Lu9  1  0.707336  0.960444  0.666617  1
  Al  Al10  1  0.873534  0.875735  0.375924  1
  Al  Al11  1  0.124265  0.126466  0.624076  1
  Al  Al12  1  0.625146  0.627480  0.874595  1
  Al  Al13  1  0.372520  0.374854  0.125405  1
  Te  Te14  1  0.203071  0.796929  0.000000  1
  Te  Te15  1  0.707047  0.292953  0.500000  1
  Te  Te16  1  0.796695  0.203305  0.000000  1
  Te  Te17  1  0.296411  0.703589  0.500000  1
