# generated using pymatgen
data_Sc3ZnSn3Ir2
_symmetry_space_group_name_H-M   'P 1'
_cell_length_a   7.42552400
_cell_length_b   7.42552364
_cell_length_c   3.73067700
_cell_angle_alpha   90.00000000
_cell_angle_beta   90.00000000
_cell_angle_gamma   120.00000162
_symmetry_Int_Tables_number   1
_chemical_formula_structural   Sc3ZnSn3Ir2
_chemical_formula_sum   'Sc3 Zn1 Sn3 Ir2'
_cell_volume   178.14451913
_cell_formula_units_Z   1
loop_
 _symmetry_equiv_pos_site_id
 _symmetry_equiv_pos_as_xyz
  1  'x, y, z'
loop_
 _atom_site_type_symbol
 _atom_site_label
 _atom_site_symmetry_multiplicity
 _atom_site_fract_x
 _atom_site_fract_y
 _atom_site_fract_z
 _atom_site_occupancy
  Sc  Sc0  1  0.976689  0.381479  0.500000  1
  Sc  Sc1  1  0.618521  0.595210  0.500000  1
  Sc  Sc2  1  0.404790  0.023311  0.500000  1
  Zn  Zn3  1  0.333333  0.666667  0.000000  1
  Sn  Sn4  1  0.007052  0.735819  0.000000  1
  Sn  Sn5  1  0.264181  0.271233  0.000000  1
  Sn  Sn6  1  0.728767  0.992948  0.000000  1
  Ir  Ir7  1  0.666667  0.333333  0.000000  1
  Ir  Ir8  1  0.000000  0.000000  0.500000  1
