# generated using pymatgen
data_LaPr9Bi6AsBr
_symmetry_space_group_name_H-M   'P 1'
_cell_length_a   9.67628900
_cell_length_b   9.67175534
_cell_length_c   6.88872200
_cell_angle_alpha   89.99733817
_cell_angle_beta   90.00289793
_cell_angle_gamma   120.01725017
_symmetry_Int_Tables_number   1
_chemical_formula_structural   LaPr9Bi6AsBr
_chemical_formula_sum   'La1 Pr9 Bi6 As1 Br1'
_cell_volume   558.22323083
_cell_formula_units_Z   1
loop_
 _symmetry_equiv_pos_site_id
 _symmetry_equiv_pos_as_xyz
  1  'x, y, z'
loop_
 _atom_site_type_symbol
 _atom_site_label
 _atom_site_symmetry_multiplicity
 _atom_site_fract_x
 _atom_site_fract_y
 _atom_site_fract_z
 _atom_site_occupancy
  La  La0  1  0.256919  0.999996  0.737620  1
  Pr  Pr1  1  0.742743  0.000002  0.262600  1
  Pr  Pr2  1  0.999764  0.257082  0.737309  1
  Pr  Pr3  1  0.999784  0.742373  0.262584  1
  Pr  Pr4  1  0.742677  0.742919  0.737314  1
  Pr  Pr5  1  0.257407  0.257629  0.262583  1
  Pr  Pr6  1  0.333475  0.666604  0.499843  1
  Pr  Pr7  1  0.666876  0.333391  0.499841  1
  Pr  Pr8  1  0.666804  0.333368  0.000141  1
  Pr  Pr9  1  0.333434  0.666633  0.000141  1
  Bi  Bi10  1  0.608890  0.999998  0.750778  1
  Bi  Bi11  1  0.391851  0.000009  0.249049  1
  Bi  Bi12  1  0.999568  0.607578  0.750682  1
  Bi  Bi13  1  0.000017  0.391831  0.249301  1
  Bi  Bi14  1  0.392002  0.392424  0.750683  1
  Bi  Bi15  1  0.608182  0.608165  0.249301  1
  As  As16  1  0.999877  0.999999  0.499920  1
  Br  Br17  1  0.999732  0.999999  0.000310  1
