# generated using pymatgen
data_Ti8Al15Ir3(PdRh)2
_symmetry_space_group_name_H-M   'P 1'
_cell_length_a   8.67864299
_cell_length_b   8.65252841
_cell_length_c   8.67833456
_cell_angle_alpha   119.99407866
_cell_angle_beta   119.88752013
_cell_angle_gamma   90.19171912
_symmetry_Int_Tables_number   1
_chemical_formula_structural   Ti8Al15Ir3(PdRh)2
_chemical_formula_sum   'Ti8 Al15 Ir3 Pd2 Rh2'
_cell_volume   460.85443082
_cell_formula_units_Z   1
loop_
 _symmetry_equiv_pos_site_id
 _symmetry_equiv_pos_as_xyz
  1  'x, y, z'
loop_
 _atom_site_type_symbol
 _atom_site_label
 _atom_site_symmetry_multiplicity
 _atom_site_fract_x
 _atom_site_fract_y
 _atom_site_fract_z
 _atom_site_occupancy
  Ti  Ti0  1  0.789478  0.291021  0.073830  1
  Ti  Ti1  1  0.217169  0.291023  0.501530  1
  Ti  Ti2  1  0.210399  0.709006  0.498593  1
  Ti  Ti3  1  0.213212  0.713226  0.923667  1
  Ti  Ti4  1  0.789605  0.713195  0.500009  1
  Ti  Ti5  1  0.784218  0.286342  0.502122  1
  Ti  Ti6  1  0.383757  0.128135  0.744352  1
  Ti  Ti7  1  0.378372  0.634098  0.255869  1
  Al  Al8  1  0.997769  0.496999  0.499160  1
  Al  Al9  1  0.152625  0.343641  0.191072  1
  Al  Al10  1  0.154401  0.965033  0.810519  1
  Al  Al11  1  0.150746  0.346113  0.804878  1
  Al  Al12  1  0.541286  0.346183  0.195455  1
  Al  Al13  1  0.845506  0.654317  0.808659  1
  Al  Al14  1  0.847839  0.039576  0.191774  1
  Al  Al15  1  0.842954  0.652935  0.187282  1
  Al  Al16  1  0.465673  0.652879  0.809902  1
  Al  Al17  1  0.376421  0.123421  0.260736  1
  Al  Al18  1  0.862721  0.123333  0.746971  1
  Al  Al19  1  0.618793  0.875059  0.256351  1
  Al  Al20  1  0.621965  0.365752  0.743746  1
  Al  Al21  1  0.622697  0.876537  0.740158  1
  Al  Al22  1  0.136302  0.876565  0.253847  1
  Ir  Ir23  1  0.497175  0.498050  0.000882  1
  Ir  Ir24  1  0.497886  0.499712  0.497529  1
  Ir  Ir25  1  0.002179  0.499708  0.001819  1
  Pd  Pd26  1  0.998707  0.999106  0.498890  1
  Pd  Pd27  1  0.500218  0.999108  0.000401  1
  Rh  Rh28  1  0.000391  0.000057  0.999674  1
  Rh  Rh29  1  0.499530  0.999871  0.500320  1
