# generated using pymatgen
data_Ho2Zn14Ni3
_symmetry_space_group_name_H-M   'P 1'
_cell_length_a   8.81262635
_cell_length_b   8.81262645
_cell_length_c   8.62524200
_cell_angle_alpha   90.00000000
_cell_angle_beta   90.00000000
_cell_angle_gamma   119.99640062
_symmetry_Int_Tables_number   1
_chemical_formula_structural   Ho2Zn14Ni3
_chemical_formula_sum   'Ho4 Zn28 Ni6'
_cell_volume   580.13409438
_cell_formula_units_Z   2
loop_
 _symmetry_equiv_pos_site_id
 _symmetry_equiv_pos_as_xyz
  1  'x, y, z'
loop_
 _atom_site_type_symbol
 _atom_site_label
 _atom_site_symmetry_multiplicity
 _atom_site_fract_x
 _atom_site_fract_y
 _atom_site_fract_z
 _atom_site_occupancy
  Ho  Ho0  1  0.999997  0.000003  0.750000  1
  Ho  Ho1  1  0.000003  0.999997  0.250000  1
  Ho  Ho2  1  0.666667  0.333333  0.250000  1
  Ho  Ho3  1  0.333333  0.666667  0.750000  1
  Zn  Zn4  1  0.666688  0.333312  0.592931  1
  Zn  Zn5  1  0.333312  0.666688  0.407069  1
  Zn  Zn6  1  0.333312  0.666688  0.092931  1
  Zn  Zn7  1  0.666688  0.333312  0.907069  1
  Zn  Zn8  1  0.663842  0.033721  0.750000  1
  Zn  Zn9  1  0.369890  0.336113  0.750000  1
  Zn  Zn10  1  0.966300  0.630163  0.750000  1
  Zn  Zn11  1  0.369837  0.033700  0.750000  1
  Zn  Zn12  1  0.966279  0.336158  0.750000  1
  Zn  Zn13  1  0.663887  0.630110  0.750000  1
  Zn  Zn14  1  0.336158  0.966279  0.250000  1
  Zn  Zn15  1  0.630110  0.663887  0.250000  1
  Zn  Zn16  1  0.033700  0.369837  0.250000  1
  Zn  Zn17  1  0.630163  0.966300  0.250000  1
  Zn  Zn18  1  0.033721  0.663842  0.250000  1
  Zn  Zn19  1  0.336113  0.369890  0.250000  1
  Zn  Zn20  1  0.832868  0.665722  0.481709  1
  Zn  Zn21  1  0.832879  0.167121  0.481730  1
  Zn  Zn22  1  0.334278  0.167132  0.481709  1
  Zn  Zn23  1  0.167132  0.334278  0.518291  1
  Zn  Zn24  1  0.167121  0.832879  0.518270  1
  Zn  Zn25  1  0.665722  0.832868  0.518291  1
  Zn  Zn26  1  0.167132  0.334278  0.981709  1
  Zn  Zn27  1  0.167121  0.832879  0.981730  1
  Zn  Zn28  1  0.665722  0.832868  0.981709  1
  Zn  Zn29  1  0.832868  0.665722  0.018291  1
  Zn  Zn30  1  0.832879  0.167121  0.018270  1
  Zn  Zn31  1  0.334278  0.167132  0.018291  1
  Ni  Ni32  1  0.500000  0.000000  0.500000  1
  Ni  Ni33  1  0.500000  0.500000  0.500000  1
  Ni  Ni34  1  0.000000  0.500000  0.500000  1
  Ni  Ni35  1  0.500000  0.000000  0.000000  1
  Ni  Ni36  1  0.500000  0.500000  0.000000  1
  Ni  Ni37  1  0.000000  0.500000  0.000000  1
