# generated using pymatgen
data_Sc12Ta3TiCo8
_symmetry_space_group_name_H-M   'P 1'
_cell_length_a   8.39162843
_cell_length_b   8.39382265
_cell_length_c   8.39382300
_cell_angle_alpha   60.00000254
_cell_angle_beta   59.99135257
_cell_angle_gamma   59.99135717
_symmetry_Int_Tables_number   1
_chemical_formula_structural   Sc12Ta3TiCo8
_chemical_formula_sum   'Sc12 Ta3 Ti1 Co8'
_cell_volume   418.01713998
_cell_formula_units_Z   1
loop_
 _symmetry_equiv_pos_site_id
 _symmetry_equiv_pos_as_xyz
  1  'x, y, z'
loop_
 _atom_site_type_symbol
 _atom_site_label
 _atom_site_symmetry_multiplicity
 _atom_site_fract_x
 _atom_site_fract_y
 _atom_site_fract_z
 _atom_site_occupancy
  Sc  Sc0  1  0.810884  0.810920  0.189098  1
  Sc  Sc1  1  0.189100  0.190651  0.810125  1
  Sc  Sc2  1  0.810884  0.189098  0.810920  1
  Sc  Sc3  1  0.189100  0.810125  0.190651  1
  Sc  Sc4  1  0.189100  0.810125  0.810125  1
  Sc  Sc5  1  0.810884  0.189098  0.189098  1
  Sc  Sc6  1  0.439116  0.439080  0.060902  1
  Sc  Sc7  1  0.060900  0.059349  0.439875  1
  Sc  Sc8  1  0.439116  0.060902  0.439080  1
  Sc  Sc9  1  0.060900  0.439875  0.059349  1
  Sc  Sc10  1  0.060900  0.439875  0.439875  1
  Sc  Sc11  1  0.439116  0.060902  0.060902  1
  Ta  Ta12  1  0.625000  0.125000  0.625000  1
  Ta  Ta13  1  0.625000  0.625000  0.125000  1
  Ta  Ta14  1  0.625000  0.625000  0.625000  1
  Ti  Ti15  1  0.125000  0.625000  0.625000  1
  Co  Co16  1  0.741860  0.419380  0.419380  1
  Co  Co17  1  0.419135  0.741525  0.419670  1
  Co  Co18  1  0.419135  0.419670  0.741525  1
  Co  Co19  1  0.419135  0.419670  0.419670  1
  Co  Co20  1  0.508140  0.830620  0.830620  1
  Co  Co21  1  0.830865  0.508475  0.830330  1
  Co  Co22  1  0.830865  0.830330  0.508475  1
  Co  Co23  1  0.830865  0.830330  0.830330  1
