# generated using pymatgen
data_YEr3Th6(Ge3C)2
_symmetry_space_group_name_H-M   'P 1'
_cell_length_a   8.80059700
_cell_length_b   8.80059799
_cell_length_c   6.41360800
_cell_angle_alpha   90.00000000
_cell_angle_beta   90.00000000
_cell_angle_gamma   119.99999253
_symmetry_Int_Tables_number   1
_chemical_formula_structural   YEr3Th6(Ge3C)2
_chemical_formula_sum   'Y1 Er3 Th6 Ge6 C2'
_cell_volume   430.18711045
_cell_formula_units_Z   1
loop_
 _symmetry_equiv_pos_site_id
 _symmetry_equiv_pos_as_xyz
  1  'x, y, z'
loop_
 _atom_site_type_symbol
 _atom_site_label
 _atom_site_symmetry_multiplicity
 _atom_site_fract_x
 _atom_site_fract_y
 _atom_site_fract_z
 _atom_site_occupancy
  Y  Y0  1  0.666667  0.333333  0.000000  1
  Er  Er1  1  0.333333  0.666667  0.000000  1
  Er  Er2  1  0.333333  0.666667  0.500000  1
  Er  Er3  1  0.666667  0.333333  0.500000  1
  Th  Th4  1  0.768446  0.768592  0.749802  1
  Th  Th5  1  0.231408  0.999854  0.749802  1
  Th  Th6  1  0.000146  0.231554  0.749802  1
  Th  Th7  1  0.231408  0.231554  0.250198  1
  Th  Th8  1  0.768446  0.999854  0.250198  1
  Th  Th9  1  0.000146  0.768592  0.250198  1
  Ge  Ge10  1  0.403080  0.403840  0.749276  1
  Ge  Ge11  1  0.596160  0.999240  0.749276  1
  Ge  Ge12  1  0.000760  0.596920  0.749276  1
  Ge  Ge13  1  0.596160  0.596920  0.250724  1
  Ge  Ge14  1  0.403080  0.999240  0.250724  1
  Ge  Ge15  1  0.000760  0.403840  0.250724  1
  C  C16  1  0.000000  0.000000  0.000000  1
  C  C17  1  0.000000  0.000000  0.500000  1
