# generated using pymatgen
data_Li3Tb9(PrSi2)8
_symmetry_space_group_name_H-M   'P 1'
_cell_length_a   7.38289100
_cell_length_b   7.82291572
_cell_length_c   14.89680300
_cell_angle_alpha   90.00000000
_cell_angle_beta   90.00000000
_cell_angle_gamma   89.94509673
_symmetry_Int_Tables_number   1
_chemical_formula_structural   Li3Tb9(PrSi2)8
_chemical_formula_sum   'Li3 Tb9 Pr8 Si16'
_cell_volume   860.37539811
_cell_formula_units_Z   1
loop_
 _symmetry_equiv_pos_site_id
 _symmetry_equiv_pos_as_xyz
  1  'x, y, z'
loop_
 _atom_site_type_symbol
 _atom_site_label
 _atom_site_symmetry_multiplicity
 _atom_site_fract_x
 _atom_site_fract_y
 _atom_site_fract_z
 _atom_site_occupancy
  Li  Li0  1  0.846242  0.485169  0.250000  1
  Li  Li1  1  0.346791  0.016534  0.250000  1
  Li  Li2  1  0.153575  0.515685  0.750000  1
  Tb  Tb3  1  0.317115  0.187593  0.624836  1
  Tb  Tb4  1  0.674064  0.820640  0.373605  1
  Tb  Tb5  1  0.649167  0.992884  0.750000  1
  Tb  Tb6  1  0.176069  0.683174  0.372154  1
  Tb  Tb7  1  0.829799  0.324249  0.874785  1
  Tb  Tb8  1  0.829799  0.324249  0.625215  1
  Tb  Tb9  1  0.317115  0.187593  0.875164  1
  Tb  Tb10  1  0.176069  0.683174  0.127846  1
  Tb  Tb11  1  0.674064  0.820640  0.126395  1
  Pr  Pr12  1  0.028250  0.186618  0.395144  1
  Pr  Pr13  1  0.527530  0.312317  0.396299  1
  Pr  Pr14  1  0.470763  0.676624  0.899703  1
  Pr  Pr15  1  0.470763  0.676624  0.600297  1
  Pr  Pr16  1  0.980560  0.812122  0.599966  1
  Pr  Pr17  1  0.980560  0.812122  0.900034  1
  Pr  Pr18  1  0.527530  0.312317  0.103701  1
  Pr  Pr19  1  0.028250  0.186618  0.104856  1
  Si  Si20  1  0.271200  0.884768  0.750000  1
  Si  Si21  1  0.476482  0.593714  0.250000  1
  Si  Si22  1  0.024061  0.095752  0.750000  1
  Si  Si23  1  0.529416  0.394700  0.750000  1
  Si  Si24  1  0.146944  0.465396  0.530904  1
  Si  Si25  1  0.974355  0.906759  0.250000  1
  Si  Si26  1  0.732619  0.114925  0.250000  1
  Si  Si27  1  0.850501  0.534180  0.036819  1
  Si  Si28  1  0.350485  0.965848  0.033595  1
  Si  Si29  1  0.146944  0.465396  0.969096  1
  Si  Si30  1  0.644825  0.028215  0.539571  1
  Si  Si31  1  0.350485  0.965848  0.466405  1
  Si  Si32  1  0.850501  0.534180  0.463181  1
  Si  Si33  1  0.767674  0.619637  0.750000  1
  Si  Si34  1  0.234605  0.385520  0.250000  1
  Si  Si35  1  0.644825  0.028215  0.960429  1
