# generated using pymatgen
data_Np(AlC)3
_symmetry_space_group_name_H-M   'P 1'
_cell_length_a   3.40058700
_cell_length_b   3.40058748
_cell_length_c   17.42232700
_cell_angle_alpha   90.00000000
_cell_angle_beta   90.00000000
_cell_angle_gamma   120.00000502
_symmetry_Int_Tables_number   1
_chemical_formula_structural   Np(AlC)3
_chemical_formula_sum   'Np2 Al6 C6'
_cell_volume   174.47958226
_cell_formula_units_Z   2
loop_
 _symmetry_equiv_pos_site_id
 _symmetry_equiv_pos_as_xyz
  1  'x, y, z'
loop_
 _atom_site_type_symbol
 _atom_site_label
 _atom_site_symmetry_multiplicity
 _atom_site_fract_x
 _atom_site_fract_y
 _atom_site_fract_z
 _atom_site_occupancy
  Np  Np0  1  0.000000  0.000000  0.500000  1
  Np  Np1  1  0.000000  0.000000  0.000000  1
  Al  Al2  1  0.333333  0.666667  0.365945  1
  Al  Al3  1  0.666667  0.333333  0.634055  1
  Al  Al4  1  0.666667  0.333333  0.865945  1
  Al  Al5  1  0.333333  0.666667  0.134055  1
  Al  Al6  1  0.333333  0.666667  0.750000  1
  Al  Al7  1  0.666667  0.333333  0.250000  1
  C  C8  1  0.333333  0.666667  0.905477  1
  C  C9  1  0.666667  0.333333  0.094523  1
  C  C10  1  0.666667  0.333333  0.405477  1
  C  C11  1  0.333333  0.666667  0.594523  1
  C  C12  1  0.333333  0.666667  0.250000  1
  C  C13  1  0.666667  0.333333  0.750000  1
