# generated using pymatgen
data_HfSc3(Nb3Si4)2
_symmetry_space_group_name_H-M   'P 1'
_cell_length_a   6.70707200
_cell_length_b   6.90453419
_cell_length_c   13.13137329
_cell_angle_alpha   89.93247486
_cell_angle_beta   90.00000000
_cell_angle_gamma   90.00000000
_symmetry_Int_Tables_number   1
_chemical_formula_structural   HfSc3(Nb3Si4)2
_chemical_formula_sum   'Hf2 Sc6 Nb12 Si16'
_cell_volume   608.10307420
_cell_formula_units_Z   2
loop_
 _symmetry_equiv_pos_site_id
 _symmetry_equiv_pos_as_xyz
  1  'x, y, z'
loop_
 _atom_site_type_symbol
 _atom_site_label
 _atom_site_symmetry_multiplicity
 _atom_site_fract_x
 _atom_site_fract_y
 _atom_site_fract_z
 _atom_site_occupancy
  Hf  Hf0  1  0.499211  0.674997  0.596367  1
  Hf  Hf1  1  0.999211  0.825003  0.903633  1
  Sc  Sc2  1  0.500618  0.325807  0.095443  1
  Sc  Sc3  1  0.000618  0.174193  0.404557  1
  Sc  Sc4  1  0.500423  0.326291  0.404738  1
  Sc  Sc5  1  0.000423  0.173709  0.095262  1
  Sc  Sc6  1  0.498064  0.674496  0.905111  1
  Sc  Sc7  1  0.998064  0.825504  0.594889  1
  Nb  Nb8  1  0.661296  0.173667  0.624572  1
  Nb  Nb9  1  0.161296  0.326333  0.875428  1
  Nb  Nb10  1  0.338369  0.825890  0.124416  1
  Nb  Nb11  1  0.838369  0.674110  0.375584  1
  Nb  Nb12  1  0.339373  0.825041  0.375757  1
  Nb  Nb13  1  0.839373  0.674959  0.124243  1
  Nb  Nb14  1  0.663010  0.172595  0.875051  1
  Nb  Nb15  1  0.163010  0.327405  0.624949  1
  Nb  Nb16  1  0.835948  0.496393  0.750598  1
  Nb  Nb17  1  0.335948  0.003607  0.749402  1
  Nb  Nb18  1  0.164001  0.505205  0.249977  1
  Nb  Nb19  1  0.664001  0.994795  0.250023  1
  Si  Si20  1  0.669535  0.967192  0.460570  1
  Si  Si21  1  0.169535  0.532808  0.039430  1
  Si  Si22  1  0.329197  0.033509  0.960661  1
  Si  Si23  1  0.829197  0.466491  0.539339  1
  Si  Si24  1  0.329851  0.033338  0.539421  1
  Si  Si25  1  0.829851  0.466662  0.960579  1
  Si  Si26  1  0.670987  0.967136  0.039345  1
  Si  Si27  1  0.170987  0.532864  0.460655  1
  Si  Si28  1  0.459090  0.387159  0.750472  1
  Si  Si29  1  0.959090  0.112841  0.749528  1
  Si  Si30  1  0.541727  0.612829  0.249697  1
  Si  Si31  1  0.041727  0.887171  0.250303  1
  Si  Si32  1  0.702835  0.862497  0.749907  1
  Si  Si33  1  0.202835  0.637503  0.750093  1
  Si  Si34  1  0.296465  0.137676  0.249970  1
  Si  Si35  1  0.796465  0.362324  0.250030  1
