# generated using pymatgen
data_Rb12Na8Zr4As11P
_symmetry_space_group_name_H-M   'P 1'
_cell_length_a   11.05805034
_cell_length_b   11.05805141
_cell_length_c   15.96714698
_cell_angle_alpha   90.02576583
_cell_angle_beta   90.02576697
_cell_angle_gamma   142.90231393
_symmetry_Int_Tables_number   1
_chemical_formula_structural   Rb12Na8Zr4As11P
_chemical_formula_sum   'Rb12 Na8 Zr4 As11 P1'
_cell_volume   1177.68175877
_cell_formula_units_Z   1
loop_
 _symmetry_equiv_pos_site_id
 _symmetry_equiv_pos_as_xyz
  1  'x, y, z'
loop_
 _atom_site_type_symbol
 _atom_site_label
 _atom_site_symmetry_multiplicity
 _atom_site_fract_x
 _atom_site_fract_y
 _atom_site_fract_z
 _atom_site_occupancy
  Rb  Rb0  1  0.947037  0.606926  0.823009  1
  Rb  Rb1  1  0.552759  0.892842  0.323358  1
  Rb  Rb2  1  0.393077  0.052872  0.176798  1
  Rb  Rb3  1  0.052872  0.393077  0.176798  1
  Rb  Rb4  1  0.892842  0.552759  0.323358  1
  Rb  Rb5  1  0.446411  0.106774  0.676197  1
  Rb  Rb6  1  0.606926  0.947037  0.823009  1
  Rb  Rb7  1  0.277875  0.277875  0.316168  1
  Rb  Rb8  1  0.779186  0.779186  0.185512  1
  Rb  Rb9  1  0.220938  0.220938  0.815703  1
  Rb  Rb10  1  0.721083  0.721083  0.684057  1
  Rb  Rb11  1  0.106774  0.446411  0.676197  1
  Na  Na12  1  0.919376  0.080574  0.000013  1
  Na  Na13  1  0.580977  0.421178  0.499434  1
  Na  Na14  1  0.080574  0.919376  0.000013  1
  Na  Na15  1  0.421178  0.580977  0.499434  1
  Na  Na16  1  0.754733  0.245299  0.000002  1
  Na  Na17  1  0.745445  0.254562  0.499996  1
  Na  Na18  1  0.245299  0.754733  0.000002  1
  Na  Na19  1  0.254562  0.745445  0.499996  1
  Zr  Zr20  1  0.586123  0.413913  0.000092  1
  Zr  Zr21  1  0.912689  0.082720  0.498783  1
  Zr  Zr22  1  0.413913  0.586123  0.000092  1
  Zr  Zr23  1  0.082720  0.912689  0.498783  1
  As  As24  1  0.873568  0.560338  0.097280  1
  As  As25  1  0.439870  0.126438  0.902893  1
  As  As26  1  0.626649  0.939109  0.596550  1
  As  As27  1  0.939109  0.626649  0.596550  1
  As  As28  1  0.126438  0.439870  0.902893  1
  As  As29  1  0.560338  0.873568  0.097280  1
  As  As30  1  0.372293  0.059963  0.402270  1
  As  As31  1  0.201585  0.201585  0.588045  1
  As  As32  1  0.701445  0.701445  0.911586  1
  As  As33  1  0.298575  0.298575  0.088661  1
  As  As34  1  0.059963  0.372293  0.402270  1
  P  P35  1  0.804798  0.804798  0.416919  1
