# generated using pymatgen
data_LiEr9S10
_symmetry_space_group_name_H-M   'P 1'
_cell_length_a   6.66122500
_cell_length_b   7.71104020
_cell_length_c   8.65608247
_cell_angle_alpha   103.24523184
_cell_angle_beta   97.24493986
_cell_angle_gamma   106.76629104
_symmetry_Int_Tables_number   1
_chemical_formula_structural   LiEr9S10
_chemical_formula_sum   'Li1 Er9 S10'
_cell_volume   405.48606390
_cell_formula_units_Z   1
loop_
 _symmetry_equiv_pos_site_id
 _symmetry_equiv_pos_as_xyz
  1  'x, y, z'
loop_
 _atom_site_type_symbol
 _atom_site_label
 _atom_site_symmetry_multiplicity
 _atom_site_fract_x
 _atom_site_fract_y
 _atom_site_fract_z
 _atom_site_occupancy
  Li  Li0  1  0.000000  0.500000  0.000000  1
  Er  Er1  1  0.799275  0.600551  0.600479  1
  Er  Er2  1  0.602720  0.200990  0.203729  1
  Er  Er3  1  0.397280  0.799010  0.796271  1
  Er  Er4  1  0.600326  0.702311  0.202700  1
  Er  Er5  1  0.200725  0.399449  0.399521  1
  Er  Er6  1  0.399674  0.297689  0.797300  1
  Er  Er7  1  0.000000  0.000000  0.000000  1
  Er  Er8  1  0.200683  0.901181  0.402785  1
  Er  Er9  1  0.799317  0.098819  0.597215  1
  S  S10  1  0.703844  0.647664  0.903064  1
  S  S11  1  0.500474  0.250879  0.499908  1
  S  S12  1  0.704312  0.155745  0.902899  1
  S  S13  1  0.295688  0.844255  0.097101  1
  S  S14  1  0.499526  0.749121  0.500092  1
  S  S15  1  0.097416  0.450635  0.705321  1
  S  S16  1  0.296156  0.352336  0.096936  1
  S  S17  1  0.901950  0.050116  0.299245  1
  S  S18  1  0.098050  0.949884  0.700755  1
  S  S19  1  0.902584  0.549365  0.294679  1
