# generated using pymatgen
data_VTe6As3O22
_symmetry_space_group_name_H-M   'P 1'
_cell_length_a   6.70256102
_cell_length_b   7.95077468
_cell_length_c   10.99256503
_cell_angle_alpha   67.57340963
_cell_angle_beta   91.74978420
_cell_angle_gamma   78.85455668
_symmetry_Int_Tables_number   1
_chemical_formula_structural   VTe6As3O22
_chemical_formula_sum   'V1 Te6 As3 O22'
_cell_volume   527.75897909
_cell_formula_units_Z   1
loop_
 _symmetry_equiv_pos_site_id
 _symmetry_equiv_pos_as_xyz
  1  'x, y, z'
loop_
 _atom_site_type_symbol
 _atom_site_label
 _atom_site_symmetry_multiplicity
 _atom_site_fract_x
 _atom_site_fract_y
 _atom_site_fract_z
 _atom_site_occupancy
  V  V0  1  0.307838  0.291340  0.109867  1
  Te  Te1  1  0.692835  0.767591  0.476287  1
  Te  Te2  1  0.309459  0.230228  0.525717  1
  Te  Te3  1  0.803936  0.330678  0.200188  1
  Te  Te4  1  0.194032  0.667769  0.801166  1
  Te  Te5  1  0.765868  0.950064  0.163919  1
  Te  Te6  1  0.241000  0.051307  0.835267  1
  As  As7  1  0.681887  0.705702  0.889646  1
  As  As8  1  0.190136  0.717251  0.397293  1
  As  As9  1  0.813134  0.281747  0.603546  1
  O  O10  1  0.193192  0.421039  0.942862  1
  O  O11  1  0.802450  0.584016  0.052169  1
  O  O12  1  0.750698  0.036046  0.309538  1
  O  O13  1  0.259541  0.971016  0.687744  1
  O  O14  1  0.477401  0.402114  0.150147  1
  O  O15  1  0.514815  0.591234  0.847282  1
  O  O16  1  0.700984  0.718913  0.318867  1
  O  O17  1  0.302609  0.285522  0.680799  1
  O  O18  1  0.082964  0.838707  0.235182  1
  O  O19  1  0.922720  0.162049  0.765092  1
  O  O20  1  0.012848  0.693509  0.511744  1
  O  O21  1  0.989160  0.306411  0.488535  1
  O  O22  1  0.822139  0.215469  0.074796  1
  O  O23  1  0.173707  0.789133  0.922318  1
  O  O24  1  0.443813  0.076879  0.120181  1
  O  O25  1  0.561665  0.919879  0.887765  1
  O  O26  1  0.360187  0.823891  0.444438  1
  O  O27  1  0.643091  0.174809  0.557407  1
  O  O28  1  0.122026  0.272004  0.221325  1
  O  O29  1  0.862737  0.723405  0.779715  1
  O  O30  1  0.314859  0.498664  0.407208  1
  O  O31  1  0.686270  0.501612  0.591992  1
