# generated using pymatgen
data_RbMn(MoO4)2
_symmetry_space_group_name_H-M   'P 1'
_cell_length_a   5.71455202
_cell_length_b   5.74696757
_cell_length_c   15.81979613
_cell_angle_alpha   90.36992986
_cell_angle_beta   89.99896436
_cell_angle_gamma   119.81134756
_symmetry_Int_Tables_number   1
_chemical_formula_structural   RbMn(MoO4)2
_chemical_formula_sum   'Rb2 Mn2 Mo4 O16'
_cell_volume   450.77820884
_cell_formula_units_Z   2
loop_
 _symmetry_equiv_pos_site_id
 _symmetry_equiv_pos_as_xyz
  1  'x, y, z'
loop_
 _atom_site_type_symbol
 _atom_site_label
 _atom_site_symmetry_multiplicity
 _atom_site_fract_x
 _atom_site_fract_y
 _atom_site_fract_z
 _atom_site_occupancy
  Rb  Rb0  1  0.942614  0.999968  0.249977  1
  Rb  Rb1  1  0.057429  0.000019  0.749981  1
  Mn  Mn2  1  0.000326  0.000122  0.000067  1
  Mn  Mn3  1  0.000124  0.000522  0.500101  1
  Mo  Mo4  1  0.723885  0.355292  0.604663  1
  Mo  Mo5  1  0.368517  0.644674  0.895339  1
  Mo  Mo6  1  0.276311  0.645013  0.395348  1
  Mo  Mo7  1  0.631155  0.354911  0.104631  1
  O  O8  1  0.581652  0.788180  0.453350  1
  O  O9  1  0.793314  0.211681  0.046674  1
  O  O10  1  0.418434  0.211936  0.546726  1
  O  O11  1  0.206417  0.787940  0.953343  1
  O  O12  1  0.058499  0.292801  0.424157  1
  O  O13  1  0.765525  0.707056  0.075807  1
  O  O14  1  0.941580  0.707398  0.575833  1
  O  O15  1  0.234110  0.292476  0.924154  1
  O  O16  1  0.101352  0.839454  0.408680  1
  O  O17  1  0.261693  0.160501  0.091262  1
  O  O18  1  0.898986  0.160917  0.591289  1
  O  O19  1  0.737955  0.839097  0.908627  1
  O  O20  1  0.350193  0.653262  0.287519  1
  O  O21  1  0.696736  0.346759  0.212462  1
  O  O22  1  0.650281  0.347082  0.712496  1
  O  O23  1  0.302913  0.652940  0.787515  1
