# generated using pymatgen
data_Lu8Tl3Au
_symmetry_space_group_name_H-M   'P 1'
_cell_length_a   10.40450200
_cell_length_b   10.40450196
_cell_length_c   6.76697000
_cell_angle_alpha   90.00000000
_cell_angle_beta   90.00000000
_cell_angle_gamma   120.00000013
_symmetry_Int_Tables_number   1
_chemical_formula_structural   Lu8Tl3Au
_chemical_formula_sum   'Lu16 Tl6 Au2'
_cell_volume   634.40628473
_cell_formula_units_Z   2
loop_
 _symmetry_equiv_pos_site_id
 _symmetry_equiv_pos_as_xyz
  1  'x, y, z'
loop_
 _atom_site_type_symbol
 _atom_site_label
 _atom_site_symmetry_multiplicity
 _atom_site_fract_x
 _atom_site_fract_y
 _atom_site_fract_z
 _atom_site_occupancy
  Lu  Lu0  1  0.522801  0.045601  0.527620  1
  Lu  Lu1  1  0.954399  0.477199  0.527620  1
  Lu  Lu2  1  0.522801  0.477199  0.527620  1
  Lu  Lu3  1  0.477199  0.954399  0.027620  1
  Lu  Lu4  1  0.045601  0.522801  0.027620  1
  Lu  Lu5  1  0.477199  0.522801  0.027620  1
  Lu  Lu6  1  0.173276  0.346553  0.740938  1
  Lu  Lu7  1  0.653447  0.826724  0.740938  1
  Lu  Lu8  1  0.173276  0.826724  0.740938  1
  Lu  Lu9  1  0.826724  0.653447  0.240938  1
  Lu  Lu10  1  0.346553  0.173276  0.240938  1
  Lu  Lu11  1  0.826724  0.173276  0.240938  1
  Lu  Lu12  1  0.666667  0.333333  0.884183  1
  Lu  Lu13  1  0.333333  0.666667  0.384183  1
  Lu  Lu14  1  0.000000  0.000000  0.505156  1
  Lu  Lu15  1  0.000000  0.000000  0.005156  1
  Tl  Tl16  1  0.835918  0.671837  0.761591  1
  Tl  Tl17  1  0.328163  0.164082  0.761591  1
  Tl  Tl18  1  0.835918  0.164082  0.761591  1
  Tl  Tl19  1  0.164082  0.328163  0.261591  1
  Tl  Tl20  1  0.671837  0.835918  0.261591  1
  Tl  Tl21  1  0.164082  0.835918  0.261591  1
  Au  Au22  1  0.666667  0.333333  0.298055  1
  Au  Au23  1  0.333333  0.666667  0.798055  1
