# generated using pymatgen
data_Sc4CoSi12Ni19
_symmetry_space_group_name_H-M   'P 1'
_cell_length_a   3.70931400
_cell_length_b   6.60356431
_cell_length_c   18.42950158
_cell_angle_alpha   90.27869359
_cell_angle_beta   90.00000000
_cell_angle_gamma   90.00000000
_symmetry_Int_Tables_number   1
_chemical_formula_structural   Sc4CoSi12Ni19
_chemical_formula_sum   'Sc4 Co1 Si12 Ni19'
_cell_volume   451.41965326
_cell_formula_units_Z   1
loop_
 _symmetry_equiv_pos_site_id
 _symmetry_equiv_pos_as_xyz
  1  'x, y, z'
loop_
 _atom_site_type_symbol
 _atom_site_label
 _atom_site_symmetry_multiplicity
 _atom_site_fract_x
 _atom_site_fract_y
 _atom_site_fract_z
 _atom_site_occupancy
  Sc  Sc0  1  0.250000  0.876036  0.356466  1
  Sc  Sc1  1  0.750000  0.123203  0.643460  1
  Sc  Sc2  1  0.750000  0.375807  0.144109  1
  Sc  Sc3  1  0.250000  0.622784  0.856477  1
  Co  Co4  1  0.250000  0.061034  0.205527  1
  Si  Si5  1  0.250000  0.092673  0.086760  1
  Si  Si6  1  0.750000  0.909760  0.913819  1
  Si  Si7  1  0.750000  0.590123  0.413416  1
  Si  Si8  1  0.250000  0.409303  0.586432  1
  Si  Si9  1  0.250000  0.651107  0.077526  1
  Si  Si10  1  0.750000  0.352646  0.923585  1
  Si  Si11  1  0.750000  0.148886  0.422987  1
  Si  Si12  1  0.250000  0.851414  0.576476  1
  Si  Si13  1  0.250000  0.370245  0.257891  1
  Si  Si14  1  0.750000  0.624202  0.740970  1
  Si  Si15  1  0.750000  0.875948  0.240849  1
  Si  Si16  1  0.250000  0.124564  0.759165  1
  Ni  Ni17  1  0.750000  0.933148  0.793792  1
  Ni  Ni18  1  0.750000  0.565885  0.293526  1
  Ni  Ni19  1  0.250000  0.432634  0.706632  1
  Ni  Ni20  1  0.250000  0.618784  0.485662  1
  Ni  Ni21  1  0.750000  0.381022  0.513971  1
  Ni  Ni22  1  0.750000  0.121009  0.013889  1
  Ni  Ni23  1  0.250000  0.881575  0.986156  1
  Ni  Ni24  1  0.250000  0.678740  0.200800  1
  Ni  Ni25  1  0.750000  0.319336  0.800094  1
  Ni  Ni26  1  0.750000  0.180903  0.299380  1
  Ni  Ni27  1  0.250000  0.818758  0.699798  1
  Ni  Ni28  1  0.250000  0.355988  0.382901  1
  Ni  Ni29  1  0.750000  0.643264  0.615983  1
  Ni  Ni30  1  0.750000  0.862034  0.116886  1
  Ni  Ni31  1  0.250000  0.143745  0.884044  1
  Ni  Ni32  1  0.250000  0.370195  0.005601  1
  Ni  Ni33  1  0.750000  0.633280  0.995664  1
  Ni  Ni34  1  0.750000  0.868804  0.494704  1
  Ni  Ni35  1  0.250000  0.131160  0.504604  1
