# generated using pymatgen
data_LaNdInBiO7
_symmetry_space_group_name_H-M   'P 1'
_cell_length_a   7.74434306
_cell_length_b   7.74434294
_cell_length_c   7.84723000
_cell_angle_alpha   59.55953056
_cell_angle_beta   59.55953110
_cell_angle_gamma   59.49535568
_symmetry_Int_Tables_number   1
_chemical_formula_structural   LaNdInBiO7
_chemical_formula_sum   'La2 Nd2 In2 Bi2 O14'
_cell_volume   329.29512865
_cell_formula_units_Z   2
loop_
 _symmetry_equiv_pos_site_id
 _symmetry_equiv_pos_as_xyz
  1  'x, y, z'
loop_
 _atom_site_type_symbol
 _atom_site_label
 _atom_site_symmetry_multiplicity
 _atom_site_fract_x
 _atom_site_fract_y
 _atom_site_fract_z
 _atom_site_occupancy
  La  La0  1  0.125000  0.125000  0.125000  1
  La  La1  1  0.125000  0.125000  0.625000  1
  Nd  Nd2  1  0.625000  0.125000  0.125000  1
  Nd  Nd3  1  0.125000  0.625000  0.125000  1
  In  In4  1  0.625000  0.125000  0.625000  1
  In  In5  1  0.125000  0.625000  0.625000  1
  Bi  Bi6  1  0.625000  0.625000  0.125000  1
  Bi  Bi7  1  0.625000  0.625000  0.625000  1
  O  O8  1  0.706350  0.289952  0.281364  1
  O  O9  1  0.709923  0.709923  0.290077  1
  O  O10  1  0.289952  0.706350  0.281364  1
  O  O11  1  0.996796  0.996796  0.003204  1
  O  O12  1  0.706350  0.289952  0.722333  1
  O  O13  1  0.960048  0.543650  0.527667  1
  O  O14  1  0.289952  0.706350  0.722333  1
  O  O15  1  0.543650  0.960048  0.527667  1
  O  O16  1  0.253204  0.253204  0.246796  1
  O  O17  1  0.960048  0.543650  0.968636  1
  O  O18  1  0.540077  0.540077  0.959923  1
  O  O19  1  0.969066  0.969066  0.530934  1
  O  O20  1  0.543650  0.960048  0.968636  1
  O  O21  1  0.280934  0.280934  0.719066  1
