# generated using pymatgen
data_LaPr3Co6O19
_symmetry_space_group_name_H-M   'P 1'
_cell_length_a   7.54084453
_cell_length_b   7.53989468
_cell_length_c   7.53989501
_cell_angle_alpha   109.46867533
_cell_angle_beta   109.47378321
_cell_angle_gamma   109.47376412
_symmetry_Int_Tables_number   1
_chemical_formula_structural   LaPr3Co6O19
_chemical_formula_sum   'La1 Pr3 Co6 O19'
_cell_volume   330.00076575
_cell_formula_units_Z   1
loop_
 _symmetry_equiv_pos_site_id
 _symmetry_equiv_pos_as_xyz
  1  'x, y, z'
loop_
 _atom_site_type_symbol
 _atom_site_label
 _atom_site_symmetry_multiplicity
 _atom_site_fract_x
 _atom_site_fract_y
 _atom_site_fract_z
 _atom_site_occupancy
  La  La0  1  0.328817  0.000000  0.000000  1
  Pr  Pr1  1  0.999812  0.000002  0.331085  1
  Pr  Pr2  1  0.999810  0.331083  0.999998  1
  Pr  Pr3  1  0.668727  0.668915  0.668917  1
  Co  Co4  1  0.342915  0.499801  0.842384  1
  Co  Co5  1  0.843114  0.342583  0.500199  1
  Co  Co6  1  0.500531  0.157616  0.657417  1
  Co  Co7  1  0.156938  0.656912  0.499405  1
  Co  Co8  1  0.500026  0.842493  0.343088  1
  Co  Co9  1  0.657533  0.500595  0.157507  1
  O  O10  1  0.356572  0.999944  0.356439  1
  O  O11  1  0.356627  0.356495  0.000056  1
  O  O12  1  0.000133  0.643561  0.643505  1
  O  O13  1  0.644401  0.644269  0.000117  1
  O  O14  1  0.000133  0.355848  0.355731  1
  O  O15  1  0.644285  0.999883  0.644152  1
  O  O16  1  0.997374  0.000000  0.000000  1
  O  O17  1  0.363414  0.321333  0.618387  1
  O  O18  1  0.042081  0.297053  0.678667  1
  O  O19  1  0.745027  0.381613  0.702947  1
  O  O20  1  0.380707  0.701570  0.743598  1
  O  O21  1  0.254590  0.957548  0.635332  1
  O  O22  1  0.619258  0.364668  0.322216  1
  O  O23  1  0.321882  0.618155  0.363607  1
  O  O24  1  0.679138  0.042029  0.298430  1
  O  O25  1  0.958275  0.636393  0.254548  1
  O  O26  1  0.703728  0.745452  0.381845  1
  O  O27  1  0.637109  0.256402  0.957971  1
  O  O28  1  0.297041  0.677784  0.042452  1
