# generated using pymatgen
data_Sr4Ir4Rh2O19
_symmetry_space_group_name_H-M   'P 1'
_cell_length_a   8.13656167
_cell_length_b   8.12223403
_cell_length_c   8.12071687
_cell_angle_alpha   109.24946494
_cell_angle_beta   109.45310114
_cell_angle_gamma   109.78618683
_symmetry_Int_Tables_number   1
_chemical_formula_structural   Sr4Ir4Rh2O19
_chemical_formula_sum   'Sr4 Ir4 Rh2 O19'
_cell_volume   412.74183184
_cell_formula_units_Z   1
loop_
 _symmetry_equiv_pos_site_id
 _symmetry_equiv_pos_as_xyz
  1  'x, y, z'
loop_
 _atom_site_type_symbol
 _atom_site_label
 _atom_site_symmetry_multiplicity
 _atom_site_fract_x
 _atom_site_fract_y
 _atom_site_fract_z
 _atom_site_occupancy
  Sr  Sr0  1  0.997700  0.005611  0.296812  1
  Sr  Sr1  1  0.003947  0.296942  0.998911  1
  Sr  Sr2  1  0.703953  0.699585  0.705843  1
  Sr  Sr3  1  0.292673  0.998924  0.997496  1
  Ir  Ir4  1  0.500776  0.163565  0.659022  1
  Ir  Ir5  1  0.161604  0.659404  0.502428  1
  Ir  Ir6  1  0.499954  0.841224  0.336921  1
  Ir  Ir7  1  0.658550  0.498642  0.160461  1
  Rh  Rh8  1  0.337799  0.497296  0.839880  1
  Rh  Rh9  1  0.843736  0.341153  0.502574  1
  O  O10  1  0.359855  0.001520  0.358384  1
  O  O11  1  0.358981  0.354625  0.003178  1
  O  O12  1  0.004962  0.646893  0.645385  1
  O  O13  1  0.645207  0.642359  0.004561  1
  O  O14  1  0.003360  0.359760  0.356302  1
  O  O15  1  0.637990  0.999830  0.638082  1
  O  O16  1  0.997597  0.998995  0.998831  1
  O  O17  1  0.341382  0.291768  0.628604  1
  O  O18  1  0.046284  0.333915  0.707189  1
  O  O19  1  0.709474  0.369350  0.664424  1
  O  O20  1  0.364246  0.658670  0.704772  1
  O  O21  1  0.295389  0.953864  0.659406  1
  O  O22  1  0.632260  0.340295  0.291719  1
  O  O23  1  0.293098  0.635412  0.339930  1
  O  O24  1  0.706660  0.044376  0.338266  1
  O  O25  1  0.951228  0.656489  0.297632  1
  O  O26  1  0.656017  0.705923  0.363302  1
  O  O27  1  0.656952  0.294400  0.950894  1
  O  O28  1  0.338368  0.709210  0.048790  1
