# generated using pymatgen
data_Y5P12Ru6Rh13
_symmetry_space_group_name_H-M   'P 1'
_cell_length_a   12.65692727
_cell_length_b   12.66561469
_cell_length_c   3.94308100
_cell_angle_alpha   90.00000000
_cell_angle_beta   90.00000000
_cell_angle_gamma   120.09724475
_symmetry_Int_Tables_number   1
_chemical_formula_structural   Y5P12Ru6Rh13
_chemical_formula_sum   'Y5 P12 Ru6 Rh13'
_cell_volume   546.88307884
_cell_formula_units_Z   1
loop_
 _symmetry_equiv_pos_site_id
 _symmetry_equiv_pos_as_xyz
  1  'x, y, z'
loop_
 _atom_site_type_symbol
 _atom_site_label
 _atom_site_symmetry_multiplicity
 _atom_site_fract_x
 _atom_site_fract_y
 _atom_site_fract_z
 _atom_site_occupancy
  Y  Y0  1  0.668595  0.332097  0.000000  1
  Y  Y1  1  0.332642  0.667363  0.000000  1
  Y  Y2  1  0.814070  0.001278  0.500000  1
  Y  Y3  1  0.184849  0.186952  0.500000  1
  Y  Y4  1  0.999581  0.813404  0.500000  1
  P  P5  1  0.635449  0.999594  0.000000  1
  P  P6  1  0.364892  0.365393  0.000000  1
  P  P7  1  0.000385  0.633148  0.000000  1
  P  P8  1  0.688317  0.519186  0.500000  1
  P  P9  1  0.832436  0.309953  0.500000  1
  P  P10  1  0.316252  0.834178  0.500000  1
  P  P11  1  0.518960  0.690962  0.500000  1
  P  P12  1  0.180855  0.999780  0.000000  1
  P  P13  1  0.818523  0.818056  0.000000  1
  P  P14  1  0.996521  0.179222  0.000000  1
  P  P15  1  0.478796  0.167603  0.500000  1
  P  P16  1  0.165027  0.479999  0.500000  1
  Ru  Ru17  1  0.513633  0.873965  0.500000  1
  Ru  Ru18  1  0.715264  0.714751  0.500000  1
  Ru  Ru19  1  0.000630  0.284851  0.500000  1
  Ru  Ru20  1  0.003426  0.452000  0.000000  1
  Ru  Ru21  1  0.818180  0.195395  0.000000  1
  Ru  Ru22  1  0.281929  0.999234  0.500000  1
  Rh  Rh23  1  0.623914  0.804492  0.000000  1
  Rh  Rh24  1  0.181774  0.375051  0.000000  1
  Rh  Rh25  1  0.375564  0.182106  0.000000  1
  Rh  Rh26  1  0.194943  0.817601  0.000000  1
  Rh  Rh27  1  0.804053  0.621112  0.000000  1
  Rh  Rh28  1  0.872642  0.509893  0.500000  1
  Rh  Rh29  1  0.491205  0.360001  0.500000  1
  Rh  Rh30  1  0.637498  0.129858  0.500000  1
  Rh  Rh31  1  0.129182  0.640384  0.500000  1
  Rh  Rh32  1  0.358777  0.492292  0.500000  1
  Rh  Rh33  1  0.999599  0.998906  0.000000  1
  Rh  Rh34  1  0.454254  0.002149  0.000000  1
  Rh  Rh35  1  0.547385  0.547790  0.000000  1
