# generated using pymatgen
data_Sc3GaNi3Sn2
_symmetry_space_group_name_H-M   'P 1'
_cell_length_a   7.18291000
_cell_length_b   7.23225015
_cell_length_c   3.39196500
_cell_angle_alpha   90.00000000
_cell_angle_beta   90.00000000
_cell_angle_gamma   119.77457753
_symmetry_Int_Tables_number   1
_chemical_formula_structural   Sc3GaNi3Sn2
_chemical_formula_sum   'Sc3 Ga1 Ni3 Sn2'
_cell_volume   152.94591639
_cell_formula_units_Z   1
loop_
 _symmetry_equiv_pos_site_id
 _symmetry_equiv_pos_as_xyz
  1  'x, y, z'
loop_
 _atom_site_type_symbol
 _atom_site_label
 _atom_site_symmetry_multiplicity
 _atom_site_fract_x
 _atom_site_fract_y
 _atom_site_fract_z
 _atom_site_occupancy
  Sc  Sc0  1  0.584270  0.000000  0.000000  1
  Sc  Sc1  1  0.015689  0.617925  0.000000  1
  Sc  Sc2  1  0.397764  0.382075  0.000000  1
  Ga  Ga3  1  0.271519  0.000000  0.500000  1
  Ni  Ni4  1  0.011589  0.000000  0.000000  1
  Ni  Ni5  1  0.331354  0.670911  0.500000  1
  Ni  Ni6  1  0.660444  0.329089  0.500000  1
  Sn  Sn7  1  0.998579  0.269786  0.500000  1
  Sn  Sn8  1  0.728793  0.730214  0.500000  1
