# generated using pymatgen
data_Y4HfMg(ZrPt2)2
_symmetry_space_group_name_H-M   'P 1'
_cell_length_a   4.64044500
_cell_length_b   7.10336450
_cell_length_c   8.27858030
_cell_angle_alpha   92.70245381
_cell_angle_beta   90.00000000
_cell_angle_gamma   90.00000000
_symmetry_Int_Tables_number   1
_chemical_formula_structural   Y4HfMg(ZrPt2)2
_chemical_formula_sum   'Y4 Hf1 Mg1 Zr2 Pt4'
_cell_volume   272.58147003
_cell_formula_units_Z   1
loop_
 _symmetry_equiv_pos_site_id
 _symmetry_equiv_pos_as_xyz
  1  'x, y, z'
loop_
 _atom_site_type_symbol
 _atom_site_label
 _atom_site_symmetry_multiplicity
 _atom_site_fract_x
 _atom_site_fract_y
 _atom_site_fract_z
 _atom_site_occupancy
  Y  Y0  1  0.250000  0.981703  0.319522  1
  Y  Y1  1  0.250000  0.467840  0.169259  1
  Y  Y2  1  0.750000  0.027807  0.688251  1
  Y  Y3  1  0.750000  0.513287  0.828894  1
  Hf  Hf4  1  0.750000  0.647025  0.422612  1
  Mg  Mg5  1  0.750000  0.145545  0.074997  1
  Zr  Zr6  1  0.250000  0.364174  0.571635  1
  Zr  Zr7  1  0.250000  0.853461  0.933064  1
  Pt  Pt8  1  0.250000  0.231449  0.879908  1
  Pt  Pt9  1  0.250000  0.737498  0.595897  1
  Pt  Pt10  1  0.750000  0.757220  0.110230  1
  Pt  Pt11  1  0.750000  0.272990  0.405730  1
