# generated using pymatgen
data_Li24TbHo3(BO3)12
_symmetry_space_group_name_H-M   'P 1'
_cell_length_a   16.46934811
_cell_length_b   6.69240593
_cell_length_c   7.22617601
_cell_angle_alpha   74.67372087
_cell_angle_beta   90.00518564
_cell_angle_gamma   89.98968309
_symmetry_Int_Tables_number   1
_chemical_formula_structural   Li24TbHo3(BO3)12
_chemical_formula_sum   'Li24 Tb1 Ho3 B12 O36'
_cell_volume   768.14065664
_cell_formula_units_Z   1
loop_
 _symmetry_equiv_pos_site_id
 _symmetry_equiv_pos_as_xyz
  1  'x, y, z'
loop_
 _atom_site_type_symbol
 _atom_site_label
 _atom_site_symmetry_multiplicity
 _atom_site_fract_x
 _atom_site_fract_y
 _atom_site_fract_z
 _atom_site_occupancy
  Li  Li0  1  0.030187  0.329592  0.546024  1
  Li  Li1  1  0.530331  0.170364  0.454182  1
  Li  Li2  1  0.969740  0.670402  0.453991  1
  Li  Li3  1  0.469905  0.829633  0.546006  1
  Li  Li4  1  0.204958  0.045560  0.438286  1
  Li  Li5  1  0.705048  0.454072  0.562220  1
  Li  Li6  1  0.794917  0.954012  0.562169  1
  Li  Li7  1  0.294995  0.546270  0.438074  1
  Li  Li8  1  0.946854  0.414485  0.136953  1
  Li  Li9  1  0.447076  0.085382  0.862941  1
  Li  Li10  1  0.052924  0.585698  0.862962  1
  Li  Li11  1  0.553060  0.914389  0.137001  1
  Li  Li12  1  0.206116  0.634897  0.714344  1
  Li  Li13  1  0.706194  0.865343  0.285132  1
  Li  Li14  1  0.793782  0.365363  0.285148  1
  Li  Li15  1  0.293823  0.134251  0.714781  1
  Li  Li16  1  0.035553  0.056067  0.306477  1
  Li  Li17  1  0.535530  0.443939  0.693563  1
  Li  Li18  1  0.964414  0.943877  0.693511  1
  Li  Li19  1  0.464657  0.556231  0.306657  1
  Li  Li20  1  0.995883  0.823533  0.071600  1
  Li  Li21  1  0.496070  0.676676  0.928159  1
  Li  Li22  1  0.003979  0.176385  0.928358  1
  Li  Li23  1  0.504223  0.323575  0.071726  1
  Tb  Tb24  1  0.309876  0.347555  0.079581  1
  Ho  Ho25  1  0.810012  0.152744  0.920382  1
  Ho  Ho26  1  0.689985  0.652773  0.920359  1
  Ho  Ho27  1  0.189770  0.847157  0.079731  1
  B  B28  1  0.878931  0.000669  0.286146  1
  B  B29  1  0.379228  0.499872  0.712429  1
  B  B30  1  0.121008  0.999279  0.713876  1
  B  B31  1  0.621088  0.500669  0.286158  1
  B  B32  1  0.135056  0.338145  0.084138  1
  B  B33  1  0.635586  0.161558  0.916043  1
  B  B34  1  0.864421  0.661620  0.915986  1
  B  B35  1  0.364488  0.838654  0.083982  1
  B  B36  1  0.384879  0.188940  0.440412  1
  B  B37  1  0.884598  0.310615  0.560782  1
  B  B38  1  0.615438  0.810634  0.560755  1
  B  B39  1  0.115335  0.689378  0.439242  1
  O  O40  1  0.925772  0.042445  0.119363  1
  O  O41  1  0.426308  0.457932  0.878980  1
  O  O42  1  0.074138  0.957532  0.880613  1
  O  O43  1  0.574232  0.542526  0.119343  1
  O  O44  1  0.797063  0.057720  0.259724  1
  O  O45  1  0.297282  0.443462  0.737921  1
  O  O46  1  0.202839  0.941963  0.740390  1
  O  O47  1  0.702950  0.557720  0.259706  1
  O  O48  1  0.911371  0.912830  0.463800  1
  O  O49  1  0.411653  0.587857  0.534981  1
  O  O50  1  0.088637  0.087260  0.536200  1
  O  O51  1  0.588698  0.412856  0.463818  1
  O  O52  1  0.052544  0.324630  0.088253  1
  O  O53  1  0.553026  0.175629  0.911775  1
  O  O54  1  0.946985  0.675818  0.911603  1
  O  O55  1  0.447004  0.824133  0.088411  1
  O  O56  1  0.325862  0.027935  0.005768  1
  O  O57  1  0.825777  0.471519  0.991780  1
  O  O58  1  0.674274  0.971474  0.991815  1
  O  O59  1  0.173826  0.528215  0.008211  1
  O  O60  1  0.184641  0.164451  0.145890  1
  O  O61  1  0.685591  0.334398  0.854815  1
  O  O62  1  0.814393  0.834443  0.854785  1
  O  O63  1  0.314277  0.666996  0.147546  1
  O  O64  1  0.421578  0.075765  0.606911  1
  O  O65  1  0.921236  0.423511  0.393925  1
  O  O66  1  0.578800  0.923482  0.393855  1
  O  O67  1  0.078762  0.576445  0.606181  1
  O  O68  1  0.301697  0.227869  0.422758  1
  O  O69  1  0.801494  0.271101  0.579316  1
  O  O70  1  0.698555  0.771078  0.579303  1
  O  O71  1  0.198398  0.729109  0.420697  1
  O  O72  1  0.431781  0.271373  0.276997  1
  O  O73  1  0.931374  0.228375  0.724313  1
  O  O74  1  0.568719  0.728493  0.724302  1
  O  O75  1  0.068545  0.771400  0.275687  1
