# generated using pymatgen
data_Sm8ZnInPd23
_symmetry_space_group_name_H-M   'P 1'
_cell_length_a   8.42578800
_cell_length_b   8.52284600
_cell_length_c   8.52628100
_cell_angle_alpha   90.00000000
_cell_angle_beta   90.00000000
_cell_angle_gamma   90.00000000
_symmetry_Int_Tables_number   1
_chemical_formula_structural   Sm8ZnInPd23
_chemical_formula_sum   'Sm8 Zn1 In1 Pd23'
_cell_volume   612.28667832
_cell_formula_units_Z   1
loop_
 _symmetry_equiv_pos_site_id
 _symmetry_equiv_pos_as_xyz
  1  'x, y, z'
loop_
 _atom_site_type_symbol
 _atom_site_label
 _atom_site_symmetry_multiplicity
 _atom_site_fract_x
 _atom_site_fract_y
 _atom_site_fract_z
 _atom_site_occupancy
  Sm  Sm0  1  0.249007  0.244948  0.257937  1
  Sm  Sm1  1  0.749061  0.748858  0.752210  1
  Sm  Sm2  1  0.749061  0.748858  0.247790  1
  Sm  Sm3  1  0.749061  0.251142  0.752210  1
  Sm  Sm4  1  0.249007  0.244948  0.742063  1
  Sm  Sm5  1  0.249007  0.755052  0.257937  1
  Sm  Sm6  1  0.249007  0.755052  0.742063  1
  Sm  Sm7  1  0.749061  0.251142  0.247790  1
  Zn  Zn8  1  0.286458  0.500000  0.000000  1
  In  In9  1  0.995108  0.000000  0.000000  1
  Pd  Pd10  1  0.737660  0.500000  0.000000  1
  Pd  Pd11  1  0.995632  0.266271  0.500000  1
  Pd  Pd12  1  0.492595  0.269239  0.000000  1
  Pd  Pd13  1  0.995632  0.733729  0.500000  1
  Pd  Pd14  1  0.492595  0.730761  0.000000  1
  Pd  Pd15  1  0.499691  0.000000  0.266157  1
  Pd  Pd16  1  0.266594  0.000000  0.500000  1
  Pd  Pd17  1  0.499691  0.000000  0.733843  1
  Pd  Pd18  1  0.731852  0.000000  0.500000  1
  Pd  Pd19  1  0.001445  0.500000  0.267760  1
  Pd  Pd20  1  0.001445  0.500000  0.732240  1
  Pd  Pd21  1  0.254056  0.500000  0.500000  1
  Pd  Pd22  1  0.743413  0.500000  0.500000  1
  Pd  Pd23  1  0.501526  0.255448  0.500000  1
  Pd  Pd24  1  0.501526  0.744552  0.500000  1
  Pd  Pd25  1  0.494626  0.500000  0.254198  1
  Pd  Pd26  1  0.494626  0.500000  0.745802  1
  Pd  Pd27  1  0.310003  0.000000  0.000000  1
  Pd  Pd28  1  0.680442  0.000000  0.000000  1
  Pd  Pd29  1  0.017664  0.319011  0.000000  1
  Pd  Pd30  1  0.017664  0.680989  0.000000  1
  Pd  Pd31  1  0.997893  0.000000  0.313164  1
  Pd  Pd32  1  0.997893  0.000000  0.686836  1
