# generated using pymatgen
data_La3Pr9MnFeI17
_symmetry_space_group_name_H-M   'P 1'
_cell_length_a   10.07244981
_cell_length_b   12.21395095
_cell_length_c   12.18683469
_cell_angle_alpha   73.92203611
_cell_angle_beta   75.29185323
_cell_angle_gamma   65.69808793
_symmetry_Int_Tables_number   1
_chemical_formula_structural   La3Pr9MnFeI17
_chemical_formula_sum   'La3 Pr9 Mn1 Fe1 I17'
_cell_volume   1296.11273206
_cell_formula_units_Z   1
loop_
 _symmetry_equiv_pos_site_id
 _symmetry_equiv_pos_as_xyz
  1  'x, y, z'
loop_
 _atom_site_type_symbol
 _atom_site_label
 _atom_site_symmetry_multiplicity
 _atom_site_fract_x
 _atom_site_fract_y
 _atom_site_fract_z
 _atom_site_occupancy
  La  La0  1  0.820112  0.193259  0.586453  1
  La  La1  1  0.165570  0.809552  0.425305  1
  La  La2  1  0.161809  0.715430  0.155146  1
  Pr  Pr3  1  0.453501  0.482846  0.322792  1
  Pr  Pr4  1  0.558605  0.671562  0.005788  1
  Pr  Pr5  1  0.269435  0.990869  0.105210  1
  Pr  Pr6  1  0.863332  0.287965  0.849904  1
  Pr  Pr7  1  0.407164  0.241000  0.718825  1
  Pr  Pr8  1  0.724032  0.019915  0.893821  1
  Pr  Pr9  1  0.549840  0.505151  0.678189  1
  Pr  Pr10  1  0.454370  0.327992  0.984057  1
  Pr  Pr11  1  0.580387  0.758069  0.278593  1
  Mn  Mn12  1  0.348209  0.736465  0.208920  1
  Fe  Fe13  1  0.636875  0.261894  0.785464  1
  I  I14  1  0.055006  0.102250  0.326242  1
  I  I15  1  0.465113  0.949093  0.844244  1
  I  I16  1  0.427862  0.811203  0.533718  1
  I  I17  1  0.570649  0.183185  0.465253  1
  I  I18  1  0.836358  0.712979  0.048577  1
  I  I19  1  0.228236  0.417744  0.237174  1
  I  I20  1  0.689264  0.372033  0.101426  1
  I  I21  1  0.529968  0.049924  0.158798  1
  I  I22  1  0.738444  0.475496  0.413970  1
  I  I23  1  0.884170  0.784314  0.368214  1
  I  I24  1  0.945304  0.897117  0.680507  1
  I  I25  1  0.160836  0.292571  0.954794  1
  I  I26  1  0.321432  0.630252  0.896184  1
  I  I27  1  0.999812  0.001682  0.001207  1
  I  I28  1  0.115550  0.214485  0.633213  1
  I  I29  1  0.780319  0.579359  0.756960  1
  I  I30  1  0.258436  0.524344  0.581051  1
