# generated using pymatgen
data_Tb3Pr14Nd3Sn16
_symmetry_space_group_name_H-M   'P 1'
_cell_length_a   8.30822403
_cell_length_b   8.47015152
_cell_length_c   16.04875609
_cell_angle_alpha   90.01204571
_cell_angle_beta   89.99796135
_cell_angle_gamma   89.97108821
_symmetry_Int_Tables_number   1
_chemical_formula_structural   Tb3Pr14Nd3Sn16
_chemical_formula_sum   'Tb3 Pr14 Nd3 Sn16'
_cell_volume   1129.38155313
_cell_formula_units_Z   1
loop_
 _symmetry_equiv_pos_site_id
 _symmetry_equiv_pos_as_xyz
  1  'x, y, z'
loop_
 _atom_site_type_symbol
 _atom_site_label
 _atom_site_symmetry_multiplicity
 _atom_site_fract_x
 _atom_site_fract_y
 _atom_site_fract_z
 _atom_site_occupancy
  Tb  Tb0  1  0.698833  0.998318  0.749987  1
  Tb  Tb1  1  0.800730  0.498692  0.249999  1
  Tb  Tb2  1  0.300562  0.001078  0.249997  1
  Pr  Pr3  1  0.632462  0.163004  0.379450  1
  Pr  Pr4  1  0.132515  0.336843  0.121369  1
  Pr  Pr5  1  0.632460  0.163081  0.120603  1
  Pr  Pr6  1  0.132514  0.336765  0.378577  1
  Pr  Pr7  1  0.368250  0.836772  0.620227  1
  Pr  Pr8  1  0.867236  0.663794  0.879485  1
  Pr  Pr9  1  0.519409  0.318542  0.901290  1
  Pr  Pr10  1  0.018678  0.180373  0.598791  1
  Pr  Pr11  1  0.480941  0.681007  0.400633  1
  Pr  Pr12  1  0.981154  0.818956  0.099012  1
  Pr  Pr13  1  0.480915  0.680989  0.099319  1
  Pr  Pr14  1  0.981122  0.818979  0.401042  1
  Pr  Pr15  1  0.519492  0.318615  0.598709  1
  Pr  Pr16  1  0.018758  0.180295  0.901204  1
  Nd  Nd17  1  0.368111  0.836849  0.879747  1
  Nd  Nd18  1  0.867064  0.663768  0.620537  1
  Nd  Nd19  1  0.197489  0.501598  0.750022  1
  Sn  Sn20  1  0.292302  0.033834  0.044033  1
  Sn  Sn21  1  0.792498  0.466447  0.456056  1
  Sn  Sn22  1  0.708014  0.965734  0.544112  1
  Sn  Sn23  1  0.207980  0.535603  0.957834  1
  Sn  Sn24  1  0.707295  0.966000  0.955914  1
  Sn  Sn25  1  0.207287  0.535323  0.542154  1
  Sn  Sn26  1  0.292182  0.034083  0.455733  1
  Sn  Sn27  1  0.792392  0.466190  0.044172  1
  Sn  Sn28  1  0.568469  0.617422  0.749979  1
  Sn  Sn29  1  0.064171  0.885693  0.750010  1
  Sn  Sn30  1  0.435185  0.383659  0.249998  1
  Sn  Sn31  1  0.934678  0.116188  0.249997  1
  Sn  Sn32  1  0.325921  0.141670  0.750104  1
  Sn  Sn33  1  0.822294  0.353093  0.749907  1
  Sn  Sn34  1  0.675657  0.854467  0.250000  1
  Sn  Sn35  1  0.174986  0.646273  0.249998  1
