# generated using pymatgen
data_Sr4GaSnPt4
_symmetry_space_group_name_H-M   'P 1'
_cell_length_a   5.88950078
_cell_length_b   5.88950032
_cell_length_c   8.34847775
_cell_angle_alpha   79.31958281
_cell_angle_beta   79.31958618
_cell_angle_gamma   61.33845260
_symmetry_Int_Tables_number   1
_chemical_formula_structural   Sr4GaSnPt4
_chemical_formula_sum   'Sr4 Ga1 Sn1 Pt4'
_cell_volume   248.12619757
_cell_formula_units_Z   1
loop_
 _symmetry_equiv_pos_site_id
 _symmetry_equiv_pos_as_xyz
  1  'x, y, z'
loop_
 _atom_site_type_symbol
 _atom_site_label
 _atom_site_symmetry_multiplicity
 _atom_site_fract_x
 _atom_site_fract_y
 _atom_site_fract_z
 _atom_site_occupancy
  Sr  Sr0  1  0.784855  0.513634  0.850465  1
  Sr  Sr1  1  0.486366  0.215145  0.649535  1
  Sr  Sr2  1  0.210449  0.490422  0.148249  1
  Sr  Sr3  1  0.509578  0.789551  0.351751  1
  Ga  Ga4  1  0.887138  0.112862  0.250000  1
  Sn  Sn5  1  0.133175  0.866825  0.750000  1
  Pt  Pt6  1  0.995313  0.731783  0.491457  1
  Pt  Pt7  1  0.268217  0.004687  0.008543  1
  Pt  Pt8  1  0.990381  0.265471  0.488908  1
  Pt  Pt9  1  0.734529  0.009619  0.011092  1
