# generated using pymatgen
data_Y2Er4MnB14Os
_symmetry_space_group_name_H-M   'P 1'
_cell_length_a   7.99373946
_cell_length_b   7.99374019
_cell_length_c   9.29180400
_cell_angle_alpha   90.00000000
_cell_angle_beta   90.00000000
_cell_angle_gamma   154.90330170
_symmetry_Int_Tables_number   1
_chemical_formula_structural   Y2Er4MnB14Os
_chemical_formula_sum   'Y2 Er4 Mn1 B14 Os1'
_cell_volume   251.83535572
_cell_formula_units_Z   1
loop_
 _symmetry_equiv_pos_site_id
 _symmetry_equiv_pos_as_xyz
  1  'x, y, z'
loop_
 _atom_site_type_symbol
 _atom_site_label
 _atom_site_symmetry_multiplicity
 _atom_site_fract_x
 _atom_site_fract_y
 _atom_site_fract_z
 _atom_site_occupancy
  Y  Y0  1  0.245444  0.754556  0.250000  1
  Y  Y1  1  0.758030  0.241970  0.750000  1
  Er  Er2  1  0.894924  0.105076  0.443679  1
  Er  Er3  1  0.104500  0.895500  0.562657  1
  Er  Er4  1  0.894924  0.105076  0.056321  1
  Er  Er5  1  0.104500  0.895500  0.937343  1
  Mn  Mn6  1  0.947588  0.052412  0.750000  1
  B  B7  1  0.727060  0.272940  0.466875  1
  B  B8  1  0.272395  0.727605  0.533784  1
  B  B9  1  0.727060  0.272940  0.033125  1
  B  B10  1  0.272395  0.727605  0.966216  1
  B  B11  1  0.631581  0.368419  0.149896  1
  B  B12  1  0.370306  0.629694  0.846562  1
  B  B13  1  0.631581  0.368419  0.350104  1
  B  B14  1  0.370306  0.629694  0.653438  1
  B  B15  1  0.519794  0.480206  0.095277  1
  B  B16  1  0.478936  0.521064  0.901816  1
  B  B17  1  0.519794  0.480206  0.404723  1
  B  B18  1  0.478936  0.521064  0.598184  1
  B  B19  1  0.454773  0.545227  0.250000  1
  B  B20  1  0.541983  0.458017  0.750000  1
  Os  Os21  1  0.053189  0.946811  0.250000  1
