# generated using pymatgen
data_Ba4Nd7BiSe16
_symmetry_space_group_name_H-M   'P 1'
_cell_length_a   4.35033500
_cell_length_b   13.04839300
_cell_length_c   15.60177534
_cell_angle_alpha   89.90243895
_cell_angle_beta   90.00000000
_cell_angle_gamma   90.00000000
_symmetry_Int_Tables_number   1
_chemical_formula_structural   Ba4Nd7BiSe16
_chemical_formula_sum   'Ba4 Nd7 Bi1 Se16'
_cell_volume   885.63163293
_cell_formula_units_Z   1
loop_
 _symmetry_equiv_pos_site_id
 _symmetry_equiv_pos_as_xyz
  1  'x, y, z'
loop_
 _atom_site_type_symbol
 _atom_site_label
 _atom_site_symmetry_multiplicity
 _atom_site_fract_x
 _atom_site_fract_y
 _atom_site_fract_z
 _atom_site_occupancy
  Ba  Ba0  1  0.250000  0.756379  0.337360  1
  Ba  Ba1  1  0.250000  0.257285  0.163040  1
  Ba  Ba2  1  0.750000  0.242451  0.661796  1
  Ba  Ba3  1  0.750000  0.742687  0.837191  1
  Nd  Nd4  1  0.250000  0.429827  0.392072  1
  Nd  Nd5  1  0.250000  0.930952  0.108514  1
  Nd  Nd6  1  0.750000  0.569102  0.608663  1
  Nd  Nd7  1  0.750000  0.069156  0.891243  1
  Nd  Nd8  1  0.250000  0.420312  0.899252  1
  Nd  Nd9  1  0.250000  0.921779  0.600481  1
  Nd  Nd10  1  0.750000  0.579607  0.100916  1
  Bi  Bi11  1  0.750000  0.078420  0.398992  1
  Se  Se12  1  0.250000  0.207192  0.826995  1
  Se  Se13  1  0.250000  0.707518  0.672650  1
  Se  Se14  1  0.750000  0.793283  0.172957  1
  Se  Se15  1  0.750000  0.293247  0.328361  1
  Se  Se16  1  0.250000  0.129656  0.526727  1
  Se  Se17  1  0.250000  0.629794  0.974272  1
  Se  Se18  1  0.750000  0.870100  0.471775  1
  Se  Se19  1  0.750000  0.370197  0.025855  1
  Se  Se20  1  0.250000  0.523440  0.216901  1
  Se  Se21  1  0.250000  0.024354  0.283334  1
  Se  Se22  1  0.750000  0.476062  0.783047  1
  Se  Se23  1  0.750000  0.976392  0.716938  1
  Se  Se24  1  0.250000  0.416458  0.579203  1
  Se  Se25  1  0.250000  0.916264  0.921420  1
  Se  Se26  1  0.750000  0.584269  0.420452  1
  Se  Se27  1  0.750000  0.083813  0.079596  1
