# generated using pymatgen
data_Nd4ZnGa3Pt3Rh
_symmetry_space_group_name_H-M   'P 1'
_cell_length_a   4.49145000
_cell_length_b   7.09385910
_cell_length_c   7.88822769
_cell_angle_alpha   89.81418345
_cell_angle_beta   90.00000000
_cell_angle_gamma   90.00000000
_symmetry_Int_Tables_number   1
_chemical_formula_structural   Nd4ZnGa3Pt3Rh
_chemical_formula_sum   'Nd4 Zn1 Ga3 Pt3 Rh1'
_cell_volume   251.33112855
_cell_formula_units_Z   1
loop_
 _symmetry_equiv_pos_site_id
 _symmetry_equiv_pos_as_xyz
  1  'x, y, z'
loop_
 _atom_site_type_symbol
 _atom_site_label
 _atom_site_symmetry_multiplicity
 _atom_site_fract_x
 _atom_site_fract_y
 _atom_site_fract_z
 _atom_site_occupancy
  Nd  Nd0  1  0.250000  0.021509  0.691186  1
  Nd  Nd1  1  0.250000  0.528155  0.807588  1
  Nd  Nd2  1  0.750000  0.971230  0.313635  1
  Nd  Nd3  1  0.750000  0.472751  0.188779  1
  Zn  Zn4  1  0.250000  0.157406  0.071442  1
  Ga  Ga5  1  0.250000  0.662398  0.432746  1
  Ga  Ga6  1  0.750000  0.843170  0.929329  1
  Ga  Ga7  1  0.750000  0.347059  0.568311  1
  Pt  Pt8  1  0.250000  0.281276  0.394639  1
  Pt  Pt9  1  0.250000  0.772998  0.109244  1
  Pt  Pt10  1  0.750000  0.220256  0.886103  1
  Rh  Rh11  1  0.750000  0.721794  0.606999  1
