# generated using pymatgen
data_Tb16Cd4TcNi2Pd
_symmetry_space_group_name_H-M   'P 1'
_cell_length_a   9.69682006
_cell_length_b   9.68357504
_cell_length_c   9.68357511
_cell_angle_alpha   59.38833761
_cell_angle_beta   59.45506902
_cell_angle_gamma   59.45506149
_symmetry_Int_Tables_number   1
_chemical_formula_structural   Tb16Cd4TcNi2Pd
_chemical_formula_sum   'Tb16 Cd4 Tc1 Ni2 Pd1'
_cell_volume   634.66509417
_cell_formula_units_Z   1
loop_
 _symmetry_equiv_pos_site_id
 _symmetry_equiv_pos_as_xyz
  1  'x, y, z'
loop_
 _atom_site_type_symbol
 _atom_site_label
 _atom_site_symmetry_multiplicity
 _atom_site_fract_x
 _atom_site_fract_y
 _atom_site_fract_z
 _atom_site_occupancy
  Tb  Tb0  1  0.341694  0.353034  0.353034  1
  Tb  Tb1  1  0.345777  0.356705  0.949707  1
  Tb  Tb2  1  0.345777  0.949707  0.356705  1
  Tb  Tb3  1  0.956527  0.350262  0.350262  1
  Tb  Tb4  1  0.816290  0.188300  0.188300  1
  Tb  Tb5  1  0.187878  0.810794  0.810794  1
  Tb  Tb6  1  0.188383  0.811526  0.187357  1
  Tb  Tb7  1  0.816573  0.187586  0.803763  1
  Tb  Tb8  1  0.188383  0.187357  0.811526  1
  Tb  Tb9  1  0.816573  0.803763  0.187586  1
  Tb  Tb10  1  0.933815  0.566129  0.566129  1
  Tb  Tb11  1  0.555719  0.939009  0.939009  1
  Tb  Tb12  1  0.565166  0.936080  0.564910  1
  Tb  Tb13  1  0.937312  0.556350  0.938475  1
  Tb  Tb14  1  0.565166  0.564910  0.936080  1
  Tb  Tb15  1  0.937312  0.938475  0.556350  1
  Cd  Cd16  1  0.580701  0.579383  0.579383  1
  Cd  Cd17  1  0.580433  0.579661  0.255505  1
  Cd  Cd18  1  0.580433  0.255505  0.579661  1
  Cd  Cd19  1  0.254241  0.580380  0.580380  1
  Tc  Tc20  1  0.144442  0.143641  0.143641  1
  Ni  Ni21  1  0.144341  0.143086  0.574564  1
  Ni  Ni22  1  0.144341  0.574564  0.143086  1
  Pd  Pd23  1  0.572725  0.143797  0.143797  1
