# generated using pymatgen
data_Hf3ZrCo7P6Ru
_symmetry_space_group_name_H-M   'P 1'
_cell_length_a   12.17708955
_cell_length_b   12.13613830
_cell_length_c   3.64838400
_cell_angle_alpha   90.00000000
_cell_angle_beta   90.00000000
_cell_angle_gamma   120.11418304
_symmetry_Int_Tables_number   1
_chemical_formula_structural   Hf3ZrCo7P6Ru
_chemical_formula_sum   'Hf6 Zr2 Co14 P12 Ru2'
_cell_volume   466.39549581
_cell_formula_units_Z   2
loop_
 _symmetry_equiv_pos_site_id
 _symmetry_equiv_pos_as_xyz
  1  'x, y, z'
loop_
 _atom_site_type_symbol
 _atom_site_label
 _atom_site_symmetry_multiplicity
 _atom_site_fract_x
 _atom_site_fract_y
 _atom_site_fract_z
 _atom_site_occupancy
  Hf  Hf0  1  0.447504  0.444357  0.000000  1
  Hf  Hf1  1  0.558347  0.002405  0.000000  1
  Hf  Hf2  1  0.993598  0.553503  0.000000  1
  Hf  Hf3  1  0.825030  0.825975  0.500000  1
  Hf  Hf4  1  0.174853  0.998746  0.500000  1
  Hf  Hf5  1  0.002709  0.175672  0.500000  1
  Zr  Zr6  1  0.666313  0.333661  0.000000  1
  Zr  Zr7  1  0.335662  0.665474  0.000000  1
  Co  Co8  1  0.197194  0.365422  0.000000  1
  Co  Co9  1  0.168084  0.805146  0.000000  1
  Co  Co10  1  0.819865  0.630478  0.000000  1
  Co  Co11  1  0.809260  0.178185  0.000000  1
  Co  Co12  1  0.371009  0.192309  0.000000  1
  Co  Co13  1  0.523981  0.647211  0.500000  1
  Co  Co14  1  0.645205  0.519614  0.500000  1
  Co  Co15  1  0.865622  0.355260  0.500000  1
  Co  Co16  1  0.489158  0.133459  0.500000  1
  Co  Co17  1  0.999953  0.000707  0.000000  1
  Co  Co18  1  0.724268  0.001536  0.500000  1
  Co  Co19  1  0.994083  0.720496  0.500000  1
  Co  Co20  1  0.632143  0.824751  0.000000  1
  Co  Co21  1  0.281056  0.276961  0.500000  1
  P  P22  1  0.655116  0.656752  0.000000  1
  P  P23  1  0.343678  0.000380  0.000000  1
  P  P24  1  0.000033  0.342796  0.000000  1
  P  P25  1  0.482825  0.309510  0.500000  1
  P  P26  1  0.691855  0.172637  0.500000  1
  P  P27  1  0.824304  0.518527  0.500000  1
  P  P28  1  0.521569  0.828330  0.500000  1
  P  P29  1  0.164507  0.687070  0.500000  1
  P  P30  1  0.827136  0.001173  0.000000  1
  P  P31  1  0.997424  0.826111  0.000000  1
  P  P32  1  0.316073  0.482295  0.500000  1
  P  P33  1  0.175429  0.172709  0.000000  1
  Ru  Ru34  1  0.122319  0.473736  0.500000  1
  Ru  Ru35  1  0.352836  0.876646  0.500000  1
