# generated using pymatgen
data_Sm3Dy(GaPt3)6
_symmetry_space_group_name_H-M   'P 1'
_cell_length_a   7.81444355
_cell_length_b   7.81615566
_cell_length_c   10.23020555
_cell_angle_alpha   67.67287075
_cell_angle_beta   67.69226076
_cell_angle_gamma   59.83471557
_symmetry_Int_Tables_number   1
_chemical_formula_structural   Sm3Dy(GaPt3)6
_chemical_formula_sum   'Sm3 Dy1 Ga6 Pt18'
_cell_volume   485.62395044
_cell_formula_units_Z   1
loop_
 _symmetry_equiv_pos_site_id
 _symmetry_equiv_pos_as_xyz
  1  'x, y, z'
loop_
 _atom_site_type_symbol
 _atom_site_label
 _atom_site_symmetry_multiplicity
 _atom_site_fract_x
 _atom_site_fract_y
 _atom_site_fract_z
 _atom_site_occupancy
  Sm  Sm0  1  0.246351  0.413940  0.250442  1
  Sm  Sm1  1  0.585476  0.754019  0.249487  1
  Sm  Sm2  1  0.753699  0.585699  0.749718  1
  Dy  Dy3  1  0.414287  0.245851  0.750486  1
  Ga  Ga4  1  0.819507  0.360235  0.501198  1
  Ga  Ga5  1  0.640091  0.180975  0.998596  1
  Ga  Ga6  1  0.360157  0.818691  0.001212  1
  Ga  Ga7  1  0.180932  0.639808  0.499002  1
  Ga  Ga8  1  0.999353  0.500583  0.999923  1
  Ga  Ga9  1  0.499940  0.999582  0.499939  1
  Pt  Pt10  1  0.189467  0.021867  0.428684  1
  Pt  Pt11  1  0.302450  0.141237  0.074751  1
  Pt  Pt12  1  0.646119  0.469135  0.078500  1
  Pt  Pt13  1  0.530279  0.352331  0.424300  1
  Pt  Pt14  1  0.859708  0.697993  0.422615  1
  Pt  Pt15  1  0.917651  0.291722  0.253849  1
  Pt  Pt16  1  0.707974  0.082702  0.246152  1
  Pt  Pt17  1  0.807493  0.979274  0.573491  1
  Pt  Pt18  1  0.469055  0.644019  0.579876  1
  Pt  Pt19  1  0.868556  0.131463  0.749874  1
  Pt  Pt20  1  0.978683  0.810335  0.071010  1
  Pt  Pt21  1  0.293177  0.917551  0.753872  1
  Pt  Pt22  1  0.354586  0.529400  0.919906  1
  Pt  Pt23  1  0.130606  0.869729  0.249970  1
  Pt  Pt24  1  0.696483  0.862159  0.920662  1
  Pt  Pt25  1  0.082429  0.707464  0.746247  1
  Pt  Pt26  1  0.024044  0.190697  0.926558  1
  Pt  Pt27  1  0.141447  0.301540  0.579681  1
