# generated using pymatgen
data_Ta12CrGa8Pt3C4
_symmetry_space_group_name_H-M   'P 1'
_cell_length_a   8.36251127
_cell_length_b   8.36251160
_cell_length_c   8.36251093
_cell_angle_alpha   59.53777460
_cell_angle_beta   59.53776886
_cell_angle_gamma   59.53777431
_symmetry_Int_Tables_number   1
_chemical_formula_structural   Ta12CrGa8Pt3C4
_chemical_formula_sum   'Ta12 Cr1 Ga8 Pt3 C4'
_cell_volume   409.17266484
_cell_formula_units_Z   1
loop_
 _symmetry_equiv_pos_site_id
 _symmetry_equiv_pos_as_xyz
  1  'x, y, z'
loop_
 _atom_site_type_symbol
 _atom_site_label
 _atom_site_symmetry_multiplicity
 _atom_site_fract_x
 _atom_site_fract_y
 _atom_site_fract_z
 _atom_site_occupancy
  Ta  Ta0  1  0.567341  0.933692  0.567341  1
  Ta  Ta1  1  0.316308  0.682659  0.682659  1
  Ta  Ta2  1  0.697907  0.310487  0.310487  1
  Ta  Ta3  1  0.310487  0.697907  0.310487  1
  Ta  Ta4  1  0.682659  0.682659  0.316308  1
  Ta  Ta5  1  0.310487  0.310487  0.697907  1
  Ta  Ta6  1  0.567341  0.567341  0.933692  1
  Ta  Ta7  1  0.933692  0.567341  0.567341  1
  Ta  Ta8  1  0.552093  0.939513  0.939513  1
  Ta  Ta9  1  0.939513  0.939513  0.552093  1
  Ta  Ta10  1  0.682659  0.316308  0.682659  1
  Ta  Ta11  1  0.939513  0.552093  0.939513  1
  Cr  Cr12  1  0.125000  0.125000  0.125000  1
  Ga  Ga13  1  0.910961  0.910961  0.910961  1
  Ga  Ga14  1  0.994836  0.332127  0.332127  1
  Ga  Ga15  1  0.332127  0.994836  0.332127  1
  Ga  Ga16  1  0.332127  0.332127  0.994836  1
  Ga  Ga17  1  0.917873  0.255164  0.917873  1
  Ga  Ga18  1  0.917873  0.917873  0.255164  1
  Ga  Ga19  1  0.255164  0.917873  0.917873  1
  Ga  Ga20  1  0.339039  0.339039  0.339039  1
  Pt  Pt21  1  0.625000  0.125000  0.125000  1
  Pt  Pt22  1  0.125000  0.625000  0.125000  1
  Pt  Pt23  1  0.125000  0.125000  0.625000  1
  C  C24  1  0.625000  0.625000  0.625000  1
  C  C25  1  0.125000  0.625000  0.625000  1
  C  C26  1  0.625000  0.125000  0.625000  1
  C  C27  1  0.625000  0.625000  0.125000  1
