# generated using pymatgen
data_YHo7SnPd24
_symmetry_space_group_name_H-M   'P 1'
_cell_length_a   8.39454802
_cell_length_b   8.39454802
_cell_length_c   8.39454802
_cell_angle_alpha   90.00540555
_cell_angle_beta   90.00540555
_cell_angle_gamma   90.00540555
_symmetry_Int_Tables_number   1
_chemical_formula_structural   YHo7SnPd24
_chemical_formula_sum   'Y1 Ho7 Sn1 Pd24'
_cell_volume   591.55066558
_cell_formula_units_Z   1
loop_
 _symmetry_equiv_pos_site_id
 _symmetry_equiv_pos_as_xyz
  1  'x, y, z'
loop_
 _atom_site_type_symbol
 _atom_site_label
 _atom_site_symmetry_multiplicity
 _atom_site_fract_x
 _atom_site_fract_y
 _atom_site_fract_z
 _atom_site_occupancy
  Y  Y0  1  0.252720  0.252720  0.252720  1
  Ho  Ho1  1  0.747107  0.747107  0.747107  1
  Ho  Ho2  1  0.747109  0.747109  0.252888  1
  Ho  Ho3  1  0.747109  0.252888  0.747109  1
  Ho  Ho4  1  0.252871  0.252871  0.747130  1
  Ho  Ho5  1  0.252871  0.747130  0.252871  1
  Ho  Ho6  1  0.252888  0.747109  0.747109  1
  Ho  Ho7  1  0.747130  0.252871  0.252871  1
  Sn  Sn8  1  0.000027  0.000027  0.000027  1
  Pd  Pd9  1  0.265011  0.500274  0.999709  1
  Pd  Pd10  1  0.734991  0.500004  0.999997  1
  Pd  Pd11  1  0.999709  0.265011  0.500274  1
  Pd  Pd12  1  0.500274  0.265011  0.999709  1
  Pd  Pd13  1  0.999997  0.734991  0.500004  1
  Pd  Pd14  1  0.500004  0.734991  0.999997  1
  Pd  Pd15  1  0.500274  0.999709  0.265011  1
  Pd  Pd16  1  0.265011  0.999709  0.500274  1
  Pd  Pd17  1  0.500004  0.999997  0.734991  1
  Pd  Pd18  1  0.734991  0.999997  0.500004  1
  Pd  Pd19  1  0.999709  0.500274  0.265011  1
  Pd  Pd20  1  0.999997  0.500004  0.734991  1
  Pd  Pd21  1  0.254949  0.500308  0.500308  1
  Pd  Pd22  1  0.745046  0.500003  0.500003  1
  Pd  Pd23  1  0.500308  0.254949  0.500308  1
  Pd  Pd24  1  0.500003  0.745046  0.500003  1
  Pd  Pd25  1  0.500308  0.500308  0.254949  1
  Pd  Pd26  1  0.500003  0.500003  0.745046  1
  Pd  Pd27  1  0.307799  0.999762  0.999762  1
  Pd  Pd28  1  0.692256  0.000000  0.000000  1
  Pd  Pd29  1  0.999762  0.307799  0.999762  1
  Pd  Pd30  1  0.000000  0.692256  0.000000  1
  Pd  Pd31  1  0.999762  0.999762  0.307799  1
  Pd  Pd32  1  0.000000  0.000000  0.692256  1
