# generated using pymatgen
data_CeNdPPt8
_symmetry_space_group_name_H-M   'P 1'
_cell_length_a   9.16130824
_cell_length_b   9.16966230
_cell_length_c   4.29531800
_cell_angle_alpha   90.00000000
_cell_angle_beta   90.00000000
_cell_angle_gamma   145.41966057
_symmetry_Int_Tables_number   1
_chemical_formula_structural   CeNdPPt8
_chemical_formula_sum   'Ce1 Nd1 P1 Pt8'
_cell_volume   204.79478971
_cell_formula_units_Z   1
loop_
 _symmetry_equiv_pos_site_id
 _symmetry_equiv_pos_as_xyz
  1  'x, y, z'
loop_
 _atom_site_type_symbol
 _atom_site_label
 _atom_site_symmetry_multiplicity
 _atom_site_fract_x
 _atom_site_fract_y
 _atom_site_fract_z
 _atom_site_occupancy
  Ce  Ce0  1  0.370588  0.621747  0.500000  1
  Nd  Nd1  1  0.619156  0.372252  0.500000  1
  P  P2  1  0.225814  0.224801  0.000000  1
  Pt  Pt3  1  0.109261  0.889568  0.000000  1
  Pt  Pt4  1  0.892843  0.111715  0.000000  1
  Pt  Pt5  1  0.489292  0.980828  0.000000  1
  Pt  Pt6  1  0.984570  0.489064  0.000000  1
  Pt  Pt7  1  0.194881  0.792204  0.500000  1
  Pt  Pt8  1  0.793111  0.193375  0.500000  1
  Pt  Pt9  1  0.002372  0.003459  0.500000  1
  Pt  Pt10  1  0.631713  0.634586  0.000000  1
