# generated using pymatgen
data_Tb19Dy(Bi2Ir)4
_symmetry_space_group_name_H-M   'P 1'
_cell_length_a   8.05185803
_cell_length_b   9.04798102
_cell_length_c   12.56461904
_cell_angle_alpha   90.00367391
_cell_angle_beta   89.99133446
_cell_angle_gamma   89.99427731
_symmetry_Int_Tables_number   1
_chemical_formula_structural   Tb19Dy(Bi2Ir)4
_chemical_formula_sum   'Tb19 Dy1 Bi8 Ir4'
_cell_volume   915.37091079
_cell_formula_units_Z   1
loop_
 _symmetry_equiv_pos_site_id
 _symmetry_equiv_pos_as_xyz
  1  'x, y, z'
loop_
 _atom_site_type_symbol
 _atom_site_label
 _atom_site_symmetry_multiplicity
 _atom_site_fract_x
 _atom_site_fract_y
 _atom_site_fract_z
 _atom_site_occupancy
  Tb  Tb0  1  0.840930  0.749985  0.793014  1
  Tb  Tb1  1  0.159106  0.250005  0.206986  1
  Tb  Tb2  1  0.340876  0.250010  0.707017  1
  Tb  Tb3  1  0.659115  0.749998  0.292997  1
  Tb  Tb4  1  0.376423  0.749998  0.693314  1
  Tb  Tb5  1  0.623574  0.250001  0.306691  1
  Tb  Tb6  1  0.876468  0.250014  0.806712  1
  Tb  Tb7  1  0.123579  0.749974  0.193277  1
  Tb  Tb8  1  0.946172  0.749998  0.501301  1
  Tb  Tb9  1  0.053824  0.249995  0.498697  1
  Tb  Tb10  1  0.446122  0.250023  0.998695  1
  Tb  Tb11  1  0.553812  0.749979  0.001302  1
  Tb  Tb12  1  0.676598  0.041781  0.566220  1
  Tb  Tb13  1  0.323407  0.958209  0.433783  1
  Tb  Tb14  1  0.176575  0.958185  0.933781  1
  Tb  Tb15  1  0.323404  0.541789  0.433779  1
  Tb  Tb16  1  0.823408  0.041762  0.066215  1
  Tb  Tb17  1  0.676596  0.458217  0.566219  1
  Tb  Tb18  1  0.823486  0.458243  0.066188  1
  Dy  Dy19  1  0.176354  0.541794  0.933823  1
  Bi  Bi20  1  0.569248  0.491293  0.827435  1
  Bi  Bi21  1  0.430702  0.508721  0.172580  1
  Bi  Bi22  1  0.069325  0.508724  0.672609  1
  Bi  Bi23  1  0.430692  0.991282  0.172584  1
  Bi  Bi24  1  0.930688  0.491287  0.327418  1
  Bi  Bi25  1  0.569313  0.008718  0.827416  1
  Bi  Bi26  1  0.930691  0.008717  0.327412  1
  Bi  Bi27  1  0.069307  0.991281  0.672582  1
  Ir  Ir28  1  0.570308  0.750001  0.509081  1
  Ir  Ir29  1  0.429692  0.249998  0.490922  1
  Ir  Ir30  1  0.070382  0.250112  0.990911  1
  Ir  Ir31  1  0.929822  0.749906  0.009040  1
