# generated using pymatgen
data_K4CeUSe6
_symmetry_space_group_name_H-M   'P 1'
_cell_length_a   7.66476405
_cell_length_b   7.66476478
_cell_length_c   8.06934175
_cell_angle_alpha   80.80733039
_cell_angle_beta   80.80733208
_cell_angle_gamma   120.11846618
_symmetry_Int_Tables_number   1
_chemical_formula_structural   K4CeUSe6
_chemical_formula_sum   'K4 Ce1 U1 Se6'
_cell_volume   388.48588609
_cell_formula_units_Z   1
loop_
 _symmetry_equiv_pos_site_id
 _symmetry_equiv_pos_as_xyz
  1  'x, y, z'
loop_
 _atom_site_type_symbol
 _atom_site_label
 _atom_site_symmetry_multiplicity
 _atom_site_fract_x
 _atom_site_fract_y
 _atom_site_fract_z
 _atom_site_occupancy
  K  K0  1  0.499967  0.500033  0.000000  1
  K  K1  1  0.656501  0.343499  0.500000  1
  K  K2  1  0.343809  0.656191  0.500000  1
  K  K3  1  0.000268  0.999732  0.500000  1
  Ce  Ce4  1  0.832225  0.167775  0.000000  1
  U  U5  1  0.167105  0.832895  0.000000  1
  Se  Se6  1  0.809092  0.793846  0.206523  1
  Se  Se7  1  0.206154  0.190908  0.793477  1
  Se  Se8  1  0.413068  0.047896  0.207573  1
  Se  Se9  1  0.554632  0.934925  0.791049  1
  Se  Se10  1  0.952104  0.586932  0.792427  1
  Se  Se11  1  0.065075  0.445368  0.208951  1
