# generated using pymatgen
data_LiFe2AgBr8
_symmetry_space_group_name_H-M   'P 1'
_cell_length_a   6.13787900
_cell_length_b   6.13787900
_cell_length_c   11.10325200
_cell_angle_alpha   90.00000000
_cell_angle_beta   90.00000000
_cell_angle_gamma   90.00000000
_symmetry_Int_Tables_number   1
_chemical_formula_structural   LiFe2AgBr8
_chemical_formula_sum   'Li1 Fe2 Ag1 Br8'
_cell_volume   418.29901508
_cell_formula_units_Z   1
loop_
 _symmetry_equiv_pos_site_id
 _symmetry_equiv_pos_as_xyz
  1  'x, y, z'
loop_
 _atom_site_type_symbol
 _atom_site_label
 _atom_site_symmetry_multiplicity
 _atom_site_fract_x
 _atom_site_fract_y
 _atom_site_fract_z
 _atom_site_occupancy
  Li  Li0  1  0.000000  0.000000  0.000000  1
  Fe  Fe1  1  0.000000  0.500000  0.247425  1
  Fe  Fe2  1  0.500000  0.000000  0.752575  1
  Ag  Ag3  1  0.000000  0.000000  0.500000  1
  Br  Br4  1  0.220920  0.271622  0.126605  1
  Br  Br5  1  0.779080  0.728379  0.126605  1
  Br  Br6  1  0.271622  0.779080  0.873395  1
  Br  Br7  1  0.763570  0.287087  0.367544  1
  Br  Br8  1  0.728379  0.220920  0.873395  1
  Br  Br9  1  0.236430  0.712914  0.367544  1
  Br  Br10  1  0.712914  0.763570  0.632456  1
  Br  Br11  1  0.287087  0.236430  0.632456  1
