# generated using pymatgen
data_Ho2Tm3Pb4
_symmetry_space_group_name_H-M   'P 1'
_cell_length_a   8.14656600
_cell_length_b   15.49721600
_cell_length_c   8.21726300
_cell_angle_alpha   90.00000000
_cell_angle_beta   90.00000000
_cell_angle_gamma   90.00000000
_symmetry_Int_Tables_number   1
_chemical_formula_structural   Ho2Tm3Pb4
_chemical_formula_sum   'Ho8 Tm12 Pb16'
_cell_volume   1037.42200037
_cell_formula_units_Z   4
loop_
 _symmetry_equiv_pos_site_id
 _symmetry_equiv_pos_as_xyz
  1  'x, y, z'
loop_
 _atom_site_type_symbol
 _atom_site_label
 _atom_site_symmetry_multiplicity
 _atom_site_fract_x
 _atom_site_fract_y
 _atom_site_fract_z
 _atom_site_occupancy
  Ho  Ho0  1  0.464277  0.599666  0.676808  1
  Ho  Ho1  1  0.964277  0.900334  0.823192  1
  Ho  Ho2  1  0.535723  0.099666  0.323192  1
  Ho  Ho3  1  0.035723  0.400334  0.176808  1
  Ho  Ho4  1  0.535723  0.400334  0.323192  1
  Ho  Ho5  1  0.035723  0.099666  0.176808  1
  Ho  Ho6  1  0.464277  0.900334  0.676808  1
  Ho  Ho7  1  0.964277  0.599666  0.823192  1
  Tm  Tm8  1  0.623468  0.621189  0.158675  1
  Tm  Tm9  1  0.123468  0.878811  0.341325  1
  Tm  Tm10  1  0.376532  0.121189  0.841325  1
  Tm  Tm11  1  0.876532  0.378811  0.658675  1
  Tm  Tm12  1  0.376532  0.378811  0.841325  1
  Tm  Tm13  1  0.876532  0.121189  0.658675  1
  Tm  Tm14  1  0.623468  0.878811  0.158675  1
  Tm  Tm15  1  0.123468  0.621189  0.341325  1
  Tm  Tm16  1  0.791934  0.750000  0.495530  1
  Tm  Tm17  1  0.291934  0.750000  0.004470  1
  Tm  Tm18  1  0.208066  0.250000  0.504470  1
  Tm  Tm19  1  0.708066  0.250000  0.995530  1
  Pb  Pb20  1  0.717775  0.457323  0.965932  1
  Pb  Pb21  1  0.217775  0.042677  0.534068  1
  Pb  Pb22  1  0.282225  0.957323  0.034068  1
  Pb  Pb23  1  0.782225  0.542677  0.465932  1
  Pb  Pb24  1  0.282225  0.542677  0.034068  1
  Pb  Pb25  1  0.782225  0.957323  0.465932  1
  Pb  Pb26  1  0.717775  0.042677  0.965932  1
  Pb  Pb27  1  0.217775  0.457323  0.534068  1
  Pb  Pb28  1  0.429162  0.750000  0.371889  1
  Pb  Pb29  1  0.929162  0.750000  0.128111  1
  Pb  Pb30  1  0.570838  0.250000  0.628111  1
  Pb  Pb31  1  0.070838  0.250000  0.871889  1
  Pb  Pb32  1  0.653002  0.750000  0.846665  1
  Pb  Pb33  1  0.153002  0.750000  0.653335  1
  Pb  Pb34  1  0.346998  0.250000  0.153335  1
  Pb  Pb35  1  0.846998  0.250000  0.346665  1
