# generated using pymatgen
data_Cu2NiB4Ir4Pt
_symmetry_space_group_name_H-M   'P 1'
_cell_length_a   6.68227289
_cell_length_b   5.97674721
_cell_length_c   5.51057572
_cell_angle_alpha   69.38738695
_cell_angle_beta   58.21310518
_cell_angle_gamma   50.22686053
_symmetry_Int_Tables_number   1
_chemical_formula_structural   Cu2NiB4Ir4Pt
_chemical_formula_sum   'Cu2 Ni1 B4 Ir4 Pt1'
_cell_volume   143.74326518
_cell_formula_units_Z   1
loop_
 _symmetry_equiv_pos_site_id
 _symmetry_equiv_pos_as_xyz
  1  'x, y, z'
loop_
 _atom_site_type_symbol
 _atom_site_label
 _atom_site_symmetry_multiplicity
 _atom_site_fract_x
 _atom_site_fract_y
 _atom_site_fract_z
 _atom_site_occupancy
  Cu  Cu0  1  0.854821  0.364822  0.300011  1
  Cu  Cu1  1  0.887151  0.381022  0.786376  1
  Ni  Ni2  1  0.464656  0.297067  0.367481  1
  B  B3  1  0.056568  0.983682  0.559509  1
  B  B4  1  0.677936  0.877071  0.203479  1
  B  B5  1  0.377243  0.567779  0.016264  1
  B  B6  1  0.284622  0.192339  0.826889  1
  Ir  Ir7  1  0.086308  0.632912  0.869038  1
  Ir  Ir8  1  0.391787  0.849183  0.150906  1
  Ir  Ir9  1  0.616595  0.168246  0.842154  1
  Ir  Ir10  1  0.403632  0.856877  0.639225  1
  Pt  Pt11  1  0.949080  0.778601  0.388269  1
