# generated using pymatgen
data_Pr7Nd(Y3Sn4)4
_symmetry_space_group_name_H-M   'P 1'
_cell_length_a   8.16023620
_cell_length_b   8.32598510
_cell_length_c   15.71734319
_cell_angle_alpha   90.00311685
_cell_angle_beta   90.01775875
_cell_angle_gamma   89.98208762
_symmetry_Int_Tables_number   1
_chemical_formula_structural   Pr7Nd(Y3Sn4)4
_chemical_formula_sum   'Pr7 Nd1 Y12 Sn16'
_cell_volume   1067.86770538
_cell_formula_units_Z   1
loop_
 _symmetry_equiv_pos_site_id
 _symmetry_equiv_pos_as_xyz
  1  'x, y, z'
loop_
 _atom_site_type_symbol
 _atom_site_label
 _atom_site_symmetry_multiplicity
 _atom_site_fract_x
 _atom_site_fract_y
 _atom_site_fract_z
 _atom_site_occupancy
  Pr  Pr0  1  0.016170  0.178845  0.597309  1
  Pr  Pr1  1  0.483842  0.678791  0.402751  1
  Pr  Pr2  1  0.983826  0.821218  0.097232  1
  Pr  Pr3  1  0.483811  0.678701  0.097183  1
  Pr  Pr4  1  0.983838  0.821190  0.402752  1
  Pr  Pr5  1  0.516132  0.321216  0.597217  1
  Pr  Pr6  1  0.016137  0.178909  0.902756  1
  Nd  Nd7  1  0.516233  0.321142  0.902613  1
  Y  Y8  1  0.363072  0.836211  0.877605  1
  Y  Y9  1  0.863012  0.663793  0.622417  1
  Y  Y10  1  0.636991  0.163810  0.377609  1
  Y  Y11  1  0.136975  0.336180  0.122355  1
  Y  Y12  1  0.636923  0.163887  0.122310  1
  Y  Y13  1  0.136995  0.336189  0.377606  1
  Y  Y14  1  0.363015  0.836204  0.622441  1
  Y  Y15  1  0.862968  0.663691  0.877621  1
  Y  Y16  1  0.197514  0.502366  0.750101  1
  Y  Y17  1  0.697311  0.997620  0.750073  1
  Y  Y18  1  0.802602  0.497544  0.250002  1
  Y  Y19  1  0.302629  0.002465  0.249986  1
  Sn  Sn20  1  0.301144  0.040197  0.042112  1
  Sn  Sn21  1  0.801001  0.459951  0.457818  1
  Sn  Sn22  1  0.698991  0.959953  0.542188  1
  Sn  Sn23  1  0.199549  0.539678  0.957698  1
  Sn  Sn24  1  0.698772  0.960307  0.957774  1
  Sn  Sn25  1  0.198961  0.540059  0.542188  1
  Sn  Sn26  1  0.301015  0.040047  0.457823  1
  Sn  Sn27  1  0.800538  0.459734  0.041986  1
  Sn  Sn28  1  0.562833  0.623763  0.750077  1
  Sn  Sn29  1  0.062853  0.875988  0.750008  1
  Sn  Sn30  1  0.437153  0.375975  0.249990  1
  Sn  Sn31  1  0.937141  0.124062  0.249984  1
  Sn  Sn32  1  0.325513  0.141676  0.750280  1
  Sn  Sn33  1  0.824864  0.358654  0.750141  1
  Sn  Sn34  1  0.674839  0.858681  0.249993  1
  Sn  Sn35  1  0.174836  0.641303  0.250000  1
