# generated using pymatgen
data_Tm2SiNi2(P3Ru5)2
_symmetry_space_group_name_H-M   'P 1'
_cell_length_a   9.41416108
_cell_length_b   9.27026406
_cell_length_c   3.85962800
_cell_angle_alpha   90.00000000
_cell_angle_beta   90.00000000
_cell_angle_gamma   119.30506819
_symmetry_Int_Tables_number   1
_chemical_formula_structural   Tm2SiNi2(P3Ru5)2
_chemical_formula_sum   'Tm2 Si1 Ni2 P6 Ru10'
_cell_volume   293.73020070
_cell_formula_units_Z   1
loop_
 _symmetry_equiv_pos_site_id
 _symmetry_equiv_pos_as_xyz
  1  'x, y, z'
loop_
 _atom_site_type_symbol
 _atom_site_label
 _atom_site_symmetry_multiplicity
 _atom_site_fract_x
 _atom_site_fract_y
 _atom_site_fract_z
 _atom_site_occupancy
  Tm  Tm0  1  0.671480  0.337318  0.500000  1
  Tm  Tm1  1  0.331984  0.662032  0.000000  1
  Si  Si2  1  0.993997  0.993814  0.000000  1
  Ni  Ni3  1  0.117129  0.835930  0.000000  1
  Ni  Ni4  1  0.720908  0.888374  0.000000  1
  P  P5  1  0.420217  0.306545  0.000000  1
  P  P6  1  0.888658  0.591485  0.000000  1
  P  P7  1  0.695620  0.114564  0.000000  1
  P  P8  1  0.118339  0.402192  0.500000  1
  P  P9  1  0.288058  0.883894  0.500000  1
  P  P10  1  0.599739  0.713253  0.500000  1
  Ru  Ru11  1  0.425253  0.061746  0.000000  1
  Ru  Ru12  1  0.638845  0.576473  0.000000  1
  Ru  Ru13  1  0.929877  0.365387  0.000000  1
  Ru  Ru14  1  0.161250  0.278063  0.000000  1
  Ru  Ru15  1  0.393015  0.438910  0.500000  1
  Ru  Ru16  1  0.056664  0.616731  0.500000  1
  Ru  Ru17  1  0.562472  0.947172  0.500000  1
  Ru  Ru18  1  0.199682  0.079852  0.500000  1
  Ru  Ru19  1  0.875483  0.785752  0.500000  1
  Ru  Ru20  1  0.911330  0.120512  0.500000  1
