# generated using pymatgen
data_Ca3Dy(YHg2)4
_symmetry_space_group_name_H-M   'P 1'
_cell_length_a   7.47385201
_cell_length_b   7.49864600
_cell_length_c   7.49980001
_cell_angle_alpha   90.00000000
_cell_angle_beta   90.00424737
_cell_angle_gamma   90.00000000
_symmetry_Int_Tables_number   1
_chemical_formula_structural   Ca3Dy(YHg2)4
_chemical_formula_sum   'Ca3 Dy1 Y4 Hg8'
_cell_volume   420.31706870
_cell_formula_units_Z   1
loop_
 _symmetry_equiv_pos_site_id
 _symmetry_equiv_pos_as_xyz
  1  'x, y, z'
loop_
 _atom_site_type_symbol
 _atom_site_label
 _atom_site_symmetry_multiplicity
 _atom_site_fract_x
 _atom_site_fract_y
 _atom_site_fract_z
 _atom_site_occupancy
  Ca  Ca0  1  0.249438  0.750000  0.499937  1
  Ca  Ca1  1  0.750639  0.250000  0.500050  1
  Ca  Ca2  1  0.250569  0.750000  0.999941  1
  Dy  Dy3  1  0.749421  0.250000  0.000063  1
  Y  Y4  1  0.250740  0.250000  0.999993  1
  Y  Y5  1  0.749314  0.750000  0.999996  1
  Y  Y6  1  0.750683  0.750000  0.500003  1
  Y  Y7  1  0.249351  0.250000  0.499997  1
  Hg  Hg8  1  0.997261  0.497223  0.246951  1
  Hg  Hg9  1  0.997261  0.002779  0.246951  1
  Hg  Hg10  1  0.502896  0.002851  0.249056  1
  Hg  Hg11  1  0.502896  0.497149  0.249056  1
  Hg  Hg12  1  0.502673  0.497291  0.750947  1
  Hg  Hg13  1  0.502673  0.002711  0.750947  1
  Hg  Hg14  1  0.997091  0.002879  0.753056  1
  Hg  Hg15  1  0.997091  0.497121  0.753056  1
