# generated using pymatgen
data_Ho5Er3(ReBr4)2
_symmetry_space_group_name_H-M   'P 1'
_cell_length_a   8.98407741
_cell_length_b   8.97421793
_cell_length_c   6.56222360
_cell_angle_alpha   89.42879362
_cell_angle_beta   89.51035309
_cell_angle_gamma   89.31261148
_symmetry_Int_Tables_number   1
_chemical_formula_structural   Ho5Er3(ReBr4)2
_chemical_formula_sum   'Ho5 Er3 Re2 Br8'
_cell_volume   528.99657654
_cell_formula_units_Z   1
loop_
 _symmetry_equiv_pos_site_id
 _symmetry_equiv_pos_as_xyz
  1  'x, y, z'
loop_
 _atom_site_type_symbol
 _atom_site_label
 _atom_site_symmetry_multiplicity
 _atom_site_fract_x
 _atom_site_fract_y
 _atom_site_fract_z
 _atom_site_occupancy
  Ho  Ho0  1  0.247438  0.901599  0.011686  1
  Ho  Ho1  1  0.752866  0.098711  0.988019  1
  Ho  Ho2  1  0.098456  0.752467  0.488334  1
  Ho  Ho3  1  0.901751  0.247738  0.511458  1
  Ho  Ho4  1  0.753456  0.903195  0.507559  1
  Er  Er5  1  0.245359  0.096465  0.492074  1
  Er  Er6  1  0.096521  0.245592  0.991865  1
  Er  Er7  1  0.903942  0.754537  0.007779  1
  Re  Re8  1  0.995132  0.005129  0.249800  1
  Re  Re9  1  0.005089  0.995030  0.749902  1
  Br  Br10  1  0.417566  0.819054  0.411502  1
  Br  Br11  1  0.581566  0.181406  0.589063  1
  Br  Br12  1  0.180252  0.581511  0.089029  1
  Br  Br13  1  0.819802  0.418485  0.910547  1
  Br  Br14  1  0.411876  0.189408  0.092376  1
  Br  Br15  1  0.588270  0.810275  0.909688  1
  Br  Br16  1  0.811227  0.587346  0.406915  1
  Br  Br17  1  0.189430  0.412052  0.592404  1
