# generated using pymatgen
data_Ba4ZnCu(ReN4)2
_symmetry_space_group_name_H-M   'P 1'
_cell_length_a   6.01936300
_cell_length_b   6.70646652
_cell_length_c   7.72885528
_cell_angle_alpha   68.47419687
_cell_angle_beta   90.00000000
_cell_angle_gamma   90.00000000
_symmetry_Int_Tables_number   1
_chemical_formula_structural   Ba4ZnCu(ReN4)2
_chemical_formula_sum   'Ba4 Zn1 Cu1 Re2 N8'
_cell_volume   290.24201427
_cell_formula_units_Z   1
loop_
 _symmetry_equiv_pos_site_id
 _symmetry_equiv_pos_as_xyz
  1  'x, y, z'
loop_
 _atom_site_type_symbol
 _atom_site_label
 _atom_site_symmetry_multiplicity
 _atom_site_fract_x
 _atom_site_fract_y
 _atom_site_fract_z
 _atom_site_occupancy
  Ba  Ba0  1  0.250000  0.255511  0.061154  1
  Ba  Ba1  1  0.750000  0.736766  0.939614  1
  Ba  Ba2  1  0.750000  0.826127  0.405585  1
  Ba  Ba3  1  0.250000  0.182015  0.587079  1
  Zn  Zn4  1  0.250000  0.664943  0.635021  1
  Cu  Cu5  1  0.750000  0.352241  0.385471  1
  Re  Re6  1  0.250000  0.700733  0.212619  1
  Re  Re7  1  0.750000  0.294230  0.784840  1
  N  N8  1  0.499411  0.464720  0.737474  1
  N  N9  1  0.000910  0.531175  0.259294  1
  N  N10  1  0.499090  0.531175  0.259294  1
  N  N11  1  0.000589  0.464720  0.737474  1
  N  N12  1  0.750000  0.127624  0.633460  1
  N  N13  1  0.250000  0.870861  0.365797  1
  N  N14  1  0.750000  0.119402  0.027108  1
  N  N15  1  0.250000  0.877755  0.968716  1
