# generated using pymatgen
data_Nd12IrRuRh2
_symmetry_space_group_name_H-M   'P 1'
_cell_length_a   6.50491017
_cell_length_b   7.39836300
_cell_length_c   9.92012300
_cell_angle_alpha   90.00000000
_cell_angle_beta   90.00000000
_cell_angle_gamma   90.32594564
_symmetry_Int_Tables_number   1
_chemical_formula_structural   Nd12IrRuRh2
_chemical_formula_sum   'Nd12 Ir1 Ru1 Rh2'
_cell_volume   477.40500663
_cell_formula_units_Z   1
loop_
 _symmetry_equiv_pos_site_id
 _symmetry_equiv_pos_as_xyz
  1  'x, y, z'
loop_
 _atom_site_type_symbol
 _atom_site_label
 _atom_site_symmetry_multiplicity
 _atom_site_fract_x
 _atom_site_fract_y
 _atom_site_fract_z
 _atom_site_occupancy
  Nd  Nd0  1  0.331165  0.674963  0.067579  1
  Nd  Nd1  1  0.170584  0.179032  0.432187  1
  Nd  Nd2  1  0.668726  0.323412  0.564441  1
  Nd  Nd3  1  0.831239  0.822778  0.933332  1
  Nd  Nd4  1  0.668726  0.323412  0.935559  1
  Nd  Nd5  1  0.831239  0.822778  0.566668  1
  Nd  Nd6  1  0.331165  0.674963  0.432421  1
  Nd  Nd7  1  0.170584  0.179032  0.067813  1
  Nd  Nd8  1  0.853595  0.534716  0.250000  1
  Nd  Nd9  1  0.642197  0.037477  0.250000  1
  Nd  Nd10  1  0.142554  0.465052  0.750000  1
  Nd  Nd11  1  0.356780  0.963424  0.750000  1
  Ir  Ir12  1  0.561054  0.617043  0.750000  1
  Ru  Ru13  1  0.441267  0.382261  0.250000  1
  Rh  Rh14  1  0.063096  0.882045  0.250000  1
  Rh  Rh15  1  0.936026  0.117612  0.750000  1
