# generated using pymatgen
data_YbGdCuS3
_symmetry_space_group_name_H-M   'P 1'
_cell_length_a   10.34683700
_cell_length_b   3.85133200
_cell_length_c   12.37766600
_cell_angle_alpha   90.00000000
_cell_angle_beta   90.00000000
_cell_angle_gamma   90.00000000
_symmetry_Int_Tables_number   1
_chemical_formula_structural   YbGdCuS3
_chemical_formula_sum   'Yb4 Gd4 Cu4 S12'
_cell_volume   493.23890512
_cell_formula_units_Z   4
loop_
 _symmetry_equiv_pos_site_id
 _symmetry_equiv_pos_as_xyz
  1  'x, y, z'
loop_
 _atom_site_type_symbol
 _atom_site_label
 _atom_site_symmetry_multiplicity
 _atom_site_fract_x
 _atom_site_fract_y
 _atom_site_fract_z
 _atom_site_occupancy
  Yb  Yb0  1  0.278926  0.250000  0.998548  1
  Yb  Yb1  1  0.778926  0.250000  0.501452  1
  Yb  Yb2  1  0.221074  0.750001  0.498548  1
  Yb  Yb3  1  0.721074  0.750001  0.001452  1
  Gd  Gd4  1  0.985462  0.750001  0.239160  1
  Gd  Gd5  1  0.485462  0.750001  0.260840  1
  Gd  Gd6  1  0.514538  0.250000  0.739160  1
  Gd  Gd7  1  0.014538  0.250000  0.760840  1
  Cu  Cu8  1  0.735233  0.250000  0.223753  1
  Cu  Cu9  1  0.235233  0.250000  0.276247  1
  Cu  Cu10  1  0.764767  0.750001  0.723753  1
  Cu  Cu11  1  0.264767  0.750001  0.776247  1
  S  S12  1  0.901370  0.250000  0.099402  1
  S  S13  1  0.556905  0.250000  0.110494  1
  S  S14  1  0.241549  0.750001  0.165116  1
  S  S15  1  0.741549  0.750001  0.334884  1
  S  S16  1  0.056905  0.250000  0.389506  1
  S  S17  1  0.401370  0.250000  0.400598  1
  S  S18  1  0.598629  0.750001  0.599402  1
  S  S19  1  0.943095  0.750001  0.610494  1
  S  S20  1  0.258451  0.250000  0.665116  1
  S  S21  1  0.758451  0.250000  0.834884  1
  S  S22  1  0.443095  0.750001  0.889506  1
  S  S23  1  0.098629  0.750001  0.900598  1
