# generated using pymatgen
data_Pr5NdOsPtBr6
_symmetry_space_group_name_H-M   'P 1'
_cell_length_a   10.62733535
_cell_length_b   10.62764975
_cell_length_c   10.54877524
_cell_angle_alpha   109.50434767
_cell_angle_beta   109.41012215
_cell_angle_gamma   109.79895669
_symmetry_Int_Tables_number   1
_chemical_formula_structural   Pr5NdOsPtBr6
_chemical_formula_sum   'Pr10 Nd2 Os2 Pt2 Br12'
_cell_volume   913.73561169
_cell_formula_units_Z   2
loop_
 _symmetry_equiv_pos_site_id
 _symmetry_equiv_pos_as_xyz
  1  'x, y, z'
loop_
 _atom_site_type_symbol
 _atom_site_label
 _atom_site_symmetry_multiplicity
 _atom_site_fract_x
 _atom_site_fract_y
 _atom_site_fract_z
 _atom_site_occupancy
  Pr  Pr0  1  0.758565  0.020317  0.488740  1
  Pr  Pr1  1  0.230041  0.468456  0.488649  1
  Pr  Pr2  1  0.261987  0.740926  0.231438  1
  Pr  Pr3  1  0.031579  0.269825  0.011271  1
  Pr  Pr4  1  0.009494  0.030557  0.268564  1
  Pr  Pr5  1  0.479813  0.741389  0.011351  1
  Pr  Pr6  1  0.485545  0.235544  0.470673  1
  Pr  Pr7  1  0.015129  0.484361  0.749476  1
  Pr  Pr8  1  0.264872  0.014875  0.029330  1
  Pr  Pr9  1  0.234889  0.265663  0.750519  1
  Nd  Nd10  1  0.468688  0.489906  0.230990  1
  Nd  Nd11  1  0.758910  0.237697  0.269004  1
  Os  Os12  1  0.999120  0.249635  0.498808  1
  Os  Os13  1  0.250827  0.500310  0.001193  1
  Pt  Pt14  1  0.251117  0.250101  0.250001  1
  Pt  Pt15  1  0.500104  0.001120  0.250000  1
  Br  Br16  1  0.250365  0.755279  0.746463  1
  Br  Br17  1  0.508828  0.503907  0.753539  1
  Br  Br18  1  0.994350  0.747491  0.997065  1
  Br  Br19  1  0.744702  0.249655  0.753520  1
  Br  Br20  1  0.996142  0.991198  0.746484  1
  Br  Br21  1  0.250422  0.997286  0.502937  1
  Br  Br22  1  0.752125  0.505186  0.501737  1
  Br  Br23  1  0.503445  0.250380  0.998250  1
  Br  Br24  1  0.753779  0.745090  0.250043  1
  Br  Br25  1  0.746547  0.997343  0.993762  1
  Br  Br26  1  0.995041  0.503729  0.249965  1
  Br  Br27  1  0.503575  0.752776  0.506230  1
