# generated using pymatgen
data_Ac4Ga9GeIr6
_symmetry_space_group_name_H-M   'P 1'
_cell_length_a   8.75430437
_cell_length_b   8.84037629
_cell_length_c   8.84037700
_cell_angle_alpha   140.37218922
_cell_angle_beta   107.12706700
_cell_angle_gamma   86.42034489
_symmetry_Int_Tables_number   1
_chemical_formula_structural   Ac4Ga9GeIr6
_chemical_formula_sum   'Ac4 Ga9 Ge1 Ir6'
_cell_volume   401.55854200
_cell_formula_units_Z   1
loop_
 _symmetry_equiv_pos_site_id
 _symmetry_equiv_pos_as_xyz
  1  'x, y, z'
loop_
 _atom_site_type_symbol
 _atom_site_label
 _atom_site_symmetry_multiplicity
 _atom_site_fract_x
 _atom_site_fract_y
 _atom_site_fract_z
 _atom_site_occupancy
  Ac  Ac0  1  0.863246  0.634600  0.228648  1
  Ac  Ac1  1  0.135741  0.364824  0.770916  1
  Ac  Ac2  1  0.405521  0.134592  0.270930  1
  Ac  Ac3  1  0.591147  0.864960  0.726188  1
  Ga  Ga4  1  0.500281  0.749685  0.248576  1
  Ga  Ga5  1  0.500281  0.251705  0.750595  1
  Ga  Ga6  1  0.215726  0.966189  0.750268  1
  Ga  Ga7  1  0.784127  0.536132  0.750951  1
  Ga  Ga8  1  0.784127  0.033176  0.247995  1
  Ga  Ga9  1  0.215726  0.465458  0.249537  1
  Ga  Ga10  1  0.062793  0.903126  0.159669  1
  Ga  Ga11  1  0.936942  0.094083  0.842858  1
  Ga  Ga12  1  0.747168  0.405128  0.342040  1
  Ge  Ge13  1  0.252249  0.595220  0.657029  1
  Ir  Ir14  1  0.002894  0.750520  0.753549  1
  Ir  Ir15  1  0.002894  0.249344  0.252374  1
  Ir  Ir16  1  0.253442  0.857140  0.396301  1
  Ir  Ir17  1  0.749415  0.143994  0.605421  1
  Ir  Ir18  1  0.462464  0.357658  0.104805  1
  Ir  Ir19  1  0.533818  0.642468  0.891350  1
