# generated using pymatgen
data_Hf3TiRe2O
_symmetry_space_group_name_H-M   'P 1'
_cell_length_a   8.58058251
_cell_length_b   8.58058242
_cell_length_c   8.58058200
_cell_angle_alpha   59.99999390
_cell_angle_beta   59.99999425
_cell_angle_gamma   60.00000027
_symmetry_Int_Tables_number   1
_chemical_formula_structural   Hf3TiRe2O
_chemical_formula_sum   'Hf12 Ti4 Re8 O4'
_cell_volume   446.71984815
_cell_formula_units_Z   4
loop_
 _symmetry_equiv_pos_site_id
 _symmetry_equiv_pos_as_xyz
  1  'x, y, z'
loop_
 _atom_site_type_symbol
 _atom_site_label
 _atom_site_symmetry_multiplicity
 _atom_site_fract_x
 _atom_site_fract_y
 _atom_site_fract_z
 _atom_site_occupancy
  Hf  Hf0  1  0.807561  0.807561  0.192439  1
  Hf  Hf1  1  0.192439  0.192439  0.807561  1
  Hf  Hf2  1  0.807561  0.192439  0.807561  1
  Hf  Hf3  1  0.192439  0.807561  0.192439  1
  Hf  Hf4  1  0.192439  0.807561  0.807561  1
  Hf  Hf5  1  0.807561  0.192439  0.192439  1
  Hf  Hf6  1  0.442439  0.442439  0.057561  1
  Hf  Hf7  1  0.057561  0.057561  0.442439  1
  Hf  Hf8  1  0.442439  0.057561  0.442439  1
  Hf  Hf9  1  0.057561  0.442439  0.057561  1
  Hf  Hf10  1  0.057561  0.442439  0.442439  1
  Hf  Hf11  1  0.442439  0.057561  0.057561  1
  Ti  Ti12  1  0.125000  0.625000  0.625000  1
  Ti  Ti13  1  0.625000  0.125000  0.625000  1
  Ti  Ti14  1  0.625000  0.625000  0.125000  1
  Ti  Ti15  1  0.625000  0.625000  0.625000  1
  Re  Re16  1  0.750272  0.416575  0.416575  1
  Re  Re17  1  0.416575  0.750272  0.416575  1
  Re  Re18  1  0.416575  0.416575  0.750272  1
  Re  Re19  1  0.416575  0.416575  0.416575  1
  Re  Re20  1  0.499728  0.833425  0.833425  1
  Re  Re21  1  0.833425  0.499728  0.833425  1
  Re  Re22  1  0.833425  0.833425  0.499728  1
  Re  Re23  1  0.833425  0.833425  0.833425  1
  O  O24  1  0.625000  0.125000  0.125000  1
  O  O25  1  0.125000  0.625000  0.125000  1
  O  O26  1  0.125000  0.125000  0.625000  1
  O  O27  1  0.125000  0.125000  0.125000  1
