# generated using pymatgen
data_CeDy7Ho8Cd3HgRu4
_symmetry_space_group_name_H-M   'P 1'
_cell_length_a   9.64687966
_cell_length_b   9.64688076
_cell_length_c   9.64833800
_cell_angle_alpha   59.35014581
_cell_angle_beta   59.35014881
_cell_angle_gamma   59.34881706
_symmetry_Int_Tables_number   1
_chemical_formula_structural   CeDy7Ho8Cd3HgRu4
_chemical_formula_sum   'Ce1 Dy7 Ho8 Cd3 Hg1 Ru4'
_cell_volume   625.51022114
_cell_formula_units_Z   1
loop_
 _symmetry_equiv_pos_site_id
 _symmetry_equiv_pos_as_xyz
  1  'x, y, z'
loop_
 _atom_site_type_symbol
 _atom_site_label
 _atom_site_symmetry_multiplicity
 _atom_site_fract_x
 _atom_site_fract_y
 _atom_site_fract_z
 _atom_site_occupancy
  Ce  Ce0  1  0.342660  0.342660  0.342308  1
  Dy  Dy1  1  0.562055  0.562055  0.939471  1
  Dy  Dy2  1  0.937805  0.560979  0.940182  1
  Dy  Dy3  1  0.560979  0.937805  0.940182  1
  Dy  Dy4  1  0.938961  0.938961  0.560772  1
  Dy  Dy5  1  0.562375  0.937849  0.562039  1
  Dy  Dy6  1  0.937849  0.562375  0.562039  1
  Dy  Dy7  1  0.188751  0.188751  0.812975  1
  Ho  Ho8  1  0.811158  0.187609  0.811482  1
  Ho  Ho9  1  0.187608  0.811159  0.811482  1
  Ho  Ho10  1  0.811176  0.811177  0.188323  1
  Ho  Ho11  1  0.189132  0.812006  0.189710  1
  Ho  Ho12  1  0.812006  0.189133  0.189711  1
  Ho  Ho13  1  0.346841  0.346841  0.957282  1
  Ho  Ho14  1  0.347167  0.955938  0.346949  1
  Ho  Ho15  1  0.955938  0.347167  0.346949  1
  Cd  Cd16  1  0.579719  0.258150  0.580158  1
  Cd  Cd17  1  0.258150  0.579719  0.580158  1
  Cd  Cd18  1  0.579384  0.579384  0.580115  1
  Hg  Hg19  1  0.582955  0.582955  0.249422  1
  Ru  Ru20  1  0.145733  0.145733  0.576140  1
  Ru  Ru21  1  0.145958  0.575906  0.146045  1
  Ru  Ru22  1  0.575906  0.145958  0.146045  1
  Ru  Ru23  1  0.139732  0.139732  0.140059  1
