# generated using pymatgen
data_Ca6Zn12Pd4N
_symmetry_space_group_name_H-M   'P 1'
_cell_length_a   8.17576801
_cell_length_b   8.17576750
_cell_length_c   8.17576800
_cell_angle_alpha   109.47122188
_cell_angle_beta   109.47122062
_cell_angle_gamma   109.47122192
_symmetry_Int_Tables_number   1
_chemical_formula_structural   Ca6Zn12Pd4N
_chemical_formula_sum   'Ca6 Zn12 Pd4 N1'
_cell_volume   420.69150946
_cell_formula_units_Z   1
loop_
 _symmetry_equiv_pos_site_id
 _symmetry_equiv_pos_as_xyz
  1  'x, y, z'
loop_
 _atom_site_type_symbol
 _atom_site_label
 _atom_site_symmetry_multiplicity
 _atom_site_fract_x
 _atom_site_fract_y
 _atom_site_fract_z
 _atom_site_occupancy
  Ca  Ca0  1  0.000000  0.255556  0.255556  1
  Ca  Ca1  1  0.255556  0.000000  0.255556  1
  Ca  Ca2  1  0.744444  0.000000  0.744444  1
  Ca  Ca3  1  0.744444  0.744444  0.000000  1
  Ca  Ca4  1  0.255556  0.255556  0.000000  1
  Ca  Ca5  1  0.000000  0.744444  0.744444  1
  Zn  Zn6  1  0.683163  0.341582  0.341582  1
  Zn  Zn7  1  0.341582  0.000000  0.658418  1
  Zn  Zn8  1  0.341582  0.683163  0.341582  1
  Zn  Zn9  1  0.341582  0.341582  0.683163  1
  Zn  Zn10  1  0.341582  0.658418  0.000000  1
  Zn  Zn11  1  0.000000  0.341582  0.658418  1
  Zn  Zn12  1  0.000000  0.658418  0.341582  1
  Zn  Zn13  1  0.658418  0.658418  0.316837  1
  Zn  Zn14  1  0.658418  0.000000  0.341582  1
  Zn  Zn15  1  0.658418  0.341582  0.000000  1
  Zn  Zn16  1  0.658418  0.316837  0.658418  1
  Zn  Zn17  1  0.316837  0.658418  0.658418  1
  Pd  Pd18  1  0.500000  0.500000  0.500000  1
  Pd  Pd19  1  0.500000  0.000000  0.000000  1
  Pd  Pd20  1  0.000000  0.500000  0.000000  1
  Pd  Pd21  1  0.000000  0.000000  0.500000  1
  N  N22  1  0.000000  0.000000  0.000000  1
