# generated using pymatgen
data_Yb4Hg2Pd9Au
_symmetry_space_group_name_H-M   'P 1'
_cell_length_a   7.11433416
_cell_length_b   7.11433403
_cell_length_c   7.11433500
_cell_angle_alpha   107.58155322
_cell_angle_beta   108.02177130
_cell_angle_gamma   112.86484522
_symmetry_Int_Tables_number   1
_chemical_formula_structural   Yb4Hg2Pd9Au
_chemical_formula_sum   'Yb4 Hg2 Pd9 Au1'
_cell_volume   276.45434826
_cell_formula_units_Z   1
loop_
 _symmetry_equiv_pos_site_id
 _symmetry_equiv_pos_as_xyz
  1  'x, y, z'
loop_
 _atom_site_type_symbol
 _atom_site_label
 _atom_site_symmetry_multiplicity
 _atom_site_fract_x
 _atom_site_fract_y
 _atom_site_fract_z
 _atom_site_occupancy
  Yb  Yb0  1  0.246159  0.237598  0.483758  1
  Yb  Yb1  1  0.753841  0.762402  0.516242  1
  Yb  Yb2  1  0.246159  0.762402  0.008561  1
  Yb  Yb3  1  0.753841  0.237598  0.991439  1
  Hg  Hg4  1  0.000000  0.500000  0.500000  1
  Hg  Hg5  1  0.500000  0.500000  0.000000  1
  Pd  Pd6  1  0.503654  0.254225  0.249428  1
  Pd  Pd7  1  0.496346  0.745775  0.750572  1
  Pd  Pd8  1  0.004796  0.254225  0.750572  1
  Pd  Pd9  1  0.251018  0.001608  0.750590  1
  Pd  Pd10  1  0.995204  0.745775  0.249428  1
  Pd  Pd11  1  0.748982  0.998392  0.249410  1
  Pd  Pd12  1  0.251018  0.500428  0.249410  1
  Pd  Pd13  1  0.748982  0.499572  0.750590  1
  Pd  Pd14  1  0.000000  0.000000  0.000000  1
  Au  Au15  1  0.500000  0.000000  0.500000  1
