# generated using pymatgen
data_Nd7Dy12ErSi16
_symmetry_space_group_name_H-M   'P 1'
_cell_length_a   7.75278095
_cell_length_b   7.75721859
_cell_length_c   14.35758146
_cell_angle_alpha   89.98912838
_cell_angle_beta   89.89128247
_cell_angle_gamma   90.07804034
_symmetry_Int_Tables_number   1
_chemical_formula_structural   Nd7Dy12ErSi16
_chemical_formula_sum   'Nd7 Dy12 Er1 Si16'
_cell_volume   863.46281463
_cell_formula_units_Z   1
loop_
 _symmetry_equiv_pos_site_id
 _symmetry_equiv_pos_as_xyz
  1  'x, y, z'
loop_
 _atom_site_type_symbol
 _atom_site_label
 _atom_site_symmetry_multiplicity
 _atom_site_fract_x
 _atom_site_fract_y
 _atom_site_fract_z
 _atom_site_occupancy
  Nd  Nd0  1  0.358904  0.007378  0.958023  1
  Nd  Nd1  1  0.992366  0.642507  0.540857  1
  Nd  Nd2  1  0.490628  0.858743  0.209277  1
  Nd  Nd3  1  0.509340  0.139423  0.707069  1
  Nd  Nd4  1  0.859934  0.490552  0.791764  1
  Nd  Nd5  1  0.139558  0.508693  0.292998  1
  Nd  Nd6  1  0.007627  0.358451  0.042691  1
  Dy  Dy7  1  0.490886  0.360998  0.124880  1
  Dy  Dy8  1  0.991629  0.136746  0.624246  1
  Dy  Dy9  1  0.861980  0.008437  0.874718  1
  Dy  Dy10  1  0.137389  0.992843  0.375211  1
  Dy  Dy11  1  0.511361  0.639551  0.623001  1
  Dy  Dy12  1  0.361324  0.490974  0.875254  1
  Dy  Dy13  1  0.639552  0.510130  0.376224  1
  Dy  Dy14  1  0.006910  0.861298  0.126424  1
  Dy  Dy15  1  0.636298  0.995746  0.456075  1
  Dy  Dy16  1  0.317801  0.316972  0.499868  1
  Dy  Dy17  1  0.184368  0.816285  0.749114  1
  Dy  Dy18  1  0.815071  0.182975  0.250488  1
  Er  Er19  1  0.682768  0.682055  0.000327  1
  Si  Si20  1  0.294200  0.938157  0.560078  1
  Si  Si21  1  0.708992  0.063264  0.061604  1
  Si  Si22  1  0.933473  0.288548  0.438456  1
  Si  Si23  1  0.437540  0.208926  0.312572  1
  Si  Si24  1  0.565066  0.788673  0.811654  1
  Si  Si25  1  0.211277  0.435851  0.687962  1
  Si  Si26  1  0.788555  0.565394  0.188958  1
  Si  Si27  1  0.064357  0.709795  0.938879  1
  Si  Si28  1  0.798909  0.844583  0.690694  1
  Si  Si29  1  0.202847  0.153420  0.190013  1
  Si  Si30  1  0.843080  0.801013  0.313820  1
  Si  Si31  1  0.350029  0.707190  0.438059  1
  Si  Si32  1  0.653481  0.296035  0.939854  1
  Si  Si33  1  0.702036  0.342476  0.558855  1
  Si  Si34  1  0.295985  0.653520  0.060609  1
  Si  Si35  1  0.154479  0.202401  0.809421  1
