# generated using pymatgen
data_Ti4ZnAuCN
_symmetry_space_group_name_H-M   'P 1'
_cell_length_a   8.41392893
_cell_length_b   8.41393038
_cell_length_c   4.26389200
_cell_angle_alpha   90.00000000
_cell_angle_beta   90.00000000
_cell_angle_gamma   159.13002898
_symmetry_Int_Tables_number   1
_chemical_formula_structural   Ti4ZnAuCN
_chemical_formula_sum   'Ti4 Zn1 Au1 C1 N1'
_cell_volume   107.53672006
_cell_formula_units_Z   1
loop_
 _symmetry_equiv_pos_site_id
 _symmetry_equiv_pos_as_xyz
  1  'x, y, z'
loop_
 _atom_site_type_symbol
 _atom_site_label
 _atom_site_symmetry_multiplicity
 _atom_site_fract_x
 _atom_site_fract_y
 _atom_site_fract_z
 _atom_site_occupancy
  Ti  Ti0  1  0.786874  0.213126  0.250000  1
  Ti  Ti1  1  0.213803  0.786197  0.750000  1
  Ti  Ti2  1  0.612188  0.387812  0.250000  1
  Ti  Ti3  1  0.385067  0.614933  0.750000  1
  Zn  Zn4  1  0.046723  0.953277  0.750000  1
  Au  Au5  1  0.957303  0.042697  0.250000  1
  C  C6  1  0.198281  0.801719  0.250000  1
  N  N7  1  0.799760  0.200240  0.750000  1
