# generated using pymatgen
data_La4Nd6IrRu3
_symmetry_space_group_name_H-M   'P 1'
_cell_length_a   9.08045164
_cell_length_b   9.10928598
_cell_length_c   7.36225207
_cell_angle_alpha   84.34977237
_cell_angle_beta   84.43155225
_cell_angle_gamma   42.99194222
_symmetry_Int_Tables_number   1
_chemical_formula_structural   La4Nd6IrRu3
_chemical_formula_sum   'La4 Nd6 Ir1 Ru3'
_cell_volume   412.96164804
_cell_formula_units_Z   1
loop_
 _symmetry_equiv_pos_site_id
 _symmetry_equiv_pos_as_xyz
  1  'x, y, z'
loop_
 _atom_site_type_symbol
 _atom_site_label
 _atom_site_symmetry_multiplicity
 _atom_site_fract_x
 _atom_site_fract_y
 _atom_site_fract_z
 _atom_site_occupancy
  La  La0  1  0.011912  0.801050  0.912782  1
  La  La1  1  0.203800  0.984945  0.595007  1
  La  La2  1  0.984436  0.204668  0.094130  1
  La  La3  1  0.793624  0.018879  0.405817  1
  Nd  Nd4  1  0.360547  0.209519  0.818060  1
  Nd  Nd5  1  0.788697  0.640751  0.682380  1
  Nd  Nd6  1  0.640043  0.789626  0.182873  1
  Nd  Nd7  1  0.209208  0.358624  0.316876  1
  Nd  Nd8  1  0.571266  0.428599  0.749844  1
  Nd  Nd9  1  0.428387  0.573032  0.249381  1
  Ir  Ir10  1  0.175877  0.599615  0.578838  1
  Ru  Ru11  1  0.386725  0.835532  0.914047  1
  Ru  Ru12  1  0.834557  0.388714  0.416349  1
  Ru  Ru13  1  0.610922  0.166447  0.083616  1
