# generated using pymatgen
data_GdErCl8
_symmetry_space_group_name_H-M   'P 1'
_cell_length_a   7.03003457
_cell_length_b   7.03006553
_cell_length_c   9.20570351
_cell_angle_alpha   92.67711586
_cell_angle_beta   92.67223521
_cell_angle_gamma   119.34189986
_symmetry_Int_Tables_number   1
_chemical_formula_structural   GdErCl8
_chemical_formula_sum   'Gd1 Er1 Cl8'
_cell_volume   394.89716792
_cell_formula_units_Z   1
loop_
 _symmetry_equiv_pos_site_id
 _symmetry_equiv_pos_as_xyz
  1  'x, y, z'
loop_
 _atom_site_type_symbol
 _atom_site_label
 _atom_site_symmetry_multiplicity
 _atom_site_fract_x
 _atom_site_fract_y
 _atom_site_fract_z
 _atom_site_occupancy
  Gd  Gd0  1  0.831290  0.168706  0.999999  1
  Er  Er1  1  0.168361  0.831642  0.000006  1
  Cl  Cl2  1  0.904856  0.898739  0.164657  1
  Cl  Cl3  1  0.511472  0.137125  0.163505  1
  Cl  Cl4  1  0.144000  0.524586  0.163253  1
  Cl  Cl5  1  0.615720  0.615264  0.445850  1
  Cl  Cl6  1  0.384731  0.384276  0.554141  1
  Cl  Cl7  1  0.862892  0.488530  0.836499  1
  Cl  Cl8  1  0.475411  0.855992  0.836742  1
  Cl  Cl9  1  0.101266  0.095139  0.835349  1
