# generated using pymatgen
data_Dy3Zn2Pd3Au
_symmetry_space_group_name_H-M   'P 1'
_cell_length_a   7.33054690
_cell_length_b   7.33054779
_cell_length_c   3.85645200
_cell_angle_alpha   90.00000000
_cell_angle_beta   90.00000000
_cell_angle_gamma   118.71359648
_symmetry_Int_Tables_number   1
_chemical_formula_structural   Dy3Zn2Pd3Au
_chemical_formula_sum   'Dy3 Zn2 Pd3 Au1'
_cell_volume   181.75077245
_cell_formula_units_Z   1
loop_
 _symmetry_equiv_pos_site_id
 _symmetry_equiv_pos_as_xyz
  1  'x, y, z'
loop_
 _atom_site_type_symbol
 _atom_site_label
 _atom_site_symmetry_multiplicity
 _atom_site_fract_x
 _atom_site_fract_y
 _atom_site_fract_z
 _atom_site_occupancy
  Dy  Dy0  1  0.408417  0.408417  0.500000  1
  Dy  Dy1  1  0.603306  0.991852  0.500000  1
  Dy  Dy2  1  0.991852  0.603306  0.500000  1
  Zn  Zn3  1  0.257918  0.000286  0.000000  1
  Zn  Zn4  1  0.000286  0.257918  0.000000  1
  Pd  Pd5  1  0.660321  0.312857  0.000000  1
  Pd  Pd6  1  0.312857  0.660321  0.000000  1
  Pd  Pd7  1  0.025767  0.025767  0.500000  1
  Au  Au8  1  0.739275  0.739275  0.000000  1
