# generated using pymatgen
data_Tm(S8I)3
_symmetry_space_group_name_H-M   'P 1'
_cell_length_a   15.78751312
_cell_length_b   15.78751353
_cell_length_c   15.78751202
_cell_angle_alpha   119.16583061
_cell_angle_beta   119.16583419
_cell_angle_gamma   119.16583141
_symmetry_Int_Tables_number   1
_chemical_formula_structural   Tm(S8I)3
_chemical_formula_sum   'Tm1 S24 I3'
_cell_volume   931.32214018
_cell_formula_units_Z   1
loop_
 _symmetry_equiv_pos_site_id
 _symmetry_equiv_pos_as_xyz
  1  'x, y, z'
loop_
 _atom_site_type_symbol
 _atom_site_label
 _atom_site_symmetry_multiplicity
 _atom_site_fract_x
 _atom_site_fract_y
 _atom_site_fract_z
 _atom_site_occupancy
  Tm  Tm0  1  0.546316  0.546316  0.546316  1
  S  S1  1  0.812283  0.529136  0.529136  1
  S  S2  1  0.529136  0.529136  0.812283  1
  S  S3  1  0.529136  0.812283  0.529136  1
  S  S4  1  0.224672  0.348912  0.611739  1
  S  S5  1  0.392535  0.978419  0.392535  1
  S  S6  1  0.392535  0.392535  0.978419  1
  S  S7  1  0.978419  0.392535  0.392535  1
  S  S8  1  0.128686  0.729851  0.252070  1
  S  S9  1  0.252070  0.128686  0.729851  1
  S  S10  1  0.729851  0.252070  0.128686  1
  S  S11  1  0.729851  0.128686  0.252070  1
  S  S12  1  0.252070  0.729851  0.128686  1
  S  S13  1  0.128686  0.252070  0.729851  1
  S  S14  1  0.370593  0.892609  0.545926  1
  S  S15  1  0.545926  0.370593  0.892609  1
  S  S16  1  0.892609  0.545926  0.370593  1
  S  S17  1  0.892609  0.370593  0.545926  1
  S  S18  1  0.545926  0.892609  0.370593  1
  S  S19  1  0.370593  0.545926  0.892609  1
  S  S20  1  0.224672  0.611739  0.348912  1
  S  S21  1  0.348912  0.224672  0.611739  1
  S  S22  1  0.611739  0.348912  0.224672  1
  S  S23  1  0.611739  0.224672  0.348912  1
  S  S24  1  0.348912  0.611739  0.224672  1
  I  I25  1  0.951238  0.091791  0.091791  1
  I  I26  1  0.091791  0.091791  0.951238  1
  I  I27  1  0.091791  0.951238  0.091791  1
