# generated using pymatgen
data_Ti4SiP3Ir4
_symmetry_space_group_name_H-M   'P 1'
_cell_length_a   3.76428500
_cell_length_b   6.30043520
_cell_length_c   7.19604400
_cell_angle_alpha   89.88182322
_cell_angle_beta   90.00000000
_cell_angle_gamma   90.00000000
_symmetry_Int_Tables_number   1
_chemical_formula_structural   Ti4SiP3Ir4
_chemical_formula_sum   'Ti4 Si1 P3 Ir4'
_cell_volume   170.66557679
_cell_formula_units_Z   1
loop_
 _symmetry_equiv_pos_site_id
 _symmetry_equiv_pos_as_xyz
  1  'x, y, z'
loop_
 _atom_site_type_symbol
 _atom_site_label
 _atom_site_symmetry_multiplicity
 _atom_site_fract_x
 _atom_site_fract_y
 _atom_site_fract_z
 _atom_site_occupancy
  Ti  Ti0  1  0.250000  0.028630  0.824905  1
  Ti  Ti1  1  0.250000  0.524526  0.671914  1
  Ti  Ti2  1  0.750000  0.975172  0.176894  1
  Ti  Ti3  1  0.750000  0.474368  0.326789  1
  Si  Si4  1  0.750000  0.736411  0.876332  1
  P  P5  1  0.250000  0.758676  0.376884  1
  P  P6  1  0.250000  0.262044  0.123185  1
  P  P7  1  0.750000  0.240944  0.623728  1
  Ir  Ir8  1  0.250000  0.149703  0.435120  1
  Ir  Ir9  1  0.250000  0.646942  0.066326  1
  Ir  Ir10  1  0.750000  0.853989  0.561622  1
  Ir  Ir11  1  0.750000  0.348595  0.936300  1
