# generated using pymatgen
data_Ho2Er5Sc9(In3Co)2
_symmetry_space_group_name_H-M   'P 1'
_cell_length_a   9.88887371
_cell_length_b   9.88887450
_cell_length_c   6.87277106
_cell_angle_alpha   89.90931442
_cell_angle_beta   90.09067951
_cell_angle_gamma   120.09394449
_symmetry_Int_Tables_number   1
_chemical_formula_structural   Ho2Er5Sc9(In3Co)2
_chemical_formula_sum   'Ho2 Er5 Sc9 In6 Co2'
_cell_volume   581.49177754
_cell_formula_units_Z   1
loop_
 _symmetry_equiv_pos_site_id
 _symmetry_equiv_pos_as_xyz
  1  'x, y, z'
loop_
 _atom_site_type_symbol
 _atom_site_label
 _atom_site_symmetry_multiplicity
 _atom_site_fract_x
 _atom_site_fract_y
 _atom_site_fract_z
 _atom_site_occupancy
  Ho  Ho0  1  0.999781  0.000219  0.510975  1
  Ho  Ho1  1  0.999941  0.000059  0.011337  1
  Er  Er2  1  0.532864  0.065745  0.517628  1
  Er  Er3  1  0.934255  0.467136  0.517628  1
  Er  Er4  1  0.531934  0.468066  0.518150  1
  Er  Er5  1  0.467059  0.934070  0.018313  1
  Er  Er6  1  0.065930  0.532941  0.018313  1
  Sc  Sc7  1  0.465149  0.534851  0.018149  1
  Sc  Sc8  1  0.183062  0.361142  0.731423  1
  Sc  Sc9  1  0.638858  0.816938  0.731423  1
  Sc  Sc10  1  0.179918  0.820082  0.727458  1
  Sc  Sc11  1  0.817246  0.639381  0.225127  1
  Sc  Sc12  1  0.360619  0.182754  0.225127  1
  Sc  Sc13  1  0.820683  0.179317  0.226606  1
  Sc  Sc14  1  0.665369  0.334631  0.919312  1
  Sc  Sc15  1  0.334037  0.665963  0.418135  1
  In  In16  1  0.837134  0.674022  0.775892  1
  In  In17  1  0.325978  0.162866  0.775892  1
  In  In18  1  0.837064  0.162936  0.775690  1
  In  In19  1  0.166109  0.328571  0.273360  1
  In  In20  1  0.671429  0.833891  0.273360  1
  In  In21  1  0.162730  0.837270  0.276364  1
  Co  Co22  1  0.667131  0.332869  0.283332  1
  Co  Co23  1  0.335717  0.664283  0.786686  1
