# generated using pymatgen
data_La8Tb(HoAu4)5
_symmetry_space_group_name_H-M   'P 1'
_cell_length_a   8.96210769
_cell_length_b   8.96163490
_cell_length_c   10.63896500
_cell_angle_alpha   89.66106197
_cell_angle_beta   90.33880507
_cell_angle_gamma   107.50592462
_symmetry_Int_Tables_number   1
_chemical_formula_structural   La8Tb(HoAu4)5
_chemical_formula_sum   'La8 Tb1 Ho5 Au20'
_cell_volume   814.87397062
_cell_formula_units_Z   1
loop_
 _symmetry_equiv_pos_site_id
 _symmetry_equiv_pos_as_xyz
  1  'x, y, z'
loop_
 _atom_site_type_symbol
 _atom_site_label
 _atom_site_symmetry_multiplicity
 _atom_site_fract_x
 _atom_site_fract_y
 _atom_site_fract_z
 _atom_site_occupancy
  La  La0  1  0.697108  0.299640  0.998313  1
  La  La1  1  0.200995  0.800270  0.501423  1
  La  La2  1  0.804169  0.804974  0.299839  1
  La  La3  1  0.305019  0.304227  0.200200  1
  La  La4  1  0.799584  0.197161  0.501722  1
  La  La5  1  0.300310  0.700951  0.998555  1
  La  La6  1  0.695025  0.699849  0.801451  1
  La  La7  1  0.199922  0.195032  0.698518  1
  Tb  Tb8  1  0.494935  0.994930  0.750035  1
  Ho  Ho9  1  0.505582  0.005599  0.249965  1
  Ho  Ho10  1  0.992014  0.492025  0.750022  1
  Ho  Ho11  1  0.002517  0.002232  0.002797  1
  Ho  Ho12  1  0.006128  0.506121  0.249986  1
  Ho  Ho13  1  0.502221  0.502519  0.497212  1
  Au  Au14  1  0.147614  0.434756  0.491477  1
  Au  Au15  1  0.901133  0.898658  0.594366  1
  Au  Au16  1  0.564923  0.851120  0.507244  1
  Au  Au17  1  0.870283  0.157797  0.209696  1
  Au  Au18  1  0.367594  0.655218  0.290142  1
  Au  Au19  1  0.657791  0.370288  0.290303  1
  Au  Au20  1  0.398662  0.401123  0.905629  1
  Au  Au21  1  0.934747  0.647621  0.008519  1
  Au  Au22  1  0.340995  0.620057  0.707591  1
  Au  Au23  1  0.351107  0.064957  0.992740  1
  Au  Au24  1  0.599470  0.598223  0.095819  1
  Au  Au25  1  0.652473  0.935450  0.013924  1
  Au  Au26  1  0.098221  0.099457  0.404171  1
  Au  Au27  1  0.631199  0.350093  0.706667  1
  Au  Au28  1  0.120061  0.840977  0.792404  1
  Au  Au29  1  0.062122  0.355288  0.995550  1
  Au  Au30  1  0.855288  0.562110  0.504448  1
  Au  Au31  1  0.155218  0.867610  0.209856  1
  Au  Au32  1  0.435482  0.152474  0.486082  1
  Au  Au33  1  0.850088  0.131192  0.793336  1
