# generated using pymatgen
data_Lu2Ti3Si4
_symmetry_space_group_name_H-M   'P 1'
_cell_length_a   6.98321600
_cell_length_b   6.98321600
_cell_length_c   12.81804200
_cell_angle_alpha   90.00000000
_cell_angle_beta   90.00000000
_cell_angle_gamma   90.00000000
_symmetry_Int_Tables_number   1
_chemical_formula_structural   Lu2Ti3Si4
_chemical_formula_sum   'Lu8 Ti12 Si16'
_cell_volume   625.07573664
_cell_formula_units_Z   4
loop_
 _symmetry_equiv_pos_site_id
 _symmetry_equiv_pos_as_xyz
  1  'x, y, z'
loop_
 _atom_site_type_symbol
 _atom_site_label
 _atom_site_symmetry_multiplicity
 _atom_site_fract_x
 _atom_site_fract_y
 _atom_site_fract_z
 _atom_site_occupancy
  Lu  Lu0  1  0.340350  0.001873  0.466790  1
  Lu  Lu1  1  0.498127  0.840350  0.716790  1
  Lu  Lu2  1  0.501873  0.159650  0.216790  1
  Lu  Lu3  1  0.840350  0.498127  0.283210  1
  Lu  Lu4  1  0.159650  0.501873  0.783210  1
  Lu  Lu5  1  0.659650  0.998127  0.966790  1
  Lu  Lu6  1  0.001873  0.340350  0.533210  1
  Lu  Lu7  1  0.998127  0.659650  0.033210  1
  Ti  Ti8  1  0.326984  0.326984  0.000000  1
  Ti  Ti9  1  0.173016  0.826984  0.250000  1
  Ti  Ti10  1  0.826984  0.173016  0.750000  1
  Ti  Ti11  1  0.673016  0.673016  0.500000  1
  Ti  Ti12  1  0.151211  0.007361  0.876178  1
  Ti  Ti13  1  0.492639  0.651211  0.126178  1
  Ti  Ti14  1  0.507361  0.348789  0.626178  1
  Ti  Ti15  1  0.651211  0.492639  0.873822  1
  Ti  Ti16  1  0.348789  0.507361  0.373822  1
  Ti  Ti17  1  0.848789  0.992639  0.376178  1
  Ti  Ti18  1  0.007361  0.151211  0.123822  1
  Ti  Ti19  1  0.992639  0.848789  0.623822  1
  Si  Si20  1  0.203272  0.131924  0.683145  1
  Si  Si21  1  0.368076  0.703272  0.933145  1
  Si  Si22  1  0.631924  0.296728  0.433145  1
  Si  Si23  1  0.703272  0.368076  0.066855  1
  Si  Si24  1  0.296728  0.631924  0.566855  1
  Si  Si25  1  0.796728  0.868076  0.183145  1
  Si  Si26  1  0.131924  0.203272  0.316855  1
  Si  Si27  1  0.868076  0.796728  0.816855  1
  Si  Si28  1  0.292706  0.953348  0.064915  1
  Si  Si29  1  0.546652  0.792706  0.314915  1
  Si  Si30  1  0.453348  0.207294  0.814915  1
  Si  Si31  1  0.792706  0.546652  0.685085  1
  Si  Si32  1  0.207294  0.453348  0.185085  1
  Si  Si33  1  0.707294  0.046652  0.564915  1
  Si  Si34  1  0.953348  0.292706  0.935085  1
  Si  Si35  1  0.046652  0.707294  0.435085  1
