# generated using pymatgen
data_Dy3Tm5B24Ru3W
_symmetry_space_group_name_H-M   'P 1'
_cell_length_a   3.62269100
_cell_length_b   9.12889680
_cell_length_c   11.52602400
_cell_angle_alpha   89.85742861
_cell_angle_beta   90.00000000
_cell_angle_gamma   90.00000000
_symmetry_Int_Tables_number   1
_chemical_formula_structural   Dy3Tm5B24Ru3W
_chemical_formula_sum   'Dy3 Tm5 B24 Ru3 W1'
_cell_volume   381.17794551
_cell_formula_units_Z   1
loop_
 _symmetry_equiv_pos_site_id
 _symmetry_equiv_pos_as_xyz
  1  'x, y, z'
loop_
 _atom_site_type_symbol
 _atom_site_label
 _atom_site_symmetry_multiplicity
 _atom_site_fract_x
 _atom_site_fract_y
 _atom_site_fract_z
 _atom_site_occupancy
  Dy  Dy0  1  0.000000  0.321053  0.413682  1
  Dy  Dy1  1  0.000000  0.678011  0.585664  1
  Dy  Dy2  1  0.000000  0.820496  0.086626  1
  Tm  Tm3  1  0.000000  0.177203  0.914814  1
  Tm  Tm4  1  0.000000  0.946410  0.373114  1
  Tm  Tm5  1  0.000000  0.057812  0.629201  1
  Tm  Tm6  1  0.000000  0.442200  0.125560  1
  Tm  Tm7  1  0.000000  0.556561  0.870966  1
  B  B8  1  0.500000  0.550135  0.436426  1
  B  B9  1  0.500000  0.445417  0.568990  1
  B  B10  1  0.500000  0.054371  0.066330  1
  B  B11  1  0.500000  0.946597  0.932997  1
  B  B12  1  0.500000  0.752881  0.422265  1
  B  B13  1  0.500000  0.251139  0.581910  1
  B  B14  1  0.500000  0.248438  0.079278  1
  B  B15  1  0.500000  0.751080  0.918677  1
  B  B16  1  0.500000  0.796090  0.263954  1
  B  B17  1  0.500000  0.208187  0.735132  1
  B  B18  1  0.500000  0.290408  0.232023  1
  B  B19  1  0.500000  0.709484  0.765913  1
  B  B20  1  0.500000  0.631360  0.181556  1
  B  B21  1  0.500000  0.367819  0.815675  1
  B  B22  1  0.500000  0.131428  0.314162  1
  B  B23  1  0.500000  0.870121  0.685561  1
  B  B24  1  0.500000  0.984106  0.212605  1
  B  B25  1  0.500000  0.017867  0.788381  1
  B  B26  1  0.500000  0.476700  0.285723  1
  B  B27  1  0.500000  0.516152  0.713580  1
  B  B28  1  0.500000  0.604806  0.026947  1
  B  B29  1  0.500000  0.392790  0.969482  1
  B  B30  1  0.500000  0.106241  0.471811  1
  B  B31  1  0.500000  0.897925  0.530428  1
  Ru  Ru32  1  0.000000  0.360584  0.681136  1
  Ru  Ru33  1  0.000000  0.137856  0.177890  1
  Ru  Ru34  1  0.000000  0.862458  0.820559  1
  W  W35  1  0.000000  0.637815  0.320980  1
