# generated using pymatgen
data_Na5Li3Pd5O14
_symmetry_space_group_name_H-M   'P 1'
_cell_length_a   5.34594220
_cell_length_b   7.06852735
_cell_length_c   8.29782674
_cell_angle_alpha   88.35785270
_cell_angle_beta   101.80727902
_cell_angle_gamma   97.80669644
_symmetry_Int_Tables_number   1
_chemical_formula_structural   Na5Li3Pd5O14
_chemical_formula_sum   'Na5 Li3 Pd5 O14'
_cell_volume   304.07863049
_cell_formula_units_Z   1
loop_
 _symmetry_equiv_pos_site_id
 _symmetry_equiv_pos_as_xyz
  1  'x, y, z'
loop_
 _atom_site_type_symbol
 _atom_site_label
 _atom_site_symmetry_multiplicity
 _atom_site_fract_x
 _atom_site_fract_y
 _atom_site_fract_z
 _atom_site_occupancy
  Na  Na0  1  0.510867  0.996311  0.500129  1
  Na  Na1  1  0.909405  0.846661  0.342911  1
  Na  Na2  1  0.657633  0.307115  0.813128  1
  Na  Na3  1  0.068685  0.136111  0.646138  1
  Na  Na4  1  0.357787  0.713697  0.203946  1
  Li  Li5  1  0.223102  0.451840  0.945397  1
  Li  Li6  1  0.858052  0.710128  0.723082  1
  Li  Li7  1  0.571142  0.149789  0.137771  1
  Pd  Pd8  1  0.003894  0.997877  0.996819  1
  Pd  Pd9  1  0.429635  0.858156  0.857153  1
  Pd  Pd10  1  0.280538  0.570406  0.575055  1
  Pd  Pd11  1  0.711054  0.426019  0.426408  1
  Pd  Pd12  1  0.142342  0.281332  0.281157  1
  O  O13  1  0.115551  0.741209  0.945068  1
  O  O14  1  0.752644  0.982009  0.774207  1
  O  O15  1  0.193612  0.827776  0.624090  1
  O  O16  1  0.493363  0.589566  0.804621  1
  O  O17  1  0.958896  0.447516  0.653469  1
  O  O18  1  0.321093  0.113402  0.905938  1
  O  O19  1  0.596921  0.680129  0.479506  1
  O  O20  1  0.036732  0.539057  0.343850  1
  O  O21  1  0.677719  0.888013  0.078030  1
  O  O22  1  0.388853  0.310455  0.514791  1
  O  O23  1  0.823331  0.171059  0.374908  1
  O  O24  1  0.458511  0.403231  0.201188  1
  O  O25  1  0.939925  0.265028  0.050095  1
  O  O26  1  0.233173  0.024419  0.230064  1
