# generated using pymatgen
data_Tb6Sn6Ir5Au
_symmetry_space_group_name_H-M   'P 1'
_cell_length_a   7.59252100
_cell_length_b   7.59252033
_cell_length_c   7.87225300
_cell_angle_alpha   90.00000000
_cell_angle_beta   90.00000000
_cell_angle_gamma   119.99999974
_symmetry_Int_Tables_number   1
_chemical_formula_structural   Tb6Sn6Ir5Au
_chemical_formula_sum   'Tb6 Sn6 Ir5 Au1'
_cell_volume   393.00822641
_cell_formula_units_Z   1
loop_
 _symmetry_equiv_pos_site_id
 _symmetry_equiv_pos_as_xyz
  1  'x, y, z'
loop_
 _atom_site_type_symbol
 _atom_site_label
 _atom_site_symmetry_multiplicity
 _atom_site_fract_x
 _atom_site_fract_y
 _atom_site_fract_z
 _atom_site_occupancy
  Tb  Tb0  1  0.401635  0.992434  0.243698  1
  Tb  Tb1  1  0.590274  0.599778  0.756357  1
  Tb  Tb2  1  0.590801  0.598365  0.243698  1
  Tb  Tb3  1  0.007566  0.409199  0.243698  1
  Tb  Tb4  1  0.009503  0.409726  0.756357  1
  Tb  Tb5  1  0.400222  0.990497  0.756357  1
  Sn  Sn6  1  0.251605  0.260040  0.499733  1
  Sn  Sn7  1  0.262282  0.257570  0.999803  1
  Sn  Sn8  1  0.742430  0.004712  0.999803  1
  Sn  Sn9  1  0.008435  0.748395  0.499733  1
  Sn  Sn10  1  0.739960  0.991565  0.499733  1
  Sn  Sn11  1  0.995288  0.737718  0.999803  1
  Ir  Ir12  1  0.666667  0.333333  0.998978  1
  Ir  Ir13  1  0.333333  0.666667  0.000989  1
  Ir  Ir14  1  0.333333  0.666667  0.498964  1
  Ir  Ir15  1  0.000000  0.000000  0.750821  1
  Ir  Ir16  1  0.000000  0.000000  0.248445  1
  Au  Au17  1  0.666667  0.333333  0.503033  1
