# generated using pymatgen
data_RbGdP2O7
_symmetry_space_group_name_H-M   'P 1'
_cell_length_a   5.61139998
_cell_length_b   5.61139918
_cell_length_c   12.54397300
_cell_angle_alpha   90.00000000
_cell_angle_beta   90.00000000
_cell_angle_gamma   116.64447815
_symmetry_Int_Tables_number   1
_chemical_formula_structural   RbGdP2O7
_chemical_formula_sum   'Rb2 Gd2 P4 O14'
_cell_volume   353.03759022
_cell_formula_units_Z   2
loop_
 _symmetry_equiv_pos_site_id
 _symmetry_equiv_pos_as_xyz
  1  'x, y, z'
loop_
 _atom_site_type_symbol
 _atom_site_label
 _atom_site_symmetry_multiplicity
 _atom_site_fract_x
 _atom_site_fract_y
 _atom_site_fract_z
 _atom_site_occupancy
  Rb  Rb0  1  0.696448  0.303552  0.250000  1
  Rb  Rb1  1  0.303552  0.696448  0.750000  1
  Gd  Gd2  1  0.000000  0.000000  0.000000  1
  Gd  Gd3  1  0.000000  0.000000  0.500000  1
  P  P4  1  0.354891  0.645109  0.370870  1
  P  P5  1  0.645109  0.354891  0.629130  1
  P  P6  1  0.354891  0.645109  0.129130  1
  P  P7  1  0.645109  0.354891  0.870870  1
  O  O8  1  0.340514  0.226607  0.620754  1
  O  O9  1  0.774454  0.225546  0.558414  1
  O  O10  1  0.659486  0.773393  0.379246  1
  O  O11  1  0.659486  0.773393  0.120754  1
  O  O12  1  0.225546  0.774454  0.441586  1
  O  O13  1  0.773393  0.659486  0.879246  1
  O  O14  1  0.225546  0.774454  0.058414  1
  O  O15  1  0.774454  0.225546  0.941586  1
  O  O16  1  0.773393  0.659486  0.620754  1
  O  O17  1  0.712759  0.287241  0.750000  1
  O  O18  1  0.226607  0.340514  0.379246  1
  O  O19  1  0.226607  0.340514  0.120754  1
  O  O20  1  0.287241  0.712759  0.250000  1
  O  O21  1  0.340514  0.226607  0.879246  1
