# generated using pymatgen
data_Zr6Al16Pt4Rh3
_symmetry_space_group_name_H-M   'P 1'
_cell_length_a   8.76152648
_cell_length_b   8.76152557
_cell_length_c   8.76712500
_cell_angle_alpha   59.97885296
_cell_angle_beta   59.97885639
_cell_angle_gamma   60.04229010
_symmetry_Int_Tables_number   1
_chemical_formula_structural   Zr6Al16Pt4Rh3
_chemical_formula_sum   'Zr6 Al16 Pt4 Rh3'
_cell_volume   475.88427569
_cell_formula_units_Z   1
loop_
 _symmetry_equiv_pos_site_id
 _symmetry_equiv_pos_as_xyz
  1  'x, y, z'
loop_
 _atom_site_type_symbol
 _atom_site_label
 _atom_site_symmetry_multiplicity
 _atom_site_fract_x
 _atom_site_fract_y
 _atom_site_fract_z
 _atom_site_occupancy
  Zr  Zr0  1  0.688003  0.688003  0.311997  1
  Zr  Zr1  1  0.314431  0.685569  0.314431  1
  Zr  Zr2  1  0.685569  0.314431  0.314431  1
  Zr  Zr3  1  0.311997  0.311997  0.688003  1
  Zr  Zr4  1  0.685569  0.314431  0.685569  1
  Zr  Zr5  1  0.314431  0.685569  0.685569  1
  Al  Al6  1  0.882839  0.882839  0.357422  1
  Al  Al7  1  0.876899  0.357422  0.882839  1
  Al  Al8  1  0.357422  0.876899  0.882839  1
  Al  Al9  1  0.882839  0.882839  0.876899  1
  Al  Al10  1  0.117161  0.117161  0.642578  1
  Al  Al11  1  0.123101  0.642578  0.117161  1
  Al  Al12  1  0.642578  0.123101  0.117161  1
  Al  Al13  1  0.117161  0.117161  0.123101  1
  Al  Al14  1  0.662408  0.662408  0.008196  1
  Al  Al15  1  0.666987  0.008196  0.662408  1
  Al  Al16  1  0.008196  0.666987  0.662408  1
  Al  Al17  1  0.662408  0.662408  0.666987  1
  Al  Al18  1  0.337592  0.337592  0.991804  1
  Al  Al19  1  0.333013  0.991804  0.337592  1
  Al  Al20  1  0.991804  0.333013  0.337592  1
  Al  Al21  1  0.337592  0.337592  0.333013  1
  Pt  Pt22  1  0.500000  0.000000  0.500000  1
  Pt  Pt23  1  0.000000  0.500000  0.500000  1
  Pt  Pt24  1  0.000000  0.500000  0.000000  1
  Pt  Pt25  1  0.500000  0.000000  0.000000  1
  Rh  Rh26  1  0.000000  0.000000  0.000000  1
  Rh  Rh27  1  0.000000  0.000000  0.500000  1
  Rh  Rh28  1  0.500000  0.500000  0.000000  1
