# generated using pymatgen
data_YbEr2Al3Si2Ni
_symmetry_space_group_name_H-M   'P 1'
_cell_length_a   6.85124000
_cell_length_b   6.83606170
_cell_length_c   4.18415900
_cell_angle_alpha   90.00000000
_cell_angle_beta   90.00000000
_cell_angle_gamma   120.07347511
_symmetry_Int_Tables_number   1
_chemical_formula_structural   YbEr2Al3Si2Ni
_chemical_formula_sum   'Yb1 Er2 Al3 Si2 Ni1'
_cell_volume   169.58676080
_cell_formula_units_Z   1
loop_
 _symmetry_equiv_pos_site_id
 _symmetry_equiv_pos_as_xyz
  1  'x, y, z'
loop_
 _atom_site_type_symbol
 _atom_site_label
 _atom_site_symmetry_multiplicity
 _atom_site_fract_x
 _atom_site_fract_y
 _atom_site_fract_z
 _atom_site_occupancy
  Yb  Yb0  1  0.408582  0.000000  0.000000  1
  Er  Er1  1  0.000779  0.409342  0.000000  1
  Er  Er2  1  0.591437  0.590658  0.000000  1
  Al  Al3  1  0.767404  0.000000  0.500000  1
  Al  Al4  1  0.232685  0.237554  0.500000  1
  Al  Al5  1  0.995131  0.762446  0.500000  1
  Si  Si6  1  0.673426  0.340667  0.500000  1
  Si  Si7  1  0.332758  0.659333  0.500000  1
  Ni  Ni8  1  0.997796  0.000000  0.000000  1
