# generated using pymatgen
data_Ce7Dy5(Si3Ir)4
_symmetry_space_group_name_H-M   'P 1'
_cell_length_a   4.28731600
_cell_length_b   10.61425753
_cell_length_c   12.54468603
_cell_angle_alpha   89.90734577
_cell_angle_beta   90.00000000
_cell_angle_gamma   90.00000000
_symmetry_Int_Tables_number   1
_chemical_formula_structural   Ce7Dy5(Si3Ir)4
_chemical_formula_sum   'Ce7 Dy5 Si12 Ir4'
_cell_volume   570.86621797
_cell_formula_units_Z   1
loop_
 _symmetry_equiv_pos_site_id
 _symmetry_equiv_pos_as_xyz
  1  'x, y, z'
loop_
 _atom_site_type_symbol
 _atom_site_label
 _atom_site_symmetry_multiplicity
 _atom_site_fract_x
 _atom_site_fract_y
 _atom_site_fract_z
 _atom_site_occupancy
  Ce  Ce0  1  0.250000  0.580272  0.099474  1
  Ce  Ce1  1  0.750000  0.079226  0.399910  1
  Ce  Ce2  1  0.750000  0.419811  0.900918  1
  Ce  Ce3  1  0.250000  0.656872  0.806867  1
  Ce  Ce4  1  0.250000  0.842765  0.306918  1
  Ce  Ce5  1  0.750000  0.342996  0.193022  1
  Ce  Ce6  1  0.750000  0.160429  0.693829  1
  Dy  Dy7  1  0.250000  0.885574  0.025397  1
  Dy  Dy8  1  0.250000  0.615368  0.526646  1
  Dy  Dy9  1  0.750000  0.114896  0.973102  1
  Dy  Dy10  1  0.750000  0.383462  0.474337  1
  Dy  Dy11  1  0.250000  0.916768  0.602619  1
  Si  Si12  1  0.250000  0.003624  0.818302  1
  Si  Si13  1  0.250000  0.497510  0.321360  1
  Si  Si14  1  0.750000  0.996778  0.178511  1
  Si  Si15  1  0.750000  0.503290  0.679083  1
  Si  Si16  1  0.250000  0.241548  0.839588  1
  Si  Si17  1  0.250000  0.258221  0.339203  1
  Si  Si18  1  0.750000  0.758625  0.160539  1
  Si  Si19  1  0.750000  0.741654  0.660577  1
  Si  Si20  1  0.250000  0.206491  0.538674  1
  Si  Si21  1  0.250000  0.288509  0.038951  1
  Si  Si22  1  0.750000  0.792884  0.462782  1
  Si  Si23  1  0.750000  0.711894  0.960343  1
  Ir  Ir24  1  0.250000  0.382741  0.679439  1
  Ir  Ir25  1  0.250000  0.116525  0.180522  1
  Ir  Ir26  1  0.750000  0.617244  0.321259  1
  Ir  Ir27  1  0.750000  0.884021  0.817828  1
