# generated using pymatgen
data_NdNiAsPPd
_symmetry_space_group_name_H-M   'P 1'
_cell_length_a   4.22723800
_cell_length_b   4.22723800
_cell_length_c   9.51179200
_cell_angle_alpha   90.00000000
_cell_angle_beta   90.00000000
_cell_angle_gamma   90.00000000
_symmetry_Int_Tables_number   1
_chemical_formula_structural   NdNiAsPPd
_chemical_formula_sum   'Nd2 Ni2 As2 P2 Pd2'
_cell_volume   169.97135816
_cell_formula_units_Z   2
loop_
 _symmetry_equiv_pos_site_id
 _symmetry_equiv_pos_as_xyz
  1  'x, y, z'
loop_
 _atom_site_type_symbol
 _atom_site_label
 _atom_site_symmetry_multiplicity
 _atom_site_fract_x
 _atom_site_fract_y
 _atom_site_fract_z
 _atom_site_occupancy
  Nd  Nd0  1  0.500000  0.000000  0.731573  1
  Nd  Nd1  1  0.000000  0.500000  0.268427  1
  Ni  Ni2  1  0.500000  0.000000  0.401771  1
  Ni  Ni3  1  0.000000  0.500000  0.598229  1
  As  As4  1  0.500000  0.000000  0.151847  1
  As  As5  1  0.000000  0.500000  0.848153  1
  P  P6  1  0.500000  0.500000  0.500000  1
  P  P7  1  0.000000  0.000000  0.500000  1
  Pd  Pd8  1  0.500000  0.500000  0.000000  1
  Pd  Pd9  1  0.000000  0.000000  0.000000  1
