# generated using pymatgen
data_PrNd3Si10(OsPt)3
_symmetry_space_group_name_H-M   'P 1'
_cell_length_a   8.25086687
_cell_length_b   8.27350353
_cell_length_c   8.27350328
_cell_angle_alpha   137.41732839
_cell_angle_beta   105.57555436
_cell_angle_gamma   89.76582045
_symmetry_Int_Tables_number   1
_chemical_formula_structural   PrNd3Si10(OsPt)3
_chemical_formula_sum   'Pr1 Nd3 Si10 Os3 Pt3'
_cell_volume   351.50948227
_cell_formula_units_Z   1
loop_
 _symmetry_equiv_pos_site_id
 _symmetry_equiv_pos_as_xyz
  1  'x, y, z'
loop_
 _atom_site_type_symbol
 _atom_site_label
 _atom_site_symmetry_multiplicity
 _atom_site_fract_x
 _atom_site_fract_y
 _atom_site_fract_z
 _atom_site_occupancy
  Pr  Pr0  1  0.604322  0.870184  0.734138  1
  Nd  Nd1  1  0.863693  0.628626  0.235067  1
  Nd  Nd2  1  0.137683  0.371195  0.766488  1
  Nd  Nd3  1  0.396856  0.131590  0.265266  1
  Si  Si4  1  0.493734  0.753918  0.253800  1
  Si  Si5  1  0.493734  0.239934  0.739816  1
  Si  Si6  1  0.222444  0.973052  0.744034  1
  Si  Si7  1  0.776188  0.523547  0.747072  1
  Si  Si8  1  0.776188  0.029117  0.252641  1
  Si  Si9  1  0.222444  0.478410  0.249392  1
  Si  Si10  1  0.052501  0.898215  0.154286  1
  Si  Si11  1  0.958878  0.105102  0.853776  1
  Si  Si12  1  0.747636  0.394657  0.352979  1
  Si  Si13  1  0.252423  0.603879  0.648544  1
  Os  Os14  1  0.999859  0.750573  0.751551  1
  Os  Os15  1  0.999859  0.248308  0.249286  1
  Os  Os16  1  0.245951  0.859667  0.386285  1
  Pt  Pt17  1  0.750867  0.138895  0.611971  1
  Pt  Pt18  1  0.474250  0.361750  0.112500  1
  Pt  Pt19  1  0.530487  0.639381  0.891107  1
