# generated using pymatgen
data_Zr5U(GaRu2)6
_symmetry_space_group_name_H-M   'P 1'
_cell_length_a   4.48718600
_cell_length_b   6.34653500
_cell_length_c   13.40622900
_cell_angle_alpha   90.00000000
_cell_angle_beta   89.99989764
_cell_angle_gamma   90.00000000
_symmetry_Int_Tables_number   1
_chemical_formula_structural   Zr5U(GaRu2)6
_chemical_formula_sum   'Zr5 U1 Ga6 Ru12'
_cell_volume   381.78370219
_cell_formula_units_Z   1
loop_
 _symmetry_equiv_pos_site_id
 _symmetry_equiv_pos_as_xyz
  1  'x, y, z'
loop_
 _atom_site_type_symbol
 _atom_site_label
 _atom_site_symmetry_multiplicity
 _atom_site_fract_x
 _atom_site_fract_y
 _atom_site_fract_z
 _atom_site_occupancy
  Zr  Zr0  1  0.499998  0.000000  0.169653  1
  Zr  Zr1  1  0.999994  0.500000  0.335877  1
  Zr  Zr2  1  0.500000  0.000000  0.499999  1
  Zr  Zr3  1  0.000006  0.500000  0.664123  1
  Zr  Zr4  1  0.500002  0.000000  0.830349  1
  U  U5  1  0.000001  0.500000  0.000001  1
  Ga  Ga6  1  0.000001  0.000000  0.999999  1
  Ga  Ga7  1  0.499999  0.500000  0.173632  1
  Ga  Ga8  1  0.999997  0.000000  0.334783  1
  Ga  Ga9  1  0.500000  0.500000  0.500000  1
  Ga  Ga10  1  0.000003  0.000000  0.665218  1
  Ga  Ga11  1  0.500001  0.500000  0.826366  1
  Ru  Ru12  1  0.500000  0.253499  0.000000  1
  Ru  Ru13  1  0.500000  0.746501  0.000000  1
  Ru  Ru14  1  0.999998  0.256953  0.159979  1
  Ru  Ru15  1  0.999998  0.743047  0.159979  1
  Ru  Ru16  1  0.499995  0.250304  0.331874  1
  Ru  Ru17  1  0.499995  0.749696  0.331874  1
  Ru  Ru18  1  0.000000  0.249241  0.499999  1
  Ru  Ru19  1  0.000000  0.750759  0.499999  1
  Ru  Ru20  1  0.500004  0.250306  0.668126  1
  Ru  Ru21  1  0.500004  0.749694  0.668126  1
  Ru  Ru22  1  0.000002  0.256952  0.840022  1
  Ru  Ru23  1  0.000002  0.743048  0.840022  1
