# generated using pymatgen
data_Th3Mg3Ir2Au
_symmetry_space_group_name_H-M   'P 1'
_cell_length_a   7.67797100
_cell_length_b   7.67797081
_cell_length_c   4.00668500
_cell_angle_alpha   90.00000000
_cell_angle_beta   90.00000000
_cell_angle_gamma   119.99999653
_symmetry_Int_Tables_number   1
_chemical_formula_structural   Th3Mg3Ir2Au
_chemical_formula_sum   'Th3 Mg3 Ir2 Au1'
_cell_volume   204.55437421
_cell_formula_units_Z   1
loop_
 _symmetry_equiv_pos_site_id
 _symmetry_equiv_pos_as_xyz
  1  'x, y, z'
loop_
 _atom_site_type_symbol
 _atom_site_label
 _atom_site_symmetry_multiplicity
 _atom_site_fract_x
 _atom_site_fract_y
 _atom_site_fract_z
 _atom_site_occupancy
  Th  Th0  1  0.000000  0.576192  0.000000  1
  Th  Th1  1  0.423808  0.423808  0.000000  1
  Th  Th2  1  0.576192  0.000000  0.000000  1
  Mg  Mg3  1  0.000000  0.244003  0.500000  1
  Mg  Mg4  1  0.244003  0.000000  0.500000  1
  Mg  Mg5  1  0.755997  0.755997  0.500000  1
  Ir  Ir6  1  0.333333  0.666667  0.500000  1
  Ir  Ir7  1  0.666667  0.333333  0.500000  1
  Au  Au8  1  0.000000  0.000000  0.000000  1
