# generated using pymatgen
data_Er5Tm5(PtPb3)2
_symmetry_space_group_name_H-M   'P 1'
_cell_length_a   9.13093500
_cell_length_b   9.13093378
_cell_length_c   6.76846400
_cell_angle_alpha   90.00000000
_cell_angle_beta   90.00000000
_cell_angle_gamma   119.99644982
_symmetry_Int_Tables_number   1
_chemical_formula_structural   Er5Tm5(PtPb3)2
_chemical_formula_sum   'Er5 Tm5 Pt2 Pb6'
_cell_volume   488.72745302
_cell_formula_units_Z   1
loop_
 _symmetry_equiv_pos_site_id
 _symmetry_equiv_pos_as_xyz
  1  'x, y, z'
loop_
 _atom_site_type_symbol
 _atom_site_label
 _atom_site_symmetry_multiplicity
 _atom_site_fract_x
 _atom_site_fract_y
 _atom_site_fract_z
 _atom_site_occupancy
  Er  Er0  1  0.755595  0.755595  0.250000  1
  Er  Er1  1  0.333306  0.666660  0.500022  1
  Er  Er2  1  0.666660  0.333306  0.500022  1
  Er  Er3  1  0.333306  0.666660  0.999978  1
  Er  Er4  1  0.666660  0.333306  0.999978  1
  Tm  Tm5  1  0.000010  0.755801  0.750000  1
  Tm  Tm6  1  0.244207  0.000006  0.250000  1
  Tm  Tm7  1  0.244132  0.244132  0.750000  1
  Tm  Tm8  1  0.000006  0.244207  0.250000  1
  Tm  Tm9  1  0.755801  0.000010  0.750000  1
  Pt  Pt10  1  0.000185  0.000185  0.999871  1
  Pt  Pt11  1  0.000185  0.000185  0.500129  1
  Pb  Pb12  1  0.401396  0.999998  0.750000  1
  Pb  Pb13  1  0.598605  0.000058  0.250000  1
  Pb  Pb14  1  0.401252  0.401252  0.250000  1
  Pb  Pb15  1  0.000058  0.598605  0.250000  1
  Pb  Pb16  1  0.999998  0.401396  0.750000  1
  Pb  Pb17  1  0.598637  0.598637  0.750000  1
