# generated using pymatgen
data_Cs3K9(GaSe3)4
_symmetry_space_group_name_H-M   'P 1'
_cell_length_a   13.88785156
_cell_length_b   8.32696015
_cell_length_c   10.63302182
_cell_angle_alpha   53.04804577
_cell_angle_beta   89.54669899
_cell_angle_gamma   89.42265371
_symmetry_Int_Tables_number   1
_chemical_formula_structural   Cs3K9(GaSe3)4
_chemical_formula_sum   'Cs3 K9 Ga4 Se12'
_cell_volume   982.60245750
_cell_formula_units_Z   1
loop_
 _symmetry_equiv_pos_site_id
 _symmetry_equiv_pos_as_xyz
  1  'x, y, z'
loop_
 _atom_site_type_symbol
 _atom_site_label
 _atom_site_symmetry_multiplicity
 _atom_site_fract_x
 _atom_site_fract_y
 _atom_site_fract_z
 _atom_site_occupancy
  Cs  Cs0  1  0.312147  0.164726  0.061030  1
  Cs  Cs1  1  0.685802  0.838556  0.938296  1
  Cs  Cs2  1  0.815392  0.839294  0.440063  1
  K  K3  1  0.897512  0.317547  0.403121  1
  K  K4  1  0.610797  0.361781  0.474547  1
  K  K5  1  0.112032  0.637855  0.025447  1
  K  K6  1  0.387207  0.639848  0.525676  1
  K  K7  1  0.890412  0.361080  0.974276  1
  K  K8  1  0.606697  0.315322  0.903833  1
  K  K9  1  0.107336  0.683538  0.596757  1
  K  K10  1  0.392214  0.685438  0.095818  1
  K  K11  1  0.188182  0.155219  0.570347  1
  Ga  Ga12  1  0.066783  0.941281  0.159788  1
  Ga  Ga13  1  0.562656  0.051706  0.341893  1
  Ga  Ga14  1  0.431870  0.955141  0.656218  1
  Ga  Ga15  1  0.937209  0.051321  0.840332  1
  Se  Se16  1  0.407316  0.187423  0.364012  1
  Se  Se17  1  0.910666  0.818759  0.133916  1
  Se  Se18  1  0.586675  0.816591  0.635346  1
  Se  Se19  1  0.093836  0.173885  0.863922  1
  Se  Se20  1  0.685530  0.309594  0.206122  1
  Se  Se21  1  0.186905  0.673060  0.301682  1
  Se  Se22  1  0.305643  0.705404  0.787585  1
  Se  Se23  1  0.813602  0.310366  0.706269  1
  Se  Se24  1  0.549414  0.862329  0.238444  1
  Se  Se25  1  0.054764  0.136749  0.258994  1
  Se  Se26  1  0.448249  0.141838  0.761267  1
  Se  Se27  1  0.953149  0.864349  0.734998  1
