# generated using pymatgen
data_Hf18CuRe8P
_symmetry_space_group_name_H-M   'P 1'
_cell_length_a   8.55255800
_cell_length_b   8.55255757
_cell_length_c   8.63726600
_cell_angle_alpha   90.00000000
_cell_angle_beta   90.00000000
_cell_angle_gamma   120.00000166
_symmetry_Int_Tables_number   1
_chemical_formula_structural   Hf18CuRe8P
_chemical_formula_sum   'Hf18 Cu1 Re8 P1'
_cell_volume   547.14061403
_cell_formula_units_Z   1
loop_
 _symmetry_equiv_pos_site_id
 _symmetry_equiv_pos_as_xyz
  1  'x, y, z'
loop_
 _atom_site_type_symbol
 _atom_site_label
 _atom_site_symmetry_multiplicity
 _atom_site_fract_x
 _atom_site_fract_y
 _atom_site_fract_z
 _atom_site_occupancy
  Hf  Hf0  1  0.196337  0.803663  0.447196  1
  Hf  Hf1  1  0.196337  0.392674  0.447196  1
  Hf  Hf2  1  0.607326  0.803663  0.447196  1
  Hf  Hf3  1  0.804290  0.195710  0.549892  1
  Hf  Hf4  1  0.804290  0.608582  0.549892  1
  Hf  Hf5  1  0.391418  0.195710  0.549892  1
  Hf  Hf6  1  0.804290  0.195710  0.950108  1
  Hf  Hf7  1  0.804290  0.608582  0.950108  1
  Hf  Hf8  1  0.391418  0.195710  0.950108  1
  Hf  Hf9  1  0.196337  0.803663  0.052804  1
  Hf  Hf10  1  0.196337  0.392674  0.052804  1
  Hf  Hf11  1  0.607326  0.803663  0.052804  1
  Hf  Hf12  1  0.541638  0.458362  0.250000  1
  Hf  Hf13  1  0.541638  0.083275  0.250000  1
  Hf  Hf14  1  0.916725  0.458362  0.250000  1
  Hf  Hf15  1  0.459240  0.540760  0.750000  1
  Hf  Hf16  1  0.459240  0.918479  0.750000  1
  Hf  Hf17  1  0.081521  0.540760  0.750000  1
  Cu  Cu18  1  0.333333  0.666667  0.250000  1
  Re  Re19  1  0.889769  0.110231  0.250000  1
  Re  Re20  1  0.889769  0.779536  0.250000  1
  Re  Re21  1  0.220464  0.110231  0.250000  1
  Re  Re22  1  0.109773  0.890227  0.750000  1
  Re  Re23  1  0.109773  0.219547  0.750000  1
  Re  Re24  1  0.780453  0.890227  0.750000  1
  Re  Re25  1  0.000000  0.000000  0.499409  1
  Re  Re26  1  0.000000  0.000000  0.000591  1
  P  P27  1  0.666667  0.333333  0.750000  1
