# generated using pymatgen
data_Nd5GdRuBr10
_symmetry_space_group_name_H-M   'P 1'
_cell_length_a   7.56759947
_cell_length_b   9.49834976
_cell_length_c   9.45827700
_cell_angle_alpha   107.22265504
_cell_angle_beta   104.57000592
_cell_angle_gamma   96.48433146
_symmetry_Int_Tables_number   1
_chemical_formula_structural   Nd5GdRuBr10
_chemical_formula_sum   'Nd5 Gd1 Ru1 Br10'
_cell_volume   615.43978222
_cell_formula_units_Z   1
loop_
 _symmetry_equiv_pos_site_id
 _symmetry_equiv_pos_as_xyz
  1  'x, y, z'
loop_
 _atom_site_type_symbol
 _atom_site_label
 _atom_site_symmetry_multiplicity
 _atom_site_fract_x
 _atom_site_fract_y
 _atom_site_fract_z
 _atom_site_occupancy
  Nd  Nd0  1  0.369306  0.181737  0.136775  1
  Nd  Nd1  1  0.033858  0.912532  0.708773  1
  Nd  Nd2  1  0.963471  0.085800  0.289952  1
  Nd  Nd3  1  0.126165  0.751990  0.048120  1
  Nd  Nd4  1  0.870349  0.247155  0.949863  1
  Gd  Gd5  1  0.633908  0.820042  0.865052  1
  Ru  Ru6  1  0.999740  0.000224  0.999590  1
  Br  Br7  1  0.653558  0.731930  0.558453  1
  Br  Br8  1  0.342684  0.267287  0.447236  1
  Br  Br9  1  0.223626  0.658796  0.749352  1
  Br  Br10  1  0.789354  0.346948  0.254605  1
  Br  Br11  1  0.455064  0.083935  0.820705  1
  Br  Br12  1  0.545068  0.911231  0.175739  1
  Br  Br13  1  0.247494  0.451942  0.081749  1
  Br  Br14  1  0.747657  0.550139  0.915440  1
  Br  Br15  1  0.084855  0.821310  0.366474  1
  Br  Br16  1  0.913841  0.177002  0.632123  1
