# generated using pymatgen
data_HfZr9BeInSiSb5
_symmetry_space_group_name_H-M   'P 1'
_cell_length_a   8.60690750
_cell_length_b   8.61043583
_cell_length_c   5.82487800
_cell_angle_alpha   90.01692835
_cell_angle_beta   89.96612942
_cell_angle_gamma   119.98643807
_symmetry_Int_Tables_number   1
_chemical_formula_structural   HfZr9BeInSiSb5
_chemical_formula_sum   'Hf1 Zr9 Be1 In1 Si1 Sb5'
_cell_volume   373.89442833
_cell_formula_units_Z   1
loop_
 _symmetry_equiv_pos_site_id
 _symmetry_equiv_pos_as_xyz
  1  'x, y, z'
loop_
 _atom_site_type_symbol
 _atom_site_label
 _atom_site_symmetry_multiplicity
 _atom_site_fract_x
 _atom_site_fract_y
 _atom_site_fract_z
 _atom_site_occupancy
  Hf  Hf0  1  0.256068  0.000000  0.243389  1
  Zr  Zr1  1  0.254859  0.252375  0.755650  1
  Zr  Zr2  1  0.002482  0.747625  0.755650  1
  Zr  Zr3  1  0.999798  0.258408  0.243898  1
  Zr  Zr4  1  0.741390  0.741592  0.243898  1
  Zr  Zr5  1  0.748239  0.000000  0.756460  1
  Zr  Zr6  1  0.330695  0.663541  0.001264  1
  Zr  Zr7  1  0.667208  0.336824  0.499034  1
  Zr  Zr8  1  0.667156  0.336459  0.001264  1
  Zr  Zr9  1  0.330383  0.663176  0.499034  1
  Be  Be10  1  0.999578  0.000000  0.006127  1
  In  In11  1  0.608229  0.000000  0.252052  1
  Si  Si12  1  0.999400  0.000000  0.493020  1
  Sb  Sb13  1  0.606629  0.608418  0.749551  1
  Sb  Sb14  1  0.998212  0.391582  0.749551  1
  Sb  Sb15  1  0.000163  0.609687  0.250013  1
  Sb  Sb16  1  0.390475  0.390313  0.250013  1
  Sb  Sb17  1  0.399036  0.000000  0.750131  1
