# generated using pymatgen
data_Pr10Pb6C
_symmetry_space_group_name_H-M   'P 1'
_cell_length_a   9.48465000
_cell_length_b   9.48465237
_cell_length_c   7.00018100
_cell_angle_alpha   90.00000000
_cell_angle_beta   90.00000000
_cell_angle_gamma   119.99999873
_symmetry_Int_Tables_number   1
_chemical_formula_structural   Pr10Pb6C
_chemical_formula_sum   'Pr10 Pb6 C1'
_cell_volume   545.35918714
_cell_formula_units_Z   1
loop_
 _symmetry_equiv_pos_site_id
 _symmetry_equiv_pos_as_xyz
  1  'x, y, z'
loop_
 _atom_site_type_symbol
 _atom_site_label
 _atom_site_symmetry_multiplicity
 _atom_site_fract_x
 _atom_site_fract_y
 _atom_site_fract_z
 _atom_site_occupancy
  Pr  Pr0  1  0.333333  0.666667  0.500000  1
  Pr  Pr1  1  0.666667  0.333333  0.500000  1
  Pr  Pr2  1  0.666667  0.333333  0.000000  1
  Pr  Pr3  1  0.333333  0.666667  0.000000  1
  Pr  Pr4  1  0.000000  0.773634  0.277825  1
  Pr  Pr5  1  0.226366  0.226366  0.277825  1
  Pr  Pr6  1  0.773634  0.000000  0.277825  1
  Pr  Pr7  1  0.000000  0.226366  0.722175  1
  Pr  Pr8  1  0.773634  0.773634  0.722175  1
  Pr  Pr9  1  0.226366  0.000000  0.722175  1
  Pb  Pb10  1  0.000000  0.400074  0.250630  1
  Pb  Pb11  1  0.599926  0.599926  0.250630  1
  Pb  Pb12  1  0.400074  0.000000  0.250630  1
  Pb  Pb13  1  0.000000  0.599926  0.749370  1
  Pb  Pb14  1  0.400074  0.400074  0.749370  1
  Pb  Pb15  1  0.599926  0.000000  0.749370  1
  C  C16  1  0.000000  0.000000  0.500000  1
