# generated using pymatgen
data_La2Nd14Cd4Co3Ni
_symmetry_space_group_name_H-M   'P 1'
_cell_length_a   9.84183961
_cell_length_b   9.85156589
_cell_length_c   9.87549900
_cell_angle_alpha   59.91960111
_cell_angle_beta   59.88679829
_cell_angle_gamma   59.92604338
_symmetry_Int_Tables_number   1
_chemical_formula_structural   La2Nd14Cd4Co3Ni
_chemical_formula_sum   'La2 Nd14 Cd4 Co3 Ni1'
_cell_volume   675.68757189
_cell_formula_units_Z   1
loop_
 _symmetry_equiv_pos_site_id
 _symmetry_equiv_pos_as_xyz
  1  'x, y, z'
loop_
 _atom_site_type_symbol
 _atom_site_label
 _atom_site_symmetry_multiplicity
 _atom_site_fract_x
 _atom_site_fract_y
 _atom_site_fract_z
 _atom_site_occupancy
  La  La0  1  0.591690  0.597161  0.597912  1
  La  La1  1  0.591690  0.597161  0.213237  1
  Nd  Nd2  1  0.595298  0.206230  0.599236  1
  Nd  Nd3  1  0.208884  0.596280  0.597418  1
  Nd  Nd4  1  0.064920  0.438596  0.440086  1
  Nd  Nd5  1  0.437239  0.062191  0.060642  1
  Nd  Nd6  1  0.437239  0.062191  0.439930  1
  Nd  Nd7  1  0.064920  0.438596  0.056397  1
  Nd  Nd8  1  0.437763  0.438243  0.061997  1
  Nd  Nd9  1  0.064073  0.055934  0.439997  1
  Nd  Nd10  1  0.187479  0.811967  0.813226  1
  Nd  Nd11  1  0.810246  0.188706  0.187447  1
  Nd  Nd12  1  0.810246  0.188706  0.813601  1
  Nd  Nd13  1  0.187479  0.811967  0.187329  1
  Nd  Nd14  1  0.812035  0.814416  0.186775  1
  Nd  Nd15  1  0.187791  0.188840  0.811685  1
  Cd  Cd16  1  0.830341  0.830106  0.828617  1
  Cd  Cd17  1  0.830341  0.830106  0.510935  1
  Cd  Cd18  1  0.831314  0.510154  0.829265  1
  Cd  Cd19  1  0.509055  0.831623  0.829661  1
  Co  Co20  1  0.393999  0.392155  0.388735  1
  Co  Co21  1  0.393999  0.392155  0.825111  1
  Co  Co22  1  0.395046  0.824970  0.389992  1
  Ni  Ni23  1  0.826911  0.391546  0.390772  1
