# generated using pymatgen
data_Pr15ThMg2(HgIr2)2
_symmetry_space_group_name_H-M   'P 1'
_cell_length_a   10.05934015
_cell_length_b   10.05933918
_cell_length_c   10.08183605
_cell_angle_alpha   59.80700455
_cell_angle_beta   59.80700667
_cell_angle_gamma   60.09402292
_symmetry_Int_Tables_number   1
_chemical_formula_structural   Pr15ThMg2(HgIr2)2
_chemical_formula_sum   'Pr15 Th1 Mg2 Hg2 Ir4'
_cell_volume   719.77432034
_cell_formula_units_Z   1
loop_
 _symmetry_equiv_pos_site_id
 _symmetry_equiv_pos_as_xyz
  1  'x, y, z'
loop_
 _atom_site_type_symbol
 _atom_site_label
 _atom_site_symmetry_multiplicity
 _atom_site_fract_x
 _atom_site_fract_y
 _atom_site_fract_z
 _atom_site_occupancy
  Pr  Pr0  1  0.348417  0.348417  0.956728  1
  Pr  Pr1  1  0.349614  0.953992  0.349122  1
  Pr  Pr2  1  0.953992  0.349614  0.349122  1
  Pr  Pr3  1  0.810742  0.188449  0.189661  1
  Pr  Pr4  1  0.188018  0.808922  0.810257  1
  Pr  Pr5  1  0.188449  0.810742  0.189661  1
  Pr  Pr6  1  0.808922  0.188018  0.810257  1
  Pr  Pr7  1  0.187946  0.187946  0.812251  1
  Pr  Pr8  1  0.803867  0.803867  0.194768  1
  Pr  Pr9  1  0.940460  0.561021  0.562663  1
  Pr  Pr10  1  0.558285  0.938553  0.939763  1
  Pr  Pr11  1  0.561021  0.940460  0.562663  1
  Pr  Pr12  1  0.938553  0.558285  0.939763  1
  Pr  Pr13  1  0.561260  0.561260  0.941902  1
  Pr  Pr14  1  0.938613  0.938613  0.558622  1
  Th  Th15  1  0.343311  0.343311  0.343778  1
  Mg  Mg16  1  0.578509  0.273557  0.571071  1
  Mg  Mg17  1  0.273557  0.578509  0.571071  1
  Hg  Hg18  1  0.581247  0.581247  0.588117  1
  Hg  Hg19  1  0.580270  0.580270  0.249459  1
  Ir  Ir20  1  0.141576  0.141576  0.143016  1
  Ir  Ir21  1  0.146159  0.146159  0.571768  1
  Ir  Ir22  1  0.146364  0.570850  0.147259  1
  Ir  Ir23  1  0.570850  0.146364  0.147259  1
