# generated using pymatgen
data_YPa2Zn11
_symmetry_space_group_name_H-M   'P 1'
_cell_length_a   8.11086678
_cell_length_b   8.11086692
_cell_length_c   8.11086629
_cell_angle_alpha   148.46674855
_cell_angle_beta   113.20930292
_cell_angle_gamma   75.73375925
_symmetry_Int_Tables_number   1
_chemical_formula_structural   YPa2Zn11
_chemical_formula_sum   'Y1 Pa2 Zn11'
_cell_volume   251.99399292
_cell_formula_units_Z   1
loop_
 _symmetry_equiv_pos_site_id
 _symmetry_equiv_pos_as_xyz
  1  'x, y, z'
loop_
 _atom_site_type_symbol
 _atom_site_label
 _atom_site_symmetry_multiplicity
 _atom_site_fract_x
 _atom_site_fract_y
 _atom_site_fract_z
 _atom_site_occupancy
  Y  Y0  1  0.000000  0.000000  0.000000  1
  Pa  Pa1  1  0.293767  0.293767  0.000000  1
  Pa  Pa2  1  0.706233  0.706233  0.000000  1
  Zn  Zn3  1  0.500000  0.000000  0.500000  1
  Zn  Zn4  1  0.682574  0.500000  0.182574  1
  Zn  Zn5  1  0.317426  0.500000  0.817426  1
  Zn  Zn6  1  0.704561  0.343288  0.361272  1
  Zn  Zn7  1  0.295439  0.656712  0.638728  1
  Zn  Zn8  1  0.982016  0.343288  0.638728  1
  Zn  Zn9  1  0.017984  0.656712  0.361272  1
  Zn  Zn10  1  0.426076  0.142334  0.283742  1
  Zn  Zn11  1  0.573924  0.857666  0.716258  1
  Zn  Zn12  1  0.858592  0.142334  0.716258  1
  Zn  Zn13  1  0.141408  0.857666  0.283742  1
