# generated using pymatgen
data_Y8Pd10Pt14Pb
_symmetry_space_group_name_H-M   'P 1'
_cell_length_a   8.44525700
_cell_length_b   8.45478400
_cell_length_c   8.45478400
_cell_angle_alpha   90.00000000
_cell_angle_beta   90.00000000
_cell_angle_gamma   90.00000000
_symmetry_Int_Tables_number   1
_chemical_formula_structural   Y8Pd10Pt14Pb
_chemical_formula_sum   'Y8 Pd10 Pt14 Pb1'
_cell_volume   603.69545188
_cell_formula_units_Z   1
loop_
 _symmetry_equiv_pos_site_id
 _symmetry_equiv_pos_as_xyz
  1  'x, y, z'
loop_
 _atom_site_type_symbol
 _atom_site_label
 _atom_site_symmetry_multiplicity
 _atom_site_fract_x
 _atom_site_fract_y
 _atom_site_fract_z
 _atom_site_occupancy
  Y  Y0  1  0.252263  0.252389  0.252389  1
  Y  Y1  1  0.747748  0.747118  0.747118  1
  Y  Y2  1  0.747748  0.747118  0.252882  1
  Y  Y3  1  0.747748  0.252882  0.747118  1
  Y  Y4  1  0.252263  0.252389  0.747611  1
  Y  Y5  1  0.252263  0.747611  0.252389  1
  Y  Y6  1  0.252263  0.747611  0.747611  1
  Y  Y7  1  0.747748  0.252882  0.252882  1
  Pd  Pd8  1  0.744964  0.500000  0.500000  1
  Pd  Pd9  1  0.499888  0.255502  0.500000  1
  Pd  Pd10  1  0.499888  0.744498  0.500000  1
  Pd  Pd11  1  0.499888  0.500000  0.255502  1
  Pd  Pd12  1  0.499888  0.500000  0.744498  1
  Pd  Pd13  1  0.684163  0.000000  0.000000  1
  Pd  Pd14  1  0.999601  0.316691  0.000000  1
  Pd  Pd15  1  0.999601  0.683309  0.000000  1
  Pd  Pd16  1  0.999601  0.000000  0.316691  1
  Pd  Pd17  1  0.999601  0.000000  0.683309  1
  Pt  Pt18  1  0.266316  0.500000  0.000000  1
  Pt  Pt19  1  0.732763  0.500000  0.000000  1
  Pt  Pt20  1  0.999992  0.266435  0.500000  1
  Pt  Pt21  1  0.500010  0.267355  0.000000  1
  Pt  Pt22  1  0.999992  0.733565  0.500000  1
  Pt  Pt23  1  0.500010  0.732645  0.000000  1
  Pt  Pt24  1  0.500010  0.000000  0.267355  1
  Pt  Pt25  1  0.266316  0.000000  0.500000  1
  Pt  Pt26  1  0.500010  0.000000  0.732645  1
  Pt  Pt27  1  0.732763  0.000000  0.500000  1
  Pt  Pt28  1  0.999992  0.500000  0.266435  1
  Pt  Pt29  1  0.999992  0.500000  0.733565  1
  Pt  Pt30  1  0.255091  0.500000  0.500000  1
  Pt  Pt31  1  0.318916  0.000000  0.000000  1
  Pb  Pb32  1  0.000699  0.000000  0.000000  1
