# generated using pymatgen
data_Th3Sc9Fe4
_symmetry_space_group_name_H-M   'P 1'
_cell_length_a   5.89467576
_cell_length_b   6.75918845
_cell_length_c   8.78331300
_cell_angle_alpha   90.00000000
_cell_angle_beta   90.00000000
_cell_angle_gamma   89.86864766
_symmetry_Int_Tables_number   1
_chemical_formula_structural   Th3Sc9Fe4
_chemical_formula_sum   'Th3 Sc9 Fe4'
_cell_volume   349.95459027
_cell_formula_units_Z   1
loop_
 _symmetry_equiv_pos_site_id
 _symmetry_equiv_pos_as_xyz
  1  'x, y, z'
loop_
 _atom_site_type_symbol
 _atom_site_label
 _atom_site_symmetry_multiplicity
 _atom_site_fract_x
 _atom_site_fract_y
 _atom_site_fract_z
 _atom_site_occupancy
  Th  Th0  1  0.360777  0.552301  0.250000  1
  Th  Th1  1  0.143033  0.052959  0.250000  1
  Th  Th2  1  0.850078  0.951458  0.750000  1
  Sc  Sc3  1  0.665687  0.174919  0.063474  1
  Sc  Sc4  1  0.833184  0.663913  0.437098  1
  Sc  Sc5  1  0.333219  0.826877  0.929875  1
  Sc  Sc6  1  0.172909  0.333150  0.572989  1
  Sc  Sc7  1  0.665687  0.174919  0.436526  1
  Sc  Sc8  1  0.172909  0.333150  0.927011  1
  Sc  Sc9  1  0.333219  0.826877  0.570125  1
  Sc  Sc10  1  0.636782  0.456175  0.750000  1
  Sc  Sc11  1  0.833184  0.663913  0.062902  1
  Fe  Fe12  1  0.960383  0.369759  0.250000  1
  Fe  Fe13  1  0.461277  0.119384  0.750000  1
  Fe  Fe14  1  0.543583  0.870147  0.250000  1
  Fe  Fe15  1  0.034086  0.630101  0.750000  1
