# generated using pymatgen
data_Tb8Ta3Ti8Si16Ru
_symmetry_space_group_name_H-M   'P 1'
_cell_length_a   7.04301437
_cell_length_b   7.04301526
_cell_length_c   12.94404904
_cell_angle_alpha   90.09496027
_cell_angle_beta   89.90503974
_cell_angle_gamma   89.77349794
_symmetry_Int_Tables_number   1
_chemical_formula_structural   Tb8Ta3Ti8Si16Ru
_chemical_formula_sum   'Tb8 Ta3 Ti8 Si16 Ru1'
_cell_volume   642.07056738
_cell_formula_units_Z   1
loop_
 _symmetry_equiv_pos_site_id
 _symmetry_equiv_pos_as_xyz
  1  'x, y, z'
loop_
 _atom_site_type_symbol
 _atom_site_label
 _atom_site_symmetry_multiplicity
 _atom_site_fract_x
 _atom_site_fract_y
 _atom_site_fract_z
 _atom_site_occupancy
  Tb  Tb0  1  0.340002  0.003324  0.467847  1
  Tb  Tb1  1  0.497217  0.840824  0.718322  1
  Tb  Tb2  1  0.501251  0.159915  0.215648  1
  Tb  Tb3  1  0.840824  0.497217  0.281678  1
  Tb  Tb4  1  0.159915  0.501251  0.784352  1
  Tb  Tb5  1  0.658884  0.998813  0.968312  1
  Tb  Tb6  1  0.003324  0.340002  0.532153  1
  Tb  Tb7  1  0.998813  0.658884  0.031688  1
  Ta  Ta8  1  0.174588  0.827034  0.248164  1
  Ta  Ta9  1  0.827034  0.174588  0.751836  1
  Ta  Ta10  1  0.674528  0.674528  0.500000  1
  Ti  Ti11  1  0.150109  0.004701  0.875306  1
  Ti  Ti12  1  0.490956  0.657342  0.126262  1
  Ti  Ti13  1  0.509581  0.347572  0.628221  1
  Ti  Ti14  1  0.657342  0.490956  0.873738  1
  Ti  Ti15  1  0.347572  0.509581  0.371779  1
  Ti  Ti16  1  0.846481  0.991529  0.375367  1
  Ti  Ti17  1  0.004701  0.150109  0.124694  1
  Ti  Ti18  1  0.991529  0.846481  0.624633  1
  Si  Si19  1  0.201726  0.130563  0.685849  1
  Si  Si20  1  0.373881  0.698391  0.935116  1
  Si  Si21  1  0.630187  0.297843  0.435373  1
  Si  Si22  1  0.698391  0.373881  0.064884  1
  Si  Si23  1  0.297843  0.630187  0.564627  1
  Si  Si24  1  0.798122  0.869138  0.185017  1
  Si  Si25  1  0.130563  0.201726  0.314151  1
  Si  Si26  1  0.869138  0.798122  0.814983  1
  Si  Si27  1  0.287684  0.953982  0.063048  1
  Si  Si28  1  0.546855  0.792992  0.315244  1
  Si  Si29  1  0.450365  0.209457  0.817804  1
  Si  Si30  1  0.792992  0.546855  0.684756  1
  Si  Si31  1  0.209457  0.450365  0.182196  1
  Si  Si32  1  0.708147  0.047405  0.565105  1
  Si  Si33  1  0.953982  0.287684  0.936952  1
  Si  Si34  1  0.047405  0.708147  0.434895  1
  Ru  Ru35  1  0.328609  0.328609  0.000000  1
