# generated using pymatgen
data_Y4Ga20Pt11
_symmetry_space_group_name_H-M   'P 1'
_cell_length_a   4.16699844
_cell_length_b   10.98685488
_cell_length_c   13.74280113
_cell_angle_alpha   82.36836313
_cell_angle_beta   81.27995582
_cell_angle_gamma   79.06848144
_symmetry_Int_Tables_number   1
_chemical_formula_structural   Y4Ga20Pt11
_chemical_formula_sum   'Y4 Ga20 Pt11'
_cell_volume   607.09859819
_cell_formula_units_Z   1
loop_
 _symmetry_equiv_pos_site_id
 _symmetry_equiv_pos_as_xyz
  1  'x, y, z'
loop_
 _atom_site_type_symbol
 _atom_site_label
 _atom_site_symmetry_multiplicity
 _atom_site_fract_x
 _atom_site_fract_y
 _atom_site_fract_z
 _atom_site_occupancy
  Y  Y0  1  0.123586  0.089059  0.663769  1
  Y  Y1  1  0.876414  0.910941  0.336231  1
  Y  Y2  1  0.774124  0.630696  0.821056  1
  Y  Y3  1  0.225876  0.369304  0.178944  1
  Ga  Ga4  1  0.009075  0.070638  0.911213  1
  Ga  Ga5  1  0.990925  0.929362  0.088787  1
  Ga  Ga6  1  0.065935  0.673881  0.194250  1
  Ga  Ga7  1  0.934065  0.326119  0.805750  1
  Ga  Ga8  1  0.101613  0.342003  0.454770  1
  Ga  Ga9  1  0.898387  0.657997  0.545230  1
  Ga  Ga10  1  0.202439  0.603578  0.991544  1
  Ga  Ga11  1  0.797561  0.396422  0.008456  1
  Ga  Ga12  1  0.258371  0.781746  0.701512  1
  Ga  Ga13  1  0.741629  0.218254  0.298488  1
  Ga  Ga14  1  0.302716  0.898890  0.495678  1
  Ga  Ga15  1  0.697284  0.101110  0.504322  1
  Ga  Ga16  1  0.386784  0.525500  0.700931  1
  Ga  Ga17  1  0.613216  0.474500  0.299069  1
  Ga  Ga18  1  0.397505  0.203311  0.001679  1
  Ga  Ga19  1  0.602495  0.796689  0.998321  1
  Ga  Ga20  1  0.543445  0.283899  0.629211  1
  Ga  Ga21  1  0.456555  0.716101  0.370789  1
  Ga  Ga22  1  0.636623  0.935148  0.791607  1
  Ga  Ga23  1  0.363377  0.064852  0.208393  1
  Pt  Pt24  1  0.500000  0.500000  0.500000  1
  Pt  Pt25  1  0.028047  0.574709  0.369197  1
  Pt  Pt26  1  0.971953  0.425291  0.630803  1
  Pt  Pt27  1  0.137910  0.835453  0.888727  1
  Pt  Pt28  1  0.862090  0.164547  0.111273  1
  Pt  Pt29  1  0.240190  0.127529  0.392089  1
  Pt  Pt30  1  0.759810  0.872471  0.607911  1
  Pt  Pt31  1  0.345177  0.417393  0.892253  1
  Pt  Pt32  1  0.654823  0.582607  0.107747  1
  Pt  Pt33  1  0.505961  0.169333  0.818747  1
  Pt  Pt34  1  0.494039  0.830667  0.181253  1
