# generated using pymatgen
data_Lu4Zr4Ir3Pt
_symmetry_space_group_name_H-M   'P 1'
_cell_length_a   4.59049300
_cell_length_b   7.01350563
_cell_length_c   8.19433311
_cell_angle_alpha   89.77286910
_cell_angle_beta   90.00000000
_cell_angle_gamma   90.00000000
_symmetry_Int_Tables_number   1
_chemical_formula_structural   Lu4Zr4Ir3Pt
_chemical_formula_sum   'Lu4 Zr4 Ir3 Pt1'
_cell_volume   263.81815669
_cell_formula_units_Z   1
loop_
 _symmetry_equiv_pos_site_id
 _symmetry_equiv_pos_as_xyz
  1  'x, y, z'
loop_
 _atom_site_type_symbol
 _atom_site_label
 _atom_site_symmetry_multiplicity
 _atom_site_fract_x
 _atom_site_fract_y
 _atom_site_fract_z
 _atom_site_occupancy
  Lu  Lu0  1  0.250000  0.979661  0.321732  1
  Lu  Lu1  1  0.250000  0.484893  0.173807  1
  Lu  Lu2  1  0.750000  0.016306  0.677359  1
  Lu  Lu3  1  0.750000  0.517497  0.826466  1
  Zr  Zr4  1  0.250000  0.355849  0.579058  1
  Zr  Zr5  1  0.250000  0.853792  0.924847  1
  Zr  Zr6  1  0.750000  0.649707  0.426682  1
  Zr  Zr7  1  0.750000  0.145275  0.073651  1
  Ir  Ir8  1  0.250000  0.235173  0.903936  1
  Ir  Ir9  1  0.250000  0.735244  0.594238  1
  Ir  Ir10  1  0.750000  0.763689  0.096212  1
  Pt  Pt11  1  0.750000  0.262915  0.402012  1
