# generated using pymatgen
data_Y4Ho4Sc12Si15As
_symmetry_space_group_name_H-M   'P 1'
_cell_length_a   7.13147792
_cell_length_b   7.36283533
_cell_length_c   13.96054212
_cell_angle_alpha   90.04210281
_cell_angle_beta   88.75662642
_cell_angle_gamma   90.17222978
_symmetry_Int_Tables_number   1
_chemical_formula_structural   Y4Ho4Sc12Si15As
_chemical_formula_sum   'Y4 Ho4 Sc12 Si15 As1'
_cell_volume   732.86264121
_cell_formula_units_Z   1
loop_
 _symmetry_equiv_pos_site_id
 _symmetry_equiv_pos_as_xyz
  1  'x, y, z'
loop_
 _atom_site_type_symbol
 _atom_site_label
 _atom_site_symmetry_multiplicity
 _atom_site_fract_x
 _atom_site_fract_y
 _atom_site_fract_z
 _atom_site_occupancy
  Y  Y0  1  0.011433  0.176062  0.097216  1
  Y  Y1  1  0.989066  0.824550  0.902583  1
  Y  Y2  1  0.489338  0.675123  0.903003  1
  Y  Y3  1  0.994530  0.821976  0.595515  1
  Ho  Ho4  1  0.511335  0.324966  0.097528  1
  Ho  Ho5  1  0.003905  0.178357  0.403657  1
  Ho  Ho6  1  0.503276  0.321072  0.402110  1
  Ho  Ho7  1  0.501342  0.677710  0.597439  1
  Sc  Sc8  1  0.166609  0.500504  0.749715  1
  Sc  Sc9  1  0.833074  0.499158  0.253090  1
  Sc  Sc10  1  0.333478  0.001020  0.251679  1
  Sc  Sc11  1  0.666526  0.999193  0.748758  1
  Sc  Sc12  1  0.342655  0.170612  0.626458  1
  Sc  Sc13  1  0.658410  0.827881  0.373874  1
  Sc  Sc14  1  0.156394  0.671753  0.377030  1
  Sc  Sc15  1  0.667204  0.823375  0.125747  1
  Sc  Sc16  1  0.840879  0.328965  0.622568  1
  Sc  Sc17  1  0.332537  0.176231  0.874024  1
  Sc  Sc18  1  0.833578  0.322857  0.874380  1
  Sc  Sc19  1  0.166767  0.677033  0.125265  1
  Si  Si20  1  0.038152  0.117087  0.749393  1
  Si  Si21  1  0.961750  0.883601  0.249780  1
  Si  Si22  1  0.458345  0.616726  0.249076  1
  Si  Si23  1  0.540716  0.383149  0.750417  1
  Si  Si24  1  0.290373  0.870940  0.749994  1
  Si  Si25  1  0.710427  0.128120  0.249351  1
  Si  Si26  1  0.209413  0.373560  0.249982  1
  Si  Si27  1  0.791951  0.626545  0.750148  1
  Si  Si28  1  0.810116  0.539710  0.457146  1
  Si  Si29  1  0.329367  0.962383  0.460485  1
  Si  Si30  1  0.842414  0.535170  0.039494  1
  Si  Si31  1  0.670097  0.038273  0.539851  1
  Si  Si32  1  0.156692  0.464971  0.960401  1
  Si  Si33  1  0.655830  0.035360  0.960023  1
  Si  Si34  1  0.344301  0.966178  0.040267  1
  As  As35  1  0.187722  0.459823  0.542554  1
