# generated using pymatgen
data_SmTh2(GaRu)3
_symmetry_space_group_name_H-M   'P 1'
_cell_length_a   7.34924635
_cell_length_b   7.34924549
_cell_length_c   3.96500600
_cell_angle_alpha   90.00000000
_cell_angle_beta   90.00000000
_cell_angle_gamma   121.93460662
_symmetry_Int_Tables_number   1
_chemical_formula_structural   SmTh2(GaRu)3
_chemical_formula_sum   'Sm1 Th2 Ga3 Ru3'
_cell_volume   181.74364328
_cell_formula_units_Z   1
loop_
 _symmetry_equiv_pos_site_id
 _symmetry_equiv_pos_as_xyz
  1  'x, y, z'
loop_
 _atom_site_type_symbol
 _atom_site_label
 _atom_site_symmetry_multiplicity
 _atom_site_fract_x
 _atom_site_fract_y
 _atom_site_fract_z
 _atom_site_occupancy
  Sm  Sm0  1  0.413798  0.413798  0.500000  1
  Th  Th1  1  0.583176  0.000816  0.500000  1
  Th  Th2  1  0.000816  0.583176  0.500000  1
  Ga  Ga3  1  0.744839  0.744839  0.000000  1
  Ga  Ga4  1  0.241736  0.010506  0.000000  1
  Ga  Ga5  1  0.010506  0.241736  0.000000  1
  Ru  Ru6  1  0.688404  0.330637  0.000000  1
  Ru  Ru7  1  0.330637  0.688404  0.000000  1
  Ru  Ru8  1  0.986086  0.986086  0.500000  1
