# generated using pymatgen
data_Hf5CuSn2Sb
_symmetry_space_group_name_H-M   'P 1'
_cell_length_a   8.58431644
_cell_length_b   8.58431702
_cell_length_c   5.78293900
_cell_angle_alpha   90.00000000
_cell_angle_beta   90.00000000
_cell_angle_gamma   120.03674610
_symmetry_Int_Tables_number   1
_chemical_formula_structural   Hf5CuSn2Sb
_chemical_formula_sum   'Hf10 Cu2 Sn4 Sb2'
_cell_volume   368.91794489
_cell_formula_units_Z   2
loop_
 _symmetry_equiv_pos_site_id
 _symmetry_equiv_pos_as_xyz
  1  'x, y, z'
loop_
 _atom_site_type_symbol
 _atom_site_label
 _atom_site_symmetry_multiplicity
 _atom_site_fract_x
 _atom_site_fract_y
 _atom_site_fract_z
 _atom_site_occupancy
  Hf  Hf0  1  0.666885  0.332847  0.998963  1
  Hf  Hf1  1  0.332847  0.666885  0.998963  1
  Hf  Hf2  1  0.332847  0.666885  0.501037  1
  Hf  Hf3  1  0.666885  0.332847  0.501037  1
  Hf  Hf4  1  0.736066  0.736066  0.750000  1
  Hf  Hf5  1  0.264765  0.999764  0.750000  1
  Hf  Hf6  1  0.999764  0.264765  0.750000  1
  Hf  Hf7  1  0.263264  0.263264  0.250000  1
  Hf  Hf8  1  0.735862  0.000764  0.250000  1
  Hf  Hf9  1  0.000764  0.735862  0.250000  1
  Cu  Cu10  1  0.999232  0.999232  0.501617  1
  Cu  Cu11  1  0.999232  0.999232  0.998383  1
  Sn  Sn12  1  0.386555  0.386555  0.750000  1
  Sn  Sn13  1  0.614532  0.999670  0.750000  1
  Sn  Sn14  1  0.999670  0.614532  0.750000  1
  Sn  Sn15  1  0.613733  0.613733  0.250000  1
  Sb  Sb16  1  0.386913  0.000182  0.250000  1
  Sb  Sb17  1  0.000182  0.386913  0.250000  1
