# generated using pymatgen
data_Cs4I2O9
_symmetry_space_group_name_H-M   'P 1'
_cell_length_a   6.44332500
_cell_length_b   6.44332413
_cell_length_c   16.91249600
_cell_angle_alpha   90.00000000
_cell_angle_beta   90.00000000
_cell_angle_gamma   119.99998905
_symmetry_Int_Tables_number   1
_chemical_formula_structural   Cs4I2O9
_chemical_formula_sum   'Cs8 I4 O18'
_cell_volume   608.07675699
_cell_formula_units_Z   2
loop_
 _symmetry_equiv_pos_site_id
 _symmetry_equiv_pos_as_xyz
  1  'x, y, z'
loop_
 _atom_site_type_symbol
 _atom_site_label
 _atom_site_symmetry_multiplicity
 _atom_site_fract_x
 _atom_site_fract_y
 _atom_site_fract_z
 _atom_site_occupancy
  Cs  Cs0  1  0.000000  0.000000  0.750000  1
  Cs  Cs1  1  0.000000  0.000000  0.250000  1
  Cs  Cs2  1  0.666667  0.333333  0.604352  1
  Cs  Cs3  1  0.333333  0.666667  0.104352  1
  Cs  Cs4  1  0.333333  0.666667  0.395648  1
  Cs  Cs5  1  0.666667  0.333333  0.895648  1
  Cs  Cs6  1  0.000000  0.000000  0.500000  1
  Cs  Cs7  1  0.000000  0.000000  0.000000  1
  I  I8  1  0.666667  0.333333  0.336608  1
  I  I9  1  0.333333  0.666667  0.836608  1
  I  I10  1  0.333333  0.666667  0.663392  1
  I  I11  1  0.666667  0.333333  0.163392  1
  O  O12  1  0.467276  0.925921  0.750000  1
  O  O13  1  0.074079  0.541356  0.750000  1
  O  O14  1  0.458644  0.532724  0.750000  1
  O  O15  1  0.532724  0.074079  0.250000  1
  O  O16  1  0.925921  0.458644  0.250000  1
  O  O17  1  0.541356  0.467276  0.250000  1
  O  O18  1  0.184257  0.380283  0.611253  1
  O  O19  1  0.619717  0.803973  0.611253  1
  O  O20  1  0.196027  0.815743  0.611253  1
  O  O21  1  0.815743  0.619717  0.111253  1
  O  O22  1  0.380283  0.196027  0.111253  1
  O  O23  1  0.803973  0.184257  0.111253  1
  O  O24  1  0.815743  0.619717  0.388747  1
  O  O25  1  0.380283  0.196027  0.388747  1
  O  O26  1  0.803973  0.184257  0.388747  1
  O  O27  1  0.184257  0.380283  0.888747  1
  O  O28  1  0.619717  0.803973  0.888747  1
  O  O29  1  0.196027  0.815743  0.888747  1
