# generated using pymatgen
data_Rb2SbBr3F2
_symmetry_space_group_name_H-M   'P 1'
_cell_length_a   7.94989070
_cell_length_b   7.95425580
_cell_length_c   13.96729240
_cell_angle_alpha   84.52443769
_cell_angle_beta   78.98890744
_cell_angle_gamma   60.81362350
_symmetry_Int_Tables_number   1
_chemical_formula_structural   Rb2SbBr3F2
_chemical_formula_sum   'Rb6 Sb3 Br9 F6'
_cell_volume   756.89353817
_cell_formula_units_Z   3
loop_
 _symmetry_equiv_pos_site_id
 _symmetry_equiv_pos_as_xyz
  1  'x, y, z'
loop_
 _atom_site_type_symbol
 _atom_site_label
 _atom_site_symmetry_multiplicity
 _atom_site_fract_x
 _atom_site_fract_y
 _atom_site_fract_z
 _atom_site_occupancy
  Rb  Rb0  1  0.304520  0.331327  0.096295  1
  Rb  Rb1  1  0.434789  0.340519  0.686512  1
  Rb  Rb2  1  0.098296  0.002168  0.684422  1
  Rb  Rb3  1  0.695480  0.668673  0.903705  1
  Rb  Rb4  1  0.565211  0.659481  0.313488  1
  Rb  Rb5  1  0.901704  0.997832  0.315578  1
  Sb  Sb6  1  0.199654  0.335815  0.391453  1
  Sb  Sb7  1  0.800346  0.664185  0.608547  1
  Sb  Sb8  1  0.000000  0.000000  0.000000  1
  Br  Br9  1  0.289009  0.780079  0.117461  1
  Br  Br10  1  0.184011  0.681642  0.499491  1
  Br  Br11  1  0.815989  0.318358  0.500509  1
  Br  Br12  1  0.854064  0.330219  0.116731  1
  Br  Br13  1  0.263842  0.106646  0.880779  1
  Br  Br14  1  0.710991  0.219921  0.882539  1
  Br  Br15  1  0.500000  0.000000  0.500000  1
  Br  Br16  1  0.736158  0.893354  0.119221  1
  Br  Br17  1  0.145936  0.669781  0.883269  1
  F  F18  1  0.573845  0.658105  0.696741  1
  F  F19  1  0.773115  0.862686  0.696572  1
  F  F20  1  0.022803  0.538550  0.307099  1
  F  F21  1  0.977197  0.461450  0.692901  1
  F  F22  1  0.226885  0.137314  0.303428  1
  F  F23  1  0.426155  0.341895  0.303259  1
