# generated using pymatgen
data_PrTm2Co(P3Rh4)2
_symmetry_space_group_name_H-M   'P 1'
_cell_length_a   3.88037500
_cell_length_b   11.15393000
_cell_length_c   12.86023300
_cell_angle_alpha   90.00000000
_cell_angle_beta   90.00000000
_cell_angle_gamma   90.00000000
_symmetry_Int_Tables_number   1
_chemical_formula_structural   PrTm2Co(P3Rh4)2
_chemical_formula_sum   'Pr2 Tm4 Co2 P12 Rh16'
_cell_volume   556.60928882
_cell_formula_units_Z   2
loop_
 _symmetry_equiv_pos_site_id
 _symmetry_equiv_pos_as_xyz
  1  'x, y, z'
loop_
 _atom_site_type_symbol
 _atom_site_label
 _atom_site_symmetry_multiplicity
 _atom_site_fract_x
 _atom_site_fract_y
 _atom_site_fract_z
 _atom_site_occupancy
  Pr  Pr0  1  0.000000  0.500000  0.522460  1
  Pr  Pr1  1  0.500000  0.000000  0.477540  1
  Tm  Tm2  1  0.500000  0.815051  0.201178  1
  Tm  Tm3  1  0.500000  0.184949  0.201178  1
  Tm  Tm4  1  0.000000  0.684949  0.798822  1
  Tm  Tm5  1  0.000000  0.315051  0.798822  1
  Co  Co6  1  0.000000  0.500000  0.979463  1
  Co  Co7  1  0.500000  0.000000  0.020537  1
  P  P8  1  0.500000  0.500000  0.882742  1
  P  P9  1  0.000000  0.000000  0.117258  1
  P  P10  1  0.500000  0.500000  0.347023  1
  P  P11  1  0.000000  0.000000  0.652977  1
  P  P12  1  0.500000  0.314217  0.622049  1
  P  P13  1  0.500000  0.685783  0.622049  1
  P  P14  1  0.000000  0.185783  0.377951  1
  P  P15  1  0.000000  0.814217  0.377951  1
  P  P16  1  0.500000  0.852477  0.896533  1
  P  P17  1  0.500000  0.147523  0.896533  1
  P  P18  1  0.000000  0.647523  0.103467  1
  P  P19  1  0.000000  0.352477  0.103467  1
  Rh  Rh20  1  0.500000  0.500000  0.166345  1
  Rh  Rh21  1  0.000000  0.000000  0.833655  1
  Rh  Rh22  1  0.500000  0.500000  0.707939  1
  Rh  Rh23  1  0.000000  0.000000  0.292061  1
  Rh  Rh24  1  0.500000  0.336145  0.993378  1
  Rh  Rh25  1  0.500000  0.663855  0.993378  1
  Rh  Rh26  1  0.000000  0.163855  0.006622  1
  Rh  Rh27  1  0.000000  0.836145  0.006622  1
  Rh  Rh28  1  0.500000  0.292185  0.428385  1
  Rh  Rh29  1  0.500000  0.707815  0.428385  1
  Rh  Rh30  1  0.000000  0.207815  0.571615  1
  Rh  Rh31  1  0.000000  0.792185  0.571615  1
  Rh  Rh32  1  0.500000  0.872774  0.714672  1
  Rh  Rh33  1  0.500000  0.127226  0.714672  1
  Rh  Rh34  1  0.000000  0.627226  0.285328  1
  Rh  Rh35  1  0.000000  0.372774  0.285328  1
