# generated using pymatgen
data_Dy2CrSbO7
_symmetry_space_group_name_H-M   'P 1'
_cell_length_a   7.27910788
_cell_length_b   7.25334274
_cell_length_c   7.33950000
_cell_angle_alpha   90.00014801
_cell_angle_beta   59.72488540
_cell_angle_gamma   119.88326568
_symmetry_Int_Tables_number   1
_chemical_formula_structural   Dy2CrSbO7
_chemical_formula_sum   'Dy4 Cr2 Sb2 O14'
_cell_volume   273.35078525
_cell_formula_units_Z   2
loop_
 _symmetry_equiv_pos_site_id
 _symmetry_equiv_pos_as_xyz
  1  'x, y, z'
loop_
 _atom_site_type_symbol
 _atom_site_label
 _atom_site_symmetry_multiplicity
 _atom_site_fract_x
 _atom_site_fract_y
 _atom_site_fract_z
 _atom_site_occupancy
  Dy  Dy0  1  0.499998  0.499998  0.000001  1
  Dy  Dy1  1  0.499999  0.999999  0.000001  1
  Dy  Dy2  1  0.000010  0.000005  0.500006  1
  Dy  Dy3  1  0.000011  0.000006  0.999985  1
  Cr  Cr4  1  0.499994  0.999953  0.499999  1
  Cr  Cr5  1  0.500008  0.500050  0.499990  1
  Sb  Sb6  1  0.999996  0.499995  0.000005  1
  Sb  Sb7  1  0.999993  0.499997  0.500001  1
  O  O8  1  0.254914  0.127455  0.122541  1
  O  O9  1  0.745077  0.872539  0.877464  1
  O  O10  1  0.680649  0.840323  0.409682  1
  O  O11  1  0.836138  0.418070  0.831935  1
  O  O12  1  0.252095  0.831560  0.836981  1
  O  O13  1  0.252103  0.420540  0.410921  1
  O  O14  1  0.252101  0.420538  0.836973  1
  O  O15  1  0.252097  0.831562  0.410922  1
  O  O16  1  0.319355  0.159681  0.590318  1
  O  O17  1  0.163858  0.581927  0.168070  1
  O  O18  1  0.747901  0.168428  0.163024  1
  O  O19  1  0.747899  0.579470  0.589080  1
  O  O20  1  0.747902  0.579474  0.163021  1
  O  O21  1  0.747902  0.168428  0.589081  1
