# generated using pymatgen
data_Dy6Tm6ZnCo4Sn
_symmetry_space_group_name_H-M   'P 1'
_cell_length_a   8.24229095
_cell_length_b   8.24229086
_cell_length_c   8.25065768
_cell_angle_alpha   112.16164084
_cell_angle_beta   109.31376117
_cell_angle_gamma   106.93697174
_symmetry_Int_Tables_number   1
_chemical_formula_structural   Dy6Tm6ZnCo4Sn
_chemical_formula_sum   'Dy6 Tm6 Zn1 Co4 Sn1'
_cell_volume   430.81280894
_cell_formula_units_Z   1
loop_
 _symmetry_equiv_pos_site_id
 _symmetry_equiv_pos_as_xyz
  1  'x, y, z'
loop_
 _atom_site_type_symbol
 _atom_site_label
 _atom_site_symmetry_multiplicity
 _atom_site_fract_x
 _atom_site_fract_y
 _atom_site_fract_z
 _atom_site_occupancy
  Dy  Dy0  1  0.430070  0.228236  0.200087  1
  Dy  Dy1  1  0.569930  0.771764  0.799913  1
  Dy  Dy2  1  0.028149  0.229983  0.799913  1
  Dy  Dy3  1  0.971851  0.770017  0.200087  1
  Dy  Dy4  1  0.181422  0.283845  0.465268  1
  Dy  Dy5  1  0.818578  0.716155  0.534732  1
  Tm  Tm6  1  0.181795  0.716491  0.898285  1
  Tm  Tm7  1  0.818205  0.283509  0.101715  1
  Tm  Tm8  1  0.322781  0.635401  0.310925  1
  Tm  Tm9  1  0.677219  0.364599  0.689075  1
  Tm  Tm10  1  0.324474  0.011856  0.689075  1
  Tm  Tm11  1  0.675526  0.988144  0.310925  1
  Zn  Zn12  1  0.000000  0.000000  0.000000  1
  Co  Co13  1  0.347745  0.999370  0.347115  1
  Co  Co14  1  0.652255  0.000630  0.652885  1
  Co  Co15  1  0.114924  0.614924  0.500000  1
  Co  Co16  1  0.885076  0.385076  0.500000  1
  Sn  Sn17  1  0.500000  0.500000  0.000000  1
