# generated using pymatgen
data_Yb5HgPt2
_symmetry_space_group_name_H-M   'P 1'
_cell_length_a   7.75001022
_cell_length_b   7.75001131
_cell_length_c   8.96462835
_cell_angle_alpha   115.61076114
_cell_angle_beta   115.61076415
_cell_angle_gamma   90.00000268
_symmetry_Int_Tables_number   1
_chemical_formula_structural   Yb5HgPt2
_chemical_formula_sum   'Yb10 Hg2 Pt4'
_cell_volume   426.11998975
_cell_formula_units_Z   2
loop_
 _symmetry_equiv_pos_site_id
 _symmetry_equiv_pos_as_xyz
  1  'x, y, z'
loop_
 _atom_site_type_symbol
 _atom_site_label
 _atom_site_symmetry_multiplicity
 _atom_site_fract_x
 _atom_site_fract_y
 _atom_site_fract_z
 _atom_site_occupancy
  Yb  Yb0  1  0.000000  0.000000  0.000000  1
  Yb  Yb1  1  0.500000  0.500000  0.000000  1
  Yb  Yb2  1  0.465669  0.298874  0.264542  1
  Yb  Yb3  1  0.965668  0.465669  0.264542  1
  Yb  Yb4  1  0.298874  0.798874  0.264542  1
  Yb  Yb5  1  0.798874  0.965668  0.264542  1
  Yb  Yb6  1  0.201126  0.034332  0.735458  1
  Yb  Yb7  1  0.701127  0.201126  0.735458  1
  Yb  Yb8  1  0.034332  0.534333  0.735458  1
  Yb  Yb9  1  0.534333  0.701127  0.735458  1
  Hg  Hg10  1  0.250000  0.250000  0.500000  1
  Hg  Hg11  1  0.750000  0.750000  0.500000  1
  Pt  Pt12  1  0.632612  0.132613  0.000000  1
  Pt  Pt13  1  0.132613  0.367387  0.000000  1
  Pt  Pt14  1  0.867388  0.632612  0.000000  1
  Pt  Pt15  1  0.367387  0.867388  0.000000  1
