# generated using pymatgen
data_Ho2LuSi2(PPd5)4
_symmetry_space_group_name_H-M   'P 1'
_cell_length_a   8.69590121
_cell_length_b   8.67742495
_cell_length_c   8.67742400
_cell_angle_alpha   60.14092314
_cell_angle_beta   59.92954357
_cell_angle_gamma   59.92954292
_symmetry_Int_Tables_number   1
_chemical_formula_structural   Ho2LuSi2(PPd5)4
_chemical_formula_sum   'Ho2 Lu1 Si2 P4 Pd20'
_cell_volume   462.99613904
_cell_formula_units_Z   1
loop_
 _symmetry_equiv_pos_site_id
 _symmetry_equiv_pos_as_xyz
  1  'x, y, z'
loop_
 _atom_site_type_symbol
 _atom_site_label
 _atom_site_symmetry_multiplicity
 _atom_site_fract_x
 _atom_site_fract_y
 _atom_site_fract_z
 _atom_site_occupancy
  Ho  Ho0  1  0.250000  0.250000  0.250000  1
  Ho  Ho1  1  0.750000  0.750000  0.750000  1
  Lu  Lu2  1  0.000000  0.000000  0.000000  1
  Si  Si3  1  0.734295  0.265705  0.265705  1
  Si  Si4  1  0.265705  0.734295  0.734295  1
  P  P5  1  0.264865  0.735135  0.264865  1
  P  P6  1  0.735135  0.264865  0.735135  1
  P  P7  1  0.264865  0.264865  0.735135  1
  P  P8  1  0.735135  0.735135  0.264865  1
  Pd  Pd9  1  0.382791  0.384614  0.384614  1
  Pd  Pd10  1  0.617209  0.615386  0.615386  1
  Pd  Pd11  1  0.384614  0.382791  0.847984  1
  Pd  Pd12  1  0.384614  0.847984  0.382791  1
  Pd  Pd13  1  0.615386  0.617209  0.152016  1
  Pd  Pd14  1  0.615386  0.152016  0.617209  1
  Pd  Pd15  1  0.847984  0.384614  0.384614  1
  Pd  Pd16  1  0.152016  0.615386  0.615386  1
  Pd  Pd17  1  0.342478  0.000000  0.000000  1
  Pd  Pd18  1  0.657522  0.000000  0.000000  1
  Pd  Pd19  1  0.000000  0.342478  0.657522  1
  Pd  Pd20  1  0.000000  0.657522  0.342478  1
  Pd  Pd21  1  0.000778  0.344693  0.999222  1
  Pd  Pd22  1  0.655307  0.999222  0.344693  1
  Pd  Pd23  1  0.999222  0.655307  0.000778  1
  Pd  Pd24  1  0.344693  0.000778  0.655307  1
  Pd  Pd25  1  0.000778  0.999222  0.344693  1
  Pd  Pd26  1  0.999222  0.000778  0.655307  1
  Pd  Pd27  1  0.655307  0.344693  0.999222  1
  Pd  Pd28  1  0.344693  0.655307  0.000778  1
