# generated using pymatgen
data_Na2Tm3Ge5P7Ir19
_symmetry_space_group_name_H-M   'P 1'
_cell_length_a   12.89643749
_cell_length_b   12.90281316
_cell_length_c   3.96226000
_cell_angle_alpha   90.00000000
_cell_angle_beta   90.00000000
_cell_angle_gamma   120.09841777
_symmetry_Int_Tables_number   1
_chemical_formula_structural   Na2Tm3Ge5P7Ir19
_chemical_formula_sum   'Na2 Tm3 Ge5 P7 Ir19'
_cell_volume   570.42192964
_cell_formula_units_Z   1
loop_
 _symmetry_equiv_pos_site_id
 _symmetry_equiv_pos_as_xyz
  1  'x, y, z'
loop_
 _atom_site_type_symbol
 _atom_site_label
 _atom_site_symmetry_multiplicity
 _atom_site_fract_x
 _atom_site_fract_y
 _atom_site_fract_z
 _atom_site_occupancy
  Na  Na0  1  0.178000  0.181362  0.000000  1
  Na  Na1  1  0.820848  0.998001  0.000000  1
  Tm  Tm2  1  0.334563  0.668797  0.500000  1
  Tm  Tm3  1  0.668421  0.333026  0.500000  1
  Tm  Tm4  1  0.000134  0.825744  0.000000  1
  Ge  Ge5  1  0.320171  0.840163  0.000000  1
  Ge  Ge6  1  0.163603  0.483154  0.000000  1
  Ge  Ge7  1  0.356237  0.355190  0.500000  1
  Ge  Ge8  1  0.644953  0.999004  0.500000  1
  Ge  Ge9  1  0.998729  0.641333  0.500000  1
  P  P10  1  0.520868  0.687483  0.000000  1
  P  P11  1  0.823413  0.304136  0.000000  1
  P  P12  1  0.484193  0.177649  0.000000  1
  P  P13  1  0.693758  0.515044  0.000000  1
  P  P14  1  0.819876  0.818596  0.500000  1
  P  P15  1  0.180938  0.008725  0.500000  1
  P  P16  1  0.000423  0.177156  0.500000  1
  Ir  Ir17  1  0.189788  0.831206  0.500000  1
  Ir  Ir18  1  0.176476  0.371160  0.500000  1
  Ir  Ir19  1  0.621205  0.792246  0.500000  1
  Ir  Ir20  1  0.818483  0.206267  0.500000  1
  Ir  Ir21  1  0.391360  0.182528  0.500000  1
  Ir  Ir22  1  0.794560  0.615098  0.500000  1
  Ir  Ir23  1  0.128957  0.649836  0.000000  1
  Ir  Ir24  1  0.364630  0.497625  0.000000  1
  Ir  Ir25  1  0.519107  0.867082  0.000000  1
  Ir  Ir26  1  0.630941  0.130542  0.000000  1
  Ir  Ir27  1  0.500061  0.366880  0.000000  1
  Ir  Ir28  1  0.866633  0.498118  0.000000  1
  Ir  Ir29  1  0.547234  0.545222  0.500000  1
  Ir  Ir30  1  0.447510  0.988879  0.500000  1
  Ir  Ir31  1  0.004929  0.453836  0.500000  1
  Ir  Ir32  1  0.716986  0.710198  0.000000  1
  Ir  Ir33  1  0.283253  0.010470  0.000000  1
  Ir  Ir34  1  0.991590  0.274603  0.000000  1
  Ir  Ir35  1  0.997165  0.993645  0.500000  1
