# generated using pymatgen
data_Li4Sm7(ThAu4)5
_symmetry_space_group_name_H-M   'P 1'
_cell_length_a   8.59005835
_cell_length_b   8.59005960
_cell_length_c   13.59635900
_cell_angle_alpha   89.95761209
_cell_angle_beta   90.04238792
_cell_angle_gamma   126.74989443
_symmetry_Int_Tables_number   1
_chemical_formula_structural   Li4Sm7(ThAu4)5
_chemical_formula_sum   'Li4 Sm7 Th5 Au20'
_cell_volume   803.86935340
_cell_formula_units_Z   1
loop_
 _symmetry_equiv_pos_site_id
 _symmetry_equiv_pos_as_xyz
  1  'x, y, z'
loop_
 _atom_site_type_symbol
 _atom_site_label
 _atom_site_symmetry_multiplicity
 _atom_site_fract_x
 _atom_site_fract_y
 _atom_site_fract_z
 _atom_site_occupancy
  Li  Li0  1  0.721463  0.278537  0.247747  1
  Li  Li1  1  0.279478  0.720522  0.750400  1
  Li  Li2  1  0.531710  0.468290  0.248345  1
  Li  Li3  1  0.467675  0.532325  0.750404  1
  Sm  Sm4  1  0.368660  0.631340  0.535458  1
  Sm  Sm5  1  0.630564  0.369436  0.034140  1
  Sm  Sm6  1  0.369993  0.630007  0.964531  1
  Sm  Sm7  1  0.881198  0.118802  0.950489  1
  Sm  Sm8  1  0.118182  0.881818  0.049739  1
  Sm  Sm9  1  0.881601  0.118399  0.550589  1
  Sm  Sm10  1  0.117965  0.882035  0.450452  1
  Th  Th11  1  0.931625  0.068375  0.249401  1
  Th  Th12  1  0.068833  0.931167  0.751202  1
  Th  Th13  1  0.316754  0.683246  0.249105  1
  Th  Th14  1  0.684435  0.315565  0.751797  1
  Th  Th15  1  0.630484  0.369516  0.463227  1
  Au  Au16  1  0.323535  0.067745  0.251503  1
  Au  Au17  1  0.067340  0.321806  0.750578  1
  Au  Au18  1  0.678194  0.932660  0.750578  1
  Au  Au19  1  0.932255  0.676465  0.251503  1
  Au  Au20  1  0.574138  0.007619  0.392290  1
  Au  Au21  1  0.006788  0.573707  0.606346  1
  Au  Au22  1  0.574503  0.008796  0.106331  1
  Au  Au23  1  0.009425  0.575244  0.894435  1
  Au  Au24  1  0.426293  0.993212  0.606346  1
  Au  Au25  1  0.992381  0.425862  0.392290  1
  Au  Au26  1  0.424756  0.990575  0.894435  1
  Au  Au27  1  0.991204  0.425497  0.106331  1
  Au  Au28  1  0.683176  0.738029  0.390874  1
  Au  Au29  1  0.736647  0.683295  0.609150  1
  Au  Au30  1  0.682953  0.737021  0.108576  1
  Au  Au31  1  0.737199  0.683061  0.891403  1
  Au  Au32  1  0.316705  0.263353  0.609150  1
  Au  Au33  1  0.261971  0.316824  0.390874  1
  Au  Au34  1  0.316939  0.262801  0.891403  1
  Au  Au35  1  0.262979  0.317047  0.108576  1
