# generated using pymatgen
data_Tb4Mg2CoCu3
_symmetry_space_group_name_H-M   'P 1'
_cell_length_a   7.58788925
_cell_length_b   7.58788925
_cell_length_c   3.68766400
_cell_angle_alpha   90.00000000
_cell_angle_beta   90.00000000
_cell_angle_gamma   90.75167235
_symmetry_Int_Tables_number   1
_chemical_formula_structural   Tb4Mg2CoCu3
_chemical_formula_sum   'Tb4 Mg2 Co1 Cu3'
_cell_volume   212.30290425
_cell_formula_units_Z   1
loop_
 _symmetry_equiv_pos_site_id
 _symmetry_equiv_pos_as_xyz
  1  'x, y, z'
loop_
 _atom_site_type_symbol
 _atom_site_label
 _atom_site_symmetry_multiplicity
 _atom_site_fract_x
 _atom_site_fract_y
 _atom_site_fract_z
 _atom_site_occupancy
  Tb  Tb0  1  0.668783  0.168783  0.500000  1
  Tb  Tb1  1  0.311637  0.811637  0.500000  1
  Tb  Tb2  1  0.178054  0.346291  0.500000  1
  Tb  Tb3  1  0.846291  0.678054  0.500000  1
  Mg  Mg4  1  0.002739  0.006277  0.000000  1
  Mg  Mg5  1  0.506277  0.502739  0.000000  1
  Co  Co6  1  0.117104  0.617104  0.000000  1
  Cu  Cu7  1  0.878381  0.378381  0.000000  1
  Cu  Cu8  1  0.616406  0.874327  0.000000  1
  Cu  Cu9  1  0.374327  0.116406  0.000000  1
