# generated using pymatgen
data_Rb8DyY3F20
_symmetry_space_group_name_H-M   'P 1'
_cell_length_a   6.96313044
_cell_length_b   7.45766100
_cell_length_c   11.53807501
_cell_angle_alpha   90.00000000
_cell_angle_beta   90.01849317
_cell_angle_gamma   90.00000000
_symmetry_Int_Tables_number   1
_chemical_formula_structural   Rb8DyY3F20
_chemical_formula_sum   'Rb8 Dy1 Y3 F20'
_cell_volume   599.15681585
_cell_formula_units_Z   1
loop_
 _symmetry_equiv_pos_site_id
 _symmetry_equiv_pos_as_xyz
  1  'x, y, z'
loop_
 _atom_site_type_symbol
 _atom_site_label
 _atom_site_symmetry_multiplicity
 _atom_site_fract_x
 _atom_site_fract_y
 _atom_site_fract_z
 _atom_site_occupancy
  Rb  Rb0  1  0.530720  0.498408  0.828391  1
  Rb  Rb1  1  0.469253  0.501857  0.171586  1
  Rb  Rb2  1  0.030698  0.501770  0.671790  1
  Rb  Rb3  1  0.469253  0.998143  0.171586  1
  Rb  Rb4  1  0.969360  0.498394  0.328181  1
  Rb  Rb5  1  0.530720  0.001592  0.828391  1
  Rb  Rb6  1  0.969360  0.001606  0.328181  1
  Rb  Rb7  1  0.030698  0.998230  0.671790  1
  Dy  Dy8  1  0.940183  0.750000  0.000733  1
  Y  Y9  1  0.559790  0.750000  0.500717  1
  Y  Y10  1  0.440193  0.250000  0.499271  1
  Y  Y11  1  0.059534  0.250000  0.999280  1
  F  F12  1  0.845028  0.750000  0.817373  1
  F  F13  1  0.155359  0.250000  0.183071  1
  F  F14  1  0.344499  0.250000  0.683210  1
  F  F15  1  0.655444  0.750000  0.316814  1
  F  F16  1  0.374923  0.750000  0.656725  1
  F  F17  1  0.625077  0.250000  0.343245  1
  F  F18  1  0.874755  0.250000  0.843296  1
  F  F19  1  0.124812  0.750000  0.156427  1
  F  F20  1  0.876498  0.750000  0.515310  1
  F  F21  1  0.123504  0.250000  0.484688  1
  F  F22  1  0.376151  0.250000  0.984520  1
  F  F23  1  0.624802  0.750000  0.015358  1
  F  F24  1  0.639134  0.033516  0.573248  1
  F  F25  1  0.360844  0.966469  0.426750  1
  F  F26  1  0.138627  0.965726  0.927102  1
  F  F27  1  0.360844  0.533531  0.426750  1
  F  F28  1  0.861086  0.032680  0.072933  1
  F  F29  1  0.639134  0.466484  0.573248  1
  F  F30  1  0.861086  0.467320  0.072933  1
  F  F31  1  0.138627  0.534274  0.927102  1
