# generated using pymatgen
data_LiHo16In3Ir4
_symmetry_space_group_name_H-M   'P 1'
_cell_length_a   9.62166590
_cell_length_b   9.62166501
_cell_length_c   9.62166516
_cell_angle_alpha   59.83546185
_cell_angle_beta   59.83546398
_cell_angle_gamma   59.83546446
_symmetry_Int_Tables_number   1
_chemical_formula_structural   LiHo16In3Ir4
_chemical_formula_sum   'Li1 Ho16 In3 Ir4'
_cell_volume   627.49594727
_cell_formula_units_Z   1
loop_
 _symmetry_equiv_pos_site_id
 _symmetry_equiv_pos_as_xyz
  1  'x, y, z'
loop_
 _atom_site_type_symbol
 _atom_site_label
 _atom_site_symmetry_multiplicity
 _atom_site_fract_x
 _atom_site_fract_y
 _atom_site_fract_z
 _atom_site_occupancy
  Li  Li0  1  0.821992  0.821992  0.821992  1
  Ho  Ho1  1  0.188727  0.188727  0.811372  1
  Ho  Ho2  1  0.599425  0.599425  0.202615  1
  Ho  Ho3  1  0.441233  0.059231  0.441233  1
  Ho  Ho4  1  0.441233  0.441233  0.059231  1
  Ho  Ho5  1  0.812211  0.187429  0.812211  1
  Ho  Ho6  1  0.188727  0.811372  0.188727  1
  Ho  Ho7  1  0.436866  0.062649  0.062649  1
  Ho  Ho8  1  0.187429  0.812211  0.812211  1
  Ho  Ho9  1  0.062649  0.436866  0.062649  1
  Ho  Ho10  1  0.812211  0.812211  0.187429  1
  Ho  Ho11  1  0.202615  0.599425  0.599425  1
  Ho  Ho12  1  0.059231  0.441233  0.441233  1
  Ho  Ho13  1  0.062649  0.062649  0.436866  1
  Ho  Ho14  1  0.811372  0.188727  0.188727  1
  Ho  Ho15  1  0.599425  0.202615  0.599425  1
  Ho  Ho16  1  0.599856  0.599856  0.599856  1
  In  In17  1  0.833126  0.833126  0.503410  1
  In  In18  1  0.503410  0.833126  0.833126  1
  In  In19  1  0.833126  0.503410  0.833126  1
  Ir  Ir20  1  0.392358  0.825229  0.392358  1
  Ir  Ir21  1  0.392544  0.392544  0.392544  1
  Ir  Ir22  1  0.825229  0.392358  0.392358  1
  Ir  Ir23  1  0.392358  0.392358  0.825229  1
