# generated using pymatgen
data_Ba(Cd2Pd)2
_symmetry_space_group_name_H-M   'P 1'
_cell_length_a   8.54868400
_cell_length_b   8.54868400
_cell_length_c   4.52813900
_cell_angle_alpha   90.00000000
_cell_angle_beta   90.00000000
_cell_angle_gamma   90.00000000
_symmetry_Int_Tables_number   1
_chemical_formula_structural   Ba(Cd2Pd)2
_chemical_formula_sum   'Ba2 Cd8 Pd4'
_cell_volume   330.91638966
_cell_formula_units_Z   2
loop_
 _symmetry_equiv_pos_site_id
 _symmetry_equiv_pos_as_xyz
  1  'x, y, z'
loop_
 _atom_site_type_symbol
 _atom_site_label
 _atom_site_symmetry_multiplicity
 _atom_site_fract_x
 _atom_site_fract_y
 _atom_site_fract_z
 _atom_site_occupancy
  Ba  Ba0  1  0.500000  0.500000  0.500000  1
  Ba  Ba1  1  0.000000  0.000000  0.000000  1
  Cd  Cd2  1  0.345949  0.091015  0.500000  1
  Cd  Cd3  1  0.654051  0.908985  0.500000  1
  Cd  Cd4  1  0.845949  0.408985  0.000000  1
  Cd  Cd5  1  0.154051  0.591015  0.000000  1
  Cd  Cd6  1  0.091015  0.345949  0.500000  1
  Cd  Cd7  1  0.908985  0.654051  0.500000  1
  Cd  Cd8  1  0.408985  0.845949  0.000000  1
  Cd  Cd9  1  0.591015  0.154051  0.000000  1
  Pd  Pd10  1  0.779630  0.220370  0.500000  1
  Pd  Pd11  1  0.220370  0.779630  0.500000  1
  Pd  Pd12  1  0.279630  0.279630  0.000000  1
  Pd  Pd13  1  0.720370  0.720370  0.000000  1
