# generated using pymatgen
data_Tb15Er(HgIr)4
_symmetry_space_group_name_H-M   'P 1'
_cell_length_a   9.63386826
_cell_length_b   9.63146020
_cell_length_c   9.63386900
_cell_angle_alpha   60.00782429
_cell_angle_beta   59.96935390
_cell_angle_gamma   60.00782947
_symmetry_Int_Tables_number   1
_chemical_formula_structural   Tb15Er(HgIr)4
_chemical_formula_sum   'Tb15 Er1 Hg4 Ir4'
_cell_volume   632.01768965
_cell_formula_units_Z   1
loop_
 _symmetry_equiv_pos_site_id
 _symmetry_equiv_pos_as_xyz
  1  'x, y, z'
loop_
 _atom_site_type_symbol
 _atom_site_label
 _atom_site_symmetry_multiplicity
 _atom_site_fract_x
 _atom_site_fract_y
 _atom_site_fract_z
 _atom_site_occupancy
  Tb  Tb0  1  0.190283  0.189498  0.811335  1
  Tb  Tb1  1  0.438450  0.061513  0.061151  1
  Tb  Tb2  1  0.437755  0.062249  0.437755  1
  Tb  Tb3  1  0.060717  0.439282  0.060717  1
  Tb  Tb4  1  0.649171  0.051073  0.649171  1
  Tb  Tb5  1  0.190290  0.808881  0.811336  1
  Tb  Tb6  1  0.061151  0.061513  0.438450  1
  Tb  Tb7  1  0.811335  0.189498  0.190283  1
  Tb  Tb8  1  0.811336  0.808881  0.190290  1
  Tb  Tb9  1  0.646882  0.649365  0.054397  1
  Tb  Tb10  1  0.649174  0.650582  0.649174  1
  Tb  Tb11  1  0.061154  0.438890  0.438438  1
  Tb  Tb12  1  0.054397  0.649365  0.646882  1
  Tb  Tb13  1  0.809564  0.190441  0.809564  1
  Tb  Tb14  1  0.438438  0.438890  0.061154  1
  Er  Er15  1  0.190445  0.809533  0.190445  1
  Hg  Hg16  1  0.415322  0.754327  0.415322  1
  Hg  Hg17  1  0.415257  0.414846  0.755054  1
  Hg  Hg18  1  0.755054  0.414846  0.415257  1
  Hg  Hg19  1  0.415309  0.415041  0.415309  1
  Ir  Ir20  1  0.857440  0.426201  0.857440  1
  Ir  Ir21  1  0.859206  0.858180  0.424432  1
  Ir  Ir22  1  0.424432  0.858180  0.859206  1
  Ir  Ir23  1  0.857439  0.858927  0.857439  1
