# generated using pymatgen
data_AlH5Ru
_symmetry_space_group_name_H-M   'P 1'
_cell_length_a   5.21343500
_cell_length_b   4.52839800
_cell_length_c   8.87706200
_cell_angle_alpha   90.00000000
_cell_angle_beta   90.00000000
_cell_angle_gamma   90.00000000
_symmetry_Int_Tables_number   1
_chemical_formula_structural   AlH5Ru
_chemical_formula_sum   'Al4 H20 Ru4'
_cell_volume   209.57419481
_cell_formula_units_Z   4
loop_
 _symmetry_equiv_pos_site_id
 _symmetry_equiv_pos_as_xyz
  1  'x, y, z'
loop_
 _atom_site_type_symbol
 _atom_site_label
 _atom_site_symmetry_multiplicity
 _atom_site_fract_x
 _atom_site_fract_y
 _atom_site_fract_z
 _atom_site_occupancy
  Al  Al0  1  0.524295  0.360079  0.145161  1
  Al  Al1  1  0.024295  0.139921  0.854839  1
  Al  Al2  1  0.475705  0.860079  0.354839  1
  Al  Al3  1  0.975705  0.639921  0.645161  1
  H  H4  1  0.845958  0.359478  0.059713  1
  H  H5  1  0.305979  0.888383  0.690150  1
  H  H6  1  0.964541  0.856590  0.074370  1
  H  H7  1  0.747263  0.880853  0.797432  1
  H  H8  1  0.357013  0.403983  0.421435  1
  H  H9  1  0.752737  0.119147  0.297432  1
  H  H10  1  0.464541  0.643410  0.925630  1
  H  H11  1  0.252737  0.380853  0.702568  1
  H  H12  1  0.805979  0.611617  0.309850  1
  H  H13  1  0.654042  0.640522  0.559713  1
  H  H14  1  0.035459  0.356590  0.425630  1
  H  H15  1  0.154042  0.859478  0.440287  1
  H  H16  1  0.642987  0.903983  0.078565  1
  H  H17  1  0.857013  0.096017  0.578565  1
  H  H18  1  0.142987  0.596017  0.921435  1
  H  H19  1  0.194021  0.111617  0.190150  1
  H  H20  1  0.345958  0.140522  0.940287  1
  H  H21  1  0.694021  0.388383  0.809850  1
  H  H22  1  0.535459  0.143410  0.574370  1
  H  H23  1  0.247263  0.619147  0.202568  1
  Ru  Ru24  1  0.179595  0.131182  0.571477  1
  Ru  Ru25  1  0.320405  0.868818  0.071477  1
  Ru  Ru26  1  0.820405  0.631182  0.928523  1
  Ru  Ru27  1  0.679595  0.368818  0.428523  1
