# generated using pymatgen
data_Ta5Ti7Al8Cu2(RhC2)2
_symmetry_space_group_name_H-M   'P 1'
_cell_length_a   8.24827427
_cell_length_b   8.23873594
_cell_length_c   8.24710300
_cell_angle_alpha   60.01674956
_cell_angle_beta   59.91770347
_cell_angle_gamma   60.06364062
_symmetry_Int_Tables_number   1
_chemical_formula_structural   Ta5Ti7Al8Cu2(RhC2)2
_chemical_formula_sum   'Ta5 Ti7 Al8 Cu2 Rh2 C4'
_cell_volume   396.28019936
_cell_formula_units_Z   1
loop_
 _symmetry_equiv_pos_site_id
 _symmetry_equiv_pos_as_xyz
  1  'x, y, z'
loop_
 _atom_site_type_symbol
 _atom_site_label
 _atom_site_symmetry_multiplicity
 _atom_site_fract_x
 _atom_site_fract_y
 _atom_site_fract_z
 _atom_site_occupancy
  Ta  Ta0  1  0.936690  0.933811  0.562468  1
  Ta  Ta1  1  0.688231  0.314160  0.311588  1
  Ta  Ta2  1  0.314115  0.685462  0.685706  1
  Ta  Ta3  1  0.682387  0.685667  0.315852  1
  Ta  Ta4  1  0.683214  0.315315  0.687113  1
  Ti  Ti5  1  0.315722  0.688513  0.315050  1
  Ti  Ti6  1  0.569494  0.934599  0.561001  1
  Ti  Ti7  1  0.563411  0.936668  0.937097  1
  Ti  Ti8  1  0.936062  0.566831  0.563402  1
  Ti  Ti9  1  0.937162  0.562140  0.935158  1
  Ti  Ti10  1  0.314461  0.316702  0.689172  1
  Ti  Ti11  1  0.567550  0.561485  0.935928  1
  Al  Al12  1  0.916773  0.253051  0.914286  1
  Al  Al13  1  0.331451  0.332175  0.000672  1
  Al  Al14  1  0.001414  0.333746  0.333554  1
  Al  Al15  1  0.332075  0.335136  0.335120  1
  Al  Al16  1  0.252403  0.916661  0.915768  1
  Al  Al17  1  0.915409  0.915140  0.917427  1
  Al  Al18  1  0.915509  0.914171  0.250606  1
  Al  Al19  1  0.332305  0.999711  0.332848  1
  Cu  Cu20  1  0.124757  0.625086  0.123196  1
  Cu  Cu21  1  0.123940  0.122959  0.625279  1
  Rh  Rh22  1  0.624027  0.126038  0.124991  1
  Rh  Rh23  1  0.122084  0.124377  0.126912  1
  C  C24  1  0.620396  0.124856  0.626743  1
  C  C25  1  0.624082  0.627320  0.121196  1
  C  C26  1  0.127284  0.620549  0.623891  1
  C  C27  1  0.627589  0.627673  0.627974  1
