# generated using pymatgen
data_Ho10ErTm9(CoBi2)4
_symmetry_space_group_name_H-M   'P 1'
_cell_length_a   7.89754413
_cell_length_b   8.84343900
_cell_length_c   12.33122374
_cell_angle_alpha   90.00000000
_cell_angle_beta   90.01081495
_cell_angle_gamma   90.00000000
_symmetry_Int_Tables_number   1
_chemical_formula_structural   Ho10ErTm9(CoBi2)4
_chemical_formula_sum   'Ho10 Er1 Tm9 Co4 Bi8'
_cell_volume   861.23052825
_cell_formula_units_Z   1
loop_
 _symmetry_equiv_pos_site_id
 _symmetry_equiv_pos_as_xyz
  1  'x, y, z'
loop_
 _atom_site_type_symbol
 _atom_site_label
 _atom_site_symmetry_multiplicity
 _atom_site_fract_x
 _atom_site_fract_y
 _atom_site_fract_z
 _atom_site_occupancy
  Ho  Ho0  1  0.652154  0.250000  0.300441  1
  Ho  Ho1  1  0.847539  0.250000  0.800213  1
  Ho  Ho2  1  0.885230  0.750000  0.812081  1
  Ho  Ho3  1  0.115172  0.250000  0.187856  1
  Ho  Ho4  1  0.384882  0.250000  0.687869  1
  Ho  Ho5  1  0.615098  0.750000  0.312125  1
  Ho  Ho6  1  0.054917  0.750000  0.497896  1
  Ho  Ho7  1  0.945618  0.250000  0.502428  1
  Ho  Ho8  1  0.554130  0.250000  0.001989  1
  Ho  Ho9  1  0.445194  0.750000  0.997701  1
  Er  Er10  1  0.152163  0.750000  0.199404  1
  Tm  Tm11  1  0.348056  0.750000  0.698895  1
  Tm  Tm12  1  0.673219  0.538410  0.563174  1
  Tm  Tm13  1  0.326413  0.462275  0.437274  1
  Tm  Tm14  1  0.173572  0.462169  0.937151  1
  Tm  Tm15  1  0.326413  0.037725  0.437274  1
  Tm  Tm16  1  0.826715  0.538086  0.062931  1
  Tm  Tm17  1  0.673219  0.961590  0.563174  1
  Tm  Tm18  1  0.826715  0.961914  0.062931  1
  Tm  Tm19  1  0.173572  0.037831  0.937151  1
  Co  Co20  1  0.064890  0.750000  0.992876  1
  Co  Co21  1  0.934992  0.250000  0.007401  1
  Co  Co22  1  0.564910  0.250000  0.507577  1
  Co  Co23  1  0.435021  0.750000  0.492743  1
  Bi  Bi24  1  0.570040  0.509696  0.826573  1
  Bi  Bi25  1  0.429128  0.491231  0.173051  1
  Bi  Bi26  1  0.071275  0.491242  0.673227  1
  Bi  Bi27  1  0.429128  0.008769  0.173051  1
  Bi  Bi28  1  0.929656  0.509496  0.326872  1
  Bi  Bi29  1  0.570040  0.990304  0.826573  1
  Bi  Bi30  1  0.929656  0.990504  0.326872  1
  Bi  Bi31  1  0.071275  0.008758  0.673227  1
