# generated using pymatgen
data_Cs7RbLi4(AlBi2)4
_symmetry_space_group_name_H-M   'P 1'
_cell_length_a   11.44141956
_cell_length_b   11.44142040
_cell_length_c   7.10142728
_cell_angle_alpha   89.97795017
_cell_angle_beta   90.02205554
_cell_angle_gamma   103.88010983
_symmetry_Int_Tables_number   1
_chemical_formula_structural   Cs7RbLi4(AlBi2)4
_chemical_formula_sum   'Cs7 Rb1 Li4 Al4 Bi8'
_cell_volume   902.47490406
_cell_formula_units_Z   1
loop_
 _symmetry_equiv_pos_site_id
 _symmetry_equiv_pos_as_xyz
  1  'x, y, z'
loop_
 _atom_site_type_symbol
 _atom_site_label
 _atom_site_symmetry_multiplicity
 _atom_site_fract_x
 _atom_site_fract_y
 _atom_site_fract_z
 _atom_site_occupancy
  Cs  Cs0  1  0.577795  0.920157  0.249257  1
  Cs  Cs1  1  0.670644  0.329356  0.220014  1
  Cs  Cs2  1  0.328801  0.671199  0.780303  1
  Cs  Cs3  1  0.079843  0.422205  0.249257  1
  Cs  Cs4  1  0.921661  0.578287  0.749548  1
  Cs  Cs5  1  0.421713  0.078339  0.749548  1
  Cs  Cs6  1  0.828874  0.171126  0.720032  1
  Rb  Rb7  1  0.161337  0.838663  0.279545  1
  Li  Li8  1  0.880214  0.878165  0.502155  1
  Li  Li9  1  0.121835  0.119786  0.502155  1
  Li  Li10  1  0.621891  0.622032  0.999762  1
  Li  Li11  1  0.377968  0.378109  0.999762  1
  Al  Al12  1  0.869769  0.868329  0.999153  1
  Al  Al13  1  0.131671  0.130231  0.999153  1
  Al  Al14  1  0.368433  0.368049  0.499622  1
  Al  Al15  1  0.631951  0.631567  0.499622  1
  Bi  Bi16  1  0.090273  0.909727  0.789672  1
  Bi  Bi17  1  0.587211  0.412789  0.712959  1
  Bi  Bi18  1  0.913492  0.086508  0.213047  1
  Bi  Bi19  1  0.412162  0.587838  0.287221  1
  Bi  Bi20  1  0.336784  0.160996  0.249843  1
  Bi  Bi21  1  0.162655  0.335978  0.749263  1
  Bi  Bi22  1  0.664022  0.837345  0.749263  1
  Bi  Bi23  1  0.839004  0.663216  0.249843  1
