# generated using pymatgen
data_Hf5Pa4Si8W
_symmetry_space_group_name_H-M   'P 1'
_cell_length_a   7.25602300
_cell_length_b   7.25602323
_cell_length_c   13.38805800
_cell_angle_alpha   90.00000000
_cell_angle_beta   90.00000000
_cell_angle_gamma   89.83736746
_symmetry_Int_Tables_number   1
_chemical_formula_structural   Hf5Pa4Si8W
_chemical_formula_sum   'Hf10 Pa8 Si16 W2'
_cell_volume   704.87669308
_cell_formula_units_Z   2
loop_
 _symmetry_equiv_pos_site_id
 _symmetry_equiv_pos_as_xyz
  1  'x, y, z'
loop_
 _atom_site_type_symbol
 _atom_site_label
 _atom_site_symmetry_multiplicity
 _atom_site_fract_x
 _atom_site_fract_y
 _atom_site_fract_z
 _atom_site_occupancy
  Hf  Hf0  1  0.827566  0.827566  0.500000  1
  Hf  Hf1  1  0.172434  0.172434  0.000000  1
  Hf  Hf2  1  0.502029  0.349354  0.126178  1
  Hf  Hf3  1  0.497971  0.650646  0.626178  1
  Hf  Hf4  1  0.847123  0.001915  0.872150  1
  Hf  Hf5  1  0.152877  0.998085  0.372150  1
  Hf  Hf6  1  0.650646  0.497971  0.373822  1
  Hf  Hf7  1  0.349354  0.502029  0.873822  1
  Hf  Hf8  1  0.001915  0.847123  0.127850  1
  Hf  Hf9  1  0.998085  0.152877  0.627850  1
  Pa  Pa10  1  0.499031  0.160100  0.533482  1
  Pa  Pa11  1  0.500969  0.839900  0.033482  1
  Pa  Pa12  1  0.657001  0.002209  0.284632  1
  Pa  Pa13  1  0.342999  0.997791  0.784632  1
  Pa  Pa14  1  0.839900  0.500969  0.966518  1
  Pa  Pa15  1  0.160100  0.499031  0.466518  1
  Pa  Pa16  1  0.002209  0.657001  0.715368  1
  Pa  Pa17  1  0.997791  0.342999  0.215368  1
  Si  Si18  1  0.795387  0.134706  0.067307  1
  Si  Si19  1  0.204613  0.865294  0.567307  1
  Si  Si20  1  0.636802  0.702315  0.817490  1
  Si  Si21  1  0.363198  0.297685  0.317490  1
  Si  Si22  1  0.865294  0.204613  0.432693  1
  Si  Si23  1  0.134706  0.795387  0.932693  1
  Si  Si24  1  0.702315  0.636802  0.182510  1
  Si  Si25  1  0.297685  0.363198  0.682510  1
  Si  Si26  1  0.547914  0.206884  0.932624  1
  Si  Si27  1  0.452086  0.793116  0.432624  1
  Si  Si28  1  0.703179  0.958057  0.684779  1
  Si  Si29  1  0.296821  0.041943  0.184779  1
  Si  Si30  1  0.793116  0.452086  0.567376  1
  Si  Si31  1  0.206884  0.547914  0.067376  1
  Si  Si32  1  0.958057  0.703179  0.315221  1
  Si  Si33  1  0.041943  0.296821  0.815221  1
  W  W34  1  0.671396  0.328604  0.750000  1
  W  W35  1  0.328604  0.671396  0.250000  1
