# generated using pymatgen
data_ZrPa5PBr15
_symmetry_space_group_name_H-M   'P 1'
_cell_length_a   9.61315285
_cell_length_b   9.61297631
_cell_length_c   9.61297600
_cell_angle_alpha   109.60639661
_cell_angle_beta   109.40329388
_cell_angle_gamma   109.40330631
_symmetry_Int_Tables_number   1
_chemical_formula_structural   ZrPa5PBr15
_chemical_formula_sum   'Zr1 Pa5 P1 Br15'
_cell_volume   683.85163083
_cell_formula_units_Z   1
loop_
 _symmetry_equiv_pos_site_id
 _symmetry_equiv_pos_as_xyz
  1  'x, y, z'
loop_
 _atom_site_type_symbol
 _atom_site_label
 _atom_site_symmetry_multiplicity
 _atom_site_fract_x
 _atom_site_fract_y
 _atom_site_fract_z
 _atom_site_occupancy
  Zr  Zr0  1  0.000000  0.778268  0.778268  1
  Pa  Pa1  1  0.761621  0.757909  0.996287  1
  Pa  Pa2  1  0.238379  0.996289  0.234667  1
  Pa  Pa3  1  0.000000  0.245160  0.245160  1
  Pa  Pa4  1  0.238379  0.234667  0.996289  1
  Pa  Pa5  1  0.761621  0.996287  0.757909  1
  P  P6  1  0.000000  0.003422  0.003422  1
  Br  Br7  1  0.257485  0.254857  0.512338  1
  Br  Br8  1  0.742515  0.997372  0.254853  1
  Br  Br9  1  0.000000  0.743835  0.256932  1
  Br  Br10  1  0.742515  0.254853  0.997372  1
  Br  Br11  1  0.257485  0.512338  0.254857  1
  Br  Br12  1  0.000000  0.256932  0.743835  1
  Br  Br13  1  0.242352  0.741436  0.983784  1
  Br  Br14  1  0.242352  0.983784  0.741436  1
  Br  Br15  1  0.513105  0.256898  0.256898  1
  Br  Br16  1  0.757648  0.741433  0.499083  1
  Br  Br17  1  0.757648  0.499083  0.741433  1
  Br  Br18  1  0.486895  0.743794  0.743794  1
  Br  Br19  1  0.500000  0.499933  0.999933  1
  Br  Br20  1  0.500000  0.999933  0.499933  1
  Br  Br21  1  0.000000  0.501519  0.501519  1
