# generated using pymatgen
data_LuMnFe4P3
_symmetry_space_group_name_H-M   'P 1'
_cell_length_a   3.63803000
_cell_length_b   10.26881100
_cell_length_c   11.78949000
_cell_angle_alpha   90.00000000
_cell_angle_beta   90.00000000
_cell_angle_gamma   90.00000000
_symmetry_Int_Tables_number   1
_chemical_formula_structural   LuMnFe4P3
_chemical_formula_sum   'Lu4 Mn4 Fe16 P12'
_cell_volume   440.43462616
_cell_formula_units_Z   4
loop_
 _symmetry_equiv_pos_site_id
 _symmetry_equiv_pos_as_xyz
  1  'x, y, z'
loop_
 _atom_site_type_symbol
 _atom_site_label
 _atom_site_symmetry_multiplicity
 _atom_site_fract_x
 _atom_site_fract_y
 _atom_site_fract_z
 _atom_site_occupancy
  Lu  Lu0  1  0.250000  0.580249  0.705286  1
  Lu  Lu1  1  0.250000  0.919751  0.205286  1
  Lu  Lu2  1  0.750000  0.419751  0.294714  1
  Lu  Lu3  1  0.750000  0.080249  0.794714  1
  Mn  Mn4  1  0.250000  0.702955  0.988179  1
  Mn  Mn5  1  0.250000  0.797045  0.488179  1
  Mn  Mn6  1  0.750000  0.297045  0.011821  1
  Mn  Mn7  1  0.750000  0.202955  0.511821  1
  Fe  Fe8  1  0.250000  0.404859  0.488109  1
  Fe  Fe9  1  0.250000  0.095141  0.988109  1
  Fe  Fe10  1  0.750000  0.595141  0.511891  1
  Fe  Fe11  1  0.750000  0.904859  0.011891  1
  Fe  Fe12  1  0.250000  0.219802  0.173466  1
  Fe  Fe13  1  0.250000  0.280198  0.673466  1
  Fe  Fe14  1  0.750000  0.780198  0.826534  1
  Fe  Fe15  1  0.750000  0.719802  0.326534  1
  Fe  Fe16  1  0.250000  0.875028  0.700976  1
  Fe  Fe17  1  0.250000  0.624972  0.200976  1
  Fe  Fe18  1  0.750000  0.124972  0.299024  1
  Fe  Fe19  1  0.750000  0.375028  0.799024  1
  Fe  Fe20  1  0.250000  0.462539  0.932722  1
  Fe  Fe21  1  0.250000  0.037461  0.432722  1
  Fe  Fe22  1  0.750000  0.537461  0.067278  1
  Fe  Fe23  1  0.750000  0.962539  0.567278  1
  P  P24  1  0.250000  0.423534  0.114758  1
  P  P25  1  0.250000  0.076466  0.614758  1
  P  P26  1  0.750000  0.576466  0.885242  1
  P  P27  1  0.750000  0.923534  0.385242  1
  P  P28  1  0.250000  0.264412  0.865974  1
  P  P29  1  0.250000  0.235588  0.365974  1
  P  P30  1  0.750000  0.735588  0.134026  1
  P  P31  1  0.750000  0.764412  0.634026  1
  P  P32  1  0.250000  0.596757  0.392292  1
  P  P33  1  0.250000  0.903243  0.892292  1
  P  P34  1  0.750000  0.403243  0.607708  1
  P  P35  1  0.750000  0.096757  0.107708  1
