# generated using pymatgen
data_Yb3B4Ru10W3
_symmetry_space_group_name_H-M   'P 1'
_cell_length_a   9.59349276
_cell_length_b   9.59349241
_cell_length_c   3.00221300
_cell_angle_alpha   90.00000000
_cell_angle_beta   90.00000000
_cell_angle_gamma   89.70563383
_symmetry_Int_Tables_number   1
_chemical_formula_structural   Yb3B4Ru10W3
_chemical_formula_sum   'Yb3 B4 Ru10 W3'
_cell_volume   276.30532694
_cell_formula_units_Z   1
loop_
 _symmetry_equiv_pos_site_id
 _symmetry_equiv_pos_as_xyz
  1  'x, y, z'
loop_
 _atom_site_type_symbol
 _atom_site_label
 _atom_site_symmetry_multiplicity
 _atom_site_fract_x
 _atom_site_fract_y
 _atom_site_fract_z
 _atom_site_occupancy
  Yb  Yb0  1  0.174270  0.825730  0.000000  1
  Yb  Yb1  1  0.324432  0.323415  0.000000  1
  Yb  Yb2  1  0.676585  0.675568  0.000000  1
  B  B3  1  0.622463  0.377537  0.000000  1
  B  B4  1  0.385475  0.614525  0.000000  1
  B  B5  1  0.119141  0.123458  0.000000  1
  B  B6  1  0.876542  0.880859  0.000000  1
  Ru  Ru7  1  0.503879  0.496121  0.500000  1
  Ru  Ru8  1  0.990877  0.009123  0.500000  1
  Ru  Ru9  1  0.585762  0.210548  0.500000  1
  Ru  Ru10  1  0.431076  0.782895  0.500000  1
  Ru  Ru11  1  0.053681  0.281166  0.500000  1
  Ru  Ru12  1  0.929594  0.719393  0.500000  1
  Ru  Ru13  1  0.280607  0.070406  0.500000  1
  Ru  Ru14  1  0.718834  0.946319  0.500000  1
  Ru  Ru15  1  0.217105  0.568924  0.500000  1
  Ru  Ru16  1  0.789452  0.414238  0.500000  1
  W  W17  1  0.492513  0.996435  0.000000  1
  W  W18  1  0.003565  0.507487  0.000000  1
  W  W19  1  0.824147  0.175853  0.000000  1
