# generated using pymatgen
data_CaPrAl20IrOs3
_symmetry_space_group_name_H-M   'P 1'
_cell_length_a   6.89455868
_cell_length_b   6.89169951
_cell_length_c   9.20339946
_cell_angle_alpha   90.21183319
_cell_angle_beta   90.04058115
_cell_angle_gamma   96.47034534
_symmetry_Int_Tables_number   1
_chemical_formula_structural   CaPrAl20IrOs3
_chemical_formula_sum   'Ca1 Pr1 Al20 Ir1 Os3'
_cell_volume   434.51288873
_cell_formula_units_Z   1
loop_
 _symmetry_equiv_pos_site_id
 _symmetry_equiv_pos_as_xyz
  1  'x, y, z'
loop_
 _atom_site_type_symbol
 _atom_site_label
 _atom_site_symmetry_multiplicity
 _atom_site_fract_x
 _atom_site_fract_y
 _atom_site_fract_z
 _atom_site_occupancy
  Ca  Ca0  1  0.872262  0.125222  0.750208  1
  Pr  Pr1  1  0.125953  0.876099  0.250201  1
  Al  Al2  1  0.620898  0.376016  0.549574  1
  Al  Al3  1  0.380437  0.622659  0.448511  1
  Al  Al4  1  0.378145  0.622084  0.049681  1
  Al  Al5  1  0.623481  0.376064  0.951749  1
  Al  Al6  1  0.224798  0.225211  0.500448  1
  Al  Al7  1  0.773635  0.777108  0.502307  1
  Al  Al8  1  0.774111  0.776666  0.998447  1
  Al  Al9  1  0.223794  0.225382  0.999011  1
  Al  Al10  1  0.841371  0.159414  0.099870  1
  Al  Al11  1  0.159815  0.839020  0.898406  1
  Al  Al12  1  0.161082  0.840762  0.603338  1
  Al  Al13  1  0.839645  0.158287  0.398059  1
  Al  Al14  1  0.855674  0.585591  0.750996  1
  Al  Al15  1  0.142998  0.411933  0.249097  1
  Al  Al16  1  0.414714  0.143534  0.750368  1
  Al  Al17  1  0.588480  0.857926  0.249654  1
  Al  Al18  1  0.219215  0.479347  0.752297  1
  Al  Al19  1  0.778777  0.516282  0.247666  1
  Al  Al20  1  0.520523  0.782227  0.749310  1
  Al  Al21  1  0.484055  0.220351  0.250600  1
  Ir  Ir22  1  0.999290  0.501024  0.500257  1
  Os  Os23  1  0.999457  0.501137  0.999883  1
  Os  Os24  1  0.498537  0.000277  0.999783  1
  Os  Os25  1  0.498851  0.000376  0.500279  1
