# generated using pymatgen
data_Tl3CuSe13
_symmetry_space_group_name_H-M   'P 1'
_cell_length_a   5.00314700
_cell_length_b   13.82403468
_cell_length_c   14.95990937
_cell_angle_alpha   85.97766688
_cell_angle_beta   90.00000000
_cell_angle_gamma   90.00000000
_symmetry_Int_Tables_number   1
_chemical_formula_structural   Tl3CuSe13
_chemical_formula_sum   'Tl6 Cu2 Se26'
_cell_volume   1032.13370384
_cell_formula_units_Z   2
loop_
 _symmetry_equiv_pos_site_id
 _symmetry_equiv_pos_as_xyz
  1  'x, y, z'
loop_
 _atom_site_type_symbol
 _atom_site_label
 _atom_site_symmetry_multiplicity
 _atom_site_fract_x
 _atom_site_fract_y
 _atom_site_fract_z
 _atom_site_occupancy
  Tl  Tl0  1  0.192956  0.172694  0.718755  1
  Tl  Tl1  1  0.192956  0.327306  0.281245  1
  Tl  Tl2  1  0.136176  0.250000  0.000000  1
  Tl  Tl3  1  0.863824  0.750000  0.000000  1
  Tl  Tl4  1  0.807044  0.827306  0.281245  1
  Tl  Tl5  1  0.807044  0.672694  0.718755  1
  Cu  Cu6  1  0.000000  0.500000  0.500000  1
  Cu  Cu7  1  0.000000  0.000000  0.500000  1
  Se  Se8  1  0.293909  0.552444  0.612146  1
  Se  Se9  1  0.628338  0.575042  0.273870  1
  Se  Se10  1  0.371662  0.075042  0.273870  1
  Se  Se11  1  0.371662  0.424958  0.726130  1
  Se  Se12  1  0.911922  0.536356  0.151203  1
  Se  Se13  1  0.911922  0.963644  0.848797  1
  Se  Se14  1  0.088078  0.463644  0.848797  1
  Se  Se15  1  0.088078  0.036356  0.151203  1
  Se  Se16  1  0.667158  0.420662  0.073507  1
  Se  Se17  1  0.628338  0.924958  0.726130  1
  Se  Se18  1  0.332842  0.579338  0.926493  1
  Se  Se19  1  0.332842  0.920662  0.073507  1
  Se  Se20  1  0.704960  0.265395  0.152335  1
  Se  Se21  1  0.704960  0.234605  0.847665  1
  Se  Se22  1  0.295040  0.734605  0.847665  1
  Se  Se23  1  0.295040  0.765395  0.152335  1
  Se  Se24  1  0.064884  0.651342  0.416014  1
  Se  Se25  1  0.064884  0.848658  0.583986  1
  Se  Se26  1  0.935116  0.348658  0.583986  1
  Se  Se27  1  0.935116  0.151342  0.416014  1
  Se  Se28  1  0.648140  0.250000  0.500000  1
  Se  Se29  1  0.351860  0.750000  0.500000  1
  Se  Se30  1  0.706091  0.447556  0.387854  1
  Se  Se31  1  0.706091  0.052444  0.612146  1
  Se  Se32  1  0.667158  0.079338  0.926493  1
  Se  Se33  1  0.293909  0.947556  0.387854  1
