# generated using pymatgen
data_Yb10Cd2CuPd2Pt
_symmetry_space_group_name_H-M   'P 1'
_cell_length_a   9.05895738
_cell_length_b   9.05895746
_cell_length_c   9.06908690
_cell_angle_alpha   128.98086399
_cell_angle_beta   128.98086466
_cell_angle_gamma   74.95789985
_symmetry_Int_Tables_number   1
_chemical_formula_structural   Yb10Cd2CuPd2Pt
_chemical_formula_sum   'Yb10 Cd2 Cu1 Pd2 Pt1'
_cell_volume   438.16786308
_cell_formula_units_Z   1
loop_
 _symmetry_equiv_pos_site_id
 _symmetry_equiv_pos_as_xyz
  1  'x, y, z'
loop_
 _atom_site_type_symbol
 _atom_site_label
 _atom_site_symmetry_multiplicity
 _atom_site_fract_x
 _atom_site_fract_y
 _atom_site_fract_z
 _atom_site_occupancy
  Yb  Yb0  1  0.501713  0.504270  0.005982  1
  Yb  Yb1  1  0.995730  0.998287  0.994018  1
  Yb  Yb2  1  0.535945  0.032078  0.833920  1
  Yb  Yb3  1  0.202026  0.698161  0.166080  1
  Yb  Yb4  1  0.032230  0.203980  0.500000  1
  Yb  Yb5  1  0.700858  0.537378  0.500000  1
  Yb  Yb6  1  0.467922  0.964055  0.166080  1
  Yb  Yb7  1  0.801839  0.297974  0.833920  1
  Yb  Yb8  1  0.962622  0.799142  0.500000  1
  Yb  Yb9  1  0.296020  0.467770  0.500000  1
  Cd  Cd10  1  0.250664  0.249336  0.000000  1
  Cd  Cd11  1  0.750664  0.749336  0.000000  1
  Cu  Cu12  1  0.378208  0.121792  0.500000  1
  Pd  Pd13  1  0.132204  0.631776  0.763981  1
  Pd  Pd14  1  0.868224  0.367796  0.236019  1
  Pt  Pt15  1  0.623131  0.876869  0.500000  1
