# generated using pymatgen
data_YbPr7(ReC2)4
_symmetry_space_group_name_H-M   'P 1'
_cell_length_a   5.38004200
_cell_length_b   6.70521305
_cell_length_c   10.35946452
_cell_angle_alpha   89.74362001
_cell_angle_beta   90.00000000
_cell_angle_gamma   90.00000000
_symmetry_Int_Tables_number   1
_chemical_formula_structural   YbPr7(ReC2)4
_chemical_formula_sum   'Yb1 Pr7 Re4 C8'
_cell_volume   373.70697777
_cell_formula_units_Z   1
loop_
 _symmetry_equiv_pos_site_id
 _symmetry_equiv_pos_as_xyz
  1  'x, y, z'
loop_
 _atom_site_type_symbol
 _atom_site_label
 _atom_site_symmetry_multiplicity
 _atom_site_fract_x
 _atom_site_fract_y
 _atom_site_fract_z
 _atom_site_occupancy
  Yb  Yb0  1  0.750000  0.527893  0.776919  1
  Pr  Pr1  1  0.250000  0.972289  0.286532  1
  Pr  Pr2  1  0.750000  0.689824  0.451697  1
  Pr  Pr3  1  0.250000  0.803114  0.948664  1
  Pr  Pr4  1  0.750000  0.193826  0.048437  1
  Pr  Pr5  1  0.250000  0.308360  0.551242  1
  Pr  Pr6  1  0.250000  0.473324  0.217277  1
  Pr  Pr7  1  0.750000  0.026117  0.717994  1
  Re  Re8  1  0.250000  0.270225  0.855465  1
  Re  Re9  1  0.250000  0.770229  0.643630  1
  Re  Re10  1  0.750000  0.230482  0.355721  1
  Re  Re11  1  0.750000  0.732324  0.144957  1
  C  C12  1  0.250000  0.687206  0.466127  1
  C  C13  1  0.250000  0.533187  0.757581  1
  C  C14  1  0.750000  0.468635  0.242353  1
  C  C15  1  0.750000  0.808721  0.967049  1
  C  C16  1  0.250000  0.033000  0.742897  1
  C  C17  1  0.250000  0.196231  0.033993  1
  C  C18  1  0.750000  0.306867  0.533386  1
  C  C19  1  0.750000  0.968143  0.258080  1
