# generated using pymatgen
data_Li4Gd3Y(SiO4)4
_symmetry_space_group_name_H-M   'P 1'
_cell_length_a   5.48855517
_cell_length_b   11.02765077
_cell_length_c   6.28582635
_cell_angle_alpha   90.06463529
_cell_angle_beta   89.90520470
_cell_angle_gamma   113.47448187
_symmetry_Int_Tables_number   1
_chemical_formula_structural   Li4Gd3Y(SiO4)4
_chemical_formula_sum   'Li4 Gd3 Y1 Si4 O16'
_cell_volume   348.96719627
_cell_formula_units_Z   1
loop_
 _symmetry_equiv_pos_site_id
 _symmetry_equiv_pos_as_xyz
  1  'x, y, z'
loop_
 _atom_site_type_symbol
 _atom_site_label
 _atom_site_symmetry_multiplicity
 _atom_site_fract_x
 _atom_site_fract_y
 _atom_site_fract_z
 _atom_site_occupancy
  Li  Li0  1  0.922222  0.570940  0.133818  1
  Li  Li1  1  0.919546  0.069660  0.366582  1
  Li  Li2  1  0.078648  0.928969  0.634114  1
  Li  Li3  1  0.078997  0.429156  0.866276  1
  Gd  Gd4  1  0.444316  0.151338  0.116982  1
  Gd  Gd5  1  0.445529  0.652876  0.383256  1
  Gd  Gd6  1  0.555598  0.348668  0.617483  1
  Y  Y7  1  0.554525  0.848493  0.883464  1
  Si  Si8  1  0.093946  0.858758  0.149476  1
  Si  Si9  1  0.094006  0.358924  0.347939  1
  Si  Si10  1  0.907009  0.642747  0.654353  1
  Si  Si11  1  0.904560  0.139682  0.847799  1
  O  O12  1  0.776878  0.054784  0.069518  1
  O  O13  1  0.769869  0.777633  0.137508  1
  O  O14  1  0.180801  0.473378  0.162793  1
  O  O15  1  0.238410  0.752634  0.159476  1
  O  O16  1  0.236619  0.252149  0.337915  1
  O  O17  1  0.179180  0.972481  0.336121  1
  O  O18  1  0.770227  0.276671  0.358629  1
  O  O19  1  0.780877  0.559052  0.431117  1
  O  O20  1  0.222349  0.443764  0.569644  1
  O  O21  1  0.231173  0.725080  0.644726  1
  O  O22  1  0.816137  0.024300  0.663753  1
  O  O23  1  0.761396  0.748349  0.665748  1
  O  O24  1  0.762420  0.246763  0.837657  1
  O  O25  1  0.819924  0.527177  0.837910  1
  O  O26  1  0.228356  0.222131  0.857338  1
  O  O27  1  0.226482  0.943445  0.928602  1
