# generated using pymatgen
data_Be6Co2Os3W
_symmetry_space_group_name_H-M   'P 1'
_cell_length_a   4.47591100
_cell_length_b   4.47591157
_cell_length_c   7.08660200
_cell_angle_alpha   90.00000000
_cell_angle_beta   90.00000000
_cell_angle_gamma   120.00000318
_symmetry_Int_Tables_number   1
_chemical_formula_structural   Be6Co2Os3W
_chemical_formula_sum   'Be6 Co2 Os3 W1'
_cell_volume   122.95086830
_cell_formula_units_Z   1
loop_
 _symmetry_equiv_pos_site_id
 _symmetry_equiv_pos_as_xyz
  1  'x, y, z'
loop_
 _atom_site_type_symbol
 _atom_site_label
 _atom_site_symmetry_multiplicity
 _atom_site_fract_x
 _atom_site_fract_y
 _atom_site_fract_z
 _atom_site_occupancy
  Be  Be0  1  0.829552  0.170448  0.254578  1
  Be  Be1  1  0.829552  0.659104  0.254578  1
  Be  Be2  1  0.340896  0.170448  0.254578  1
  Be  Be3  1  0.168776  0.831224  0.747223  1
  Be  Be4  1  0.168776  0.337553  0.747223  1
  Be  Be5  1  0.662447  0.831224  0.747223  1
  Co  Co6  1  0.000000  0.000000  0.502932  1
  Co  Co7  1  0.000000  0.000000  0.003076  1
  Os  Os8  1  0.333333  0.666667  0.430058  1
  Os  Os9  1  0.666667  0.333333  0.562600  1
  Os  Os10  1  0.666667  0.333333  0.934393  1
  W  W11  1  0.333333  0.666667  0.061537  1
