# generated using pymatgen
data_Na2RhF5
_symmetry_space_group_name_H-M   'P 1'
_cell_length_a   5.50964600
_cell_length_b   7.41354614
_cell_length_c   11.24913048
_cell_angle_alpha   73.57812511
_cell_angle_beta   90.00000000
_cell_angle_gamma   90.00000000
_symmetry_Int_Tables_number   1
_chemical_formula_structural   Na2RhF5
_chemical_formula_sum   'Na8 Rh4 F20'
_cell_volume   440.73808630
_cell_formula_units_Z   4
loop_
 _symmetry_equiv_pos_site_id
 _symmetry_equiv_pos_as_xyz
  1  'x, y, z'
loop_
 _atom_site_type_symbol
 _atom_site_label
 _atom_site_symmetry_multiplicity
 _atom_site_fract_x
 _atom_site_fract_y
 _atom_site_fract_z
 _atom_site_occupancy
  Na  Na0  1  0.946650  0.350076  0.314574  1
  Na  Na1  1  0.446650  0.649924  0.185426  1
  Na  Na2  1  0.053350  0.649924  0.685426  1
  Na  Na3  1  0.553350  0.350076  0.814574  1
  Na  Na4  1  0.488476  0.146980  0.135770  1
  Na  Na5  1  0.988476  0.853020  0.364230  1
  Na  Na6  1  0.511524  0.853020  0.864230  1
  Na  Na7  1  0.011524  0.146980  0.635770  1
  Rh  Rh8  1  0.500000  0.500000  0.500000  1
  Rh  Rh9  1  0.000000  0.500000  0.000000  1
  Rh  Rh10  1  0.500000  0.000000  0.500000  1
  Rh  Rh11  1  0.000000  0.000000  0.000000  1
  F  F12  1  0.751500  0.478908  0.632110  1
  F  F13  1  0.251500  0.521092  0.867890  1
  F  F14  1  0.248500  0.521092  0.367890  1
  F  F15  1  0.748500  0.478908  0.132110  1
  F  F16  1  0.725496  0.616447  0.359067  1
  F  F17  1  0.225496  0.383553  0.140933  1
  F  F18  1  0.274504  0.383553  0.640933  1
  F  F19  1  0.774504  0.616447  0.859067  1
  F  F20  1  0.650618  0.251062  0.497227  1
  F  F21  1  0.150618  0.748938  0.002773  1
  F  F22  1  0.349382  0.748938  0.502773  1
  F  F23  1  0.849382  0.251062  0.997227  1
  F  F24  1  0.843693  0.054257  0.830890  1
  F  F25  1  0.343693  0.945743  0.669110  1
  F  F26  1  0.156307  0.945743  0.169110  1
  F  F27  1  0.656307  0.054257  0.330890  1
  F  F28  1  0.682731  0.892316  0.074118  1
  F  F29  1  0.182731  0.107684  0.425882  1
  F  F30  1  0.317269  0.107684  0.925882  1
  F  F31  1  0.817269  0.892316  0.574118  1
