# generated using pymatgen
data_BaNaAs4Ir3Ru
_symmetry_space_group_name_H-M   'P 1'
_cell_length_a   6.96655785
_cell_length_b   6.95145160
_cell_length_c   5.81373400
_cell_angle_alpha   90.00000000
_cell_angle_beta   90.00000000
_cell_angle_gamma   131.06389879
_symmetry_Int_Tables_number   1
_chemical_formula_structural   BaNaAs4Ir3Ru
_chemical_formula_sum   'Ba1 Na1 As4 Ir3 Ru1'
_cell_volume   212.27911241
_cell_formula_units_Z   1
loop_
 _symmetry_equiv_pos_site_id
 _symmetry_equiv_pos_as_xyz
  1  'x, y, z'
loop_
 _atom_site_type_symbol
 _atom_site_label
 _atom_site_symmetry_multiplicity
 _atom_site_fract_x
 _atom_site_fract_y
 _atom_site_fract_z
 _atom_site_occupancy
  Ba  Ba0  1  0.500000  0.500000  0.502598  1
  Na  Na1  1  0.000000  0.000000  0.999661  1
  As  As2  1  0.356388  0.636156  0.003634  1
  As  As3  1  0.860299  0.146067  0.495386  1
  As  As4  1  0.139701  0.853933  0.495386  1
  As  As5  1  0.643612  0.363844  0.003634  1
  Ir  Ir6  1  0.500000  0.000000  0.751761  1
  Ir  Ir7  1  0.000000  0.500000  0.752865  1
  Ir  Ir8  1  0.500000  0.000000  0.248275  1
  Ru  Ru9  1  0.000000  0.500000  0.246799  1
