# generated using pymatgen
data_MgMn3ZnGa(B2Rh5)2
_symmetry_space_group_name_H-M   'P 1'
_cell_length_a   9.36746800
_cell_length_b   9.36746851
_cell_length_c   2.92990000
_cell_angle_alpha   90.00000000
_cell_angle_beta   90.00000000
_cell_angle_gamma   89.69067670
_symmetry_Int_Tables_number   1
_chemical_formula_structural   MgMn3ZnGa(B2Rh5)2
_chemical_formula_sum   'Mg1 Mn3 Zn1 Ga1 B4 Rh10'
_cell_volume   257.09340065
_cell_formula_units_Z   1
loop_
 _symmetry_equiv_pos_site_id
 _symmetry_equiv_pos_as_xyz
  1  'x, y, z'
loop_
 _atom_site_type_symbol
 _atom_site_label
 _atom_site_symmetry_multiplicity
 _atom_site_fract_x
 _atom_site_fract_y
 _atom_site_fract_z
 _atom_site_occupancy
  Mg  Mg0  1  0.823431  0.324435  0.000000  1
  Mn  Mn1  1  0.324855  0.177895  0.000000  1
  Mn  Mn2  1  0.676426  0.823242  0.000000  1
  Mn  Mn3  1  0.178291  0.676518  0.000000  1
  Zn  Zn4  1  0.501044  0.499597  0.000000  1
  Ga  Ga5  1  0.999559  0.001022  0.000000  1
  B  B6  1  0.623964  0.126592  0.000000  1
  B  B7  1  0.128921  0.374234  0.000000  1
  B  B8  1  0.871811  0.626494  0.000000  1
  B  B9  1  0.373378  0.870829  0.000000  1
  Rh  Rh10  1  0.074380  0.214166  0.500000  1
  Rh  Rh11  1  0.214447  0.929761  0.500000  1
  Rh  Rh12  1  0.782839  0.065650  0.500000  1
  Rh  Rh13  1  0.930329  0.785533  0.500000  1
  Rh  Rh14  1  0.428860  0.715436  0.500000  1
  Rh  Rh15  1  0.566224  0.281826  0.500000  1
  Rh  Rh16  1  0.715006  0.575825  0.500000  1
  Rh  Rh17  1  0.284702  0.429408  0.500000  1
  Rh  Rh18  1  0.498913  0.998873  0.500000  1
  Rh  Rh19  1  0.002623  0.502664  0.500000  1
