# generated using pymatgen
data_KBa3Ca2(ReN4)2
_symmetry_space_group_name_H-M   'P 1'
_cell_length_a   10.85107760
_cell_length_b   10.50650161
_cell_length_c   8.10268346
_cell_angle_alpha   69.97806347
_cell_angle_beta   65.46748952
_cell_angle_gamma   44.55444210
_symmetry_Int_Tables_number   1
_chemical_formula_structural   KBa3Ca2(ReN4)2
_chemical_formula_sum   'K2 Ba6 Ca4 Re4 N16'
_cell_volume   588.02481519
_cell_formula_units_Z   2
loop_
 _symmetry_equiv_pos_site_id
 _symmetry_equiv_pos_as_xyz
  1  'x, y, z'
loop_
 _atom_site_type_symbol
 _atom_site_label
 _atom_site_symmetry_multiplicity
 _atom_site_fract_x
 _atom_site_fract_y
 _atom_site_fract_z
 _atom_site_occupancy
  K  K0  1  0.573221  0.926779  0.926779  1
  K  K1  1  0.926779  0.573221  0.573221  1
  Ba  Ba2  1  0.321576  0.678424  0.678424  1
  Ba  Ba3  1  0.111927  0.111927  0.888073  1
  Ba  Ba4  1  0.137867  0.137867  0.362133  1
  Ba  Ba5  1  0.362133  0.362133  0.137867  1
  Ba  Ba6  1  0.678424  0.321576  0.321576  1
  Ba  Ba7  1  0.888073  0.888073  0.111927  1
  Ca  Ca8  1  0.337137  0.337137  0.662863  1
  Ca  Ca9  1  0.908319  0.908319  0.591681  1
  Ca  Ca10  1  0.662863  0.662863  0.337137  1
  Ca  Ca11  1  0.591681  0.591681  0.908319  1
  Re  Re12  1  0.494806  0.005194  0.494806  1
  Re  Re13  1  0.005194  0.494806  0.005194  1
  Re  Re14  1  0.755092  0.244908  0.755092  1
  Re  Re15  1  0.244908  0.755092  0.244908  1
  N  N16  1  0.017219  0.652818  0.824740  1
  N  N17  1  0.705360  0.281104  0.993502  1
  N  N18  1  0.652818  0.017219  0.505224  1
  N  N19  1  0.505224  0.824740  0.652818  1
  N  N20  1  0.245440  0.588883  0.422935  1
  N  N21  1  0.742742  0.422935  0.588883  1
  N  N22  1  0.993502  0.020034  0.705360  1
  N  N23  1  0.550034  0.966216  0.259499  1
  N  N24  1  0.422935  0.742742  0.245440  1
  N  N25  1  0.966216  0.550034  0.224251  1
  N  N26  1  0.281104  0.705360  0.020034  1
  N  N27  1  0.824740  0.505224  0.017219  1
  N  N28  1  0.224251  0.259499  0.966216  1
  N  N29  1  0.588883  0.245440  0.742742  1
  N  N30  1  0.259499  0.224251  0.550034  1
  N  N31  1  0.020034  0.993502  0.281104  1
