# generated using pymatgen
data_Rb2UTl2S5
_symmetry_space_group_name_H-M   'P 1'
_cell_length_a   7.77785553
_cell_length_b   11.44039676
_cell_length_c   7.73390700
_cell_angle_alpha   101.27484489
_cell_angle_beta   102.56173579
_cell_angle_gamma   109.20707195
_symmetry_Int_Tables_number   1
_chemical_formula_structural   Rb2UTl2S5
_chemical_formula_sum   'Rb4 U2 Tl4 S10'
_cell_volume   607.10380266
_cell_formula_units_Z   2
loop_
 _symmetry_equiv_pos_site_id
 _symmetry_equiv_pos_as_xyz
  1  'x, y, z'
loop_
 _atom_site_type_symbol
 _atom_site_label
 _atom_site_symmetry_multiplicity
 _atom_site_fract_x
 _atom_site_fract_y
 _atom_site_fract_z
 _atom_site_occupancy
  Rb  Rb0  1  0.013757  0.504244  0.999395  1
  Rb  Rb1  1  0.987474  0.996451  0.495311  1
  Rb  Rb2  1  0.410202  0.404412  0.710114  1
  Rb  Rb3  1  0.576024  0.098456  0.780204  1
  U  U4  1  0.194961  0.192759  0.104091  1
  U  U5  1  0.808638  0.807509  0.897559  1
  Tl  Tl6  1  0.383530  0.897017  0.200853  1
  Tl  Tl7  1  0.599966  0.603730  0.303768  1
  Tl  Tl8  1  0.777075  0.299877  0.393556  1
  Tl  Tl9  1  0.223948  0.697987  0.604140  1
  S  S10  1  0.526256  0.317775  0.079664  1
  S  S11  1  0.852147  0.038366  0.100981  1
  S  S12  1  0.964345  0.759388  0.180446  1
  S  S13  1  0.182813  0.389502  0.305229  1
  S  S14  1  0.369312  0.151123  0.388711  1
  S  S15  1  0.627028  0.837458  0.609292  1
  S  S16  1  0.821383  0.612077  0.687896  1
  S  S17  1  0.039011  0.236603  0.822094  1
  S  S18  1  0.158905  0.960095  0.897239  1
  S  S19  1  0.483232  0.695172  0.939457  1
