# generated using pymatgen
data_Tb10AlGaBi4
_symmetry_space_group_name_H-M   'P 1'
_cell_length_a   9.04003820
_cell_length_b   9.04003816
_cell_length_c   6.51132700
_cell_angle_alpha   90.00000000
_cell_angle_beta   90.00000000
_cell_angle_gamma   120.05980454
_symmetry_Int_Tables_number   1
_chemical_formula_structural   Tb10AlGaBi4
_chemical_formula_sum   'Tb10 Al1 Ga1 Bi4'
_cell_volume   460.55195765
_cell_formula_units_Z   1
loop_
 _symmetry_equiv_pos_site_id
 _symmetry_equiv_pos_as_xyz
  1  'x, y, z'
loop_
 _atom_site_type_symbol
 _atom_site_label
 _atom_site_symmetry_multiplicity
 _atom_site_fract_x
 _atom_site_fract_y
 _atom_site_fract_z
 _atom_site_occupancy
  Tb  Tb0  1  0.654661  0.343699  0.999402  1
  Tb  Tb1  1  0.343699  0.654661  0.999402  1
  Tb  Tb2  1  0.343699  0.654661  0.500598  1
  Tb  Tb3  1  0.654661  0.343699  0.500598  1
  Tb  Tb4  1  0.753821  0.753821  0.750000  1
  Tb  Tb5  1  0.244340  0.015850  0.750000  1
  Tb  Tb6  1  0.015850  0.244340  0.750000  1
  Tb  Tb7  1  0.244966  0.244966  0.250000  1
  Tb  Tb8  1  0.757530  0.986950  0.250000  1
  Tb  Tb9  1  0.986950  0.757530  0.250000  1
  Al  Al10  1  0.601344  0.601344  0.250000  1
  Ga  Ga11  1  0.397597  0.397597  0.750000  1
  Bi  Bi12  1  0.611837  0.007186  0.750000  1
  Bi  Bi13  1  0.007186  0.611837  0.750000  1
  Bi  Bi14  1  0.389199  0.992661  0.250000  1
  Bi  Bi15  1  0.992661  0.389199  0.250000  1
