# generated using pymatgen
data_Sr2YNpO6
_symmetry_space_group_name_H-M   'P 1'
_cell_length_a   6.12265000
_cell_length_b   5.96125964
_cell_length_c   10.42298674
_cell_angle_alpha   55.24316856
_cell_angle_beta   90.00000000
_cell_angle_gamma   90.00000000
_symmetry_Int_Tables_number   1
_chemical_formula_structural   Sr2YNpO6
_chemical_formula_sum   'Sr4 Y2 Np2 O12'
_cell_volume   312.54961686
_cell_formula_units_Z   2
loop_
 _symmetry_equiv_pos_site_id
 _symmetry_equiv_pos_as_xyz
  1  'x, y, z'
loop_
 _atom_site_type_symbol
 _atom_site_label
 _atom_site_symmetry_multiplicity
 _atom_site_fract_x
 _atom_site_fract_y
 _atom_site_fract_z
 _atom_site_occupancy
  Sr  Sr0  1  0.454233  0.260691  0.749606  1
  Sr  Sr1  1  0.954233  0.739309  0.750394  1
  Sr  Sr2  1  0.045767  0.260691  0.249606  1
  Sr  Sr3  1  0.545767  0.739309  0.250394  1
  Y  Y4  1  0.500000  0.000000  0.500000  1
  Y  Y5  1  0.000000  0.000000  0.000000  1
  Np  Np6  1  0.000000  0.500000  0.500000  1
  Np  Np7  1  0.500000  0.500000  0.000000  1
  O  O8  1  0.194850  0.735219  0.549681  1
  O  O9  1  0.694850  0.264781  0.950319  1
  O  O10  1  0.805150  0.264781  0.450319  1
  O  O11  1  0.305150  0.735219  0.049681  1
  O  O12  1  0.711032  0.641806  0.555298  1
  O  O13  1  0.211032  0.358194  0.944702  1
  O  O14  1  0.288968  0.358194  0.444702  1
  O  O15  1  0.788968  0.641806  0.055298  1
  O  O16  1  0.038344  0.157161  0.743573  1
  O  O17  1  0.538344  0.842839  0.756427  1
  O  O18  1  0.961656  0.842839  0.256427  1
  O  O19  1  0.461656  0.157161  0.243573  1
