# generated using pymatgen
data_Ho3Mg(ZnPt)4
_symmetry_space_group_name_H-M   'P 1'
_cell_length_a   4.20788500
_cell_length_b   6.77419369
_cell_length_c   8.00296862
_cell_angle_alpha   91.63717693
_cell_angle_beta   90.00000000
_cell_angle_gamma   90.00000000
_symmetry_Int_Tables_number   1
_chemical_formula_structural   Ho3Mg(ZnPt)4
_chemical_formula_sum   'Ho3 Mg1 Zn4 Pt4'
_cell_volume   228.03172120
_cell_formula_units_Z   1
loop_
 _symmetry_equiv_pos_site_id
 _symmetry_equiv_pos_as_xyz
  1  'x, y, z'
loop_
 _atom_site_type_symbol
 _atom_site_label
 _atom_site_symmetry_multiplicity
 _atom_site_fract_x
 _atom_site_fract_y
 _atom_site_fract_z
 _atom_site_occupancy
  Ho  Ho0  1  0.750000  0.468221  0.825293  1
  Ho  Ho1  1  0.750000  0.961206  0.681432  1
  Ho  Ho2  1  0.250000  0.034010  0.309172  1
  Mg  Mg3  1  0.250000  0.535131  0.182458  1
  Zn  Zn4  1  0.250000  0.638149  0.556923  1
  Zn  Zn5  1  0.750000  0.363231  0.438180  1
  Zn  Zn6  1  0.750000  0.852696  0.064733  1
  Zn  Zn7  1  0.250000  0.147753  0.939387  1
  Pt  Pt8  1  0.250000  0.757877  0.880962  1
  Pt  Pt9  1  0.750000  0.247218  0.122852  1
  Pt  Pt10  1  0.750000  0.739952  0.374557  1
  Pt  Pt11  1  0.250000  0.254558  0.624050  1
