# generated using pymatgen
data_YbDyRe7Si4Mo
_symmetry_space_group_name_H-M   'P 1'
_cell_length_a   7.71956585
_cell_length_b   7.06210964
_cell_length_c   4.20346600
_cell_angle_alpha   90.00000000
_cell_angle_beta   90.00000000
_cell_angle_gamma   90.31615538
_symmetry_Int_Tables_number   1
_chemical_formula_structural   YbDyRe7Si4Mo
_chemical_formula_sum   'Yb1 Dy1 Re7 Si4 Mo1'
_cell_volume   229.15443108
_cell_formula_units_Z   1
loop_
 _symmetry_equiv_pos_site_id
 _symmetry_equiv_pos_as_xyz
  1  'x, y, z'
loop_
 _atom_site_type_symbol
 _atom_site_label
 _atom_site_symmetry_multiplicity
 _atom_site_fract_x
 _atom_site_fract_y
 _atom_site_fract_z
 _atom_site_occupancy
  Yb  Yb0  1  0.501054  0.499889  0.000000  1
  Dy  Dy1  1  0.999551  0.001528  0.500000  1
  Re  Re2  1  0.609293  0.154607  0.500000  1
  Re  Re3  1  0.392072  0.843730  0.500000  1
  Re  Re4  1  0.889791  0.656901  0.000000  1
  Re  Re5  1  0.157440  0.583144  0.500000  1
  Re  Re6  1  0.837459  0.417263  0.500000  1
  Re  Re7  1  0.343082  0.079263  0.000000  1
  Re  Re8  1  0.660025  0.916946  0.000000  1
  Si  Si9  1  0.690342  0.723145  0.500000  1
  Si  Si10  1  0.312323  0.276757  0.500000  1
  Si  Si11  1  0.190970  0.773540  0.000000  1
  Si  Si12  1  0.806048  0.225614  0.000000  1
  Mo  Mo13  1  0.110551  0.347672  0.000000  1
