# generated using pymatgen
data_NaSm4P12Ir9Ru10
_symmetry_space_group_name_H-M   'P 1'
_cell_length_a   12.67236875
_cell_length_b   12.61895155
_cell_length_c   3.99041600
_cell_angle_alpha   90.00000000
_cell_angle_beta   90.00000000
_cell_angle_gamma   119.78313174
_symmetry_Int_Tables_number   1
_chemical_formula_structural   NaSm4P12Ir9Ru10
_chemical_formula_sum   'Na1 Sm4 P12 Ir9 Ru10'
_cell_volume   553.82786752
_cell_formula_units_Z   1
loop_
 _symmetry_equiv_pos_site_id
 _symmetry_equiv_pos_as_xyz
  1  'x, y, z'
loop_
 _atom_site_type_symbol
 _atom_site_label
 _atom_site_symmetry_multiplicity
 _atom_site_fract_x
 _atom_site_fract_y
 _atom_site_fract_z
 _atom_site_occupancy
  Na  Na0  1  0.333417  0.666759  0.000000  1
  Sm  Sm1  1  0.667308  0.332496  0.000000  1
  Sm  Sm2  1  0.813915  0.001282  0.500000  1
  Sm  Sm3  1  0.184894  0.186329  0.500000  1
  Sm  Sm4  1  0.999741  0.814405  0.500000  1
  P  P5  1  0.626957  0.994685  0.000000  1
  P  P6  1  0.366694  0.374813  0.000000  1
  P  P7  1  0.008262  0.633440  0.000000  1
  P  P8  1  0.690092  0.520765  0.500000  1
  P  P9  1  0.830543  0.306217  0.500000  1
  P  P10  1  0.313684  0.827939  0.500000  1
  P  P11  1  0.514443  0.686025  0.500000  1
  P  P12  1  0.183041  0.000345  0.000000  1
  P  P13  1  0.815548  0.816955  0.000000  1
  P  P14  1  0.998108  0.185131  0.000000  1
  P  P15  1  0.478595  0.166806  0.500000  1
  P  P16  1  0.172594  0.486390  0.500000  1
  Ir  Ir17  1  0.621265  0.801386  0.000000  1
  Ir  Ir18  1  0.180958  0.379531  0.000000  1
  Ir  Ir19  1  0.375445  0.184756  0.000000  1
  Ir  Ir20  1  0.198157  0.820897  0.000000  1
  Ir  Ir21  1  0.809091  0.624172  0.000000  1
  Ir  Ir22  1  0.868579  0.505036  0.500000  1
  Ir  Ir23  1  0.494183  0.361450  0.500000  1
  Ir  Ir24  1  0.636590  0.128401  0.500000  1
  Ir  Ir25  1  0.999458  0.000228  0.000000  1
  Ru  Ru26  1  0.123969  0.640121  0.500000  1
  Ru  Ru27  1  0.361460  0.484496  0.500000  1
  Ru  Ru28  1  0.513731  0.874143  0.500000  1
  Ru  Ru29  1  0.713094  0.712605  0.500000  1
  Ru  Ru30  1  0.002054  0.288468  0.500000  1
  Ru  Ru31  1  0.450526  0.003731  0.000000  1
  Ru  Ru32  1  0.553620  0.547328  0.000000  1
  Ru  Ru33  1  0.996831  0.447853  0.000000  1
  Ru  Ru34  1  0.816221  0.194002  0.000000  1
  Ru  Ru35  1  0.286934  0.000614  0.500000  1
