# generated using pymatgen
data_Tm3Zn2Au
_symmetry_space_group_name_H-M   'P 1'
_cell_length_a   3.53690700
_cell_length_b   3.53690700
_cell_length_c   10.58266300
_cell_angle_alpha   90.00000000
_cell_angle_beta   90.00000000
_cell_angle_gamma   90.00000000
_symmetry_Int_Tables_number   1
_chemical_formula_structural   Tm3Zn2Au
_chemical_formula_sum   'Tm3 Zn2 Au1'
_cell_volume   132.38605708
_cell_formula_units_Z   1
loop_
 _symmetry_equiv_pos_site_id
 _symmetry_equiv_pos_as_xyz
  1  'x, y, z'
loop_
 _atom_site_type_symbol
 _atom_site_label
 _atom_site_symmetry_multiplicity
 _atom_site_fract_x
 _atom_site_fract_y
 _atom_site_fract_z
 _atom_site_occupancy
  Tm  Tm0  1  0.000000  0.000000  0.000000  1
  Tm  Tm1  1  0.000000  0.000000  0.331959  1
  Tm  Tm2  1  0.000000  0.000000  0.668040  1
  Zn  Zn3  1  0.500001  0.500001  0.162764  1
  Zn  Zn4  1  0.500001  0.500001  0.837235  1
  Au  Au5  1  0.500001  0.500001  0.500000  1
