# generated using pymatgen
data_Tb2Yb3Ge4
_symmetry_space_group_name_H-M   'P 1'
_cell_length_a   7.46722200
_cell_length_b   7.89919100
_cell_length_c   15.23958400
_cell_angle_alpha   90.00000000
_cell_angle_beta   90.00000000
_cell_angle_gamma   90.00000000
_symmetry_Int_Tables_number   1
_chemical_formula_structural   Tb2Yb3Ge4
_chemical_formula_sum   'Tb8 Yb12 Ge16'
_cell_volume   898.90705757
_cell_formula_units_Z   4
loop_
 _symmetry_equiv_pos_site_id
 _symmetry_equiv_pos_as_xyz
  1  'x, y, z'
loop_
 _atom_site_type_symbol
 _atom_site_label
 _atom_site_symmetry_multiplicity
 _atom_site_fract_x
 _atom_site_fract_y
 _atom_site_fract_z
 _atom_site_occupancy
  Tb  Tb0  1  0.317322  0.172405  0.121311  1
  Tb  Tb1  1  0.817322  0.327595  0.378689  1
  Tb  Tb2  1  0.182678  0.672405  0.878689  1
  Tb  Tb3  1  0.682678  0.827595  0.621311  1
  Tb  Tb4  1  0.317322  0.172405  0.378689  1
  Tb  Tb5  1  0.817322  0.327595  0.121311  1
  Tb  Tb6  1  0.182678  0.672405  0.621311  1
  Tb  Tb7  1  0.682678  0.827595  0.878689  1
  Yb  Yb8  1  0.977670  0.812744  0.404536  1
  Yb  Yb9  1  0.477670  0.687256  0.095464  1
  Yb  Yb10  1  0.522330  0.312744  0.595464  1
  Yb  Yb11  1  0.022330  0.187256  0.904536  1
  Yb  Yb12  1  0.022330  0.187256  0.595464  1
  Yb  Yb13  1  0.522330  0.312744  0.904536  1
  Yb  Yb14  1  0.477670  0.687256  0.404536  1
  Yb  Yb15  1  0.977670  0.812744  0.095464  1
  Yb  Yb16  1  0.346442  0.020046  0.750000  1
  Yb  Yb17  1  0.846442  0.479954  0.750000  1
  Yb  Yb18  1  0.153558  0.520046  0.250000  1
  Yb  Yb19  1  0.653558  0.979954  0.250000  1
  Ge  Ge20  1  0.846963  0.533195  0.540244  1
  Ge  Ge21  1  0.346963  0.966805  0.959756  1
  Ge  Ge22  1  0.653037  0.033195  0.459756  1
  Ge  Ge23  1  0.153037  0.466805  0.040244  1
  Ge  Ge24  1  0.153037  0.466805  0.459756  1
  Ge  Ge25  1  0.653037  0.033195  0.040244  1
  Ge  Ge26  1  0.346963  0.966805  0.540244  1
  Ge  Ge27  1  0.846963  0.533195  0.959756  1
  Ge  Ge28  1  0.978951  0.882469  0.750000  1
  Ge  Ge29  1  0.478951  0.617531  0.750000  1
  Ge  Ge30  1  0.521049  0.382469  0.250000  1
  Ge  Ge31  1  0.021049  0.117531  0.250000  1
  Ge  Ge32  1  0.237232  0.384601  0.750000  1
  Ge  Ge33  1  0.737232  0.115399  0.750000  1
  Ge  Ge34  1  0.262768  0.884601  0.250000  1
  Ge  Ge35  1  0.762768  0.615399  0.250000  1
