# generated using pymatgen
data_Eu2YTm(Si5Pt3)2
_symmetry_space_group_name_H-M   'P 1'
_cell_length_a   8.21372847
_cell_length_b   8.20518592
_cell_length_c   8.20518716
_cell_angle_alpha   136.75056696
_cell_angle_beta   104.43303924
_cell_angle_gamma   91.26584829
_symmetry_Int_Tables_number   1
_chemical_formula_structural   Eu2YTm(Si5Pt3)2
_chemical_formula_sum   'Eu2 Y1 Tm1 Si10 Pt6'
_cell_volume   349.23049055
_cell_formula_units_Z   1
loop_
 _symmetry_equiv_pos_site_id
 _symmetry_equiv_pos_as_xyz
  1  'x, y, z'
loop_
 _atom_site_type_symbol
 _atom_site_label
 _atom_site_symmetry_multiplicity
 _atom_site_fract_x
 _atom_site_fract_y
 _atom_site_fract_z
 _atom_site_occupancy
  Eu  Eu0  1  0.637632  0.370781  0.266851  1
  Eu  Eu1  1  0.362363  0.629156  0.733207  1
  Y  Y2  1  0.102055  0.871452  0.230603  1
  Tm  Tm3  1  0.898476  0.129003  0.769473  1
  Si  Si4  1  0.999906  0.743905  0.743482  1
  Si  Si5  1  0.999906  0.256423  0.256000  1
  Si  Si6  1  0.270725  0.019002  0.749347  1
  Si  Si7  1  0.728678  0.478365  0.748003  1
  Si  Si8  1  0.728678  0.980674  0.250313  1
  Si  Si9  1  0.270725  0.521379  0.251724  1
  Si  Si10  1  0.761247  0.612246  0.149001  1
  Si  Si11  1  0.238212  0.387142  0.851069  1
  Si  Si12  1  0.456975  0.110031  0.346943  1
  Si  Si13  1  0.544299  0.890804  0.653495  1
  Pt  Pt14  1  0.500475  0.752184  0.252638  1
  Pt  Pt15  1  0.500475  0.247838  0.748292  1
  Pt  Pt16  1  0.022785  0.639455  0.383330  1
  Pt  Pt17  1  0.976048  0.359613  0.616435  1
  Pt  Pt18  1  0.243435  0.133656  0.109779  1
  Pt  Pt19  1  0.756903  0.866889  0.890014  1
