# generated using pymatgen
data_Y4ScFe(AuO7)2
_symmetry_space_group_name_H-M   'P 1'
_cell_length_a   7.34748543
_cell_length_b   7.38329349
_cell_length_c   7.34748607
_cell_angle_alpha   59.62029207
_cell_angle_beta   59.62564476
_cell_angle_gamma   59.62033906
_symmetry_Int_Tables_number   1
_chemical_formula_structural   Y4ScFe(AuO7)2
_chemical_formula_sum   'Y4 Sc1 Fe1 Au2 O14'
_cell_volume   279.42592579
_cell_formula_units_Z   1
loop_
 _symmetry_equiv_pos_site_id
 _symmetry_equiv_pos_as_xyz
  1  'x, y, z'
loop_
 _atom_site_type_symbol
 _atom_site_label
 _atom_site_symmetry_multiplicity
 _atom_site_fract_x
 _atom_site_fract_y
 _atom_site_fract_z
 _atom_site_occupancy
  Y  Y0  1  0.499991  0.000009  0.499988  1
  Y  Y1  1  0.999987  0.499986  0.500058  1
  Y  Y2  1  0.500057  0.499982  0.999983  1
  Y  Y3  1  0.499980  0.500005  0.499996  1
  Sc  Sc4  1  0.000042  0.500078  0.000056  1
  Fe  Fe5  1  0.000036  0.999836  0.000017  1
  Au  Au6  1  0.500007  0.999959  0.000018  1
  Au  Au7  1  0.000037  0.000014  0.500001  1
  O  O8  1  0.621554  0.628996  0.621551  1
  O  O9  1  0.378421  0.371024  0.378416  1
  O  O10  1  0.339598  0.918856  0.904610  1
  O  O11  1  0.096736  0.662855  0.649286  1
  O  O12  1  0.910754  0.333253  0.910754  1
  O  O13  1  0.904613  0.918851  0.339595  1
  O  O14  1  0.350709  0.337176  0.903239  1
  O  O15  1  0.338084  0.915947  0.338089  1
  O  O16  1  0.903240  0.337159  0.350731  1
  O  O17  1  0.649272  0.662863  0.096737  1
  O  O18  1  0.095363  0.081147  0.660390  1
  O  O19  1  0.660396  0.081153  0.095357  1
  O  O20  1  0.661886  0.084070  0.661889  1
  O  O21  1  0.089239  0.666786  0.089242  1
