# generated using pymatgen
data_KPu(PS3)2
_symmetry_space_group_name_H-M   'P 1'
_cell_length_a   7.52531400
_cell_length_b   6.64307918
_cell_length_c   10.11784421
_cell_angle_alpha   87.87735287
_cell_angle_beta   90.00000000
_cell_angle_gamma   90.00000000
_symmetry_Int_Tables_number   1
_chemical_formula_structural   KPu(PS3)2
_chemical_formula_sum   'K2 Pu2 P4 S12'
_cell_volume   505.45668137
_cell_formula_units_Z   2
loop_
 _symmetry_equiv_pos_site_id
 _symmetry_equiv_pos_as_xyz
  1  'x, y, z'
loop_
 _atom_site_type_symbol
 _atom_site_label
 _atom_site_symmetry_multiplicity
 _atom_site_fract_x
 _atom_site_fract_y
 _atom_site_fract_z
 _atom_site_occupancy
  K  K0  1  0.039451  0.307262  0.498839  1
  K  K1  1  0.539451  0.692738  0.501161  1
  Pu  Pu2  1  0.261845  0.211920  0.994412  1
  Pu  Pu3  1  0.761845  0.788080  0.005588  1
  P  P4  1  0.751054  0.327837  0.834277  1
  P  P5  1  0.251054  0.672163  0.165723  1
  P  P6  1  0.033462  0.800800  0.289693  1
  P  P7  1  0.533462  0.199200  0.710307  1
  S  S8  1  0.632090  0.370306  0.014901  1
  S  S9  1  0.119108  0.830790  0.473366  1
  S  S10  1  0.941849  0.104065  0.842505  1
  S  S11  1  0.831369  0.604297  0.265120  1
  S  S12  1  0.335437  0.407847  0.246862  1
  S  S13  1  0.331369  0.395703  0.734880  1
  S  S14  1  0.467835  0.947966  0.826574  1
  S  S15  1  0.967835  0.052034  0.173426  1
  S  S16  1  0.619108  0.169210  0.526634  1
  S  S17  1  0.132090  0.629694  0.985099  1
  S  S18  1  0.441849  0.895935  0.157495  1
  S  S19  1  0.835437  0.592153  0.753138  1
