# generated using pymatgen
data_LaTlAg(P3Pd10)2
_symmetry_space_group_name_H-M   'P 1'
_cell_length_a   8.67615866
_cell_length_b   8.67615880
_cell_length_c   8.67616000
_cell_angle_alpha   60.00000306
_cell_angle_beta   60.00000253
_cell_angle_gamma   59.99999782
_symmetry_Int_Tables_number   1
_chemical_formula_structural   LaTlAg(P3Pd10)2
_chemical_formula_sum   'La1 Tl1 Ag1 P6 Pd20'
_cell_volume   461.81447755
_cell_formula_units_Z   1
loop_
 _symmetry_equiv_pos_site_id
 _symmetry_equiv_pos_as_xyz
  1  'x, y, z'
loop_
 _atom_site_type_symbol
 _atom_site_label
 _atom_site_symmetry_multiplicity
 _atom_site_fract_x
 _atom_site_fract_y
 _atom_site_fract_z
 _atom_site_occupancy
  La  La0  1  0.750000  0.750000  0.750000  1
  Tl  Tl1  1  0.250000  0.250000  0.250000  1
  Ag  Ag2  1  0.000000  0.000000  0.000000  1
  P  P3  1  0.735842  0.264158  0.264158  1
  P  P4  1  0.264158  0.735842  0.735842  1
  P  P5  1  0.264158  0.735842  0.264158  1
  P  P6  1  0.735842  0.264158  0.735842  1
  P  P7  1  0.264158  0.264158  0.735842  1
  P  P8  1  0.735842  0.735842  0.264158  1
  Pd  Pd9  1  0.382747  0.382747  0.382747  1
  Pd  Pd10  1  0.612077  0.612077  0.612077  1
  Pd  Pd11  1  0.382747  0.382747  0.851761  1
  Pd  Pd12  1  0.382747  0.851761  0.382747  1
  Pd  Pd13  1  0.612077  0.612077  0.163766  1
  Pd  Pd14  1  0.612077  0.163766  0.612077  1
  Pd  Pd15  1  0.851761  0.382747  0.382747  1
  Pd  Pd16  1  0.163766  0.612077  0.612077  1
  Pd  Pd17  1  0.344020  0.998524  0.998524  1
  Pd  Pd18  1  0.658933  0.998524  0.998524  1
  Pd  Pd19  1  0.998524  0.344020  0.658933  1
  Pd  Pd20  1  0.998524  0.658933  0.344020  1
  Pd  Pd21  1  0.998524  0.344020  0.998524  1
  Pd  Pd22  1  0.658933  0.998524  0.344020  1
  Pd  Pd23  1  0.998524  0.658933  0.998524  1
  Pd  Pd24  1  0.344020  0.998524  0.658933  1
  Pd  Pd25  1  0.998524  0.998524  0.344020  1
  Pd  Pd26  1  0.998524  0.998524  0.658933  1
  Pd  Pd27  1  0.658933  0.344020  0.998524  1
  Pd  Pd28  1  0.344020  0.658933  0.998524  1
