# generated using pymatgen
data_TbEr3(Al3Pt4)2
_symmetry_space_group_name_H-M   'P 1'
_cell_length_a   8.12497625
_cell_length_b   8.12497620
_cell_length_c   7.62841791
_cell_angle_alpha   89.92412721
_cell_angle_beta   90.07587051
_cell_angle_gamma   140.04342473
_symmetry_Int_Tables_number   1
_chemical_formula_structural   TbEr3(Al3Pt4)2
_chemical_formula_sum   'Tb1 Er3 Al6 Pt8'
_cell_volume   323.40979428
_cell_formula_units_Z   1
loop_
 _symmetry_equiv_pos_site_id
 _symmetry_equiv_pos_as_xyz
  1  'x, y, z'
loop_
 _atom_site_type_symbol
 _atom_site_label
 _atom_site_symmetry_multiplicity
 _atom_site_fract_x
 _atom_site_fract_y
 _atom_site_fract_z
 _atom_site_occupancy
  Tb  Tb0  1  0.106537  0.893463  0.407834  1
  Er  Er1  1  0.893040  0.106960  0.592041  1
  Er  Er2  1  0.393514  0.606486  0.907660  1
  Er  Er3  1  0.606713  0.393287  0.091475  1
  Al  Al4  1  0.999775  0.000225  0.000337  1
  Al  Al5  1  0.499387  0.500613  0.500515  1
  Al  Al6  1  0.023131  0.476669  0.249449  1
  Al  Al7  1  0.477406  0.022881  0.750103  1
  Al  Al8  1  0.977119  0.522594  0.750103  1
  Al  Al9  1  0.523331  0.976869  0.249449  1
  Pt  Pt10  1  0.191308  0.309208  0.249575  1
  Pt  Pt11  1  0.308671  0.192012  0.751261  1
  Pt  Pt12  1  0.807988  0.691329  0.751261  1
  Pt  Pt13  1  0.690792  0.808692  0.249575  1
  Pt  Pt14  1  0.184117  0.815883  0.028100  1
  Pt  Pt15  1  0.816208  0.183792  0.971164  1
  Pt  Pt16  1  0.316336  0.683664  0.528785  1
  Pt  Pt17  1  0.684626  0.315374  0.471314  1
