# generated using pymatgen
data_Be8V3Re
_symmetry_space_group_name_H-M   'P 1'
_cell_length_a   4.34735000
_cell_length_b   4.34734953
_cell_length_c   7.09682600
_cell_angle_alpha   90.00000000
_cell_angle_beta   90.00000000
_cell_angle_gamma   120.00000355
_symmetry_Int_Tables_number   1
_chemical_formula_structural   Be8V3Re
_chemical_formula_sum   'Be8 V3 Re1'
_cell_volume   116.15661276
_cell_formula_units_Z   1
loop_
 _symmetry_equiv_pos_site_id
 _symmetry_equiv_pos_as_xyz
  1  'x, y, z'
loop_
 _atom_site_type_symbol
 _atom_site_label
 _atom_site_symmetry_multiplicity
 _atom_site_fract_x
 _atom_site_fract_y
 _atom_site_fract_z
 _atom_site_occupancy
  Be  Be0  1  0.000000  0.000000  0.998198  1
  Be  Be1  1  0.000000  0.000000  0.500422  1
  Be  Be2  1  0.829605  0.659211  0.249727  1
  Be  Be3  1  0.170777  0.829223  0.750532  1
  Be  Be4  1  0.658446  0.829223  0.750532  1
  Be  Be5  1  0.340789  0.170395  0.249727  1
  Be  Be6  1  0.829605  0.170395  0.249727  1
  Be  Be7  1  0.170777  0.341554  0.750532  1
  V  V8  1  0.333333  0.666667  0.066118  1
  V  V9  1  0.666667  0.333333  0.563807  1
  V  V10  1  0.666667  0.333333  0.933650  1
  Re  Re11  1  0.333333  0.666667  0.437029  1
