# generated using pymatgen
data_Nd8Gd12Si15Ge
_symmetry_space_group_name_H-M   'P 1'
_cell_length_a   7.48786922
_cell_length_b   7.77661288
_cell_length_c   14.79132600
_cell_angle_alpha   90.04719015
_cell_angle_beta   89.70504424
_cell_angle_gamma   90.03264566
_symmetry_Int_Tables_number   1
_chemical_formula_structural   Nd8Gd12Si15Ge
_chemical_formula_sum   'Nd8 Gd12 Si15 Ge1'
_cell_volume   861.29091933
_cell_formula_units_Z   1
loop_
 _symmetry_equiv_pos_site_id
 _symmetry_equiv_pos_as_xyz
  1  'x, y, z'
loop_
 _atom_site_type_symbol
 _atom_site_label
 _atom_site_symmetry_multiplicity
 _atom_site_fract_x
 _atom_site_fract_y
 _atom_site_fract_z
 _atom_site_occupancy
  Nd  Nd0  1  0.023479  0.181580  0.097576  1
  Nd  Nd1  1  0.977243  0.819175  0.902694  1
  Nd  Nd2  1  0.477445  0.680951  0.902184  1
  Nd  Nd3  1  0.976478  0.818836  0.598181  1
  Nd  Nd4  1  0.522339  0.319519  0.097450  1
  Nd  Nd5  1  0.021615  0.181667  0.401233  1
  Nd  Nd6  1  0.522675  0.317669  0.401408  1
  Nd  Nd7  1  0.479879  0.683132  0.598990  1
  Gd  Gd8  1  0.151513  0.510374  0.751795  1
  Gd  Gd9  1  0.847470  0.488053  0.249807  1
  Gd  Gd10  1  0.348204  0.012083  0.249495  1
  Gd  Gd11  1  0.651361  0.989217  0.750797  1
  Gd  Gd12  1  0.324237  0.178674  0.624296  1
  Gd  Gd13  1  0.676960  0.820126  0.376196  1
  Gd  Gd14  1  0.175860  0.681973  0.376434  1
  Gd  Gd15  1  0.678231  0.820136  0.123115  1
  Gd  Gd16  1  0.822539  0.319008  0.622795  1
  Gd  Gd17  1  0.321557  0.178831  0.876922  1
  Gd  Gd18  1  0.821359  0.320758  0.877266  1
  Gd  Gd19  1  0.178346  0.679225  0.123086  1
  Si  Si20  1  0.029106  0.104525  0.749731  1
  Si  Si21  1  0.970299  0.896548  0.249365  1
  Si  Si22  1  0.469990  0.605615  0.250107  1
  Si  Si23  1  0.529882  0.395338  0.749897  1
  Si  Si24  1  0.266723  0.878285  0.749784  1
  Si  Si25  1  0.732147  0.120171  0.249570  1
  Si  Si26  1  0.232006  0.379372  0.250492  1
  Si  Si27  1  0.768012  0.620348  0.749311  1
  Si  Si28  1  0.848122  0.531965  0.460939  1
  Si  Si29  1  0.353009  0.968861  0.462271  1
  Si  Si30  1  0.855509  0.530456  0.038780  1
  Si  Si31  1  0.647069  0.030713  0.538111  1
  Si  Si32  1  0.145310  0.470149  0.961290  1
  Si  Si33  1  0.644623  0.029105  0.960829  1
  Si  Si34  1  0.355563  0.969950  0.039215  1
  Ge  Ge35  1  0.153842  0.467610  0.538586  1
