# generated using pymatgen
data_Yb3ScRuC6
_symmetry_space_group_name_H-M   'P 1'
_cell_length_a   8.55009600
_cell_length_b   8.55009384
_cell_length_c   5.24340400
_cell_angle_alpha   90.00000000
_cell_angle_beta   90.00000000
_cell_angle_gamma   119.99999289
_symmetry_Int_Tables_number   1
_chemical_formula_structural   Yb3ScRuC6
_chemical_formula_sum   'Yb6 Sc2 Ru2 C12'
_cell_volume   331.96007656
_cell_formula_units_Z   2
loop_
 _symmetry_equiv_pos_site_id
 _symmetry_equiv_pos_as_xyz
  1  'x, y, z'
loop_
 _atom_site_type_symbol
 _atom_site_label
 _atom_site_symmetry_multiplicity
 _atom_site_fract_x
 _atom_site_fract_y
 _atom_site_fract_z
 _atom_site_occupancy
  Yb  Yb0  1  0.609894  0.681964  0.750000  1
  Yb  Yb1  1  0.927931  0.609894  0.250000  1
  Yb  Yb2  1  0.681964  0.072069  0.250000  1
  Yb  Yb3  1  0.318036  0.927931  0.750000  1
  Yb  Yb4  1  0.072069  0.390106  0.750000  1
  Yb  Yb5  1  0.390106  0.318036  0.250000  1
  Sc  Sc6  1  0.000000  0.000000  0.500000  1
  Sc  Sc7  1  0.000000  0.000000  0.000000  1
  Ru  Ru8  1  0.666667  0.333333  0.750000  1
  Ru  Ru9  1  0.333333  0.666667  0.250000  1
  C  C10  1  0.959148  0.758372  0.750000  1
  C  C11  1  0.200776  0.959148  0.250000  1
  C  C12  1  0.758372  0.799224  0.250000  1
  C  C13  1  0.241628  0.200776  0.750000  1
  C  C14  1  0.799224  0.040852  0.750000  1
  C  C15  1  0.040852  0.241628  0.250000  1
  C  C16  1  0.859709  0.580685  0.750000  1
  C  C17  1  0.279023  0.859709  0.250000  1
  C  C18  1  0.580685  0.720977  0.250000  1
  C  C19  1  0.419315  0.279023  0.750000  1
  C  C20  1  0.140291  0.419315  0.250000  1
  C  C21  1  0.720977  0.140291  0.750000  1
