# generated using pymatgen
data_Na2Ni7(P2Ru)3
_symmetry_space_group_name_H-M   'P 1'
_cell_length_a   3.65865800
_cell_length_b   10.56834700
_cell_length_c   11.93341900
_cell_angle_alpha   90.00000000
_cell_angle_beta   90.00000000
_cell_angle_gamma   90.00000000
_symmetry_Int_Tables_number   1
_chemical_formula_structural   Na2Ni7(P2Ru)3
_chemical_formula_sum   'Na4 Ni14 P12 Ru6'
_cell_volume   461.41718881
_cell_formula_units_Z   2
loop_
 _symmetry_equiv_pos_site_id
 _symmetry_equiv_pos_as_xyz
  1  'x, y, z'
loop_
 _atom_site_type_symbol
 _atom_site_label
 _atom_site_symmetry_multiplicity
 _atom_site_fract_x
 _atom_site_fract_y
 _atom_site_fract_z
 _atom_site_occupancy
  Na  Na0  1  0.250000  0.585949  0.705975  1
  Na  Na1  1  0.250000  0.914051  0.205975  1
  Na  Na2  1  0.750000  0.415413  0.291458  1
  Na  Na3  1  0.750000  0.084587  0.791458  1
  Ni  Ni4  1  0.750000  0.596623  0.511997  1
  Ni  Ni5  1  0.750000  0.903377  0.011997  1
  Ni  Ni6  1  0.250000  0.224280  0.182424  1
  Ni  Ni7  1  0.250000  0.275720  0.682424  1
  Ni  Ni8  1  0.750000  0.778818  0.820078  1
  Ni  Ni9  1  0.750000  0.721182  0.320078  1
  Ni  Ni10  1  0.250000  0.883792  0.702058  1
  Ni  Ni11  1  0.250000  0.616208  0.202058  1
  Ni  Ni12  1  0.750000  0.114170  0.296497  1
  Ni  Ni13  1  0.750000  0.385830  0.796497  1
  Ni  Ni14  1  0.250000  0.465509  0.929120  1
  Ni  Ni15  1  0.250000  0.034491  0.429120  1
  Ni  Ni16  1  0.750000  0.536358  0.069654  1
  Ni  Ni17  1  0.750000  0.963642  0.569654  1
  P  P18  1  0.250000  0.419074  0.112846  1
  P  P19  1  0.250000  0.080926  0.612846  1
  P  P20  1  0.750000  0.583117  0.886497  1
  P  P21  1  0.750000  0.916883  0.386497  1
  P  P22  1  0.250000  0.267118  0.872060  1
  P  P23  1  0.250000  0.232882  0.372060  1
  P  P24  1  0.750000  0.732316  0.129367  1
  P  P25  1  0.750000  0.767684  0.629367  1
  P  P26  1  0.250000  0.599804  0.387860  1
  P  P27  1  0.250000  0.900196  0.887860  1
  P  P28  1  0.750000  0.401187  0.610233  1
  P  P29  1  0.750000  0.098813  0.110233  1
  Ru  Ru30  1  0.250000  0.713463  0.990284  1
  Ru  Ru31  1  0.250000  0.786537  0.490284  1
  Ru  Ru32  1  0.750000  0.290663  0.010966  1
  Ru  Ru33  1  0.750000  0.209337  0.510966  1
  Ru  Ru34  1  0.250000  0.412055  0.490625  1
  Ru  Ru35  1  0.250000  0.087945  0.990625  1
