# generated using pymatgen
data_Li3Th3Os2Pt
_symmetry_space_group_name_H-M   'P 1'
_cell_length_a   7.28765200
_cell_length_b   7.28765047
_cell_length_c   3.98753700
_cell_angle_alpha   90.00000000
_cell_angle_beta   90.00000000
_cell_angle_gamma   120.00000694
_symmetry_Int_Tables_number   1
_chemical_formula_structural   Li3Th3Os2Pt
_chemical_formula_sum   'Li3 Th3 Os2 Pt1'
_cell_volume   183.40471150
_cell_formula_units_Z   1
loop_
 _symmetry_equiv_pos_site_id
 _symmetry_equiv_pos_as_xyz
  1  'x, y, z'
loop_
 _atom_site_type_symbol
 _atom_site_label
 _atom_site_symmetry_multiplicity
 _atom_site_fract_x
 _atom_site_fract_y
 _atom_site_fract_z
 _atom_site_occupancy
  Li  Li0  1  0.771959  0.771959  0.000000  1
  Li  Li1  1  0.228041  0.000000  0.000000  1
  Li  Li2  1  0.000000  0.228041  0.000000  1
  Th  Th3  1  0.422573  0.422573  0.500000  1
  Th  Th4  1  0.577427  0.000000  0.500000  1
  Th  Th5  1  0.000000  0.577427  0.500000  1
  Os  Os6  1  0.666667  0.333333  0.000000  1
  Os  Os7  1  0.333333  0.666667  0.000000  1
  Pt  Pt8  1  0.000000  0.000000  0.500000  1
