# generated using pymatgen
data_Dy3Al2ZnSi2Au
_symmetry_space_group_name_H-M   'P 1'
_cell_length_a   6.98531200
_cell_length_b   6.92584765
_cell_length_c   4.26191900
_cell_angle_alpha   90.00000000
_cell_angle_beta   90.00000000
_cell_angle_gamma   120.28443629
_symmetry_Int_Tables_number   1
_chemical_formula_structural   Dy3Al2ZnSi2Au
_chemical_formula_sum   'Dy3 Al2 Zn1 Si2 Au1'
_cell_volume   178.05027765
_cell_formula_units_Z   1
loop_
 _symmetry_equiv_pos_site_id
 _symmetry_equiv_pos_as_xyz
  1  'x, y, z'
loop_
 _atom_site_type_symbol
 _atom_site_label
 _atom_site_symmetry_multiplicity
 _atom_site_fract_x
 _atom_site_fract_y
 _atom_site_fract_z
 _atom_site_occupancy
  Dy  Dy0  1  0.574950  0.000000  0.000000  1
  Dy  Dy1  1  0.002127  0.582823  0.000000  1
  Dy  Dy2  1  0.419306  0.417177  0.000000  1
  Al  Al3  1  0.997847  0.240407  0.500000  1
  Al  Al4  1  0.757440  0.759593  0.500000  1
  Zn  Zn5  1  0.250122  0.000000  0.500000  1
  Si  Si6  1  0.333566  0.661957  0.500000  1
  Si  Si7  1  0.671611  0.338043  0.500000  1
  Au  Au8  1  0.993032  0.000000  0.000000  1
