# generated using pymatgen
data_Ti6Re4Si6MoRu
_symmetry_space_group_name_H-M   'P 1'
_cell_length_a   7.55479521
_cell_length_b   7.55341385
_cell_length_c   7.55399963
_cell_angle_alpha   126.27840071
_cell_angle_beta   128.97883007
_cell_angle_gamma   77.24504856
_symmetry_Int_Tables_number   1
_chemical_formula_structural   Ti6Re4Si6MoRu
_chemical_formula_sum   'Ti6 Re4 Si6 Mo1 Ru1'
_cell_volume   262.13752544
_cell_formula_units_Z   1
loop_
 _symmetry_equiv_pos_site_id
 _symmetry_equiv_pos_as_xyz
  1  'x, y, z'
loop_
 _atom_site_type_symbol
 _atom_site_label
 _atom_site_symmetry_multiplicity
 _atom_site_fract_x
 _atom_site_fract_y
 _atom_site_fract_z
 _atom_site_occupancy
  Ti  Ti0  1  0.249911  0.900233  0.155511  1
  Ti  Ti1  1  0.949700  0.490101  0.037706  1
  Ti  Ti2  1  0.050175  0.098063  0.544686  1
  Ti  Ti3  1  0.452359  0.490020  0.540368  1
  Ti  Ti4  1  0.744711  0.900208  0.650291  1
  Ti  Ti5  1  0.553303  0.098115  0.047919  1
  Re  Re6  1  0.000172  0.236583  0.236527  1
  Re  Re7  1  0.869218  0.497253  0.628256  1
  Re  Re8  1  0.632176  0.761690  0.128992  1
  Re  Re9  1  0.368415  0.496010  0.128293  1
  Si  Si10  1  0.752981  0.502163  0.250943  1
  Si  Si11  1  0.165808  0.159223  0.993347  1
  Si  Si12  1  0.667173  0.160910  0.493786  1
  Si  Si13  1  0.330035  0.826605  0.496620  1
  Si  Si14  1  0.251160  0.502094  0.749189  1
  Si  Si15  1  0.832923  0.830016  0.997015  1
  Mo  Mo16  1  0.499461  0.234129  0.734712  1
  Ru  Ru17  1  0.130320  0.758795  0.628052  1
