# generated using pymatgen
data_Dy13Y2Pa(CdCo)4
_symmetry_space_group_name_H-M   'P 1'
_cell_length_a   9.46429818
_cell_length_b   9.57313554
_cell_length_c   9.46529200
_cell_angle_alpha   60.37196314
_cell_angle_beta   59.99653332
_cell_angle_gamma   60.39915252
_symmetry_Int_Tables_number   1
_chemical_formula_structural   Dy13Y2Pa(CdCo)4
_chemical_formula_sum   'Dy13 Y2 Pa1 Cd4 Co4'
_cell_volume   609.89713134
_cell_formula_units_Z   1
loop_
 _symmetry_equiv_pos_site_id
 _symmetry_equiv_pos_as_xyz
  1  'x, y, z'
loop_
 _atom_site_type_symbol
 _atom_site_label
 _atom_site_symmetry_multiplicity
 _atom_site_fract_x
 _atom_site_fract_y
 _atom_site_fract_z
 _atom_site_occupancy
  Dy  Dy0  1  0.940705  0.560461  0.560090  1
  Dy  Dy1  1  0.544923  0.148633  0.153222  1
  Dy  Dy2  1  0.152991  0.148943  0.543521  1
  Dy  Dy3  1  0.938487  0.933326  0.564094  1
  Dy  Dy4  1  0.310897  0.692754  0.308939  1
  Dy  Dy5  1  0.562926  0.935120  0.938124  1
  Dy  Dy6  1  0.562926  0.935120  0.563831  1
  Dy  Dy7  1  0.687183  0.692949  0.309934  1
  Dy  Dy8  1  0.559417  0.561438  0.939573  1
  Dy  Dy9  1  0.940705  0.560461  0.938744  1
  Dy  Dy10  1  0.310897  0.692754  0.687409  1
  Dy  Dy11  1  0.152991  0.148943  0.154543  1
  Dy  Dy12  1  0.311012  0.312613  0.688187  1
  Y  Y13  1  0.687653  0.313963  0.687478  1
  Y  Y14  1  0.687653  0.313963  0.310904  1
  Pa  Pa15  1  0.165494  0.503691  0.165407  1
  Cd  Cd16  1  0.919196  0.242135  0.919335  1
  Cd  Cd17  1  0.920813  0.916713  0.920588  1
  Cd  Cd18  1  0.920813  0.916713  0.241884  1
  Cd  Cd19  1  0.243567  0.915650  0.920391  1
  Co  Co20  1  0.341589  0.376196  0.937543  1
  Co  Co21  1  0.357245  0.924027  0.359364  1
  Co  Co22  1  0.938322  0.377239  0.342221  1
  Co  Co23  1  0.341589  0.376196  0.344673  1
