# generated using pymatgen
data_La2Zn2I
_symmetry_space_group_name_H-M   'P 1'
_cell_length_a   4.45609500
_cell_length_b   4.45609534
_cell_length_c   16.65976600
_cell_angle_alpha   90.00000000
_cell_angle_beta   90.00000000
_cell_angle_gamma   120.00001974
_symmetry_Int_Tables_number   1
_chemical_formula_structural   La2Zn2I
_chemical_formula_sum   'La4 Zn4 I2'
_cell_volume   286.48926801
_cell_formula_units_Z   2
loop_
 _symmetry_equiv_pos_site_id
 _symmetry_equiv_pos_as_xyz
  1  'x, y, z'
loop_
 _atom_site_type_symbol
 _atom_site_label
 _atom_site_symmetry_multiplicity
 _atom_site_fract_x
 _atom_site_fract_y
 _atom_site_fract_z
 _atom_site_occupancy
  La  La0  1  0.000000  0.000000  0.386606  1
  La  La1  1  0.000000  0.000000  0.886606  1
  La  La2  1  0.000000  0.000000  0.613394  1
  La  La3  1  0.000000  0.000000  0.113394  1
  Zn  Zn4  1  0.666667  0.333333  0.495084  1
  Zn  Zn5  1  0.333333  0.666667  0.995084  1
  Zn  Zn6  1  0.333333  0.666667  0.504916  1
  Zn  Zn7  1  0.666667  0.333333  0.004916  1
  I  I8  1  0.333333  0.666667  0.250000  1
  I  I9  1  0.666667  0.333333  0.750000  1
