# generated using pymatgen
data_TbY2Zr(Co4P3)2
_symmetry_space_group_name_H-M   'P 1'
_cell_length_a   3.72728900
_cell_length_b   10.70597800
_cell_length_c   12.43745900
_cell_angle_alpha   90.00000000
_cell_angle_beta   90.00000000
_cell_angle_gamma   90.00000000
_symmetry_Int_Tables_number   1
_chemical_formula_structural   TbY2Zr(Co4P3)2
_chemical_formula_sum   'Tb2 Y4 Zr2 Co16 P12'
_cell_volume   496.30777222
_cell_formula_units_Z   2
loop_
 _symmetry_equiv_pos_site_id
 _symmetry_equiv_pos_as_xyz
  1  'x, y, z'
loop_
 _atom_site_type_symbol
 _atom_site_label
 _atom_site_symmetry_multiplicity
 _atom_site_fract_x
 _atom_site_fract_y
 _atom_site_fract_z
 _atom_site_occupancy
  Tb  Tb0  1  0.000000  0.500000  0.529271  1
  Tb  Tb1  1  0.500000  0.000000  0.470729  1
  Y  Y2  1  0.500000  0.821575  0.204919  1
  Y  Y3  1  0.500000  0.178425  0.204919  1
  Y  Y4  1  0.000000  0.678425  0.795081  1
  Y  Y5  1  0.000000  0.321575  0.795081  1
  Zr  Zr6  1  0.500000  0.500000  0.158037  1
  Zr  Zr7  1  0.000000  0.000000  0.841963  1
  Co  Co8  1  0.500000  0.500000  0.703530  1
  Co  Co9  1  0.000000  0.000000  0.296470  1
  Co  Co10  1  0.000000  0.500000  0.985990  1
  Co  Co11  1  0.500000  0.000000  0.014010  1
  Co  Co12  1  0.500000  0.332057  0.992830  1
  Co  Co13  1  0.500000  0.667943  0.992830  1
  Co  Co14  1  0.000000  0.167943  0.007170  1
  Co  Co15  1  0.000000  0.832057  0.007170  1
  Co  Co16  1  0.500000  0.295160  0.433396  1
  Co  Co17  1  0.500000  0.704840  0.433396  1
  Co  Co18  1  0.000000  0.204840  0.566604  1
  Co  Co19  1  0.000000  0.795160  0.566604  1
  Co  Co20  1  0.500000  0.877899  0.701113  1
  Co  Co21  1  0.500000  0.122101  0.701113  1
  Co  Co22  1  0.000000  0.622101  0.298887  1
  Co  Co23  1  0.000000  0.377899  0.298887  1
  P  P24  1  0.500000  0.500000  0.883787  1
  P  P25  1  0.000000  0.000000  0.116213  1
  P  P26  1  0.500000  0.500000  0.362662  1
  P  P27  1  0.000000  0.000000  0.637338  1
  P  P28  1  0.500000  0.309380  0.615265  1
  P  P29  1  0.500000  0.690620  0.615265  1
  P  P30  1  0.000000  0.190620  0.384735  1
  P  P31  1  0.000000  0.809380  0.384735  1
  P  P32  1  0.500000  0.838473  0.894623  1
  P  P33  1  0.500000  0.161527  0.894623  1
  P  P34  1  0.000000  0.661527  0.105377  1
  P  P35  1  0.000000  0.338473  0.105377  1
