# generated using pymatgen
data_Pr4Nd6InBi5Br2
_symmetry_space_group_name_H-M   'P 1'
_cell_length_a   9.70849300
_cell_length_b   9.66142964
_cell_length_c   6.77524900
_cell_angle_alpha   90.00000000
_cell_angle_beta   90.00000000
_cell_angle_gamma   120.16127475
_symmetry_Int_Tables_number   1
_chemical_formula_structural   Pr4Nd6InBi5Br2
_chemical_formula_sum   'Pr4 Nd6 In1 Bi5 Br2'
_cell_volume   549.46626850
_cell_formula_units_Z   1
loop_
 _symmetry_equiv_pos_site_id
 _symmetry_equiv_pos_as_xyz
  1  'x, y, z'
loop_
 _atom_site_type_symbol
 _atom_site_label
 _atom_site_symmetry_multiplicity
 _atom_site_fract_x
 _atom_site_fract_y
 _atom_site_fract_z
 _atom_site_occupancy
  Pr  Pr0  1  0.996073  0.269107  0.750000  1
  Pr  Pr1  1  0.000194  0.729244  0.250000  1
  Pr  Pr2  1  0.726965  0.730893  0.750000  1
  Pr  Pr3  1  0.270951  0.270756  0.250000  1
  Nd  Nd4  1  0.273914  0.000000  0.750000  1
  Nd  Nd5  1  0.727423  0.000000  0.250000  1
  Nd  Nd6  1  0.335363  0.668982  0.498163  1
  Nd  Nd7  1  0.666382  0.331018  0.498163  1
  Nd  Nd8  1  0.666382  0.331018  0.001837  1
  Nd  Nd9  1  0.335363  0.668982  0.001837  1
  In  In10  1  0.612369  0.000000  0.750000  1
  Bi  Bi11  1  0.387997  0.000000  0.250000  1
  Bi  Bi12  1  0.999030  0.615500  0.750000  1
  Bi  Bi13  1  0.999266  0.383515  0.250000  1
  Bi  Bi14  1  0.383528  0.384500  0.750000  1
  Bi  Bi15  1  0.615750  0.616485  0.250000  1
  Br  Br16  1  0.001526  0.000000  0.499871  1
  Br  Br17  1  0.001526  0.000000  0.000129  1
