# generated using pymatgen
data_Pr8DyYIr6
_symmetry_space_group_name_H-M   'P 1'
_cell_length_a   11.26721700
_cell_length_b   11.26721700
_cell_length_c   6.58511000
_cell_angle_alpha   90.00000000
_cell_angle_beta   90.00000000
_cell_angle_gamma   90.00000000
_symmetry_Int_Tables_number   1
_chemical_formula_structural   Pr8DyYIr6
_chemical_formula_sum   'Pr16 Dy2 Y2 Ir12'
_cell_volume   835.98089274
_cell_formula_units_Z   2
loop_
 _symmetry_equiv_pos_site_id
 _symmetry_equiv_pos_as_xyz
  1  'x, y, z'
loop_
 _atom_site_type_symbol
 _atom_site_label
 _atom_site_symmetry_multiplicity
 _atom_site_fract_x
 _atom_site_fract_y
 _atom_site_fract_z
 _atom_site_occupancy
  Pr  Pr0  1  0.289093  0.087970  0.382942  1
  Pr  Pr1  1  0.289093  0.912030  0.882942  1
  Pr  Pr2  1  0.710907  0.087970  0.882942  1
  Pr  Pr3  1  0.710907  0.912030  0.382942  1
  Pr  Pr4  1  0.587910  0.789075  0.882937  1
  Pr  Pr5  1  0.587910  0.210925  0.382937  1
  Pr  Pr6  1  0.412090  0.789075  0.382937  1
  Pr  Pr7  1  0.412090  0.210925  0.882937  1
  Pr  Pr8  1  0.210925  0.412090  0.617063  1
  Pr  Pr9  1  0.210925  0.587910  0.117063  1
  Pr  Pr10  1  0.789075  0.412090  0.117063  1
  Pr  Pr11  1  0.789075  0.587910  0.617063  1
  Pr  Pr12  1  0.912030  0.710907  0.117058  1
  Pr  Pr13  1  0.912030  0.289093  0.617058  1
  Pr  Pr14  1  0.087970  0.710907  0.617058  1
  Pr  Pr15  1  0.087970  0.289093  0.117058  1
  Dy  Dy16  1  0.500000  0.500000  0.000000  1
  Dy  Dy17  1  0.500000  0.500000  0.500000  1
  Y  Y18  1  0.000000  0.000000  0.500000  1
  Y  Y19  1  0.000000  0.000000  0.000000  1
  Ir  Ir20  1  0.851468  0.148532  0.250000  1
  Ir  Ir21  1  0.851468  0.851468  0.750000  1
  Ir  Ir22  1  0.148532  0.148532  0.750000  1
  Ir  Ir23  1  0.148532  0.851468  0.250000  1
  Ir  Ir24  1  0.648015  0.351985  0.750000  1
  Ir  Ir25  1  0.648015  0.648015  0.250000  1
  Ir  Ir26  1  0.351985  0.351985  0.250000  1
  Ir  Ir27  1  0.351985  0.648015  0.750000  1
  Ir  Ir28  1  0.500000  0.000000  0.118922  1
  Ir  Ir29  1  0.500000  0.000000  0.618922  1
  Ir  Ir30  1  0.000000  0.500000  0.881078  1
  Ir  Ir31  1  0.000000  0.500000  0.381078  1
