# generated using pymatgen
data_YbPrU(SnIr)3
_symmetry_space_group_name_H-M   'P 1'
_cell_length_a   7.51948262
_cell_length_b   7.65849765
_cell_length_c   3.97560800
_cell_angle_alpha   90.00000000
_cell_angle_beta   90.00000000
_cell_angle_gamma   120.44530922
_symmetry_Int_Tables_number   1
_chemical_formula_structural   YbPrU(SnIr)3
_chemical_formula_sum   'Yb1 Pr1 U1 Sn3 Ir3'
_cell_volume   197.37830238
_cell_formula_units_Z   1
loop_
 _symmetry_equiv_pos_site_id
 _symmetry_equiv_pos_as_xyz
  1  'x, y, z'
loop_
 _atom_site_type_symbol
 _atom_site_label
 _atom_site_symmetry_multiplicity
 _atom_site_fract_x
 _atom_site_fract_y
 _atom_site_fract_z
 _atom_site_occupancy
  Yb  Yb0  1  0.404902  0.997908  0.500000  1
  Pr  Pr1  1  0.592892  0.589856  0.500000  1
  U  U2  1  0.000160  0.413104  0.500000  1
  Sn  Sn3  1  0.007056  0.763778  0.000000  1
  Sn  Sn4  1  0.268711  0.250737  0.000000  1
  Sn  Sn5  1  0.726023  0.988618  0.000000  1
  Ir  Ir6  1  0.286257  0.625810  0.000000  1
  Ir  Ir7  1  0.714445  0.343165  0.000000  1
  Ir  Ir8  1  0.999553  0.027025  0.500000  1
