# generated using pymatgen
data_Cs2La10Ir2Br17
_symmetry_space_group_name_H-M   'P 1'
_cell_length_a   9.66625946
_cell_length_b   11.39896137
_cell_length_c   11.39914365
_cell_angle_alpha   107.91757934
_cell_angle_beta   93.42819473
_cell_angle_gamma   93.42881384
_symmetry_Int_Tables_number   1
_chemical_formula_structural   Cs2La10Ir2Br17
_chemical_formula_sum   'Cs2 La10 Ir2 Br17'
_cell_volume   1188.91203507
_cell_formula_units_Z   1
loop_
 _symmetry_equiv_pos_site_id
 _symmetry_equiv_pos_as_xyz
  1  'x, y, z'
loop_
 _atom_site_type_symbol
 _atom_site_label
 _atom_site_symmetry_multiplicity
 _atom_site_fract_x
 _atom_site_fract_y
 _atom_site_fract_z
 _atom_site_occupancy
  Cs  Cs0  1  0.000002  0.823178  0.176831  1
  Cs  Cs1  1  0.999989  0.176828  0.823160  1
  La  La2  1  0.437493  0.160854  0.160838  1
  La  La3  1  0.574911  0.515115  0.198331  1
  La  La4  1  0.831504  0.290056  0.290035  1
  La  La5  1  0.309637  0.433210  0.433218  1
  La  La6  1  0.425120  0.801659  0.484903  1
  La  La7  1  0.574924  0.198352  0.515127  1
  La  La8  1  0.690334  0.566754  0.566797  1
  La  La9  1  0.168494  0.709936  0.709958  1
  La  La10  1  0.425120  0.484867  0.801666  1
  La  La11  1  0.562467  0.839193  0.839215  1
  Ir  Ir12  1  0.571909  0.355332  0.355327  1
  Ir  Ir13  1  0.428090  0.644658  0.644670  1
  Br  Br14  1  0.579214  0.687925  0.021764  1
  Br  Br15  1  0.717271  0.065702  0.065698  1
  Br  Br16  1  0.858031  0.449342  0.118180  1
  Br  Br17  1  0.132077  0.206409  0.206404  1
  Br  Br18  1  0.281236  0.603850  0.255108  1
  Br  Br19  1  0.420785  0.978231  0.312079  1
  Br  Br20  1  0.718758  0.744897  0.396143  1
  Br  Br21  1  0.858031  0.118205  0.449349  1
  Br  Br22  1  0.999996  0.499996  0.499994  1
  Br  Br23  1  0.141970  0.881802  0.550642  1
  Br  Br24  1  0.281250  0.255107  0.603851  1
  Br  Br25  1  0.579219  0.021781  0.687916  1
  Br  Br26  1  0.718763  0.396151  0.744886  1
  Br  Br27  1  0.867917  0.793592  0.793590  1
  Br  Br28  1  0.141973  0.550649  0.881809  1
  Br  Br29  1  0.282733  0.934300  0.934296  1
  Br  Br30  1  0.420786  0.312073  0.978218  1
