# generated using pymatgen
data_TbCo3MoP3Rh
_symmetry_space_group_name_H-M   'P 1'
_cell_length_a   3.75593300
_cell_length_b   10.53899800
_cell_length_c   12.04786600
_cell_angle_alpha   90.00000000
_cell_angle_beta   90.00000000
_cell_angle_gamma   90.00000000
_symmetry_Int_Tables_number   1
_chemical_formula_structural   TbCo3MoP3Rh
_chemical_formula_sum   'Tb4 Co12 Mo4 P12 Rh4'
_cell_volume   476.89996125
_cell_formula_units_Z   4
loop_
 _symmetry_equiv_pos_site_id
 _symmetry_equiv_pos_as_xyz
  1  'x, y, z'
loop_
 _atom_site_type_symbol
 _atom_site_label
 _atom_site_symmetry_multiplicity
 _atom_site_fract_x
 _atom_site_fract_y
 _atom_site_fract_z
 _atom_site_occupancy
  Tb  Tb0  1  0.250000  0.583185  0.708478  1
  Tb  Tb1  1  0.250000  0.916815  0.208478  1
  Tb  Tb2  1  0.750000  0.416815  0.291522  1
  Tb  Tb3  1  0.750000  0.083185  0.791522  1
  Co  Co4  1  0.250000  0.224007  0.179303  1
  Co  Co5  1  0.250000  0.275993  0.679303  1
  Co  Co6  1  0.750000  0.775993  0.820697  1
  Co  Co7  1  0.750000  0.724007  0.320697  1
  Co  Co8  1  0.250000  0.885068  0.697008  1
  Co  Co9  1  0.250000  0.614932  0.197008  1
  Co  Co10  1  0.750000  0.114932  0.302992  1
  Co  Co11  1  0.750000  0.385068  0.802992  1
  Co  Co12  1  0.250000  0.464937  0.934408  1
  Co  Co13  1  0.250000  0.035063  0.434408  1
  Co  Co14  1  0.750000  0.535063  0.065592  1
  Co  Co15  1  0.750000  0.964937  0.565592  1
  Mo  Mo16  1  0.250000  0.704930  0.985086  1
  Mo  Mo17  1  0.250000  0.795070  0.485086  1
  Mo  Mo18  1  0.750000  0.295070  0.014914  1
  Mo  Mo19  1  0.750000  0.204930  0.514914  1
  P  P20  1  0.250000  0.421156  0.113816  1
  P  P21  1  0.250000  0.078844  0.613816  1
  P  P22  1  0.750000  0.578844  0.886184  1
  P  P23  1  0.750000  0.921156  0.386184  1
  P  P24  1  0.250000  0.274475  0.862572  1
  P  P25  1  0.250000  0.225525  0.362572  1
  P  P26  1  0.750000  0.725525  0.137428  1
  P  P27  1  0.750000  0.774475  0.637428  1
  P  P28  1  0.250000  0.603968  0.382402  1
  P  P29  1  0.250000  0.896032  0.882402  1
  P  P30  1  0.750000  0.396032  0.617598  1
  P  P31  1  0.750000  0.103968  0.117598  1
  Rh  Rh32  1  0.250000  0.403396  0.484697  1
  Rh  Rh33  1  0.250000  0.096604  0.984697  1
  Rh  Rh34  1  0.750000  0.596604  0.515303  1
  Rh  Rh35  1  0.750000  0.903396  0.015303  1
