# generated using pymatgen
data_Ca4UAlIr4
_symmetry_space_group_name_H-M   'P 1'
_cell_length_a   5.77878985
_cell_length_b   5.77878892
_cell_length_c   7.83237679
_cell_angle_alpha   80.51459044
_cell_angle_beta   80.51459136
_cell_angle_gamma   61.82344689
_symmetry_Int_Tables_number   1
_chemical_formula_structural   Ca4UAlIr4
_chemical_formula_sum   'Ca4 U1 Al1 Ir4'
_cell_volume   226.26894590
_cell_formula_units_Z   1
loop_
 _symmetry_equiv_pos_site_id
 _symmetry_equiv_pos_as_xyz
  1  'x, y, z'
loop_
 _atom_site_type_symbol
 _atom_site_label
 _atom_site_symmetry_multiplicity
 _atom_site_fract_x
 _atom_site_fract_y
 _atom_site_fract_z
 _atom_site_occupancy
  Ca  Ca0  1  0.981601  0.728262  0.134825  1
  Ca  Ca1  1  0.271738  0.018399  0.365175  1
  Ca  Ca2  1  0.021999  0.279057  0.846942  1
  Ca  Ca3  1  0.720943  0.978001  0.653058  1
  U  U4  1  0.602701  0.397299  0.250000  1
  Al  Al5  1  0.415199  0.584801  0.750000  1
  Ir  Ir6  1  0.492301  0.773806  0.997806  1
  Ir  Ir7  1  0.226194  0.507699  0.502194  1
  Ir  Ir8  1  0.497041  0.229717  0.012160  1
  Ir  Ir9  1  0.770283  0.502959  0.487840  1
