# generated using pymatgen
data_Cs2PS5
_symmetry_space_group_name_H-M   'P 1'
_cell_length_a   7.33011861
_cell_length_b   7.46150714
_cell_length_c   9.95587730
_cell_angle_alpha   87.15108992
_cell_angle_beta   86.82906210
_cell_angle_gamma   85.04427431
_symmetry_Int_Tables_number   1
_chemical_formula_structural   Cs2PS5
_chemical_formula_sum   'Cs4 P2 S10'
_cell_volume   541.10528584
_cell_formula_units_Z   2
loop_
 _symmetry_equiv_pos_site_id
 _symmetry_equiv_pos_as_xyz
  1  'x, y, z'
loop_
 _atom_site_type_symbol
 _atom_site_label
 _atom_site_symmetry_multiplicity
 _atom_site_fract_x
 _atom_site_fract_y
 _atom_site_fract_z
 _atom_site_occupancy
  Cs  Cs0  1  0.800224  0.143036  0.637865  1
  Cs  Cs1  1  0.199776  0.856964  0.362135  1
  Cs  Cs2  1  0.228296  0.279352  0.971945  1
  Cs  Cs3  1  0.771704  0.720648  0.028055  1
  P  P4  1  0.250286  0.788542  0.775991  1
  P  P5  1  0.749714  0.211458  0.224009  1
  S  S6  1  0.967606  0.320191  0.290691  1
  S  S7  1  0.497261  0.595841  0.740853  1
  S  S8  1  0.302559  0.023752  0.680207  1
  S  S9  1  0.032394  0.679809  0.709309  1
  S  S10  1  0.578549  0.599843  0.543365  1
  S  S11  1  0.421451  0.400157  0.456635  1
  S  S12  1  0.269477  0.774239  0.979421  1
  S  S13  1  0.697441  0.976248  0.319793  1
  S  S14  1  0.730523  0.225761  0.020579  1
  S  S15  1  0.502739  0.404159  0.259147  1
