# generated using pymatgen
data_Nd10ZnBi4AsPb2
_symmetry_space_group_name_H-M   'P 1'
_cell_length_a   9.62109109
_cell_length_b   9.60336114
_cell_length_c   6.67284400
_cell_angle_alpha   89.94537327
_cell_angle_beta   90.02726303
_cell_angle_gamma   119.93905098
_symmetry_Int_Tables_number   1
_chemical_formula_structural   Nd10ZnBi4AsPb2
_chemical_formula_sum   'Nd10 Zn1 Bi4 As1 Pb2'
_cell_volume   534.26336296
_cell_formula_units_Z   1
loop_
 _symmetry_equiv_pos_site_id
 _symmetry_equiv_pos_as_xyz
  1  'x, y, z'
loop_
 _atom_site_type_symbol
 _atom_site_label
 _atom_site_symmetry_multiplicity
 _atom_site_fract_x
 _atom_site_fract_y
 _atom_site_fract_z
 _atom_site_occupancy
  Nd  Nd0  1  0.664674  0.331939  0.998908  1
  Nd  Nd1  1  0.335326  0.667267  0.998908  1
  Nd  Nd2  1  0.334098  0.666479  0.500985  1
  Nd  Nd3  1  0.665902  0.332380  0.500985  1
  Nd  Nd4  1  0.742140  0.743818  0.754116  1
  Nd  Nd5  1  0.257860  0.001677  0.754116  1
  Nd  Nd6  1  0.000000  0.257334  0.754403  1
  Nd  Nd7  1  0.255779  0.255744  0.245328  1
  Nd  Nd8  1  0.744221  0.999964  0.245328  1
  Nd  Nd9  1  0.000000  0.743481  0.245629  1
  Zn  Zn10  1  0.000000  0.000667  0.500877  1
  Bi  Bi11  1  0.000000  0.612577  0.747398  1
  Bi  Bi12  1  0.611403  0.610839  0.252654  1
  Bi  Bi13  1  0.388597  0.999434  0.252654  1
  Bi  Bi14  1  0.000000  0.388055  0.252127  1
  As  As15  1  0.000000  0.999769  0.999424  1
  Pb  Pb16  1  0.387827  0.388201  0.748080  1
  Pb  Pb17  1  0.612173  0.000374  0.748080  1
