# generated using pymatgen
data_CaNpF6
_symmetry_space_group_name_H-M   'P 1'
_cell_length_a   6.28858393
_cell_length_b   6.28858409
_cell_length_c   6.28858400
_cell_angle_alpha   60.00001100
_cell_angle_beta   60.00001018
_cell_angle_gamma   60.00000761
_symmetry_Int_Tables_number   1
_chemical_formula_structural   CaNpF6
_chemical_formula_sum   'Ca1 Np1 F6'
_cell_volume   175.85053651
_cell_formula_units_Z   1
loop_
 _symmetry_equiv_pos_site_id
 _symmetry_equiv_pos_as_xyz
  1  'x, y, z'
loop_
 _atom_site_type_symbol
 _atom_site_label
 _atom_site_symmetry_multiplicity
 _atom_site_fract_x
 _atom_site_fract_y
 _atom_site_fract_z
 _atom_site_occupancy
  Ca  Ca0  1  0.500000  0.500000  0.500000  1
  Np  Np1  1  0.000000  0.000000  0.000000  1
  F  F2  1  0.755709  0.244291  0.244290  1
  F  F3  1  0.244291  0.755709  0.244290  1
  F  F4  1  0.755709  0.755709  0.244291  1
  F  F5  1  0.755710  0.244292  0.755708  1
  F  F6  1  0.244292  0.755710  0.755708  1
  F  F7  1  0.244290  0.244290  0.755711  1
