# generated using pymatgen
data_Ti6Re7Tc5Mo6
_symmetry_space_group_name_H-M   'P 1'
_cell_length_a   4.41054900
_cell_length_b   6.25658600
_cell_length_c   13.29474600
_cell_angle_alpha   89.99692727
_cell_angle_beta   90.00015983
_cell_angle_gamma   90.00010691
_symmetry_Int_Tables_number   1
_chemical_formula_structural   Ti6Re7Tc5Mo6
_chemical_formula_sum   'Ti6 Re7 Tc5 Mo6'
_cell_volume   366.86823809
_cell_formula_units_Z   1
loop_
 _symmetry_equiv_pos_site_id
 _symmetry_equiv_pos_as_xyz
  1  'x, y, z'
loop_
 _atom_site_type_symbol
 _atom_site_label
 _atom_site_symmetry_multiplicity
 _atom_site_fract_x
 _atom_site_fract_y
 _atom_site_fract_z
 _atom_site_occupancy
  Ti  Ti0  1  0.000006  0.500083  0.999348  1
  Ti  Ti1  1  0.499873  0.999940  0.166685  1
  Ti  Ti2  1  0.999873  0.500672  0.333655  1
  Ti  Ti3  1  0.499999  0.998716  0.500661  1
  Ti  Ti4  1  0.000125  0.500701  0.667000  1
  Ti  Ti5  1  0.500124  0.999928  0.832653  1
  Re  Re6  1  0.499995  0.249487  0.999523  1
  Re  Re7  1  0.499994  0.750628  0.999527  1
  Re  Re8  1  0.999882  0.250406  0.166694  1
  Re  Re9  1  0.999882  0.749461  0.166433  1
  Re  Re10  1  0.499877  0.249414  0.333740  1
  Re  Re11  1  0.499883  0.750602  0.333572  1
  Re  Re12  1  0.999994  0.250834  0.500471  1
  Tc  Tc13  1  0.999989  0.749636  0.500460  1
  Tc  Tc14  1  0.500117  0.248966  0.666770  1
  Tc  Tc15  1  0.500119  0.751046  0.666848  1
  Tc  Tc16  1  0.000108  0.250767  0.832841  1
  Tc  Tc17  1  0.000111  0.749073  0.833127  1
  Mo  Mo18  1  0.000003  0.000060  0.000099  1
  Mo  Mo19  1  0.499878  0.499882  0.166595  1
  Mo  Mo20  1  0.999880  0.000210  0.333382  1
  Mo  Mo21  1  0.500004  0.499218  0.499859  1
  Mo  Mo22  1  0.000140  0.000319  0.666474  1
  Mo  Mo23  1  0.500142  0.499948  0.833581  1
