# generated using pymatgen
data_Ba4Pu2NiO12
_symmetry_space_group_name_H-M   'P 1'
_cell_length_a   5.98512193
_cell_length_b   5.98468776
_cell_length_c   10.36564831
_cell_angle_alpha   89.99846566
_cell_angle_beta   73.21921992
_cell_angle_gamma   119.99751850
_symmetry_Int_Tables_number   1
_chemical_formula_structural   Ba4Pu2NiO12
_chemical_formula_sum   'Ba4 Pu2 Ni1 O12'
_cell_volume   303.15752956
_cell_formula_units_Z   1
loop_
 _symmetry_equiv_pos_site_id
 _symmetry_equiv_pos_as_xyz
  1  'x, y, z'
loop_
 _atom_site_type_symbol
 _atom_site_label
 _atom_site_symmetry_multiplicity
 _atom_site_fract_x
 _atom_site_fract_y
 _atom_site_fract_z
 _atom_site_occupancy
  Ba  Ba0  1  0.560584  0.280295  0.159137  1
  Ba  Ba1  1  0.421499  0.710750  0.867788  1
  Ba  Ba2  1  0.254877  0.127439  0.617643  1
  Ba  Ba3  1  0.752415  0.876210  0.371376  1
  Pu  Pu4  1  0.003596  0.001795  0.994673  1
  Pu  Pu5  1  0.006721  0.503363  0.489860  1
  Ni  Ni6  1  0.816687  0.408349  0.774959  1
  O  O7  1  0.765325  0.613861  0.620775  1
  O  O8  1  0.227653  0.613830  0.620771  1
  O  O9  1  0.765326  0.151468  0.620778  1
  O  O10  1  0.241292  0.374253  0.384492  1
  O  O11  1  0.748491  0.374241  0.384463  1
  O  O12  1  0.241285  0.867040  0.384487  1
  O  O13  1  0.079111  0.808809  0.112076  1
  O  O14  1  0.617685  0.808825  0.112075  1
  O  O15  1  0.079098  0.270284  0.112080  1
  O  O16  1  0.921363  0.204806  0.873863  1
  O  O17  1  0.409612  0.204815  0.873848  1
  O  O18  1  0.921380  0.716565  0.873860  1
