# generated using pymatgen
data_Pr10Si4HgOs
_symmetry_space_group_name_H-M   'P 1'
_cell_length_a   7.73326987
_cell_length_b   7.73326992
_cell_length_c   9.31433930
_cell_angle_alpha   114.52732259
_cell_angle_beta   114.52731910
_cell_angle_gamma   90.00000064
_symmetry_Int_Tables_number   1
_chemical_formula_structural   Pr10Si4HgOs
_chemical_formula_sum   'Pr10 Si4 Hg1 Os1'
_cell_volume   450.93234556
_cell_formula_units_Z   1
loop_
 _symmetry_equiv_pos_site_id
 _symmetry_equiv_pos_as_xyz
  1  'x, y, z'
loop_
 _atom_site_type_symbol
 _atom_site_label
 _atom_site_symmetry_multiplicity
 _atom_site_fract_x
 _atom_site_fract_y
 _atom_site_fract_z
 _atom_site_occupancy
  Pr  Pr0  1  0.469825  0.469825  0.939650  1
  Pr  Pr1  1  0.030175  0.030175  0.060350  1
  Pr  Pr2  1  0.943360  0.795926  0.282654  1
  Pr  Pr3  1  0.339294  0.486728  0.282654  1
  Pr  Pr4  1  0.795926  0.339294  0.282654  1
  Pr  Pr5  1  0.486728  0.943360  0.282654  1
  Pr  Pr6  1  0.013272  0.160706  0.717346  1
  Pr  Pr7  1  0.704074  0.556640  0.717346  1
  Pr  Pr8  1  0.160706  0.704074  0.717346  1
  Pr  Pr9  1  0.556640  0.013272  0.717346  1
  Si  Si10  1  0.614741  0.885259  0.000000  1
  Si  Si11  1  0.385259  0.114741  0.000000  1
  Si  Si12  1  0.885259  0.385259  0.000000  1
  Si  Si13  1  0.114741  0.614741  0.000000  1
  Hg  Hg14  1  0.250000  0.250000  0.500000  1
  Os  Os15  1  0.750000  0.750000  0.500000  1
