# generated using pymatgen
data_Zr4Si3AsIr4
_symmetry_space_group_name_H-M   'P 1'
_cell_length_a   3.98089200
_cell_length_b   6.61467075
_cell_length_c   7.50254045
_cell_angle_alpha   90.45690442
_cell_angle_beta   90.00000000
_cell_angle_gamma   90.00000000
_symmetry_Int_Tables_number   1
_chemical_formula_structural   Zr4Si3AsIr4
_chemical_formula_sum   'Zr4 Si3 As1 Ir4'
_cell_volume   197.55278819
_cell_formula_units_Z   1
loop_
 _symmetry_equiv_pos_site_id
 _symmetry_equiv_pos_as_xyz
  1  'x, y, z'
loop_
 _atom_site_type_symbol
 _atom_site_label
 _atom_site_symmetry_multiplicity
 _atom_site_fract_x
 _atom_site_fract_y
 _atom_site_fract_z
 _atom_site_occupancy
  Zr  Zr0  1  0.250000  0.018583  0.319800  1
  Zr  Zr1  1  0.250000  0.519736  0.178714  1
  Zr  Zr2  1  0.750000  0.976433  0.683253  1
  Zr  Zr3  1  0.750000  0.482244  0.818166  1
  Si  Si4  1  0.250000  0.776162  0.883357  1
  Si  Si5  1  0.750000  0.724994  0.378450  1
  Si  Si6  1  0.750000  0.223058  0.118305  1
  As  As7  1  0.250000  0.268481  0.621610  1
  Ir  Ir8  1  0.250000  0.147492  0.946907  1
  Ir  Ir9  1  0.250000  0.657777  0.562216  1
  Ir  Ir10  1  0.750000  0.848819  0.065006  1
  Ir  Ir11  1  0.750000  0.356220  0.424217  1
