# generated using pymatgen
data_NpCrN2
_symmetry_space_group_name_H-M   'P 1'
_cell_length_a   3.16040500
_cell_length_b   5.39108200
_cell_length_c   10.48485600
_cell_angle_alpha   90.00000000
_cell_angle_beta   90.00000000
_cell_angle_gamma   90.00000000
_symmetry_Int_Tables_number   1
_chemical_formula_structural   NpCrN2
_chemical_formula_sum   'Np4 Cr4 N8'
_cell_volume   178.64100283
_cell_formula_units_Z   4
loop_
 _symmetry_equiv_pos_site_id
 _symmetry_equiv_pos_as_xyz
  1  'x, y, z'
loop_
 _atom_site_type_symbol
 _atom_site_label
 _atom_site_symmetry_multiplicity
 _atom_site_fract_x
 _atom_site_fract_y
 _atom_site_fract_z
 _atom_site_occupancy
  Np  Np0  1  0.750000  0.420781  0.643453  1
  Np  Np1  1  0.750000  0.920781  0.856547  1
  Np  Np2  1  0.250000  0.579219  0.356547  1
  Np  Np3  1  0.250000  0.079219  0.143453  1
  Cr  Cr4  1  0.750000  0.076744  0.405260  1
  Cr  Cr5  1  0.750000  0.576744  0.094740  1
  Cr  Cr6  1  0.250000  0.923256  0.594740  1
  Cr  Cr7  1  0.250000  0.423256  0.905260  1
  N  N8  1  0.750000  0.336594  0.253051  1
  N  N9  1  0.750000  0.836594  0.246949  1
  N  N10  1  0.250000  0.663406  0.746949  1
  N  N11  1  0.250000  0.163406  0.753051  1
  N  N12  1  0.750000  0.767649  0.508956  1
  N  N13  1  0.750000  0.267649  0.991044  1
  N  N14  1  0.250000  0.232351  0.491044  1
  N  N15  1  0.250000  0.732351  0.008956  1
