# generated using pymatgen
data_Li4Pr3SmAu4
_symmetry_space_group_name_H-M   'P 1'
_cell_length_a   4.20338600
_cell_length_b   7.43755322
_cell_length_c   8.88163800
_cell_angle_alpha   90.35680898
_cell_angle_beta   90.00000000
_cell_angle_gamma   90.00000000
_symmetry_Int_Tables_number   1
_chemical_formula_structural   Li4Pr3SmAu4
_chemical_formula_sum   'Li4 Pr3 Sm1 Au4'
_cell_volume   277.66043935
_cell_formula_units_Z   1
loop_
 _symmetry_equiv_pos_site_id
 _symmetry_equiv_pos_as_xyz
  1  'x, y, z'
loop_
 _atom_site_type_symbol
 _atom_site_label
 _atom_site_symmetry_multiplicity
 _atom_site_fract_x
 _atom_site_fract_y
 _atom_site_fract_z
 _atom_site_occupancy
  Li  Li0  1  0.250000  0.876650  0.942875  1
  Li  Li1  1  0.750000  0.124887  0.060983  1
  Li  Li2  1  0.750000  0.625453  0.439548  1
  Li  Li3  1  0.250000  0.372817  0.558478  1
  Pr  Pr4  1  0.250000  0.459945  0.188476  1
  Pr  Pr5  1  0.750000  0.542589  0.813043  1
  Pr  Pr6  1  0.750000  0.040058  0.685405  1
  Sm  Sm7  1  0.250000  0.959058  0.314316  1
  Au  Au8  1  0.250000  0.746876  0.608729  1
  Au  Au9  1  0.750000  0.247976  0.384338  1
  Au  Au10  1  0.750000  0.756494  0.116913  1
  Au  Au11  1  0.250000  0.247196  0.886899  1
