# generated using pymatgen
data_CaNdAl3O7
_symmetry_space_group_name_H-M   'P 1'
_cell_length_a   7.81582400
_cell_length_b   5.17192371
_cell_length_c   7.83209524
_cell_angle_alpha   90.18666277
_cell_angle_beta   90.00000000
_cell_angle_gamma   90.00000000
_symmetry_Int_Tables_number   1
_chemical_formula_structural   CaNdAl3O7
_chemical_formula_sum   'Ca2 Nd2 Al6 O14'
_cell_volume   316.59389547
_cell_formula_units_Z   2
loop_
 _symmetry_equiv_pos_site_id
 _symmetry_equiv_pos_as_xyz
  1  'x, y, z'
loop_
 _atom_site_type_symbol
 _atom_site_label
 _atom_site_symmetry_multiplicity
 _atom_site_fract_x
 _atom_site_fract_y
 _atom_site_fract_z
 _atom_site_occupancy
  Ca  Ca0  1  0.161784  0.517510  0.421766  1
  Ca  Ca1  1  0.661784  0.482490  0.578234  1
  Nd  Nd2  1  0.841918  0.510163  0.094318  1
  Nd  Nd3  1  0.341918  0.489837  0.905682  1
  Al  Al4  1  0.356935  0.960517  0.604906  1
  Al  Al5  1  0.856935  0.039483  0.395094  1
  Al  Al6  1  0.644163  0.958451  0.892292  1
  Al  Al7  1  0.144163  0.041549  0.107708  1
  Al  Al8  1  0.500113  0.998162  0.245557  1
  Al  Al9  1  0.000113  0.001838  0.754443  1
  O  O10  1  0.356552  0.298284  0.619224  1
  O  O11  1  0.856552  0.701716  0.380776  1
  O  O12  1  0.638044  0.296019  0.900591  1
  O  O13  1  0.138044  0.703981  0.099409  1
  O  O14  1  0.008042  0.187497  0.258407  1
  O  O15  1  0.508042  0.812503  0.741593  1
  O  O16  1  0.399945  0.814711  0.405668  1
  O  O17  1  0.899945  0.185289  0.594332  1
  O  O18  1  0.583096  0.791239  0.083441  1
  O  O19  1  0.083096  0.208761  0.916559  1
  O  O20  1  0.344092  0.191606  0.144020  1
  O  O21  1  0.844092  0.808394  0.855980  1
  O  O22  1  0.665317  0.197140  0.327893  1
  O  O23  1  0.165317  0.802860  0.672107  1
