# generated using pymatgen
data_Tb11Lu(AlAu5)4
_symmetry_space_group_name_H-M   'P 1'
_cell_length_a   8.49718450
_cell_length_b   8.49718558
_cell_length_c   13.52756174
_cell_angle_alpha   90.03409303
_cell_angle_beta   89.96590670
_cell_angle_gamma   128.47830935
_symmetry_Int_Tables_number   1
_chemical_formula_structural   Tb11Lu(AlAu5)4
_chemical_formula_sum   'Tb11 Lu1 Al4 Au20'
_cell_volume   764.61828651
_cell_formula_units_Z   1
loop_
 _symmetry_equiv_pos_site_id
 _symmetry_equiv_pos_as_xyz
  1  'x, y, z'
loop_
 _atom_site_type_symbol
 _atom_site_label
 _atom_site_symmetry_multiplicity
 _atom_site_fract_x
 _atom_site_fract_y
 _atom_site_fract_z
 _atom_site_occupancy
  Tb  Tb0  1  0.927439  0.072561  0.250186  1
  Tb  Tb1  1  0.072171  0.927829  0.749897  1
  Tb  Tb2  1  0.320529  0.679471  0.250156  1
  Tb  Tb3  1  0.679373  0.320627  0.749686  1
  Tb  Tb4  1  0.369511  0.630489  0.535169  1
  Tb  Tb5  1  0.630837  0.369163  0.035353  1
  Tb  Tb6  1  0.369128  0.630872  0.964853  1
  Tb  Tb7  1  0.881521  0.118479  0.951159  1
  Tb  Tb8  1  0.118414  0.881586  0.048942  1
  Tb  Tb9  1  0.881220  0.118780  0.548731  1
  Tb  Tb10  1  0.118452  0.881548  0.451189  1
  Lu  Lu11  1  0.630644  0.369356  0.465485  1
  Al  Al12  1  0.719909  0.280091  0.250640  1
  Al  Al13  1  0.279709  0.720291  0.749761  1
  Al  Al14  1  0.532861  0.467139  0.250421  1
  Al  Al15  1  0.467335  0.532665  0.749947  1
  Au  Au16  1  0.323113  0.069207  0.249928  1
  Au  Au17  1  0.069340  0.323010  0.749906  1
  Au  Au18  1  0.676990  0.930660  0.749906  1
  Au  Au19  1  0.930793  0.676887  0.249928  1
  Au  Au20  1  0.571242  0.007007  0.397146  1
  Au  Au21  1  0.002627  0.569815  0.602836  1
  Au  Au22  1  0.570828  0.004203  0.103444  1
  Au  Au23  1  0.004218  0.570699  0.896571  1
  Au  Au24  1  0.430185  0.997373  0.602836  1
  Au  Au25  1  0.992993  0.428758  0.397146  1
  Au  Au26  1  0.429301  0.995782  0.896571  1
  Au  Au27  1  0.995797  0.429172  0.103444  1
  Au  Au28  1  0.685733  0.739044  0.395108  1
  Au  Au29  1  0.740223  0.683446  0.604250  1
  Au  Au30  1  0.686074  0.741230  0.105329  1
  Au  Au31  1  0.741164  0.685953  0.894692  1
  Au  Au32  1  0.316554  0.259777  0.604250  1
  Au  Au33  1  0.260956  0.314267  0.395108  1
  Au  Au34  1  0.314047  0.258836  0.894692  1
  Au  Au35  1  0.258770  0.313926  0.105329  1
