# generated using pymatgen
data_Ba4ErMnO8
_symmetry_space_group_name_H-M   'P 1'
_cell_length_a   7.40909378
_cell_length_b   7.40909438
_cell_length_c   5.89096000
_cell_angle_alpha   90.00000000
_cell_angle_beta   90.00000000
_cell_angle_gamma   133.23239985
_symmetry_Int_Tables_number   1
_chemical_formula_structural   Ba4ErMnO8
_chemical_formula_sum   'Ba4 Er1 Mn1 O8'
_cell_volume   235.61035786
_cell_formula_units_Z   1
loop_
 _symmetry_equiv_pos_site_id
 _symmetry_equiv_pos_as_xyz
  1  'x, y, z'
loop_
 _atom_site_type_symbol
 _atom_site_label
 _atom_site_symmetry_multiplicity
 _atom_site_fract_x
 _atom_site_fract_y
 _atom_site_fract_z
 _atom_site_occupancy
  Ba  Ba0  1  0.642731  0.357269  0.000000  1
  Ba  Ba1  1  0.144489  0.855511  0.500000  1
  Ba  Ba2  1  0.855511  0.144489  0.500000  1
  Ba  Ba3  1  0.357269  0.642731  0.000000  1
  Er  Er4  1  0.000000  0.000000  0.000000  1
  Mn  Mn5  1  0.500000  0.500000  0.500000  1
  O  O6  1  0.735044  0.735044  0.267861  1
  O  O7  1  0.264956  0.264956  0.732139  1
  O  O8  1  0.264956  0.264956  0.267861  1
  O  O9  1  0.735044  0.735044  0.732139  1
  O  O10  1  0.835874  0.164126  0.000000  1
  O  O11  1  0.352109  0.647891  0.500000  1
  O  O12  1  0.647891  0.352109  0.500000  1
  O  O13  1  0.164126  0.835874  0.000000  1
