# generated using pymatgen
data_YTm(ZrCo)2
_symmetry_space_group_name_H-M   'P 1'
_cell_length_a   4.57243300
_cell_length_b   6.91864800
_cell_length_c   8.02993000
_cell_angle_alpha   90.00000000
_cell_angle_beta   90.00000000
_cell_angle_gamma   90.00000000
_symmetry_Int_Tables_number   1
_chemical_formula_structural   YTm(ZrCo)2
_chemical_formula_sum   'Y2 Tm2 Zr4 Co4'
_cell_volume   254.02727262
_cell_formula_units_Z   2
loop_
 _symmetry_equiv_pos_site_id
 _symmetry_equiv_pos_as_xyz
  1  'x, y, z'
loop_
 _atom_site_type_symbol
 _atom_site_label
 _atom_site_symmetry_multiplicity
 _atom_site_fract_x
 _atom_site_fract_y
 _atom_site_fract_z
 _atom_site_occupancy
  Y  Y0  1  0.750000  0.019643  0.673227  1
  Y  Y1  1  0.750000  0.519643  0.826773  1
  Tm  Tm2  1  0.250000  0.978431  0.326042  1
  Tm  Tm3  1  0.250000  0.478431  0.173958  1
  Zr  Zr4  1  0.250000  0.862748  0.925298  1
  Zr  Zr5  1  0.250000  0.362748  0.574702  1
  Zr  Zr6  1  0.750000  0.138353  0.081592  1
  Zr  Zr7  1  0.750000  0.638353  0.418408  1
  Co  Co8  1  0.250000  0.224295  0.916933  1
  Co  Co9  1  0.250000  0.724295  0.583067  1
  Co  Co10  1  0.750000  0.776532  0.088892  1
  Co  Co11  1  0.750000  0.276532  0.411108  1
