# generated using pymatgen
data_Nd10InBi5Br2
_symmetry_space_group_name_H-M   'P 1'
_cell_length_a   9.67622300
_cell_length_b   9.62089499
_cell_length_c   6.74841000
_cell_angle_alpha   90.00000000
_cell_angle_beta   90.00000000
_cell_angle_gamma   120.19042200
_symmetry_Int_Tables_number   1
_chemical_formula_structural   Nd10InBi5Br2
_chemical_formula_sum   'Nd10 In1 Bi5 Br2'
_cell_volume   543.02134426
_cell_formula_units_Z   1
loop_
 _symmetry_equiv_pos_site_id
 _symmetry_equiv_pos_as_xyz
  1  'x, y, z'
loop_
 _atom_site_type_symbol
 _atom_site_label
 _atom_site_symmetry_multiplicity
 _atom_site_fract_x
 _atom_site_fract_y
 _atom_site_fract_z
 _atom_site_occupancy
  Nd  Nd0  1  0.273728  0.000000  0.750000  1
  Nd  Nd1  1  0.727235  0.000000  0.250000  1
  Nd  Nd2  1  0.996098  0.268981  0.750000  1
  Nd  Nd3  1  0.000157  0.729591  0.250000  1
  Nd  Nd4  1  0.727116  0.731019  0.750000  1
  Nd  Nd5  1  0.270567  0.270409  0.250000  1
  Nd  Nd6  1  0.335079  0.668412  0.498518  1
  Nd  Nd7  1  0.666668  0.331588  0.498518  1
  Nd  Nd8  1  0.666668  0.331588  0.001482  1
  Nd  Nd9  1  0.335079  0.668412  0.001482  1
  In  In10  1  0.614404  0.000000  0.750000  1
  Bi  Bi11  1  0.386706  0.000000  0.250000  1
  Bi  Bi12  1  0.998748  0.615668  0.750000  1
  Bi  Bi13  1  0.999721  0.383494  0.250000  1
  Bi  Bi14  1  0.383078  0.384332  0.750000  1
  Bi  Bi15  1  0.616227  0.616506  0.250000  1
  Br  Br16  1  0.001361  0.000000  0.499593  1
  Br  Br17  1  0.001361  0.000000  0.000407  1
