# generated using pymatgen
data_Ca4Dy2Si24Os5Ru3
_symmetry_space_group_name_H-M   'P 1'
_cell_length_a   10.17207356
_cell_length_b   10.17178404
_cell_length_c   8.16667837
_cell_angle_alpha   89.98396133
_cell_angle_beta   89.99009020
_cell_angle_gamma   132.66007830
_symmetry_Int_Tables_number   1
_chemical_formula_structural   Ca4Dy2Si24Os5Ru3
_chemical_formula_sum   'Ca4 Dy2 Si24 Os5 Ru3'
_cell_volume   621.39522942
_cell_formula_units_Z   1
loop_
 _symmetry_equiv_pos_site_id
 _symmetry_equiv_pos_as_xyz
  1  'x, y, z'
loop_
 _atom_site_type_symbol
 _atom_site_label
 _atom_site_symmetry_multiplicity
 _atom_site_fract_x
 _atom_site_fract_y
 _atom_site_fract_z
 _atom_site_occupancy
  Ca  Ca0  1  0.499740  0.499476  0.499840  1
  Ca  Ca1  1  0.999679  0.000008  0.999560  1
  Ca  Ca2  1  0.500124  0.000283  0.749938  1
  Ca  Ca3  1  0.999629  0.500168  0.250137  1
  Dy  Dy4  1  0.500642  0.000125  0.250199  1
  Dy  Dy5  1  0.999671  0.499677  0.749897  1
  Si  Si6  1  0.796097  0.204175  0.500054  1
  Si  Si7  1  0.295382  0.704776  0.000049  1
  Si  Si8  1  0.204795  0.795523  0.500064  1
  Si  Si9  1  0.704087  0.295883  0.999984  1
  Si  Si10  1  0.332506  0.336367  0.832530  1
  Si  Si11  1  0.663893  0.667668  0.167605  1
  Si  Si12  1  0.167132  0.162971  0.330640  1
  Si  Si13  1  0.834645  0.830715  0.667022  1
  Si  Si14  1  0.122835  0.889827  0.730163  1
  Si  Si15  1  0.110457  0.877841  0.270019  1
  Si  Si16  1  0.607042  0.374541  0.229964  1
  Si  Si17  1  0.626104  0.393278  0.770242  1
  Si  Si18  1  0.875789  0.108186  0.270114  1
  Si  Si19  1  0.891798  0.124740  0.730069  1
  Si  Si20  1  0.390743  0.623821  0.770289  1
  Si  Si21  1  0.376564  0.609310  0.229912  1
  Si  Si22  1  0.346966  0.113159  0.506004  1
  Si  Si23  1  0.886941  0.653549  0.494720  1
  Si  Si24  1  0.386486  0.153405  0.010439  1
  Si  Si25  1  0.846638  0.613931  0.990070  1
  Si  Si26  1  0.653464  0.885980  0.491189  1
  Si  Si27  1  0.113986  0.347052  0.509438  1
  Si  Si28  1  0.612893  0.846396  0.993555  1
  Si  Si29  1  0.153573  0.387505  0.006796  1
  Os  Os30  1  0.671044  0.329079  0.499999  1
  Os  Os31  1  0.170333  0.829762  0.000013  1
  Os  Os32  1  0.329886  0.670228  0.499975  1
  Os  Os33  1  0.828980  0.170986  0.999986  1
  Os  Os34  1  0.127164  0.127087  0.625106  1
  Ru  Ru35  1  0.872716  0.872684  0.374724  1
  Ru  Ru36  1  0.372932  0.373045  0.124777  1
  Ru  Ru37  1  0.626640  0.626789  0.874917  1
