# generated using pymatgen
data_BaS27
_symmetry_space_group_name_H-M   'P 1'
_cell_length_a   14.22213615
_cell_length_b   14.22213579
_cell_length_c   14.22213645
_cell_angle_alpha   118.26102338
_cell_angle_beta   118.26102502
_cell_angle_gamma   118.26101294
_symmetry_Int_Tables_number   1
_chemical_formula_structural   BaS27
_chemical_formula_sum   'Ba1 S27'
_cell_volume   976.04248298
_cell_formula_units_Z   1
loop_
 _symmetry_equiv_pos_site_id
 _symmetry_equiv_pos_as_xyz
  1  'x, y, z'
loop_
 _atom_site_type_symbol
 _atom_site_label
 _atom_site_symmetry_multiplicity
 _atom_site_fract_x
 _atom_site_fract_y
 _atom_site_fract_z
 _atom_site_occupancy
  Ba  Ba0  1  0.441152  0.441152  0.441152  1
  S  S1  1  0.037337  0.645759  0.645759  1
  S  S2  1  0.645759  0.645759  0.037337  1
  S  S3  1  0.645759  0.037337  0.645759  1
  S  S4  1  0.233544  0.853533  0.716426  1
  S  S5  1  0.853533  0.716426  0.233544  1
  S  S6  1  0.716426  0.233544  0.853533  1
  S  S7  1  0.853533  0.233544  0.716426  1
  S  S8  1  0.233544  0.716426  0.853533  1
  S  S9  1  0.716426  0.853533  0.233544  1
  S  S10  1  0.111176  0.645818  0.452970  1
  S  S11  1  0.645818  0.452970  0.111176  1
  S  S12  1  0.452970  0.111176  0.645818  1
  S  S13  1  0.645818  0.111176  0.452970  1
  S  S14  1  0.111176  0.452970  0.645818  1
  S  S15  1  0.452970  0.645818  0.111176  1
  S  S16  1  0.343920  0.726420  0.588529  1
  S  S17  1  0.726420  0.588529  0.343920  1
  S  S18  1  0.588529  0.343920  0.726420  1
  S  S19  1  0.726420  0.343920  0.588529  1
  S  S20  1  0.343920  0.588529  0.726420  1
  S  S21  1  0.588529  0.726420  0.343920  1
  S  S22  1  0.190334  0.459004  0.459004  1
  S  S23  1  0.459004  0.459004  0.190334  1
  S  S24  1  0.459004  0.190334  0.459004  1
  S  S25  1  0.006811  0.908634  0.908634  1
  S  S26  1  0.908634  0.908634  0.006811  1
  S  S27  1  0.908634  0.006811  0.908634  1
