# generated using pymatgen
data_Sr6MnCrN6
_symmetry_space_group_name_H-M   'P 1'
_cell_length_a   7.76762200
_cell_length_b   7.76762165
_cell_length_c   5.26896100
_cell_angle_alpha   90.00000000
_cell_angle_beta   90.00000000
_cell_angle_gamma   120.00001000
_symmetry_Int_Tables_number   1
_chemical_formula_structural   Sr6MnCrN6
_chemical_formula_sum   'Sr6 Mn1 Cr1 N6'
_cell_volume   275.31616961
_cell_formula_units_Z   1
loop_
 _symmetry_equiv_pos_site_id
 _symmetry_equiv_pos_as_xyz
  1  'x, y, z'
loop_
 _atom_site_type_symbol
 _atom_site_label
 _atom_site_symmetry_multiplicity
 _atom_site_fract_x
 _atom_site_fract_y
 _atom_site_fract_z
 _atom_site_occupancy
  Sr  Sr0  1  0.640909  0.724867  0.750000  1
  Sr  Sr1  1  0.913529  0.638508  0.250000  1
  Sr  Sr2  1  0.724979  0.086471  0.250000  1
  Sr  Sr3  1  0.275133  0.916042  0.750000  1
  Sr  Sr4  1  0.083958  0.359091  0.750000  1
  Sr  Sr5  1  0.361492  0.275021  0.250000  1
  Mn  Mn6  1  0.666667  0.333333  0.750000  1
  Cr  Cr7  1  0.333333  0.666667  0.250000  1
  N  N8  1  0.879800  0.569099  0.750000  1
  N  N9  1  0.311650  0.878029  0.250000  1
  N  N10  1  0.566380  0.688350  0.250000  1
  N  N11  1  0.430901  0.310702  0.750000  1
  N  N12  1  0.689298  0.120200  0.750000  1
  N  N13  1  0.121971  0.433620  0.250000  1
