# generated using pymatgen
data_Dy16Ho4(Ir3Ru)3
_symmetry_space_group_name_H-M   'P 1'
_cell_length_a   10.85118000
_cell_length_b   10.85118000
_cell_length_c   6.42554800
_cell_angle_alpha   90.00000000
_cell_angle_beta   90.00000000
_cell_angle_gamma   90.00000000
_symmetry_Int_Tables_number   1
_chemical_formula_structural   Dy16Ho4(Ir3Ru)3
_chemical_formula_sum   'Dy16 Ho4 Ir9 Ru3'
_cell_volume   756.59611596
_cell_formula_units_Z   1
loop_
 _symmetry_equiv_pos_site_id
 _symmetry_equiv_pos_as_xyz
  1  'x, y, z'
loop_
 _atom_site_type_symbol
 _atom_site_label
 _atom_site_symmetry_multiplicity
 _atom_site_fract_x
 _atom_site_fract_y
 _atom_site_fract_z
 _atom_site_occupancy
  Dy  Dy0  1  0.293584  0.086766  0.378601  1
  Dy  Dy1  1  0.293594  0.913507  0.878937  1
  Dy  Dy2  1  0.706406  0.086493  0.878937  1
  Dy  Dy3  1  0.706416  0.913234  0.378601  1
  Dy  Dy4  1  0.586493  0.793594  0.878937  1
  Dy  Dy5  1  0.586766  0.206416  0.378601  1
  Dy  Dy6  1  0.413234  0.793584  0.378601  1
  Dy  Dy7  1  0.413507  0.206406  0.878937  1
  Dy  Dy8  1  0.208043  0.412572  0.622894  1
  Dy  Dy9  1  0.207803  0.587449  0.119940  1
  Dy  Dy10  1  0.792197  0.412551  0.119940  1
  Dy  Dy11  1  0.791957  0.587428  0.622894  1
  Dy  Dy12  1  0.912551  0.707803  0.119940  1
  Dy  Dy13  1  0.912572  0.291957  0.622894  1
  Dy  Dy14  1  0.087428  0.708043  0.622894  1
  Dy  Dy15  1  0.087449  0.292197  0.119940  1
  Ho  Ho16  1  0.000000  0.000000  0.499461  1
  Ho  Ho17  1  0.000000  0.000000  0.999485  1
  Ho  Ho18  1  0.500000  0.500000  0.999485  1
  Ho  Ho19  1  0.500000  0.500000  0.499461  1
  Ir  Ir20  1  0.848044  0.152517  0.249961  1
  Ir  Ir21  1  0.847707  0.847570  0.749664  1
  Ir  Ir22  1  0.152293  0.152430  0.749664  1
  Ir  Ir23  1  0.151956  0.847483  0.249961  1
  Ir  Ir24  1  0.652430  0.347707  0.749664  1
  Ir  Ir25  1  0.652517  0.651956  0.249961  1
  Ir  Ir26  1  0.347483  0.348044  0.249961  1
  Ir  Ir27  1  0.347570  0.652293  0.749664  1
  Ir  Ir28  1  0.000000  0.500000  0.377357  1
  Ru  Ru29  1  0.500000  0.000000  0.123923  1
  Ru  Ru30  1  0.500000  0.000000  0.623894  1
  Ru  Ru31  1  0.000000  0.500000  0.876946  1
