# generated using pymatgen
data_Cs4TaSbCl12
_symmetry_space_group_name_H-M   'P 1'
_cell_length_a   10.76623406
_cell_length_b   10.80649165
_cell_length_c   13.31814161
_cell_angle_alpha   113.93536392
_cell_angle_beta   113.84075351
_cell_angle_gamma   90.00000263
_symmetry_Int_Tables_number   1
_chemical_formula_structural   Cs4TaSbCl12
_chemical_formula_sum   'Cs8 Ta2 Sb2 Cl24'
_cell_volume   1270.24056546
_cell_formula_units_Z   2
loop_
 _symmetry_equiv_pos_site_id
 _symmetry_equiv_pos_as_xyz
  1  'x, y, z'
loop_
 _atom_site_type_symbol
 _atom_site_label
 _atom_site_symmetry_multiplicity
 _atom_site_fract_x
 _atom_site_fract_y
 _atom_site_fract_z
 _atom_site_occupancy
  Cs  Cs0  1  0.283054  0.000060  0.000067  1
  Cs  Cs1  1  0.716946  0.999940  0.999933  1
  Cs  Cs2  1  0.283054  0.500007  0.000067  1
  Cs  Cs3  1  0.716946  0.499993  0.999933  1
  Cs  Cs4  1  0.000000  0.217190  0.499999  1
  Cs  Cs5  1  0.000000  0.782809  0.499999  1
  Cs  Cs6  1  0.500000  0.217137  0.499999  1
  Cs  Cs7  1  0.500000  0.782862  0.499999  1
  Ta  Ta8  1  0.125013  0.374996  0.249992  1
  Ta  Ta9  1  0.874987  0.625004  0.750009  1
  Sb  Sb10  1  0.624903  0.874940  0.249879  1
  Sb  Sb11  1  0.375097  0.125060  0.750122  1
  Cl  Cl12  1  0.016420  0.266459  0.032918  1
  Cl  Cl13  1  0.502336  0.752423  0.004846  1
  Cl  Cl14  1  0.346074  0.375382  0.250765  1
  Cl  Cl15  1  0.904715  0.375364  0.250729  1
  Cl  Cl16  1  0.628579  0.126567  0.257180  1
  Cl  Cl17  1  0.628579  0.630612  0.257180  1
  Cl  Cl18  1  0.372247  0.871305  0.242610  1
  Cl  Cl19  1  0.870315  0.871355  0.242712  1
  Cl  Cl20  1  0.124795  0.154847  0.249486  1
  Cl  Cl21  1  0.124795  0.594639  0.249486  1
  Cl  Cl22  1  0.747379  0.997345  0.494689  1
  Cl  Cl23  1  0.233623  0.483617  0.467235  1
  Cl  Cl24  1  0.766377  0.516383  0.532765  1
  Cl  Cl25  1  0.252622  0.002656  0.505311  1
  Cl  Cl26  1  0.875205  0.405361  0.750513  1
  Cl  Cl27  1  0.875205  0.845152  0.750513  1
  Cl  Cl28  1  0.129685  0.128645  0.757289  1
  Cl  Cl29  1  0.627753  0.128695  0.757391  1
  Cl  Cl30  1  0.371421  0.369387  0.742819  1
  Cl  Cl31  1  0.371421  0.873433  0.742819  1
  Cl  Cl32  1  0.095286  0.624636  0.749271  1
  Cl  Cl33  1  0.653926  0.624618  0.749235  1
  Cl  Cl34  1  0.497664  0.247577  0.995153  1
  Cl  Cl35  1  0.983580  0.733541  0.967082  1
