# generated using pymatgen
data_Ti10GaSiAs4
_symmetry_space_group_name_H-M   'P 1'
_cell_length_a   5.06851621
_cell_length_b   7.49134698
_cell_length_c   7.49134583
_cell_angle_alpha   83.36349733
_cell_angle_beta   70.11427304
_cell_angle_gamma   70.11427271
_symmetry_Int_Tables_number   1
_chemical_formula_structural   Ti10GaSiAs4
_chemical_formula_sum   'Ti10 Ga1 Si1 As4'
_cell_volume   251.53637329
_cell_formula_units_Z   1
loop_
 _symmetry_equiv_pos_site_id
 _symmetry_equiv_pos_as_xyz
  1  'x, y, z'
loop_
 _atom_site_type_symbol
 _atom_site_label
 _atom_site_symmetry_multiplicity
 _atom_site_fract_x
 _atom_site_fract_y
 _atom_site_fract_z
 _atom_site_occupancy
  Ti  Ti0  1  0.716601  0.857984  0.702516  1
  Ti  Ti1  1  0.274996  0.141986  0.297428  1
  Ti  Ti2  1  0.783399  0.297484  0.142016  1
  Ti  Ti3  1  0.225004  0.702572  0.858014  1
  Ti  Ti4  1  0.574363  0.702685  0.142035  1
  Ti  Ti5  1  0.417107  0.297395  0.858073  1
  Ti  Ti6  1  0.082893  0.141927  0.702605  1
  Ti  Ti7  1  0.925637  0.857965  0.297315  1
  Ti  Ti8  1  0.750000  0.499408  0.500592  1
  Ti  Ti9  1  0.250000  0.500538  0.499462  1
  Ga  Ga10  1  0.750000  0.999968  0.000032  1
  Si  Si11  1  0.250000  0.000071  0.999929  1
  As  As12  1  0.161796  0.500071  0.177030  1
  As  As13  1  0.838192  0.499962  0.822986  1
  As  As14  1  0.338204  0.822970  0.499929  1
  As  As15  1  0.661808  0.177014  0.500038  1
