# generated using pymatgen
data_Tm(Co3Si2)2
_symmetry_space_group_name_H-M   'P 1'
_cell_length_a   6.59833900
_cell_length_b   6.59834045
_cell_length_c   3.58877100
_cell_angle_alpha   90.00000000
_cell_angle_beta   90.00000000
_cell_angle_gamma   120.00000779
_symmetry_Int_Tables_number   1
_chemical_formula_structural   Tm(Co3Si2)2
_chemical_formula_sum   'Tm1 Co6 Si4'
_cell_volume   135.31492098
_cell_formula_units_Z   1
loop_
 _symmetry_equiv_pos_site_id
 _symmetry_equiv_pos_as_xyz
  1  'x, y, z'
loop_
 _atom_site_type_symbol
 _atom_site_label
 _atom_site_symmetry_multiplicity
 _atom_site_fract_x
 _atom_site_fract_y
 _atom_site_fract_z
 _atom_site_occupancy
  Tm  Tm0  1  0.000000  0.000000  0.000000  1
  Co  Co1  1  0.534136  0.068270  0.000000  1
  Co  Co2  1  0.534135  0.465864  0.000000  1
  Co  Co3  1  0.931730  0.465864  0.000000  1
  Co  Co4  1  0.204183  0.408366  0.500001  1
  Co  Co5  1  0.204184  0.795818  0.500001  1
  Co  Co6  1  0.591634  0.795818  0.500001  1
  Si  Si7  1  0.333334  0.666667  0.000000  1
  Si  Si8  1  0.397035  0.198518  0.500001  1
  Si  Si9  1  0.801483  0.198518  0.500001  1
  Si  Si10  1  0.801482  0.602965  0.500001  1
