# generated using pymatgen
data_Sm7CoBr12
_symmetry_space_group_name_H-M   'P 1'
_cell_length_a   9.39989337
_cell_length_b   9.39989297
_cell_length_c   9.39989362
_cell_angle_alpha   106.71646816
_cell_angle_beta   106.71646423
_cell_angle_gamma   106.71647368
_symmetry_Int_Tables_number   1
_chemical_formula_structural   Sm7CoBr12
_chemical_formula_sum   'Sm7 Co1 Br12'
_cell_volume   696.97540935
_cell_formula_units_Z   1
loop_
 _symmetry_equiv_pos_site_id
 _symmetry_equiv_pos_as_xyz
  1  'x, y, z'
loop_
 _atom_site_type_symbol
 _atom_site_label
 _atom_site_symmetry_multiplicity
 _atom_site_fract_x
 _atom_site_fract_y
 _atom_site_fract_z
 _atom_site_occupancy
  Sm  Sm0  1  0.304235  0.097957  0.022380  1
  Sm  Sm1  1  0.097957  0.022380  0.304235  1
  Sm  Sm2  1  0.022380  0.304235  0.097957  1
  Sm  Sm3  1  0.695765  0.902043  0.977620  1
  Sm  Sm4  1  0.902043  0.977620  0.695765  1
  Sm  Sm5  1  0.977620  0.695765  0.902043  1
  Sm  Sm6  1  0.500000  0.500000  0.500000  1
  Co  Co7  1  0.000000  0.000000  0.000000  1
  Br  Br8  1  0.221098  0.070329  0.680605  1
  Br  Br9  1  0.070329  0.680605  0.221098  1
  Br  Br10  1  0.680605  0.221098  0.070329  1
  Br  Br11  1  0.778902  0.929671  0.319395  1
  Br  Br12  1  0.929671  0.319395  0.778902  1
  Br  Br13  1  0.319395  0.778902  0.929671  1
  Br  Br14  1  0.385478  0.459618  0.165980  1
  Br  Br15  1  0.459618  0.165980  0.385478  1
  Br  Br16  1  0.165980  0.385478  0.459618  1
  Br  Br17  1  0.614522  0.540382  0.834020  1
  Br  Br18  1  0.540382  0.834020  0.614522  1
  Br  Br19  1  0.834020  0.614522  0.540382  1
