# generated using pymatgen
data_Sm2Fe2P7Ru9Pt
_symmetry_space_group_name_H-M   'P 1'
_cell_length_a   9.43866549
_cell_length_b   9.40129151
_cell_length_c   3.90146800
_cell_angle_alpha   90.00000000
_cell_angle_beta   90.00000000
_cell_angle_gamma   120.39593288
_symmetry_Int_Tables_number   1
_chemical_formula_structural   Sm2Fe2P7Ru9Pt
_chemical_formula_sum   'Sm2 Fe2 P7 Ru9 Pt1'
_cell_volume   298.61404798
_cell_formula_units_Z   1
loop_
 _symmetry_equiv_pos_site_id
 _symmetry_equiv_pos_as_xyz
  1  'x, y, z'
loop_
 _atom_site_type_symbol
 _atom_site_label
 _atom_site_symmetry_multiplicity
 _atom_site_fract_x
 _atom_site_fract_y
 _atom_site_fract_z
 _atom_site_occupancy
  Sm  Sm0  1  0.333198  0.666469  0.000000  1
  Sm  Sm1  1  0.669134  0.333918  0.500000  1
  Fe  Fe2  1  0.111283  0.272035  0.000000  1
  Fe  Fe3  1  0.729738  0.839876  0.000000  1
  P  P4  1  0.422029  0.101919  0.000000  1
  P  P5  1  0.893288  0.303142  0.000000  1
  P  P6  1  0.705685  0.597751  0.000000  1
  P  P7  1  0.111106  0.714383  0.500000  1
  P  P8  1  0.271774  0.401062  0.500000  1
  P  P9  1  0.603282  0.883249  0.500000  1
  P  P10  1  0.993072  0.005471  0.000000  1
  Ru  Ru11  1  0.642902  0.059421  0.000000  1
  Ru  Ru12  1  0.933948  0.571212  0.000000  1
  Ru  Ru13  1  0.155207  0.893038  0.000000  1
  Ru  Ru14  1  0.388923  0.948803  0.500000  1
  Ru  Ru15  1  0.047302  0.436219  0.500000  1
  Ru  Ru16  1  0.558670  0.610690  0.500000  1
  Ru  Ru17  1  0.212467  0.130528  0.500000  1
  Ru  Ru18  1  0.882716  0.084071  0.500000  1
  Ru  Ru19  1  0.905455  0.787507  0.500000  1
  Pt  Pt20  1  0.428818  0.359239  0.000000  1
