# generated using pymatgen
data_AcLa(Ge2Pt)2
_symmetry_space_group_name_H-M   'P 1'
_cell_length_a   9.82158679
_cell_length_b   9.82158652
_cell_length_c   9.82158600
_cell_angle_alpha   153.26448156
_cell_angle_beta   125.60075854
_cell_angle_gamma   61.62590367
_symmetry_Int_Tables_number   1
_chemical_formula_structural   AcLa(Ge2Pt)2
_chemical_formula_sum   'Ac2 La2 Ge8 Pt4'
_cell_volume   343.96294328
_cell_formula_units_Z   2
loop_
 _symmetry_equiv_pos_site_id
 _symmetry_equiv_pos_as_xyz
  1  'x, y, z'
loop_
 _atom_site_type_symbol
 _atom_site_label
 _atom_site_symmetry_multiplicity
 _atom_site_fract_x
 _atom_site_fract_y
 _atom_site_fract_z
 _atom_site_occupancy
  Ac  Ac0  1  0.741698  0.000000  0.741698  1
  Ac  Ac1  1  0.258302  0.000000  0.258302  1
  La  La2  1  0.296586  0.796586  0.500000  1
  La  La3  1  0.703414  0.203414  0.500000  1
  Ge  Ge4  1  0.924903  0.424903  0.500000  1
  Ge  Ge5  1  0.075097  0.575097  0.500000  1
  Ge  Ge6  1  0.424052  0.424052  0.000000  1
  Ge  Ge7  1  0.575948  0.575948  0.000000  1
  Ge  Ge8  1  0.350261  0.200174  0.150086  1
  Ge  Ge9  1  0.649739  0.799826  0.849914  1
  Ge  Ge10  1  0.050087  0.200174  0.849914  1
  Ge  Ge11  1  0.949913  0.799826  0.150086  1
  Pt  Pt12  1  0.603473  0.348783  0.254689  1
  Pt  Pt13  1  0.396527  0.651217  0.745311  1
  Pt  Pt14  1  0.094094  0.348783  0.745311  1
  Pt  Pt15  1  0.905906  0.651217  0.254689  1
