# generated using pymatgen
data_LiSm2Y(Co4P3)2
_symmetry_space_group_name_H-M   'P 1'
_cell_length_a   3.74424600
_cell_length_b   10.62594300
_cell_length_c   12.26338500
_cell_angle_alpha   90.00000000
_cell_angle_beta   90.00000000
_cell_angle_gamma   90.00000000
_symmetry_Int_Tables_number   1
_chemical_formula_structural   LiSm2Y(Co4P3)2
_chemical_formula_sum   'Li2 Sm4 Y2 Co16 P12'
_cell_volume   487.91280858
_cell_formula_units_Z   2
loop_
 _symmetry_equiv_pos_site_id
 _symmetry_equiv_pos_as_xyz
  1  'x, y, z'
loop_
 _atom_site_type_symbol
 _atom_site_label
 _atom_site_symmetry_multiplicity
 _atom_site_fract_x
 _atom_site_fract_y
 _atom_site_fract_z
 _atom_site_occupancy
  Li  Li0  1  0.500000  0.500000  0.151568  1
  Li  Li1  1  0.000000  0.000000  0.848174  1
  Sm  Sm2  1  0.000000  0.500000  0.523691  1
  Sm  Sm3  1  0.500000  0.000000  0.477408  1
  Sm  Sm4  1  0.500000  0.819084  0.206087  1
  Sm  Sm5  1  0.500000  0.180916  0.206087  1
  Y  Y6  1  0.000000  0.680398  0.794103  1
  Y  Y7  1  0.000000  0.319602  0.794103  1
  Co  Co8  1  0.500000  0.500000  0.705703  1
  Co  Co9  1  0.000000  0.000000  0.294895  1
  Co  Co10  1  0.000000  0.500000  0.985932  1
  Co  Co11  1  0.500000  0.000000  0.010984  1
  Co  Co12  1  0.500000  0.333690  0.995832  1
  Co  Co13  1  0.500000  0.666310  0.995832  1
  Co  Co14  1  0.000000  0.167710  0.001611  1
  Co  Co15  1  0.000000  0.832290  0.001611  1
  Co  Co16  1  0.500000  0.296886  0.431841  1
  Co  Co17  1  0.500000  0.703114  0.431841  1
  Co  Co18  1  0.000000  0.203849  0.570591  1
  Co  Co19  1  0.000000  0.796151  0.570591  1
  Co  Co20  1  0.500000  0.878898  0.707812  1
  Co  Co21  1  0.500000  0.121102  0.707812  1
  Co  Co22  1  0.000000  0.620149  0.293423  1
  Co  Co23  1  0.000000  0.379851  0.293423  1
  P  P24  1  0.500000  0.500000  0.884756  1
  P  P25  1  0.000000  0.000000  0.112145  1
  P  P26  1  0.500000  0.500000  0.343868  1
  P  P27  1  0.000000  0.000000  0.656767  1
  P  P28  1  0.500000  0.307932  0.616919  1
  P  P29  1  0.500000  0.692068  0.616919  1
  P  P30  1  0.000000  0.193171  0.385991  1
  P  P31  1  0.000000  0.806829  0.385991  1
  P  P32  1  0.500000  0.842948  0.893680  1
  P  P33  1  0.500000  0.157052  0.893680  1
  P  P34  1  0.000000  0.655337  0.104167  1
  P  P35  1  0.000000  0.344663  0.104167  1
