# generated using pymatgen
data_MnTePtO6
_symmetry_space_group_name_H-M   'P 1'
_cell_length_a   5.23816702
_cell_length_b   5.23804774
_cell_length_c   9.39326500
_cell_angle_alpha   90.00473600
_cell_angle_beta   89.99785891
_cell_angle_gamma   119.99931931
_symmetry_Int_Tables_number   1
_chemical_formula_structural   MnTePtO6
_chemical_formula_sum   'Mn2 Te2 Pt2 O12'
_cell_volume   223.20246097
_cell_formula_units_Z   2
loop_
 _symmetry_equiv_pos_site_id
 _symmetry_equiv_pos_as_xyz
  1  'x, y, z'
loop_
 _atom_site_type_symbol
 _atom_site_label
 _atom_site_symmetry_multiplicity
 _atom_site_fract_x
 _atom_site_fract_y
 _atom_site_fract_z
 _atom_site_occupancy
  Mn  Mn0  1  0.000171  0.999967  0.000059  1
  Mn  Mn1  1  0.000103  0.000290  0.499809  1
  Te  Te2  1  0.666492  0.333227  0.250024  1
  Te  Te3  1  0.333428  0.666693  0.750022  1
  Pt  Pt4  1  0.333437  0.666713  0.250009  1
  Pt  Pt5  1  0.666519  0.333257  0.750009  1
  O  O6  1  0.358701  0.008334  0.135431  1
  O  O7  1  0.649515  0.641200  0.135490  1
  O  O8  1  0.991541  0.350355  0.135439  1
  O  O9  1  0.991568  0.641274  0.364553  1
  O  O10  1  0.649609  0.008273  0.364533  1
  O  O11  1  0.358677  0.350334  0.364590  1
  O  O12  1  0.641271  0.649626  0.635450  1
  O  O13  1  0.350475  0.991652  0.635449  1
  O  O14  1  0.008407  0.358738  0.635427  1
  O  O15  1  0.008381  0.649730  0.864566  1
  O  O16  1  0.350394  0.358695  0.864575  1
  O  O17  1  0.641309  0.991639  0.864566  1
