# generated using pymatgen
data_HgSO3F
_symmetry_space_group_name_H-M   'P 1'
_cell_length_a   6.34655095
_cell_length_b   6.34655122
_cell_length_c   6.69681375
_cell_angle_alpha   108.26986648
_cell_angle_beta   108.26986723
_cell_angle_gamma   63.17556656
_symmetry_Int_Tables_number   1
_chemical_formula_structural   HgSO3F
_chemical_formula_sum   'Hg2 S2 O6 F2'
_cell_volume   223.81963063
_cell_formula_units_Z   2
loop_
 _symmetry_equiv_pos_site_id
 _symmetry_equiv_pos_as_xyz
  1  'x, y, z'
loop_
 _atom_site_type_symbol
 _atom_site_label
 _atom_site_symmetry_multiplicity
 _atom_site_fract_x
 _atom_site_fract_y
 _atom_site_fract_z
 _atom_site_occupancy
  Hg  Hg0  1  0.695642  0.304359  0.000000  1
  Hg  Hg1  1  0.304359  0.695642  0.000000  1
  S  S2  1  0.272131  0.272131  0.274833  1
  S  S3  1  0.727869  0.727869  0.725166  1
  O  O4  1  0.124606  0.124606  0.147711  1
  O  O5  1  0.521616  0.147484  0.256913  1
  O  O6  1  0.147484  0.521616  0.256913  1
  O  O7  1  0.852516  0.478384  0.743088  1
  O  O8  1  0.478384  0.852516  0.743088  1
  O  O9  1  0.875394  0.875394  0.852288  1
  F  F10  1  0.725857  0.725857  0.483651  1
  F  F11  1  0.274143  0.274143  0.516350  1
