# generated using pymatgen
data_Ce4IrRu2Au
_symmetry_space_group_name_H-M   'P 1'
_cell_length_a   4.51895900
_cell_length_b   5.53117634
_cell_length_c   7.30863247
_cell_angle_alpha   89.60649126
_cell_angle_beta   90.00000000
_cell_angle_gamma   90.00000000
_symmetry_Int_Tables_number   1
_chemical_formula_structural   Ce4IrRu2Au
_chemical_formula_sum   'Ce4 Ir1 Ru2 Au1'
_cell_volume   182.67612297
_cell_formula_units_Z   1
loop_
 _symmetry_equiv_pos_site_id
 _symmetry_equiv_pos_as_xyz
  1  'x, y, z'
loop_
 _atom_site_type_symbol
 _atom_site_label
 _atom_site_symmetry_multiplicity
 _atom_site_fract_x
 _atom_site_fract_y
 _atom_site_fract_z
 _atom_site_occupancy
  Ce  Ce0  1  0.250000  0.636809  0.168936  1
  Ce  Ce1  1  0.750000  0.349972  0.840301  1
  Ce  Ce2  1  0.750000  0.101492  0.319497  1
  Ce  Ce3  1  0.250000  0.869329  0.693477  1
  Ir  Ir4  1  0.250000  0.146054  0.053741  1
  Ru  Ru5  1  0.750000  0.798079  0.915998  1
  Ru  Ru6  1  0.750000  0.725786  0.471227  1
  Au  Au7  1  0.250000  0.372478  0.536823  1
