# generated using pymatgen
data_SmTa4(NbCl9)2
_symmetry_space_group_name_H-M   'P 1'
_cell_length_a   10.20157013
_cell_length_b   10.20106456
_cell_length_c   10.20009539
_cell_angle_alpha   55.90813205
_cell_angle_beta   55.92109948
_cell_angle_gamma   55.91245166
_symmetry_Int_Tables_number   1
_chemical_formula_structural   SmTa4(NbCl9)2
_chemical_formula_sum   'Sm1 Ta4 Nb2 Cl18'
_cell_volume   679.50769861
_cell_formula_units_Z   1
loop_
 _symmetry_equiv_pos_site_id
 _symmetry_equiv_pos_as_xyz
  1  'x, y, z'
loop_
 _atom_site_type_symbol
 _atom_site_label
 _atom_site_symmetry_multiplicity
 _atom_site_fract_x
 _atom_site_fract_y
 _atom_site_fract_z
 _atom_site_occupancy
  Sm  Sm0  1  0.999574  0.999844  0.000586  1
  Ta  Ta1  1  0.410354  0.301501  0.648044  1
  Ta  Ta2  1  0.351918  0.590011  0.698223  1
  Ta  Ta3  1  0.699310  0.351318  0.589835  1
  Ta  Ta4  1  0.301333  0.648854  0.409318  1
  Nb  Nb5  1  0.649347  0.409933  0.300049  1
  Nb  Nb6  1  0.590619  0.699502  0.350536  1
  Cl  Cl7  1  0.566987  0.161642  0.444048  1
  Cl  Cl8  1  0.224983  0.370867  0.906112  1
  Cl  Cl9  1  0.907704  0.223667  0.372909  1
  Cl  Cl10  1  0.367974  0.907047  0.224900  1
  Cl  Cl11  1  0.776488  0.630175  0.090998  1
  Cl  Cl12  1  0.093865  0.774828  0.629141  1
  Cl  Cl13  1  0.698745  0.958355  0.162600  1
  Cl  Cl14  1  0.954213  0.163650  0.698699  1
  Cl  Cl15  1  0.164665  0.697254  0.954256  1
  Cl  Cl16  1  0.301702  0.046327  0.835856  1
  Cl  Cl17  1  0.044761  0.835015  0.303203  1
  Cl  Cl18  1  0.838231  0.300554  0.041936  1
  Cl  Cl19  1  0.558662  0.431076  0.836665  1
  Cl  Cl20  1  0.163402  0.441541  0.568748  1
  Cl  Cl21  1  0.438458  0.570667  0.163377  1
  Cl  Cl22  1  0.429301  0.836585  0.561400  1
  Cl  Cl23  1  0.838336  0.555894  0.433238  1
  Cl  Cl24  1  0.629068  0.093890  0.775324  1
