# generated using pymatgen
data_Tb5Y11MgHg3Rh4
_symmetry_space_group_name_H-M   'P 1'
_cell_length_a   9.66787403
_cell_length_b   9.66271057
_cell_length_c   9.66271065
_cell_angle_alpha   59.89912204
_cell_angle_beta   59.93741812
_cell_angle_gamma   59.93741817
_symmetry_Int_Tables_number   1
_chemical_formula_structural   Tb5Y11MgHg3Rh4
_chemical_formula_sum   'Tb5 Y11 Mg1 Hg3 Rh4'
_cell_volume   637.19286817
_cell_formula_units_Z   1
loop_
 _symmetry_equiv_pos_site_id
 _symmetry_equiv_pos_as_xyz
  1  'x, y, z'
loop_
 _atom_site_type_symbol
 _atom_site_label
 _atom_site_symmetry_multiplicity
 _atom_site_fract_x
 _atom_site_fract_y
 _atom_site_fract_z
 _atom_site_occupancy
  Tb  Tb0  1  0.600349  0.597813  0.597813  1
  Tb  Tb1  1  0.601806  0.598968  0.202188  1
  Tb  Tb2  1  0.601806  0.202188  0.598968  1
  Tb  Tb3  1  0.190908  0.603561  0.603561  1
  Tb  Tb4  1  0.058512  0.440281  0.440281  1
  Y  Y5  1  0.435823  0.062435  0.062435  1
  Y  Y6  1  0.437043  0.060832  0.438596  1
  Y  Y7  1  0.059121  0.439558  0.059475  1
  Y  Y8  1  0.437043  0.438596  0.060832  1
  Y  Y9  1  0.059121  0.059475  0.439558  1
  Y  Y10  1  0.186332  0.813380  0.813380  1
  Y  Y11  1  0.812314  0.186590  0.186590  1
  Y  Y12  1  0.812359  0.187906  0.814280  1
  Y  Y13  1  0.185455  0.812947  0.188262  1
  Y  Y14  1  0.812359  0.814280  0.187906  1
  Y  Y15  1  0.185455  0.188262  0.812947  1
  Mg  Mg16  1  0.534067  0.821632  0.821632  1
  Hg  Hg17  1  0.831975  0.836542  0.836542  1
  Hg  Hg18  1  0.831942  0.837237  0.493577  1
  Hg  Hg19  1  0.831942  0.493577  0.837237  1
  Rh  Rh20  1  0.389109  0.394846  0.394846  1
  Rh  Rh21  1  0.391591  0.395045  0.820144  1
  Rh  Rh22  1  0.391591  0.820144  0.395045  1
  Rh  Rh23  1  0.821979  0.393907  0.393907  1
