# generated using pymatgen
data_K3Tm(SbAu)4
_symmetry_space_group_name_H-M   'P 1'
_cell_length_a   4.64064400
_cell_length_b   4.64064299
_cell_length_c   19.94324600
_cell_angle_alpha   90.00000000
_cell_angle_beta   90.00000000
_cell_angle_gamma   119.99999297
_symmetry_Int_Tables_number   1
_chemical_formula_structural   K3Tm(SbAu)4
_chemical_formula_sum   'K3 Tm1 Sb4 Au4'
_cell_volume   371.94859345
_cell_formula_units_Z   1
loop_
 _symmetry_equiv_pos_site_id
 _symmetry_equiv_pos_as_xyz
  1  'x, y, z'
loop_
 _atom_site_type_symbol
 _atom_site_label
 _atom_site_symmetry_multiplicity
 _atom_site_fract_x
 _atom_site_fract_y
 _atom_site_fract_z
 _atom_site_occupancy
  K  K0  1  0.000000  0.000000  0.500000  1
  K  K1  1  0.000000  0.000000  0.236442  1
  K  K2  1  0.000000  0.000000  0.763558  1
  Tm  Tm3  1  0.000000  0.000000  0.000000  1
  Sb  Sb4  1  0.333333  0.666667  0.366547  1
  Sb  Sb5  1  0.666667  0.333333  0.633453  1
  Sb  Sb6  1  0.666667  0.333333  0.894421  1
  Sb  Sb7  1  0.333333  0.666667  0.105579  1
  Au  Au8  1  0.666667  0.333333  0.365599  1
  Au  Au9  1  0.333333  0.666667  0.634401  1
  Au  Au10  1  0.333333  0.666667  0.924826  1
  Au  Au11  1  0.666667  0.333333  0.075174  1
