# generated using pymatgen
data_Gd3Ho2Bi3O14
_symmetry_space_group_name_H-M   'P 1'
_cell_length_a   6.64099340
_cell_length_b   6.67829589
_cell_length_c   7.80037400
_cell_angle_alpha   106.73972411
_cell_angle_beta   89.69288215
_cell_angle_gamma   98.69536121
_symmetry_Int_Tables_number   1
_chemical_formula_structural   Gd3Ho2Bi3O14
_chemical_formula_sum   'Gd3 Ho2 Bi3 O14'
_cell_volume   327.21596210
_cell_formula_units_Z   1
loop_
 _symmetry_equiv_pos_site_id
 _symmetry_equiv_pos_as_xyz
  1  'x, y, z'
loop_
 _atom_site_type_symbol
 _atom_site_label
 _atom_site_symmetry_multiplicity
 _atom_site_fract_x
 _atom_site_fract_y
 _atom_site_fract_z
 _atom_site_occupancy
  Gd  Gd0  1  0.270304  0.535771  0.882747  1
  Gd  Gd1  1  0.739125  0.458999  0.113625  1
  Gd  Gd2  1  0.744185  0.479360  0.618579  1
  Ho  Ho3  1  0.460492  0.008738  0.254671  1
  Ho  Ho4  1  0.537389  0.999289  0.749666  1
  Bi  Bi5  1  0.993856  0.999158  0.500306  1
  Bi  Bi6  1  0.998917  0.995943  0.997552  1
  Bi  Bi7  1  0.283566  0.536562  0.388379  1
  O  O8  1  0.451111  0.657274  0.170196  1
  O  O9  1  0.555819  0.350038  0.834260  1
  O  O10  1  0.302925  0.926688  0.951095  1
  O  O11  1  0.697228  0.070235  0.050603  1
  O  O12  1  0.298338  0.934652  0.517920  1
  O  O13  1  0.697109  0.079133  0.489136  1
  O  O14  1  0.546140  0.359238  0.342817  1
  O  O15  1  0.461768  0.644375  0.656699  1
  O  O16  1  0.927345  0.661294  0.946643  1
  O  O17  1  0.068627  0.324936  0.031012  1
  O  O18  1  0.067287  0.337839  0.626706  1
  O  O19  1  0.908438  0.663459  0.382781  1
  O  O20  1  0.869638  0.907545  0.727229  1
  O  O21  1  0.120396  0.069475  0.267378  1
