# generated using pymatgen
data_Y2HoTa3(B2Ru5)2
_symmetry_space_group_name_H-M   'P 1'
_cell_length_a   9.60927018
_cell_length_b   9.60927119
_cell_length_c   3.11914700
_cell_angle_alpha   90.00000000
_cell_angle_beta   90.00000000
_cell_angle_gamma   90.41973690
_symmetry_Int_Tables_number   1
_chemical_formula_structural   Y2HoTa3(B2Ru5)2
_chemical_formula_sum   'Y2 Ho1 Ta3 B4 Ru10'
_cell_volume   288.00832638
_cell_formula_units_Z   1
loop_
 _symmetry_equiv_pos_site_id
 _symmetry_equiv_pos_as_xyz
  1  'x, y, z'
loop_
 _atom_site_type_symbol
 _atom_site_label
 _atom_site_symmetry_multiplicity
 _atom_site_fract_x
 _atom_site_fract_y
 _atom_site_fract_z
 _atom_site_occupancy
  Y  Y0  1  0.823939  0.675214  0.000000  1
  Y  Y1  1  0.175214  0.323939  0.000000  1
  Ho  Ho2  1  0.325786  0.825786  0.000000  1
  Ta  Ta3  1  0.675884  0.175884  0.000000  1
  Ta  Ta4  1  0.498438  0.502341  0.000000  1
  Ta  Ta5  1  0.002341  0.998438  0.000000  1
  B  B6  1  0.622810  0.881048  0.000000  1
  B  B7  1  0.381048  0.122810  0.000000  1
  B  B8  1  0.119280  0.619280  0.000000  1
  B  B9  1  0.876392  0.376392  0.000000  1
  Ru  Ru10  1  0.570375  0.721780  0.500000  1
  Ru  Ru11  1  0.441521  0.279930  0.500000  1
  Ru  Ru12  1  0.070026  0.780933  0.500000  1
  Ru  Ru13  1  0.915380  0.213354  0.500000  1
  Ru  Ru14  1  0.280933  0.570026  0.500000  1
  Ru  Ru15  1  0.713354  0.415380  0.500000  1
  Ru  Ru16  1  0.221780  0.070375  0.500000  1
  Ru  Ru17  1  0.779930  0.941521  0.500000  1
  Ru  Ru18  1  0.509499  0.009499  0.500000  1
  Ru  Ru19  1  0.996066  0.496066  0.500000  1
