# generated using pymatgen
data_Sc2FeCoSi2
_symmetry_space_group_name_H-M   'P 1'
_cell_length_a   4.04423600
_cell_length_b   6.50535700
_cell_length_c   6.71028000
_cell_angle_alpha   90.00000000
_cell_angle_beta   90.00000000
_cell_angle_gamma   90.00000000
_symmetry_Int_Tables_number   1
_chemical_formula_structural   Sc2FeCoSi2
_chemical_formula_sum   'Sc4 Fe2 Co2 Si4'
_cell_volume   176.54209168
_cell_formula_units_Z   2
loop_
 _symmetry_equiv_pos_site_id
 _symmetry_equiv_pos_as_xyz
  1  'x, y, z'
loop_
 _atom_site_type_symbol
 _atom_site_label
 _atom_site_symmetry_multiplicity
 _atom_site_fract_x
 _atom_site_fract_y
 _atom_site_fract_z
 _atom_site_occupancy
  Sc  Sc0  1  0.750000  0.514447  0.808479  1
  Sc  Sc1  1  0.250000  0.988552  0.307663  1
  Sc  Sc2  1  0.750000  0.014447  0.691521  1
  Sc  Sc3  1  0.250000  0.488552  0.192337  1
  Fe  Fe4  1  0.750000  0.847382  0.060884  1
  Fe  Fe5  1  0.750000  0.347382  0.439116  1
  Co  Co6  1  0.250000  0.651812  0.561782  1
  Co  Co7  1  0.250000  0.151812  0.938218  1
  Si  Si8  1  0.250000  0.796895  0.892933  1
  Si  Si9  1  0.250000  0.296895  0.607067  1
  Si  Si10  1  0.750000  0.200912  0.111448  1
  Si  Si11  1  0.750000  0.700912  0.388552  1
