# generated using pymatgen
data_Er3TmBi3Sb
_symmetry_space_group_name_H-M   'P 1'
_cell_length_a   7.65819301
_cell_length_b   7.65819399
_cell_length_c   7.65819301
_cell_angle_alpha   131.83573324
_cell_angle_beta   131.83574367
_cell_angle_gamma   70.48858873
_symmetry_Int_Tables_number   1
_chemical_formula_structural   Er3TmBi3Sb
_chemical_formula_sum   'Er3 Tm1 Bi3 Sb1'
_cell_volume   244.29733074
_cell_formula_units_Z   1
loop_
 _symmetry_equiv_pos_site_id
 _symmetry_equiv_pos_as_xyz
  1  'x, y, z'
loop_
 _atom_site_type_symbol
 _atom_site_label
 _atom_site_symmetry_multiplicity
 _atom_site_fract_x
 _atom_site_fract_y
 _atom_site_fract_z
 _atom_site_occupancy
  Er  Er0  1  0.254091  0.254091  0.000000  1
  Er  Er1  1  0.500005  0.000005  0.500000  1
  Er  Er2  1  0.000005  0.500005  0.500000  1
  Tm  Tm3  1  0.745874  0.745874  0.000000  1
  Bi  Bi4  1  0.999908  0.999908  0.000000  1
  Bi  Bi5  1  0.750001  0.250001  0.500000  1
  Bi  Bi6  1  0.250001  0.750001  0.500000  1
  Sb  Sb7  1  0.500115  0.500115  0.000000  1
