# generated using pymatgen
data_Li8La5Th3Sn8
_symmetry_space_group_name_H-M   'P 1'
_cell_length_a   9.66311897
_cell_length_b   9.65469726
_cell_length_c   7.72383062
_cell_angle_alpha   90.00000284
_cell_angle_beta   90.05385825
_cell_angle_gamma   119.97117326
_symmetry_Int_Tables_number   1
_chemical_formula_structural   Li8La5Th3Sn8
_chemical_formula_sum   'Li8 La5 Th3 Sn8'
_cell_volume   624.23078584
_cell_formula_units_Z   1
loop_
 _symmetry_equiv_pos_site_id
 _symmetry_equiv_pos_as_xyz
  1  'x, y, z'
loop_
 _atom_site_type_symbol
 _atom_site_label
 _atom_site_symmetry_multiplicity
 _atom_site_fract_x
 _atom_site_fract_y
 _atom_site_fract_z
 _atom_site_occupancy
  Li  Li0  1  0.833233  0.167227  0.713544  1
  Li  Li1  1  0.833233  0.666005  0.713544  1
  Li  Li2  1  0.333312  0.166655  0.712947  1
  Li  Li3  1  0.167341  0.833689  0.211707  1
  Li  Li4  1  0.167341  0.333654  0.211707  1
  Li  Li5  1  0.665664  0.832832  0.212048  1
  Li  Li6  1  0.667476  0.333738  0.330892  1
  Li  Li7  1  0.333871  0.666936  0.831747  1
  La  La8  1  0.487336  0.512520  0.505038  1
  La  La9  1  0.487336  0.974815  0.505038  1
  La  La10  1  0.025356  0.512678  0.506081  1
  La  La11  1  0.512700  0.487378  0.005127  1
  La  La12  1  0.512700  0.025321  0.005127  1
  Th  Th13  1  0.977061  0.488531  0.005620  1
  Th  Th14  1  0.998742  0.999371  0.501399  1
  Th  Th15  1  0.999402  0.999701  0.002659  1
  Sn  Sn16  1  0.836428  0.167365  0.266590  1
  Sn  Sn17  1  0.836428  0.669064  0.266590  1
  Sn  Sn18  1  0.328756  0.164378  0.272808  1
  Sn  Sn19  1  0.162922  0.832410  0.774047  1
  Sn  Sn20  1  0.162922  0.330512  0.774047  1
  Sn  Sn21  1  0.670469  0.835234  0.769581  1
  Sn  Sn22  1  0.669796  0.334898  0.733831  1
  Sn  Sn23  1  0.330174  0.665087  0.226287  1
