# generated using pymatgen
data_Y5Zr2Ni16MoAs12
_symmetry_space_group_name_H-M   'P 1'
_cell_length_a   12.72693304
_cell_length_b   12.75011842
_cell_length_c   3.91825500
_cell_angle_alpha   90.00000000
_cell_angle_beta   90.00000000
_cell_angle_gamma   120.06028496
_symmetry_Int_Tables_number   1
_chemical_formula_structural   Y5Zr2Ni16MoAs12
_chemical_formula_sum   'Y5 Zr2 Ni16 Mo1 As12'
_cell_volume   550.29702364
_cell_formula_units_Z   1
loop_
 _symmetry_equiv_pos_site_id
 _symmetry_equiv_pos_as_xyz
  1  'x, y, z'
loop_
 _atom_site_type_symbol
 _atom_site_label
 _atom_site_symmetry_multiplicity
 _atom_site_fract_x
 _atom_site_fract_y
 _atom_site_fract_z
 _atom_site_occupancy
  Y  Y0  1  0.184711  0.183048  0.500000  1
  Y  Y1  1  0.815289  0.998337  0.500000  1
  Y  Y2  1  0.000000  0.811302  0.500000  1
  Y  Y3  1  0.330329  0.665118  0.000000  1
  Y  Y4  1  0.669671  0.334788  0.000000  1
  Zr  Zr5  1  0.564434  0.564909  0.000000  1
  Zr  Zr6  1  0.435566  0.000475  0.000000  1
  Ni  Ni7  1  0.722952  0.723252  0.500000  1
  Ni  Ni8  1  0.277048  0.000299  0.500000  1
  Ni  Ni9  1  0.000000  0.279813  0.500000  1
  Ni  Ni10  1  0.178305  0.375596  0.000000  1
  Ni  Ni11  1  0.623979  0.809287  0.000000  1
  Ni  Ni12  1  0.190521  0.813150  0.000000  1
  Ni  Ni13  1  0.809479  0.622629  0.000000  1
  Ni  Ni14  1  0.821695  0.197292  0.000000  1
  Ni  Ni15  1  0.376021  0.185308  0.000000  1
  Ni  Ni16  1  0.358350  0.482290  0.500000  1
  Ni  Ni17  1  0.517595  0.879876  0.500000  1
  Ni  Ni18  1  0.119783  0.635129  0.500000  1
  Ni  Ni19  1  0.880217  0.515346  0.500000  1
  Ni  Ni20  1  0.641650  0.123939  0.500000  1
  Ni  Ni21  1  0.482405  0.362280  0.500000  1
  Ni  Ni22  1  0.000000  0.999836  0.000000  1
  Mo  Mo23  1  0.000000  0.438050  0.000000  1
  As  As24  1  0.822549  0.820469  0.000000  1
  As  As25  1  0.177451  0.997920  0.000000  1
  As  As26  1  0.000000  0.178144  0.000000  1
  As  As27  1  0.165709  0.478402  0.500000  1
  As  As28  1  0.519748  0.693415  0.500000  1
  As  As29  1  0.306245  0.826733  0.500000  1
  As  As30  1  0.693755  0.520489  0.500000  1
  As  As31  1  0.834291  0.312694  0.500000  1
  As  As32  1  0.480252  0.173668  0.500000  1
  As  As33  1  0.353835  0.358391  0.000000  1
  As  As34  1  0.646165  0.004556  0.000000  1
  As  As35  1  0.000000  0.633771  0.000000  1
