# generated using pymatgen
data_Ac6LaNd13Pb16
_symmetry_space_group_name_H-M   'P 1'
_cell_length_a   8.62795908
_cell_length_b   8.66846215
_cell_length_c   16.51346300
_cell_angle_alpha   90.02635280
_cell_angle_beta   90.67463210
_cell_angle_gamma   89.89229637
_symmetry_Int_Tables_number   1
_chemical_formula_structural   Ac6LaNd13Pb16
_chemical_formula_sum   'Ac6 La1 Nd13 Pb16'
_cell_volume   1234.97275509
_cell_formula_units_Z   1
loop_
 _symmetry_equiv_pos_site_id
 _symmetry_equiv_pos_as_xyz
  1  'x, y, z'
loop_
 _atom_site_type_symbol
 _atom_site_label
 _atom_site_symmetry_multiplicity
 _atom_site_fract_x
 _atom_site_fract_y
 _atom_site_fract_z
 _atom_site_occupancy
  Ac  Ac0  1  0.978829  0.822346  0.900739  1
  Ac  Ac1  1  0.521281  0.322836  0.096652  1
  Ac  Ac2  1  0.024095  0.176656  0.404384  1
  Ac  Ac3  1  0.523393  0.324206  0.404629  1
  Ac  Ac4  1  0.021112  0.177502  0.096745  1
  Ac  Ac5  1  0.479072  0.677448  0.901759  1
  La  La6  1  0.972908  0.821036  0.599320  1
  Nd  Nd7  1  0.631452  0.158041  0.619226  1
  Nd  Nd8  1  0.135975  0.342677  0.876101  1
  Nd  Nd9  1  0.364600  0.842227  0.121920  1
  Nd  Nd10  1  0.871055  0.656217  0.381293  1
  Nd  Nd11  1  0.371484  0.843140  0.380998  1
  Nd  Nd12  1  0.864090  0.657649  0.121521  1
  Nd  Nd13  1  0.635935  0.156952  0.875592  1
  Nd  Nd14  1  0.131609  0.342273  0.619216  1
  Nd  Nd15  1  0.470894  0.677665  0.600943  1
  Nd  Nd16  1  0.797011  0.497899  0.748228  1
  Nd  Nd17  1  0.297158  0.001638  0.748121  1
  Nd  Nd18  1  0.203953  0.502632  0.251827  1
  Nd  Nd19  1  0.704163  0.997321  0.251641  1
  Pb  Pb20  1  0.707355  0.954978  0.458599  1
  Pb  Pb21  1  0.198854  0.543365  0.044062  1
  Pb  Pb22  1  0.301217  0.043632  0.954573  1
  Pb  Pb23  1  0.789316  0.470807  0.547492  1
  Pb  Pb24  1  0.292909  0.030463  0.547140  1
  Pb  Pb25  1  0.801251  0.455337  0.954769  1
  Pb  Pb26  1  0.698765  0.956980  0.043692  1
  Pb  Pb27  1  0.209400  0.547121  0.459989  1
  Pb  Pb28  1  0.435643  0.372592  0.746639  1
  Pb  Pb29  1  0.935761  0.128060  0.746742  1
  Pb  Pb30  1  0.564967  0.630262  0.251249  1
  Pb  Pb31  1  0.064615  0.869309  0.251468  1
  Pb  Pb32  1  0.664851  0.852688  0.745243  1
  Pb  Pb33  1  0.167505  0.645491  0.745934  1
  Pb  Pb34  1  0.333799  0.143226  0.250774  1
  Pb  Pb35  1  0.833720  0.357327  0.250783  1
