# generated using pymatgen
data_Tm4Tc5Ge8Ru
_symmetry_space_group_name_H-M   'P 1'
_cell_length_a   6.89605003
_cell_length_b   6.90154944
_cell_length_c   6.90253290
_cell_angle_alpha   69.79525335
_cell_angle_beta   90.22736453
_cell_angle_gamma   91.39058854
_symmetry_Int_Tables_number   1
_chemical_formula_structural   Tm4Tc5Ge8Ru
_chemical_formula_sum   'Tm4 Tc5 Ge8 Ru1'
_cell_volume   308.20563391
_cell_formula_units_Z   1
loop_
 _symmetry_equiv_pos_site_id
 _symmetry_equiv_pos_as_xyz
  1  'x, y, z'
loop_
 _atom_site_type_symbol
 _atom_site_label
 _atom_site_symmetry_multiplicity
 _atom_site_fract_x
 _atom_site_fract_y
 _atom_site_fract_z
 _atom_site_occupancy
  Tm  Tm0  1  0.328180  0.556216  0.805455  1
  Tm  Tm1  1  0.831720  0.948767  0.192374  1
  Tm  Tm2  1  0.671201  0.445775  0.190997  1
  Tm  Tm3  1  0.174135  0.047831  0.809269  1
  Tc  Tc4  1  0.499327  0.003649  0.501225  1
  Tc  Tc5  1  0.002393  0.492360  0.501392  1
  Tc  Tc6  1  0.854427  0.747865  0.756124  1
  Tc  Tc7  1  0.359924  0.734786  0.234719  1
  Tc  Tc8  1  0.145269  0.249027  0.233533  1
  Ge  Ge9  1  0.564051  0.876694  0.892849  1
  Ge  Ge10  1  0.051516  0.634167  0.098137  1
  Ge  Ge11  1  0.443071  0.127024  0.108123  1
  Ge  Ge12  1  0.947831  0.360279  0.897492  1
  Ge  Ge13  1  0.146196  0.865507  0.481263  1
  Ge  Ge14  1  0.646487  0.636475  0.506791  1
  Ge  Ge15  1  0.850789  0.134981  0.526087  1
  Ge  Ge16  1  0.353564  0.362320  0.489470  1
  Ru  Ru17  1  0.629918  0.276275  0.774700  1
