# generated using pymatgen
data_Hf16CuNi4Mo3
_symmetry_space_group_name_H-M   'P 1'
_cell_length_a   8.66303228
_cell_length_b   8.66303268
_cell_length_c   8.66303263
_cell_angle_alpha   60.19401727
_cell_angle_beta   60.19400852
_cell_angle_gamma   60.19401662
_symmetry_Int_Tables_number   1
_chemical_formula_structural   Hf16CuNi4Mo3
_chemical_formula_sum   'Hf16 Cu1 Ni4 Mo3'
_cell_volume   461.74125230
_cell_formula_units_Z   1
loop_
 _symmetry_equiv_pos_site_id
 _symmetry_equiv_pos_as_xyz
  1  'x, y, z'
loop_
 _atom_site_type_symbol
 _atom_site_label
 _atom_site_symmetry_multiplicity
 _atom_site_fract_x
 _atom_site_fract_y
 _atom_site_fract_z
 _atom_site_occupancy
  Hf  Hf0  1  0.689222  0.103373  0.103373  1
  Hf  Hf1  1  0.103373  0.689222  0.103373  1
  Hf  Hf2  1  0.103373  0.103373  0.689222  1
  Hf  Hf3  1  0.104045  0.104045  0.104045  1
  Hf  Hf4  1  0.316051  0.316051  0.689911  1
  Hf  Hf5  1  0.684815  0.684815  0.315262  1
  Hf  Hf6  1  0.316051  0.689911  0.316051  1
  Hf  Hf7  1  0.684815  0.315262  0.684815  1
  Hf  Hf8  1  0.689911  0.316051  0.316051  1
  Hf  Hf9  1  0.315262  0.684815  0.684815  1
  Hf  Hf10  1  0.951864  0.951864  0.547021  1
  Hf  Hf11  1  0.552302  0.552302  0.945406  1
  Hf  Hf12  1  0.951864  0.547021  0.951864  1
  Hf  Hf13  1  0.552302  0.945406  0.552302  1
  Hf  Hf14  1  0.547021  0.951864  0.951864  1
  Hf  Hf15  1  0.945406  0.552302  0.552302  1
  Cu  Cu16  1  0.330769  0.330769  0.330769  1
  Ni  Ni17  1  0.322420  0.891104  0.891104  1
  Ni  Ni18  1  0.891104  0.322420  0.891104  1
  Ni  Ni19  1  0.891104  0.891104  0.322420  1
  Ni  Ni20  1  0.892077  0.892077  0.892077  1
  Mo  Mo21  1  0.998138  0.333355  0.333355  1
  Mo  Mo22  1  0.333355  0.998138  0.333355  1
  Mo  Mo23  1  0.333355  0.333355  0.998138  1
