# generated using pymatgen
data_Ho20Pd7Ru5
_symmetry_space_group_name_H-M   'P 1'
_cell_length_a   10.95195559
_cell_length_b   10.95195523
_cell_length_c   6.38556945
_cell_angle_alpha   90.02315819
_cell_angle_beta   90.02315673
_cell_angle_gamma   90.70756709
_symmetry_Int_Tables_number   1
_chemical_formula_structural   Ho20Pd7Ru5
_chemical_formula_sum   'Ho20 Pd7 Ru5'
_cell_volume   765.86068758
_cell_formula_units_Z   1
loop_
 _symmetry_equiv_pos_site_id
 _symmetry_equiv_pos_as_xyz
  1  'x, y, z'
loop_
 _atom_site_type_symbol
 _atom_site_label
 _atom_site_symmetry_multiplicity
 _atom_site_fract_x
 _atom_site_fract_y
 _atom_site_fract_z
 _atom_site_occupancy
  Ho  Ho0  1  0.299986  0.085949  0.370824  1
  Ho  Ho1  1  0.295827  0.914467  0.872850  1
  Ho  Ho2  1  0.707276  0.088833  0.877820  1
  Ho  Ho3  1  0.705605  0.920258  0.368572  1
  Ho  Ho4  1  0.585188  0.798461  0.869706  1
  Ho  Ho5  1  0.592848  0.203074  0.371655  1
  Ho  Ho6  1  0.414990  0.798039  0.370512  1
  Ho  Ho7  1  0.416575  0.202049  0.870993  1
  Ho  Ho8  1  0.201539  0.414812  0.630294  1
  Ho  Ho9  1  0.201961  0.585010  0.129488  1
  Ho  Ho10  1  0.796926  0.407152  0.128345  1
  Ho  Ho11  1  0.797951  0.583425  0.629007  1
  Ho  Ho12  1  0.914051  0.700014  0.129176  1
  Ho  Ho13  1  0.911167  0.292724  0.622180  1
  Ho  Ho14  1  0.085533  0.704173  0.627150  1
  Ho  Ho15  1  0.079742  0.294395  0.131428  1
  Ho  Ho16  1  0.998096  0.004531  0.498767  1
  Ho  Ho17  1  0.995469  0.001904  0.001233  1
  Ho  Ho18  1  0.500183  0.500683  0.001274  1
  Ho  Ho19  1  0.499317  0.499817  0.498726  1
  Pd  Pd20  1  0.845170  0.844115  0.749579  1
  Pd  Pd21  1  0.155885  0.154830  0.750421  1
  Pd  Pd22  1  0.152995  0.847005  0.250000  1
  Pd  Pd23  1  0.652180  0.347820  0.750000  1
  Pd  Pd24  1  0.654006  0.654787  0.250763  1
  Pd  Pd25  1  0.345213  0.345994  0.249237  1
  Pd  Pd26  1  0.346352  0.653648  0.750000  1
  Ru  Ru27  1  0.848896  0.151104  0.250000  1
  Ru  Ru28  1  0.499406  0.999970  0.123443  1
  Ru  Ru29  1  0.499073  0.999435  0.625269  1
  Ru  Ru30  1  0.000565  0.500927  0.874731  1
  Ru  Ru31  1  0.000030  0.500594  0.376557  1
