# generated using pymatgen
data_BaGd(NbSe2)6
_symmetry_space_group_name_H-M   'P 1'
_cell_length_a   6.14854000
_cell_length_b   6.14853928
_cell_length_c   15.86995000
_cell_angle_alpha   90.00000000
_cell_angle_beta   90.00000000
_cell_angle_gamma   120.00000390
_symmetry_Int_Tables_number   1
_chemical_formula_structural   BaGd(NbSe2)6
_chemical_formula_sum   'Ba1 Gd1 Nb6 Se12'
_cell_volume   519.57725054
_cell_formula_units_Z   1
loop_
 _symmetry_equiv_pos_site_id
 _symmetry_equiv_pos_as_xyz
  1  'x, y, z'
loop_
 _atom_site_type_symbol
 _atom_site_label
 _atom_site_symmetry_multiplicity
 _atom_site_fract_x
 _atom_site_fract_y
 _atom_site_fract_z
 _atom_site_occupancy
  Ba  Ba0  1  0.000000  0.000000  0.500000  1
  Gd  Gd1  1  0.000000  0.000000  0.000000  1
  Nb  Nb2  1  0.000000  0.000000  0.765397  1
  Nb  Nb3  1  0.000000  0.000000  0.234603  1
  Nb  Nb4  1  0.333333  0.666667  0.233927  1
  Nb  Nb5  1  0.666667  0.333333  0.766073  1
  Nb  Nb6  1  0.666667  0.333333  0.233927  1
  Nb  Nb7  1  0.333333  0.666667  0.766073  1
  Se  Se8  1  0.335445  0.000000  0.129222  1
  Se  Se9  1  0.000000  0.335445  0.129222  1
  Se  Se10  1  0.664555  0.664555  0.129222  1
  Se  Se11  1  0.337684  0.337684  0.661015  1
  Se  Se12  1  0.662316  0.662316  0.338985  1
  Se  Se13  1  0.662316  0.000000  0.661015  1
  Se  Se14  1  0.000000  0.662316  0.661015  1
  Se  Se15  1  0.000000  0.664555  0.870778  1
  Se  Se16  1  0.335445  0.335445  0.870778  1
  Se  Se17  1  0.000000  0.337684  0.338985  1
  Se  Se18  1  0.337684  0.000000  0.338985  1
  Se  Se19  1  0.664555  0.000000  0.870778  1
