# generated using pymatgen
data_Tb5HoCo6(PRu)12
_symmetry_space_group_name_H-M   'P 1'
_cell_length_a   3.88729600
_cell_length_b   10.78390802
_cell_length_c   12.61394202
_cell_angle_alpha   90.00666686
_cell_angle_beta   90.00053333
_cell_angle_gamma   89.99884603
_symmetry_Int_Tables_number   1
_chemical_formula_structural   Tb5HoCo6(PRu)12
_chemical_formula_sum   'Tb5 Ho1 Co6 P12 Ru12'
_cell_volume   528.77950482
_cell_formula_units_Z   1
loop_
 _symmetry_equiv_pos_site_id
 _symmetry_equiv_pos_as_xyz
  1  'x, y, z'
loop_
 _atom_site_type_symbol
 _atom_site_label
 _atom_site_symmetry_multiplicity
 _atom_site_fract_x
 _atom_site_fract_y
 _atom_site_fract_z
 _atom_site_occupancy
  Tb  Tb0  1  0.000000  0.499915  0.526860  1
  Tb  Tb1  1  0.500001  0.000072  0.471789  1
  Tb  Tb2  1  0.500000  0.822362  0.203444  1
  Tb  Tb3  1  0.000001  0.680956  0.797387  1
  Tb  Tb4  1  0.000001  0.319058  0.797280  1
  Ho  Ho5  1  0.500001  0.177946  0.203373  1
  Co  Co6  1  0.000001  0.499805  0.986163  1
  Co  Co7  1  0.500000  0.000360  0.015698  1
  Co  Co8  1  0.000000  0.161306  0.012679  1
  Co  Co9  1  0.000000  0.838951  0.012439  1
  Co  Co10  1  0.500000  0.499943  0.700387  1
  Co  Co11  1  0.000000  0.000518  0.298954  1
  P  P12  1  0.500000  0.312702  0.617387  1
  P  P13  1  0.499998  0.687244  0.617588  1
  P  P14  1  0.000000  0.187600  0.381875  1
  P  P15  1  0.000002  0.812215  0.382332  1
  P  P16  1  0.500001  0.499860  0.879943  1
  P  P17  1  0.000000  0.000551  0.120107  1
  P  P18  1  0.500000  0.852738  0.896543  1
  P  P19  1  0.500000  0.147379  0.896326  1
  P  P20  1  0.000000  0.655843  0.100694  1
  P  P21  1  0.000000  0.343646  0.100867  1
  P  P22  1  0.499999  0.500015  0.338793  1
  P  P23  1  0.000001  0.999988  0.660912  1
  Ru  Ru24  1  0.499999  0.298603  0.427999  1
  Ru  Ru25  1  0.500000  0.701280  0.428402  1
  Ru  Ru26  1  0.000002  0.201530  0.571363  1
  Ru  Ru27  1  0.999989  0.798535  0.571519  1
  Ru  Ru28  1  0.500003  0.876580  0.715019  1
  Ru  Ru29  1  0.500000  0.123398  0.714947  1
  Ru  Ru30  1  0.999999  0.624762  0.282723  1
  Ru  Ru31  1  0.999998  0.374417  0.282280  1
  Ru  Ru32  1  0.500004  0.327706  0.991099  1
  Ru  Ru33  1  0.499999  0.672162  0.990813  1
  Ru  Ru34  1  0.500001  0.499987  0.152733  1
  Ru  Ru35  1  0.999999  0.000068  0.851286  1
