# generated using pymatgen
data_Rb3Na2TiBi3
_symmetry_space_group_name_H-M   'P 1'
_cell_length_a   11.75598474
_cell_length_b   11.75598589
_cell_length_c   17.00938900
_cell_angle_alpha   90.00000000
_cell_angle_beta   90.00000000
_cell_angle_gamma   143.02125547
_symmetry_Int_Tables_number   1
_chemical_formula_structural   Rb3Na2TiBi3
_chemical_formula_sum   'Rb12 Na8 Ti4 Bi12'
_cell_volume   1414.02119897
_cell_formula_units_Z   4
loop_
 _symmetry_equiv_pos_site_id
 _symmetry_equiv_pos_as_xyz
  1  'x, y, z'
loop_
 _atom_site_type_symbol
 _atom_site_label
 _atom_site_symmetry_multiplicity
 _atom_site_fract_x
 _atom_site_fract_y
 _atom_site_fract_z
 _atom_site_occupancy
  Rb  Rb0  1  0.604890  0.941327  0.827181  1
  Rb  Rb1  1  0.274178  0.274178  0.319680  1
  Rb  Rb2  1  0.225822  0.225822  0.819680  1
  Rb  Rb3  1  0.725822  0.725822  0.680320  1
  Rb  Rb4  1  0.441327  0.104890  0.672819  1
  Rb  Rb5  1  0.895110  0.558673  0.327181  1
  Rb  Rb6  1  0.058673  0.395110  0.172819  1
  Rb  Rb7  1  0.395110  0.058673  0.172819  1
  Rb  Rb8  1  0.558673  0.895110  0.327181  1
  Rb  Rb9  1  0.104890  0.441327  0.672819  1
  Rb  Rb10  1  0.941327  0.604890  0.827181  1
  Rb  Rb11  1  0.774178  0.774178  0.180320  1
  Na  Na12  1  0.080011  0.919989  0.000000  1
  Na  Na13  1  0.580011  0.419989  0.500000  1
  Na  Na14  1  0.919989  0.080011  0.000000  1
  Na  Na15  1  0.754640  0.245360  0.000000  1
  Na  Na16  1  0.745360  0.254640  0.500000  1
  Na  Na17  1  0.245360  0.754640  0.000000  1
  Na  Na18  1  0.254640  0.745360  0.500000  1
  Na  Na19  1  0.419989  0.580011  0.500000  1
  Ti  Ti20  1  0.084887  0.915113  0.500000  1
  Ti  Ti21  1  0.415113  0.584887  0.000000  1
  Ti  Ti22  1  0.915113  0.084887  0.500000  1
  Ti  Ti23  1  0.584887  0.415113  0.000000  1
  Bi  Bi24  1  0.057089  0.368257  0.401466  1
  Bi  Bi25  1  0.868257  0.557089  0.098534  1
  Bi  Bi26  1  0.442911  0.131743  0.901466  1
  Bi  Bi27  1  0.631743  0.942911  0.598534  1
  Bi  Bi28  1  0.942911  0.631743  0.598534  1
  Bi  Bi29  1  0.131743  0.442911  0.901466  1
  Bi  Bi30  1  0.557089  0.868257  0.098534  1
  Bi  Bi31  1  0.368257  0.057089  0.401466  1
  Bi  Bi32  1  0.197217  0.197217  0.590350  1
  Bi  Bi33  1  0.697217  0.697217  0.909650  1
  Bi  Bi34  1  0.302783  0.302783  0.090350  1
  Bi  Bi35  1  0.802783  0.802783  0.409650  1
