# generated using pymatgen
data_La2Tb7Er7(CdNi)4
_symmetry_space_group_name_H-M   'P 1'
_cell_length_a   9.58616880
_cell_length_b   9.58616847
_cell_length_c   9.58360200
_cell_angle_alpha   60.00884900
_cell_angle_beta   60.00885015
_cell_angle_gamma   60.18542991
_symmetry_Int_Tables_number   1
_chemical_formula_structural   La2Tb7Er7(CdNi)4
_chemical_formula_sum   'La2 Tb7 Er7 Cd4 Ni4'
_cell_volume   623.68753343
_cell_formula_units_Z   1
loop_
 _symmetry_equiv_pos_site_id
 _symmetry_equiv_pos_as_xyz
  1  'x, y, z'
loop_
 _atom_site_type_symbol
 _atom_site_label
 _atom_site_symmetry_multiplicity
 _atom_site_fract_x
 _atom_site_fract_y
 _atom_site_fract_z
 _atom_site_occupancy
  La  La0  1  0.346187  0.346187  0.350800  1
  La  La1  1  0.346187  0.346187  0.956826  1
  Tb  Tb2  1  0.812398  0.812398  0.187602  1
  Tb  Tb3  1  0.936039  0.564538  0.565221  1
  Tb  Tb4  1  0.564538  0.936039  0.934203  1
  Tb  Tb5  1  0.564538  0.936039  0.565221  1
  Tb  Tb6  1  0.936039  0.564538  0.934203  1
  Tb  Tb7  1  0.565103  0.565103  0.934897  1
  Tb  Tb8  1  0.936490  0.936490  0.563510  1
  Er  Er9  1  0.348169  0.949602  0.351115  1
  Er  Er10  1  0.949602  0.348169  0.351115  1
  Er  Er11  1  0.815316  0.187944  0.185658  1
  Er  Er12  1  0.187944  0.815316  0.811080  1
  Er  Er13  1  0.187944  0.815316  0.185658  1
  Er  Er14  1  0.815316  0.187944  0.811080  1
  Er  Er15  1  0.186521  0.186521  0.813479  1
  Cd  Cd16  1  0.582896  0.582896  0.577860  1
  Cd  Cd17  1  0.582896  0.582896  0.256347  1
  Cd  Cd18  1  0.584860  0.255128  0.580005  1
  Cd  Cd19  1  0.255128  0.584860  0.580005  1
  Ni  Ni20  1  0.139933  0.139933  0.145660  1
  Ni  Ni21  1  0.139933  0.139933  0.574474  1
  Ni  Ni22  1  0.138643  0.577379  0.141989  1
  Ni  Ni23  1  0.577379  0.138643  0.141989  1
