# generated using pymatgen
data_Nd4Ho(AlTe)2
_symmetry_space_group_name_H-M   'P 1'
_cell_length_a   8.92092100
_cell_length_b   8.92092208
_cell_length_c   8.18788200
_cell_angle_alpha   90.00000000
_cell_angle_beta   90.00000000
_cell_angle_gamma   125.95395695
_symmetry_Int_Tables_number   1
_chemical_formula_structural   Nd4Ho(AlTe)2
_chemical_formula_sum   'Nd8 Ho2 Al4 Te4'
_cell_volume   527.47515537
_cell_formula_units_Z   2
loop_
 _symmetry_equiv_pos_site_id
 _symmetry_equiv_pos_as_xyz
  1  'x, y, z'
loop_
 _atom_site_type_symbol
 _atom_site_label
 _atom_site_symmetry_multiplicity
 _atom_site_fract_x
 _atom_site_fract_y
 _atom_site_fract_z
 _atom_site_occupancy
  Nd  Nd0  1  0.802189  0.536683  0.168858  1
  Nd  Nd1  1  0.463317  0.197811  0.831142  1
  Nd  Nd2  1  0.963317  0.697811  0.668858  1
  Nd  Nd3  1  0.302189  0.036683  0.331142  1
  Nd  Nd4  1  0.197811  0.463317  0.831142  1
  Nd  Nd5  1  0.536683  0.802189  0.168858  1
  Nd  Nd6  1  0.036683  0.302189  0.331142  1
  Nd  Nd7  1  0.697811  0.963317  0.668858  1
  Ho  Ho8  1  0.000000  0.000000  0.000000  1
  Ho  Ho9  1  0.500000  0.500000  0.500000  1
  Al  Al10  1  0.878077  0.878077  0.379424  1
  Al  Al11  1  0.121923  0.121923  0.620576  1
  Al  Al12  1  0.621923  0.621923  0.879424  1
  Al  Al13  1  0.378077  0.378077  0.120576  1
  Te  Te14  1  0.200126  0.799874  0.000000  1
  Te  Te15  1  0.700126  0.299874  0.500000  1
  Te  Te16  1  0.799874  0.200126  0.000000  1
  Te  Te17  1  0.299874  0.700126  0.500000  1
