# generated using pymatgen
data_Y2HoSi2GeRh6
_symmetry_space_group_name_H-M   'P 1'
_cell_length_a   5.58644600
_cell_length_b   5.58644450
_cell_length_c   15.23718400
_cell_angle_alpha   90.00000000
_cell_angle_beta   90.00000000
_cell_angle_gamma   119.99999703
_symmetry_Int_Tables_number   1
_chemical_formula_structural   Y2HoSi2GeRh6
_chemical_formula_sum   'Y4 Ho2 Si4 Ge2 Rh12'
_cell_volume   411.81906710
_cell_formula_units_Z   2
loop_
 _symmetry_equiv_pos_site_id
 _symmetry_equiv_pos_as_xyz
  1  'x, y, z'
loop_
 _atom_site_type_symbol
 _atom_site_label
 _atom_site_symmetry_multiplicity
 _atom_site_fract_x
 _atom_site_fract_y
 _atom_site_fract_z
 _atom_site_occupancy
  Y  Y0  1  0.333333  0.666667  0.037157  1
  Y  Y1  1  0.666667  0.333333  0.750000  1
  Y  Y2  1  0.333333  0.666667  0.462843  1
  Y  Y3  1  0.333333  0.666667  0.250000  1
  Ho  Ho4  1  0.666667  0.333333  0.962819  1
  Ho  Ho5  1  0.666667  0.333333  0.537181  1
  Si  Si6  1  0.666667  0.333333  0.250000  1
  Si  Si7  1  0.000000  0.000000  0.250000  1
  Si  Si8  1  0.000000  0.000000  0.750000  1
  Si  Si9  1  0.333333  0.666667  0.750000  1
  Ge  Ge10  1  0.000000  0.000000  0.500020  1
  Ge  Ge11  1  0.000000  0.000000  0.999980  1
  Rh  Rh12  1  0.167438  0.334875  0.867049  1
  Rh  Rh13  1  0.167438  0.334875  0.632951  1
  Rh  Rh14  1  0.665125  0.832562  0.867049  1
  Rh  Rh15  1  0.335019  0.167509  0.367072  1
  Rh  Rh16  1  0.832491  0.664981  0.367072  1
  Rh  Rh17  1  0.832491  0.167509  0.367072  1
  Rh  Rh18  1  0.832491  0.167509  0.132928  1
  Rh  Rh19  1  0.335019  0.167509  0.132928  1
  Rh  Rh20  1  0.665125  0.832562  0.632951  1
  Rh  Rh21  1  0.167438  0.832562  0.632951  1
  Rh  Rh22  1  0.832491  0.664981  0.132928  1
  Rh  Rh23  1  0.167438  0.832562  0.867049  1
