# generated using pymatgen
data_Nd6FeCo15(P6W)2
_symmetry_space_group_name_H-M   'P 1'
_cell_length_a   3.79992700
_cell_length_b   10.73214400
_cell_length_c   12.43862700
_cell_angle_alpha   90.00000000
_cell_angle_beta   90.00000000
_cell_angle_gamma   90.00000000
_symmetry_Int_Tables_number   1
_chemical_formula_structural   Nd6FeCo15(P6W)2
_chemical_formula_sum   'Nd6 Fe1 Co15 P12 W2'
_cell_volume   507.26417228
_cell_formula_units_Z   1
loop_
 _symmetry_equiv_pos_site_id
 _symmetry_equiv_pos_as_xyz
  1  'x, y, z'
loop_
 _atom_site_type_symbol
 _atom_site_label
 _atom_site_symmetry_multiplicity
 _atom_site_fract_x
 _atom_site_fract_y
 _atom_site_fract_z
 _atom_site_occupancy
  Nd  Nd0  1  0.000000  0.500000  0.523510  1
  Nd  Nd1  1  0.500000  0.000000  0.476509  1
  Nd  Nd2  1  0.500000  0.818523  0.205040  1
  Nd  Nd3  1  0.500000  0.181477  0.205040  1
  Nd  Nd4  1  0.000000  0.679985  0.795279  1
  Nd  Nd5  1  0.000000  0.320015  0.795279  1
  Fe  Fe6  1  0.000000  0.500000  0.988861  1
  Co  Co7  1  0.500000  0.500000  0.701215  1
  Co  Co8  1  0.000000  0.000000  0.297801  1
  Co  Co9  1  0.500000  0.000000  0.011871  1
  Co  Co10  1  0.500000  0.331003  0.992333  1
  Co  Co11  1  0.500000  0.668997  0.992333  1
  Co  Co12  1  0.000000  0.166775  0.007772  1
  Co  Co13  1  0.000000  0.833225  0.007772  1
  Co  Co14  1  0.500000  0.295214  0.431111  1
  Co  Co15  1  0.500000  0.704786  0.431111  1
  Co  Co16  1  0.000000  0.204611  0.569335  1
  Co  Co17  1  0.000000  0.795389  0.569335  1
  Co  Co18  1  0.500000  0.880921  0.709286  1
  Co  Co19  1  0.500000  0.119079  0.709286  1
  Co  Co20  1  0.000000  0.619548  0.290714  1
  Co  Co21  1  0.000000  0.380452  0.290714  1
  P  P22  1  0.500000  0.500000  0.886568  1
  P  P23  1  0.000000  0.000000  0.115377  1
  P  P24  1  0.500000  0.500000  0.344707  1
  P  P25  1  0.000000  0.000000  0.654982  1
  P  P26  1  0.500000  0.306450  0.614436  1
  P  P27  1  0.500000  0.693550  0.614436  1
  P  P28  1  0.000000  0.193408  0.385752  1
  P  P29  1  0.000000  0.806592  0.385752  1
  P  P30  1  0.500000  0.846239  0.894636  1
  P  P31  1  0.500000  0.153761  0.894636  1
  P  P32  1  0.000000  0.652887  0.103940  1
  P  P33  1  0.000000  0.347113  0.103940  1
  W  W34  1  0.500000  0.500000  0.153642  1
  W  W35  1  0.000000  0.000000  0.845689  1
