# generated using pymatgen
data_La3Y(Tm4Bi3)4
_symmetry_space_group_name_H-M   'P 1'
_cell_length_a   8.30241868
_cell_length_b   9.46438700
_cell_length_c   12.08887800
_cell_angle_alpha   90.00000000
_cell_angle_beta   89.97678472
_cell_angle_gamma   90.00000000
_symmetry_Int_Tables_number   1
_chemical_formula_structural   La3Y(Tm4Bi3)4
_chemical_formula_sum   'La3 Y1 Tm16 Bi12'
_cell_volume   949.91135685
_cell_formula_units_Z   1
loop_
 _symmetry_equiv_pos_site_id
 _symmetry_equiv_pos_as_xyz
  1  'x, y, z'
loop_
 _atom_site_type_symbol
 _atom_site_label
 _atom_site_symmetry_multiplicity
 _atom_site_fract_x
 _atom_site_fract_y
 _atom_site_fract_z
 _atom_site_occupancy
  La  La0  1  0.316109  0.250000  0.219756  1
  La  La1  1  0.815574  0.250000  0.279942  1
  La  La2  1  0.684744  0.750000  0.780660  1
  Y  Y3  1  0.186007  0.750000  0.717381  1
  Tm  Tm4  1  0.350651  0.750000  0.218283  1
  Tm  Tm5  1  0.852171  0.750000  0.282613  1
  Tm  Tm6  1  0.647217  0.250000  0.780224  1
  Tm  Tm7  1  0.148198  0.250000  0.718641  1
  Tm  Tm8  1  0.690619  0.567350  0.061397  1
  Tm  Tm9  1  0.192317  0.933227  0.439478  1
  Tm  Tm10  1  0.309262  0.066499  0.937388  1
  Tm  Tm11  1  0.807388  0.433350  0.561685  1
  Tm  Tm12  1  0.309262  0.433501  0.937388  1
  Tm  Tm13  1  0.807388  0.066650  0.561685  1
  Tm  Tm14  1  0.690619  0.932650  0.061397  1
  Tm  Tm15  1  0.192317  0.566773  0.439478  1
  Tm  Tm16  1  0.476529  0.250000  0.490030  1
  Tm  Tm17  1  0.978494  0.250000  0.010505  1
  Tm  Tm18  1  0.522371  0.750000  0.513087  1
  Tm  Tm19  1  0.022640  0.750000  0.988025  1
  Bi  Bi20  1  0.400131  0.750000  0.963043  1
  Bi  Bi21  1  0.907173  0.750000  0.538660  1
  Bi  Bi22  1  0.598198  0.250000  0.034237  1
  Bi  Bi23  1  0.096880  0.250000  0.464996  1
  Bi  Bi24  1  0.564172  0.988406  0.329269  1
  Bi  Bi25  1  0.063909  0.511115  0.171489  1
  Bi  Bi26  1  0.430700  0.491933  0.672568  1
  Bi  Bi27  1  0.940091  0.008003  0.826685  1
  Bi  Bi28  1  0.430700  0.008067  0.672568  1
  Bi  Bi29  1  0.940091  0.491997  0.826685  1
  Bi  Bi30  1  0.564172  0.511594  0.329269  1
  Bi  Bi31  1  0.063909  0.988885  0.171489  1
