# generated using pymatgen
data_Zr6Sc3(In2Co)7
_symmetry_space_group_name_H-M   'P 1'
_cell_length_a   9.48038389
_cell_length_b   9.48038379
_cell_length_c   9.48053100
_cell_angle_alpha   59.99948982
_cell_angle_beta   59.99949016
_cell_angle_gamma   59.98488964
_symmetry_Int_Tables_number   1
_chemical_formula_structural   Zr6Sc3(In2Co)7
_chemical_formula_sum   'Zr6 Sc3 In14 Co7'
_cell_volume   602.44380168
_cell_formula_units_Z   1
loop_
 _symmetry_equiv_pos_site_id
 _symmetry_equiv_pos_as_xyz
  1  'x, y, z'
loop_
 _atom_site_type_symbol
 _atom_site_label
 _atom_site_symmetry_multiplicity
 _atom_site_fract_x
 _atom_site_fract_y
 _atom_site_fract_z
 _atom_site_occupancy
  Zr  Zr0  1  0.882531  0.876415  0.881201  1
  Zr  Zr1  1  0.638377  0.119814  0.120905  1
  Zr  Zr2  1  0.882531  0.876415  0.359852  1
  Zr  Zr3  1  0.123585  0.117469  0.118799  1
  Zr  Zr4  1  0.880186  0.361623  0.879095  1
  Zr  Zr5  1  0.123585  0.117469  0.640148  1
  Sc  Sc6  1  0.122855  0.641167  0.117989  1
  Sc  Sc7  1  0.358833  0.877145  0.882011  1
  Sc  Sc8  1  0.498980  0.501020  0.500000  1
  In  In9  1  0.500572  0.841092  0.157208  1
  In  In10  1  0.500572  0.841092  0.501129  1
  In  In11  1  0.499706  0.158042  0.500717  1
  In  In12  1  0.498912  0.501088  0.842183  1
  In  In13  1  0.158908  0.499428  0.498871  1
  In  In14  1  0.841791  0.158209  0.500000  1
  In  In15  1  0.157769  0.842231  0.500000  1
  In  In16  1  0.499706  0.158042  0.841535  1
  In  In17  1  0.158908  0.499428  0.842792  1
  In  In18  1  0.498912  0.501088  0.157817  1
  In  In19  1  0.841958  0.500294  0.499283  1
  In  In20  1  0.841958  0.500294  0.158465  1
  In  In21  1  0.247437  0.252235  0.250164  1
  In  In22  1  0.747765  0.752563  0.749836  1
  Co  Co23  1  0.775257  0.782079  0.221332  1
  Co  Co24  1  0.998997  0.001003  0.000000  1
  Co  Co25  1  0.219511  0.780489  0.227269  1
  Co  Co26  1  0.219511  0.780489  0.772731  1
  Co  Co27  1  0.217921  0.224743  0.778668  1
  Co  Co28  1  0.781233  0.218767  0.780181  1
  Co  Co29  1  0.781233  0.218767  0.219819  1
