# generated using pymatgen
data_Tb6TmFeO12
_symmetry_space_group_name_H-M   'P 1'
_cell_length_a   6.67419905
_cell_length_b   6.67420156
_cell_length_c   6.67420000
_cell_angle_alpha   93.51211626
_cell_angle_beta   93.51211758
_cell_angle_gamma   93.51211609
_symmetry_Int_Tables_number   1
_chemical_formula_structural   Tb6TmFeO12
_chemical_formula_sum   'Tb6 Tm1 Fe1 O12'
_cell_volume   295.55487741
_cell_formula_units_Z   1
loop_
 _symmetry_equiv_pos_site_id
 _symmetry_equiv_pos_as_xyz
  1  'x, y, z'
loop_
 _atom_site_type_symbol
 _atom_site_label
 _atom_site_symmetry_multiplicity
 _atom_site_fract_x
 _atom_site_fract_y
 _atom_site_fract_z
 _atom_site_occupancy
  Tb  Tb0  1  0.739680  0.923940  0.435290  1
  Tb  Tb1  1  0.435290  0.739680  0.923940  1
  Tb  Tb2  1  0.076060  0.564710  0.260320  1
  Tb  Tb3  1  0.923940  0.435290  0.739680  1
  Tb  Tb4  1  0.564710  0.260320  0.076060  1
  Tb  Tb5  1  0.260320  0.076060  0.564710  1
  Tm  Tm6  1  0.000000  0.000000  0.000000  1
  Fe  Fe7  1  0.500000  0.500000  0.500000  1
  O  O8  1  0.066575  0.910056  0.315060  1
  O  O9  1  0.684940  0.933425  0.089944  1
  O  O10  1  0.461752  0.799190  0.588059  1
  O  O11  1  0.089944  0.684940  0.933425  1
  O  O12  1  0.799190  0.588059  0.461752  1
  O  O13  1  0.411941  0.538248  0.200810  1
  O  O14  1  0.588059  0.461752  0.799190  1
  O  O15  1  0.200810  0.411941  0.538248  1
  O  O16  1  0.910056  0.315060  0.066575  1
  O  O17  1  0.538248  0.200810  0.411941  1
  O  O18  1  0.315060  0.066575  0.910056  1
  O  O19  1  0.933425  0.089944  0.684940  1
