# generated using pymatgen
data_Y3ErCdPd
_symmetry_space_group_name_H-M   'P 1'
_cell_length_a   9.71731915
_cell_length_b   9.71732046
_cell_length_c   9.71732000
_cell_angle_alpha   60.00000157
_cell_angle_beta   59.99999712
_cell_angle_gamma   59.99999860
_symmetry_Int_Tables_number   1
_chemical_formula_structural   Y3ErCdPd
_chemical_formula_sum   'Y12 Er4 Cd4 Pd4'
_cell_volume   648.82039062
_cell_formula_units_Z   4
loop_
 _symmetry_equiv_pos_site_id
 _symmetry_equiv_pos_as_xyz
  1  'x, y, z'
loop_
 _atom_site_type_symbol
 _atom_site_label
 _atom_site_symmetry_multiplicity
 _atom_site_fract_x
 _atom_site_fract_y
 _atom_site_fract_z
 _atom_site_occupancy
  Y  Y0  1  0.810498  0.189502  0.189502  1
  Y  Y1  1  0.189502  0.810498  0.810498  1
  Y  Y2  1  0.189502  0.810498  0.189502  1
  Y  Y3  1  0.810498  0.189502  0.810498  1
  Y  Y4  1  0.189502  0.189502  0.810498  1
  Y  Y5  1  0.810498  0.810498  0.189502  1
  Y  Y6  1  0.933703  0.566297  0.566297  1
  Y  Y7  1  0.566297  0.933703  0.933703  1
  Y  Y8  1  0.566297  0.933703  0.566297  1
  Y  Y9  1  0.933703  0.566297  0.933703  1
  Y  Y10  1  0.566297  0.566297  0.933703  1
  Y  Y11  1  0.933703  0.933703  0.566297  1
  Er  Er12  1  0.353733  0.353733  0.353733  1
  Er  Er13  1  0.353733  0.353733  0.938801  1
  Er  Er14  1  0.353733  0.938801  0.353733  1
  Er  Er15  1  0.938801  0.353733  0.353733  1
  Cd  Cd16  1  0.582000  0.582000  0.582000  1
  Cd  Cd17  1  0.582000  0.582000  0.254001  1
  Cd  Cd18  1  0.582000  0.254001  0.582000  1
  Cd  Cd19  1  0.254001  0.582000  0.582000  1
  Pd  Pd20  1  0.145197  0.145197  0.145197  1
  Pd  Pd21  1  0.145197  0.145197  0.564408  1
  Pd  Pd22  1  0.145197  0.564408  0.145197  1
  Pd  Pd23  1  0.564408  0.145197  0.145197  1
