# generated using pymatgen
data_Ti12Sn7Sb3
_symmetry_space_group_name_H-M   'P 1'
_cell_length_a   9.30766400
_cell_length_b   9.31432115
_cell_length_c   5.69646500
_cell_angle_alpha   90.00000000
_cell_angle_beta   90.00000000
_cell_angle_gamma   119.97636709
_symmetry_Int_Tables_number   1
_chemical_formula_structural   Ti12Sn7Sb3
_chemical_formula_sum   'Ti12 Sn7 Sb3'
_cell_volume   427.79070531
_cell_formula_units_Z   1
loop_
 _symmetry_equiv_pos_site_id
 _symmetry_equiv_pos_as_xyz
  1  'x, y, z'
loop_
 _atom_site_type_symbol
 _atom_site_label
 _atom_site_symmetry_multiplicity
 _atom_site_fract_x
 _atom_site_fract_y
 _atom_site_fract_z
 _atom_site_occupancy
  Ti  Ti0  1  0.842884  0.685768  0.750000  1
  Ti  Ti1  1  0.156501  0.845061  0.250000  1
  Ti  Ti2  1  0.688561  0.845061  0.250000  1
  Ti  Ti3  1  0.309227  0.155619  0.750000  1
  Ti  Ti4  1  0.846392  0.155619  0.750000  1
  Ti  Ti5  1  0.153384  0.306767  0.250000  1
  Ti  Ti6  1  0.501681  0.003363  0.500065  1
  Ti  Ti7  1  0.498193  0.498045  0.999776  1
  Ti  Ti8  1  0.999852  0.498045  0.999776  1
  Ti  Ti9  1  0.999852  0.498045  0.500224  1
  Ti  Ti10  1  0.501681  0.003363  0.999935  1
  Ti  Ti11  1  0.498193  0.498045  0.500224  1
  Sn  Sn12  1  0.591406  0.797121  0.750000  1
  Sn  Sn13  1  0.205715  0.797121  0.750000  1
  Sn  Sn14  1  0.797362  0.594724  0.250000  1
  Sn  Sn15  1  0.667809  0.335616  0.750000  1
  Sn  Sn16  1  0.334737  0.669476  0.250000  1
  Sn  Sn17  1  0.997900  0.995799  0.500659  1
  Sn  Sn18  1  0.997900  0.995799  0.999341  1
  Sb  Sb19  1  0.205483  0.410966  0.750000  1
  Sb  Sb20  1  0.797544  0.205288  0.250000  1
  Sb  Sb21  1  0.407745  0.205288  0.250000  1
