# generated using pymatgen
data_Ho3Er7Si5P
_symmetry_space_group_name_H-M   'P 1'
_cell_length_a   8.33653800
_cell_length_b   8.34459000
_cell_length_c   6.24202200
_cell_angle_alpha   90.00000000
_cell_angle_beta   90.00000000
_cell_angle_gamma   119.96806942
_symmetry_Int_Tables_number   1
_chemical_formula_structural   Ho3Er7Si5P
_chemical_formula_sum   'Ho3 Er7 Si5 P1'
_cell_volume   376.17186487
_cell_formula_units_Z   1
loop_
 _symmetry_equiv_pos_site_id
 _symmetry_equiv_pos_as_xyz
  1  'x, y, z'
loop_
 _atom_site_type_symbol
 _atom_site_label
 _atom_site_symmetry_multiplicity
 _atom_site_fract_x
 _atom_site_fract_y
 _atom_site_fract_z
 _atom_site_occupancy
  Ho  Ho0  1  0.001187  0.757503  0.750000  1
  Ho  Ho1  1  0.755882  0.000000  0.750000  1
  Ho  Ho2  1  0.243683  0.242497  0.750000  1
  Er  Er3  1  0.000662  0.243655  0.250000  1
  Er  Er4  1  0.757007  0.756345  0.250000  1
  Er  Er5  1  0.242940  0.000000  0.250000  1
  Er  Er6  1  0.333642  0.667313  0.500427  1
  Er  Er7  1  0.666330  0.332687  0.999573  1
  Er  Er8  1  0.666330  0.332687  0.500427  1
  Er  Er9  1  0.333642  0.667313  0.999573  1
  Si  Si10  1  0.394558  0.394062  0.250000  1
  Si  Si11  1  0.000496  0.605938  0.250000  1
  Si  Si12  1  0.000056  0.394200  0.750000  1
  Si  Si13  1  0.605857  0.605800  0.750000  1
  Si  Si14  1  0.606450  0.000000  0.250000  1
  P  P15  1  0.391279  0.000000  0.750000  1
