# generated using pymatgen
data_Y2Al20ReRh3
_symmetry_space_group_name_H-M   'P 1'
_cell_length_a   6.86188345
_cell_length_b   6.87411708
_cell_length_c   9.18923445
_cell_angle_alpha   90.33793437
_cell_angle_beta   90.43551739
_cell_angle_gamma   97.10795537
_symmetry_Int_Tables_number   1
_chemical_formula_structural   Y2Al20ReRh3
_chemical_formula_sum   'Y2 Al20 Re1 Rh3'
_cell_volume   430.09677657
_cell_formula_units_Z   1
loop_
 _symmetry_equiv_pos_site_id
 _symmetry_equiv_pos_as_xyz
  1  'x, y, z'
loop_
 _atom_site_type_symbol
 _atom_site_label
 _atom_site_symmetry_multiplicity
 _atom_site_fract_x
 _atom_site_fract_y
 _atom_site_fract_z
 _atom_site_occupancy
  Y  Y0  1  0.867287  0.126525  0.749250  1
  Y  Y1  1  0.132713  0.873475  0.250750  1
  Al  Al2  1  0.620723  0.376020  0.547943  1
  Al  Al3  1  0.379277  0.623980  0.452057  1
  Al  Al4  1  0.378310  0.622496  0.049816  1
  Al  Al5  1  0.621690  0.377504  0.950184  1
  Al  Al6  1  0.221199  0.221085  0.499243  1
  Al  Al7  1  0.778801  0.778915  0.500757  1
  Al  Al8  1  0.776761  0.776899  0.999556  1
  Al  Al9  1  0.223239  0.223101  0.000444  1
  Al  Al10  1  0.844861  0.156709  0.103217  1
  Al  Al11  1  0.155139  0.843291  0.896783  1
  Al  Al12  1  0.155580  0.845200  0.601527  1
  Al  Al13  1  0.844420  0.154800  0.398473  1
  Al  Al14  1  0.856963  0.589161  0.749630  1
  Al  Al15  1  0.143037  0.410839  0.250370  1
  Al  Al16  1  0.410694  0.142991  0.749969  1
  Al  Al17  1  0.589306  0.857009  0.250031  1
  Al  Al18  1  0.223782  0.480600  0.750431  1
  Al  Al19  1  0.776218  0.519400  0.249569  1
  Al  Al20  1  0.518858  0.777568  0.745957  1
  Al  Al21  1  0.481142  0.222432  0.254043  1
  Re  Re22  1  0.500000  0.000000  0.500000  1
  Rh  Rh23  1  0.000000  0.500000  0.500000  1
  Rh  Rh24  1  0.000000  0.500000  0.000000  1
  Rh  Rh25  1  0.500000  0.000000  0.000000  1
