# generated using pymatgen
data_Nd4AgPd4Pb
_symmetry_space_group_name_H-M   'P 1'
_cell_length_a   3.90072800
_cell_length_b   7.86707200
_cell_length_c   7.86707200
_cell_angle_alpha   90.00000000
_cell_angle_beta   90.00000000
_cell_angle_gamma   90.00000000
_symmetry_Int_Tables_number   1
_chemical_formula_structural   Nd4AgPd4Pb
_chemical_formula_sum   'Nd4 Ag1 Pd4 Pb1'
_cell_volume   241.41926175
_cell_formula_units_Z   1
loop_
 _symmetry_equiv_pos_site_id
 _symmetry_equiv_pos_as_xyz
  1  'x, y, z'
loop_
 _atom_site_type_symbol
 _atom_site_label
 _atom_site_symmetry_multiplicity
 _atom_site_fract_x
 _atom_site_fract_y
 _atom_site_fract_z
 _atom_site_occupancy
  Nd  Nd0  1  0.500000  0.174401  0.673773  1
  Nd  Nd1  1  0.500000  0.825599  0.326227  1
  Nd  Nd2  1  0.500000  0.326227  0.174401  1
  Nd  Nd3  1  0.500000  0.673773  0.825599  1
  Ag  Ag4  1  0.000000  0.000000  0.000000  1
  Pd  Pd5  1  0.000000  0.632253  0.121029  1
  Pd  Pd6  1  0.000000  0.367747  0.878971  1
  Pd  Pd7  1  0.000000  0.878971  0.632253  1
  Pd  Pd8  1  0.000000  0.121029  0.367747  1
  Pb  Pb9  1  0.000000  0.500000  0.500000  1
