# generated using pymatgen
data_NdY3Ir2(RhO7)2
_symmetry_space_group_name_H-M   'P 1'
_cell_length_a   7.31421365
_cell_length_b   7.25787499
_cell_length_c   7.25787461
_cell_angle_alpha   60.00969178
_cell_angle_beta   60.20589380
_cell_angle_gamma   60.20589544
_symmetry_Int_Tables_number   1
_chemical_formula_structural   NdY3Ir2(RhO7)2
_chemical_formula_sum   'Nd1 Y3 Ir2 Rh2 O14'
_cell_volume   273.30536979
_cell_formula_units_Z   1
loop_
 _symmetry_equiv_pos_site_id
 _symmetry_equiv_pos_as_xyz
  1  'x, y, z'
loop_
 _atom_site_type_symbol
 _atom_site_label
 _atom_site_symmetry_multiplicity
 _atom_site_fract_x
 _atom_site_fract_y
 _atom_site_fract_z
 _atom_site_occupancy
  Nd  Nd0  1  0.625000  0.125000  0.125000  1
  Y  Y1  1  0.125000  0.625000  0.125000  1
  Y  Y2  1  0.125000  0.125000  0.625000  1
  Y  Y3  1  0.125000  0.125000  0.125000  1
  Ir  Ir4  1  0.125000  0.625000  0.625000  1
  Ir  Ir5  1  0.625000  0.625000  0.625000  1
  Rh  Rh6  1  0.625000  0.125000  0.625000  1
  Rh  Rh7  1  0.625000  0.625000  0.125000  1
  O  O8  1  0.719048  0.700816  0.292790  1
  O  O9  1  0.286447  0.292185  0.707257  1
  O  O10  1  0.719048  0.292790  0.700816  1
  O  O11  1  0.286447  0.707257  0.292185  1
  O  O12  1  0.291979  0.707776  0.707776  1
  O  O13  1  0.720569  0.285999  0.285999  1
  O  O14  1  0.530952  0.549184  0.957210  1
  O  O15  1  0.963553  0.957815  0.542743  1
  O  O16  1  0.530952  0.957210  0.549184  1
  O  O17  1  0.963553  0.542743  0.957815  1
  O  O18  1  0.958021  0.542224  0.542224  1
  O  O19  1  0.529431  0.964001  0.964001  1
  O  O20  1  0.239655  0.254143  0.254143  1
  O  O21  1  0.010345  0.995857  0.995857  1
