# generated using pymatgen
data_CeCdAsN
_symmetry_space_group_name_H-M   'P 1'
_cell_length_a   4.15349400
_cell_length_b   4.15349400
_cell_length_c   9.20680800
_cell_angle_alpha   90.00000000
_cell_angle_beta   90.00000000
_cell_angle_gamma   90.00000000
_symmetry_Int_Tables_number   1
_chemical_formula_structural   CeCdAsN
_chemical_formula_sum   'Ce2 Cd2 As2 N2'
_cell_volume   158.83136245
_cell_formula_units_Z   2
loop_
 _symmetry_equiv_pos_site_id
 _symmetry_equiv_pos_as_xyz
  1  'x, y, z'
loop_
 _atom_site_type_symbol
 _atom_site_label
 _atom_site_symmetry_multiplicity
 _atom_site_fract_x
 _atom_site_fract_y
 _atom_site_fract_z
 _atom_site_occupancy
  Ce  Ce0  1  0.250000  0.250000  0.114139  1
  Ce  Ce1  1  0.749999  0.749999  0.885861  1
  Cd  Cd2  1  0.749999  0.250000  0.500000  1
  Cd  Cd3  1  0.250000  0.749999  0.500000  1
  As  As4  1  0.250000  0.250000  0.703000  1
  As  As5  1  0.749999  0.749999  0.297000  1
  N  N6  1  0.749999  0.250000  0.000000  1
  N  N7  1  0.250000  0.749999  0.000000  1
