# generated using pymatgen
data_Mn2Bi3Os3O14
_symmetry_space_group_name_H-M   'P 1'
_cell_length_a   7.37548037
_cell_length_b   7.37379121
_cell_length_c   7.37431316
_cell_angle_alpha   59.99781382
_cell_angle_beta   60.00633509
_cell_angle_gamma   60.00475036
_symmetry_Int_Tables_number   1
_chemical_formula_structural   Mn2Bi3Os3O14
_chemical_formula_sum   'Mn2 Bi3 Os3 O14'
_cell_volume   283.60698868
_cell_formula_units_Z   1
loop_
 _symmetry_equiv_pos_site_id
 _symmetry_equiv_pos_as_xyz
  1  'x, y, z'
loop_
 _atom_site_type_symbol
 _atom_site_label
 _atom_site_symmetry_multiplicity
 _atom_site_fract_x
 _atom_site_fract_y
 _atom_site_fract_z
 _atom_site_occupancy
  Mn  Mn0  1  0.000081  0.500064  0.999713  1
  Mn  Mn1  1  0.499828  0.999677  0.500408  1
  Bi  Bi2  1  0.000139  0.000131  0.499956  1
  Bi  Bi3  1  0.500092  0.000009  0.000095  1
  Bi  Bi4  1  0.500167  0.500151  0.499900  1
  Os  Os5  1  0.500114  0.499954  0.999937  1
  Os  Os6  1  0.999984  0.500066  0.499971  1
  Os  Os7  1  0.999877  0.000059  0.999933  1
  O  O8  1  0.610012  0.110057  0.610187  1
  O  O9  1  0.389974  0.889983  0.390149  1
  O  O10  1  0.078814  0.190296  0.690480  1
  O  O11  1  0.690163  0.190405  0.078999  1
  O  O12  1  0.690104  0.578968  0.690519  1
  O  O13  1  0.921146  0.809509  0.309598  1
  O  O14  1  0.309786  0.809522  0.921002  1
  O  O15  1  0.309631  0.421132  0.309449  1
  O  O16  1  0.640722  0.593767  0.093842  1
  O  O17  1  0.093924  0.593928  0.640637  1
  O  O18  1  0.093821  0.140745  0.093904  1
  O  O19  1  0.359339  0.406116  0.906099  1
  O  O20  1  0.906172  0.406162  0.359138  1
  O  O21  1  0.906111  0.859298  0.906086  1
