# generated using pymatgen
data_Pr11In(Hg2Pt)4
_symmetry_space_group_name_H-M   'P 1'
_cell_length_a   13.57286339
_cell_length_b   13.57287047
_cell_length_c   3.82533500
_cell_angle_alpha   90.00000000
_cell_angle_beta   90.00000000
_cell_angle_gamma   111.73917015
_symmetry_Int_Tables_number   1
_chemical_formula_structural   Pr11In(Hg2Pt)4
_chemical_formula_sum   'Pr11 In1 Hg8 Pt4'
_cell_volume   654.59407696
_cell_formula_units_Z   1
loop_
 _symmetry_equiv_pos_site_id
 _symmetry_equiv_pos_as_xyz
  1  'x, y, z'
loop_
 _atom_site_type_symbol
 _atom_site_label
 _atom_site_symmetry_multiplicity
 _atom_site_fract_x
 _atom_site_fract_y
 _atom_site_fract_z
 _atom_site_occupancy
  Pr  Pr0  1  0.500000  0.500000  0.500000  1
  Pr  Pr1  1  0.804925  0.804925  0.500000  1
  Pr  Pr2  1  0.195075  0.195075  0.500000  1
  Pr  Pr3  1  0.577794  0.918499  0.500000  1
  Pr  Pr4  1  0.422206  0.081501  0.500000  1
  Pr  Pr5  1  0.918500  0.577794  0.500000  1
  Pr  Pr6  1  0.081500  0.422206  0.500000  1
  Pr  Pr7  1  0.129853  0.870147  0.500000  1
  Pr  Pr8  1  0.870147  0.129853  0.500000  1
  Pr  Pr9  1  0.333972  0.666027  0.500000  1
  Pr  Pr10  1  0.666028  0.333973  0.500000  1
  In  In11  1  0.000000  0.000000  0.000000  1
  Hg  Hg12  1  0.343324  0.865355  0.000000  1
  Hg  Hg13  1  0.656676  0.134645  0.000000  1
  Hg  Hg14  1  0.865354  0.343324  0.000000  1
  Hg  Hg15  1  0.134646  0.656676  0.000000  1
  Hg  Hg16  1  0.568729  0.714651  0.000000  1
  Hg  Hg17  1  0.431271  0.285349  0.000000  1
  Hg  Hg18  1  0.714652  0.568729  0.000000  1
  Hg  Hg19  1  0.285348  0.431271  0.000000  1
  Pt  Pt20  1  0.751639  0.950773  0.000000  1
  Pt  Pt21  1  0.248361  0.049227  0.000000  1
  Pt  Pt22  1  0.950774  0.751640  0.000000  1
  Pt  Pt23  1  0.049226  0.248360  0.000000  1
