# generated using pymatgen
data_Th3GaHg2Pd3
_symmetry_space_group_name_H-M   'P 1'
_cell_length_a   7.73761600
_cell_length_b   7.73761611
_cell_length_c   4.00408000
_cell_angle_alpha   90.00000000
_cell_angle_beta   90.00000000
_cell_angle_gamma   120.84922755
_symmetry_Int_Tables_number   1
_chemical_formula_structural   Th3GaHg2Pd3
_chemical_formula_sum   'Th3 Ga1 Hg2 Pd3'
_cell_volume   205.81040789
_cell_formula_units_Z   1
loop_
 _symmetry_equiv_pos_site_id
 _symmetry_equiv_pos_as_xyz
  1  'x, y, z'
loop_
 _atom_site_type_symbol
 _atom_site_label
 _atom_site_symmetry_multiplicity
 _atom_site_fract_x
 _atom_site_fract_y
 _atom_site_fract_z
 _atom_site_occupancy
  Th  Th0  1  0.412310  0.412310  0.500000  1
  Th  Th1  1  0.595225  0.997564  0.500000  1
  Th  Th2  1  0.997564  0.595225  0.500000  1
  Ga  Ga3  1  0.743621  0.743621  0.000000  1
  Hg  Hg4  1  0.259003  0.003252  0.000000  1
  Hg  Hg5  1  0.003252  0.259003  0.000000  1
  Pd  Pd6  1  0.672821  0.352129  0.000000  1
  Pd  Pd7  1  0.352129  0.672821  0.000000  1
  Pd  Pd8  1  0.964076  0.964076  0.500000  1
