# generated using pymatgen
data_Ho2ErTh3Si4
_symmetry_space_group_name_H-M   'P 1'
_cell_length_a   7.59895700
_cell_length_b   7.59929267
_cell_length_c   4.23534400
_cell_angle_alpha   90.00000000
_cell_angle_beta   90.00000000
_cell_angle_gamma   90.63012891
_symmetry_Int_Tables_number   1
_chemical_formula_structural   Ho2ErTh3Si4
_chemical_formula_sum   'Ho2 Er1 Th3 Si4'
_cell_volume   244.56234094
_cell_formula_units_Z   1
loop_
 _symmetry_equiv_pos_site_id
 _symmetry_equiv_pos_as_xyz
  1  'x, y, z'
loop_
 _atom_site_type_symbol
 _atom_site_label
 _atom_site_symmetry_multiplicity
 _atom_site_fract_x
 _atom_site_fract_y
 _atom_site_fract_z
 _atom_site_occupancy
  Ho  Ho0  1  0.001370  0.000877  0.000000  1
  Ho  Ho1  1  0.676326  0.176409  0.500000  1
  Er  Er2  1  0.500907  0.501346  0.000000  1
  Th  Th3  1  0.322594  0.822506  0.500000  1
  Th  Th4  1  0.178472  0.319807  0.500000  1
  Th  Th5  1  0.819723  0.678395  0.500000  1
  Si  Si6  1  0.116174  0.616136  0.000000  1
  Si  Si7  1  0.879643  0.379707  0.000000  1
  Si  Si8  1  0.618242  0.886522  0.000000  1
  Si  Si9  1  0.386549  0.118294  0.000000  1
