# generated using pymatgen
data_Th2Al5Cu4Pt
_symmetry_space_group_name_H-M   'P 1'
_cell_length_a   4.19088700
_cell_length_b   5.39138604
_cell_length_c   9.13541907
_cell_angle_alpha   89.98594465
_cell_angle_beta   90.00000000
_cell_angle_gamma   90.00000000
_symmetry_Int_Tables_number   1
_chemical_formula_structural   Th2Al5Cu4Pt
_chemical_formula_sum   'Th2 Al5 Cu4 Pt1'
_cell_volume   206.41195265
_cell_formula_units_Z   1
loop_
 _symmetry_equiv_pos_site_id
 _symmetry_equiv_pos_as_xyz
  1  'x, y, z'
loop_
 _atom_site_type_symbol
 _atom_site_label
 _atom_site_symmetry_multiplicity
 _atom_site_fract_x
 _atom_site_fract_y
 _atom_site_fract_z
 _atom_site_occupancy
  Th  Th0  1  0.000000  0.999199  0.001758  1
  Th  Th1  1  0.000000  0.501087  0.498275  1
  Al  Al2  1  0.500000  0.499768  0.002422  1
  Al  Al3  1  0.500000  0.751912  0.258706  1
  Al  Al4  1  0.500000  0.245028  0.740015  1
  Al  Al5  1  0.500000  0.248165  0.258913  1
  Al  Al6  1  0.500000  0.754904  0.740215  1
  Cu  Cu7  1  0.000000  0.001293  0.337054  1
  Cu  Cu8  1  0.000000  0.498992  0.168712  1
  Cu  Cu9  1  0.000000  0.001135  0.660766  1
  Cu  Cu10  1  0.500000  0.999535  0.499383  1
  Pt  Pt11  1  0.000000  0.499186  0.833782  1
