# generated using pymatgen
data_Na4SbRhO6
_symmetry_space_group_name_H-M   'P 1'
_cell_length_a   5.51853155
_cell_length_b   5.51853286
_cell_length_c   5.73949310
_cell_angle_alpha   99.36257352
_cell_angle_beta   99.36256729
_cell_angle_gamma   119.98464561
_symmetry_Int_Tables_number   1
_chemical_formula_structural   Na4SbRhO6
_chemical_formula_sum   'Na4 Sb1 Rh1 O6'
_cell_volume   143.16371381
_cell_formula_units_Z   1
loop_
 _symmetry_equiv_pos_site_id
 _symmetry_equiv_pos_as_xyz
  1  'x, y, z'
loop_
 _atom_site_type_symbol
 _atom_site_label
 _atom_site_symmetry_multiplicity
 _atom_site_fract_x
 _atom_site_fract_y
 _atom_site_fract_z
 _atom_site_occupancy
  Na  Na0  1  0.500652  0.499349  0.000000  1
  Na  Na1  1  0.991125  0.008873  0.499999  1
  Na  Na2  1  0.661809  0.338189  0.499999  1
  Na  Na3  1  0.343436  0.656562  0.499999  1
  Sb  Sb4  1  0.167311  0.832690  0.000000  1
  Rh  Rh5  1  0.833060  0.166941  0.000000  1
  O  O6  1  0.209355  0.199716  0.209739  1
  O  O7  1  0.562228  0.932879  0.208898  1
  O  O8  1  0.942803  0.579189  0.208594  1
  O  O9  1  0.420812  0.057197  0.791406  1
  O  O10  1  0.067120  0.437770  0.791102  1
  O  O11  1  0.800282  0.790644  0.790261  1
