# generated using pymatgen
data_SmY(SnHg2)2
_symmetry_space_group_name_H-M   'P 1'
_cell_length_a   4.85456200
_cell_length_b   4.49796700
_cell_length_c   9.20119200
_cell_angle_alpha   90.00000000
_cell_angle_beta   90.00000000
_cell_angle_gamma   90.00000000
_symmetry_Int_Tables_number   1
_chemical_formula_structural   SmY(SnHg2)2
_chemical_formula_sum   'Sm1 Y1 Sn2 Hg4'
_cell_volume   200.91409712
_cell_formula_units_Z   1
loop_
 _symmetry_equiv_pos_site_id
 _symmetry_equiv_pos_as_xyz
  1  'x, y, z'
loop_
 _atom_site_type_symbol
 _atom_site_label
 _atom_site_symmetry_multiplicity
 _atom_site_fract_x
 _atom_site_fract_y
 _atom_site_fract_z
 _atom_site_occupancy
  Sm  Sm0  1  0.000000  0.000000  0.000000  1
  Y  Y1  1  0.000000  0.000000  0.500000  1
  Sn  Sn2  1  0.000000  0.500000  0.253847  1
  Sn  Sn3  1  0.000000  0.500000  0.746153  1
  Hg  Hg4  1  0.500000  0.500000  0.000000  1
  Hg  Hg5  1  0.500000  0.500000  0.500000  1
  Hg  Hg6  1  0.500000  0.000000  0.254210  1
  Hg  Hg7  1  0.500000  0.000000  0.745790  1
