# generated using pymatgen
data_Mn3SbCl7O
_symmetry_space_group_name_H-M   'P 1'
_cell_length_a   7.61252182
_cell_length_b   7.64928931
_cell_length_c   7.61252250
_cell_angle_alpha   59.79169087
_cell_angle_beta   58.84265984
_cell_angle_gamma   59.79168404
_symmetry_Int_Tables_number   1
_chemical_formula_structural   Mn3SbCl7O
_chemical_formula_sum   'Mn3 Sb1 Cl7 O1'
_cell_volume   309.64854858
_cell_formula_units_Z   1
loop_
 _symmetry_equiv_pos_site_id
 _symmetry_equiv_pos_as_xyz
  1  'x, y, z'
loop_
 _atom_site_type_symbol
 _atom_site_label
 _atom_site_symmetry_multiplicity
 _atom_site_fract_x
 _atom_site_fract_y
 _atom_site_fract_z
 _atom_site_occupancy
  Mn  Mn0  1  0.494727  0.500883  0.020929  1
  Mn  Mn1  1  0.020929  0.500883  0.494727  1
  Mn  Mn2  1  0.500029  0.013980  0.500029  1
  Sb  Sb3  1  0.036305  0.946505  0.036305  1
  Cl  Cl4  1  0.264488  0.242044  0.264488  1
  Cl  Cl5  1  0.740951  0.760868  0.259964  1
  Cl  Cl6  1  0.259964  0.760868  0.740951  1
  Cl  Cl7  1  0.735599  0.755402  0.735599  1
  Cl  Cl8  1  0.750842  0.297820  0.750842  1
  Cl  Cl9  1  0.262259  0.262897  0.724079  1
  Cl  Cl10  1  0.724079  0.262897  0.262259  1
  O  O11  1  0.209827  0.694954  0.209827  1
