# generated using pymatgen
data_YNb6VS12
_symmetry_space_group_name_H-M   'P 1'
_cell_length_a   5.82547100
_cell_length_b   5.82547309
_cell_length_c   13.05435600
_cell_angle_alpha   90.00000000
_cell_angle_beta   90.00000000
_cell_angle_gamma   119.99999381
_symmetry_Int_Tables_number   1
_chemical_formula_structural   YNb6VS12
_chemical_formula_sum   'Y1 Nb6 V1 S12'
_cell_volume   383.66161964
_cell_formula_units_Z   1
loop_
 _symmetry_equiv_pos_site_id
 _symmetry_equiv_pos_as_xyz
  1  'x, y, z'
loop_
 _atom_site_type_symbol
 _atom_site_label
 _atom_site_symmetry_multiplicity
 _atom_site_fract_x
 _atom_site_fract_y
 _atom_site_fract_z
 _atom_site_occupancy
  Y  Y0  1  0.333333  0.666667  0.250000  1
  Nb  Nb1  1  0.000000  0.000000  0.516774  1
  Nb  Nb2  1  0.000000  0.000000  0.983226  1
  Nb  Nb3  1  0.333333  0.666667  0.983576  1
  Nb  Nb4  1  0.666667  0.333333  0.986296  1
  Nb  Nb5  1  0.666667  0.333333  0.513704  1
  Nb  Nb6  1  0.333333  0.666667  0.516424  1
  V  V7  1  0.666667  0.333333  0.750000  1
  S  S8  1  0.330310  0.328618  0.394063  1
  S  S9  1  0.671382  0.001693  0.394063  1
  S  S10  1  0.998307  0.669690  0.394063  1
  S  S11  1  0.335880  0.332995  0.635829  1
  S  S12  1  0.997114  0.664120  0.635829  1
  S  S13  1  0.667005  0.002886  0.635829  1
  S  S14  1  0.667005  0.664120  0.864171  1
  S  S15  1  0.335880  0.002886  0.864171  1
  S  S16  1  0.997114  0.332995  0.864171  1
  S  S17  1  0.671382  0.669690  0.105937  1
  S  S18  1  0.998307  0.328618  0.105937  1
  S  S19  1  0.330310  0.001693  0.105937  1
