# generated using pymatgen
data_Ti4Cr3Ga(BiO5)4
_symmetry_space_group_name_H-M   'P 1'
_cell_length_a   5.96895700
_cell_length_b   7.73510903
_cell_length_c   8.63906832
_cell_angle_alpha   90.11152776
_cell_angle_beta   90.00000000
_cell_angle_gamma   90.00000000
_symmetry_Int_Tables_number   1
_chemical_formula_structural   Ti4Cr3Ga(BiO5)4
_chemical_formula_sum   'Ti4 Cr3 Ga1 Bi4 O20'
_cell_volume   398.86963489
_cell_formula_units_Z   1
loop_
 _symmetry_equiv_pos_site_id
 _symmetry_equiv_pos_as_xyz
  1  'x, y, z'
loop_
 _atom_site_type_symbol
 _atom_site_label
 _atom_site_symmetry_multiplicity
 _atom_site_fract_x
 _atom_site_fract_y
 _atom_site_fract_z
 _atom_site_occupancy
  Ti  Ti0  1  0.499924  0.876343  0.142694  1
  Ti  Ti1  1  0.499411  0.622867  0.642516  1
  Ti  Ti2  1  0.499411  0.377133  0.357484  1
  Ti  Ti3  1  0.499924  0.123657  0.857306  1
  Cr  Cr4  1  0.250913  0.500000  0.000000  1
  Cr  Cr5  1  0.749651  0.000000  0.500000  1
  Cr  Cr6  1  0.251048  0.000000  0.500000  1
  Ga  Ga7  1  0.749645  0.500000  0.000000  1
  Bi  Bi8  1  0.998183  0.836430  0.836480  1
  Bi  Bi9  1  0.999763  0.337992  0.665075  1
  Bi  Bi10  1  0.998183  0.163570  0.163520  1
  Bi  Bi11  1  0.999763  0.662008  0.334925  1
  O  O12  1  0.501503  0.655008  0.076535  1
  O  O13  1  0.000277  0.158330  0.441851  1
  O  O14  1  0.259246  0.880002  0.293013  1
  O  O15  1  0.707481  0.000000  0.000000  1
  O  O16  1  0.740898  0.615777  0.794024  1
  O  O17  1  0.741989  0.119050  0.707399  1
  O  O18  1  0.501503  0.344992  0.923465  1
  O  O19  1  0.293627  0.500000  0.500000  1
  O  O20  1  0.000277  0.841670  0.558149  1
  O  O21  1  0.259246  0.119998  0.706987  1
  O  O22  1  0.999419  0.659415  0.057562  1
  O  O23  1  0.740898  0.384223  0.205976  1
  O  O24  1  0.741989  0.880950  0.292601  1
  O  O25  1  0.257169  0.616684  0.792310  1
  O  O26  1  0.293510  0.000000  0.000000  1
  O  O27  1  0.500354  0.844344  0.578494  1
  O  O28  1  0.500354  0.155656  0.421506  1
  O  O29  1  0.707850  0.500000  0.500000  1
  O  O30  1  0.257169  0.383316  0.207690  1
  O  O31  1  0.999419  0.340585  0.942438  1
