# generated using pymatgen
data_Pr6Cr5S16
_symmetry_space_group_name_H-M   'P 1'
_cell_length_a   9.13905874
_cell_length_b   9.13905847
_cell_length_c   10.99271571
_cell_angle_alpha   88.33774204
_cell_angle_beta   88.33774328
_cell_angle_gamma   142.26933172
_symmetry_Int_Tables_number   1
_chemical_formula_structural   Pr6Cr5S16
_chemical_formula_sum   'Pr6 Cr5 S16'
_cell_volume   559.58940208
_cell_formula_units_Z   1
loop_
 _symmetry_equiv_pos_site_id
 _symmetry_equiv_pos_as_xyz
  1  'x, y, z'
loop_
 _atom_site_type_symbol
 _atom_site_label
 _atom_site_symmetry_multiplicity
 _atom_site_fract_x
 _atom_site_fract_y
 _atom_site_fract_z
 _atom_site_occupancy
  Pr  Pr0  1  0.067840  0.401270  0.827005  1
  Pr  Pr1  1  0.401270  0.067840  0.827005  1
  Pr  Pr2  1  0.765453  0.765453  0.823483  1
  Pr  Pr3  1  0.847005  0.513281  0.146149  1
  Pr  Pr4  1  0.513281  0.847005  0.146149  1
  Pr  Pr5  1  0.211055  0.211055  0.150347  1
  Cr  Cr6  1  0.615551  0.815913  0.486174  1
  Cr  Cr7  1  0.815913  0.615551  0.486174  1
  Cr  Cr8  1  0.012065  0.409815  0.485037  1
  Cr  Cr9  1  0.409815  0.012065  0.485037  1
  Cr  Cr10  1  0.216757  0.216757  0.489823  1
  S  S11  1  0.931044  0.125742  0.613359  1
  S  S12  1  0.125742  0.931044  0.613359  1
  S  S13  1  0.533810  0.533810  0.605401  1
  S  S14  1  0.322136  0.723873  0.605849  1
  S  S15  1  0.723873  0.322136  0.605849  1
  S  S16  1  0.241708  0.241708  0.884834  1
  S  S17  1  0.030363  0.363227  0.090310  1
  S  S18  1  0.363227  0.030363  0.090310  1
  S  S19  1  0.693398  0.099169  0.364650  1
  S  S20  1  0.099169  0.693398  0.364650  1
  S  S21  1  0.906275  0.906275  0.369877  1
  S  S22  1  0.302246  0.501498  0.361350  1
  S  S23  1  0.501498  0.302246  0.361350  1
  S  S24  1  0.899579  0.565828  0.882365  1
  S  S25  1  0.565828  0.899579  0.882365  1
  S  S26  1  0.706698  0.706698  0.089741  1
