# generated using pymatgen
data_YbEr(Si7Ir3)2
_symmetry_space_group_name_H-M   'P 1'
_cell_length_a   8.02552718
_cell_length_b   8.02552829
_cell_length_c   8.02552703
_cell_angle_alpha   56.77725566
_cell_angle_beta   56.77725111
_cell_angle_gamma   56.77725208
_symmetry_Int_Tables_number   1
_chemical_formula_structural   YbEr(Si7Ir3)2
_chemical_formula_sum   'Yb1 Er1 Si14 Ir6'
_cell_volume   338.32466750
_cell_formula_units_Z   1
loop_
 _symmetry_equiv_pos_site_id
 _symmetry_equiv_pos_as_xyz
  1  'x, y, z'
loop_
 _atom_site_type_symbol
 _atom_site_label
 _atom_site_symmetry_multiplicity
 _atom_site_fract_x
 _atom_site_fract_y
 _atom_site_fract_z
 _atom_site_occupancy
  Yb  Yb0  1  0.000000  0.000000  0.000000  1
  Er  Er1  1  0.500000  0.500000  0.500000  1
  Si  Si2  1  0.750002  0.750002  0.750002  1
  Si  Si3  1  0.249998  0.249998  0.249998  1
  Si  Si4  1  0.851441  0.065410  0.672932  1
  Si  Si5  1  0.672932  0.851441  0.065410  1
  Si  Si6  1  0.065410  0.672932  0.851441  1
  Si  Si7  1  0.650240  0.827800  0.434511  1
  Si  Si8  1  0.434511  0.650240  0.827800  1
  Si  Si9  1  0.827800  0.434511  0.650240  1
  Si  Si10  1  0.172200  0.565489  0.349760  1
  Si  Si11  1  0.565489  0.349760  0.172200  1
  Si  Si12  1  0.349760  0.172200  0.565489  1
  Si  Si13  1  0.934590  0.327068  0.148559  1
  Si  Si14  1  0.327068  0.148559  0.934590  1
  Si  Si15  1  0.148559  0.934590  0.327068  1
  Ir  Ir16  1  0.072827  0.430702  0.747978  1
  Ir  Ir17  1  0.252022  0.927173  0.569298  1
  Ir  Ir18  1  0.569298  0.252022  0.927173  1
  Ir  Ir19  1  0.927173  0.569298  0.252022  1
  Ir  Ir20  1  0.430702  0.747978  0.072827  1
  Ir  Ir21  1  0.747978  0.072827  0.430702  1
