# generated using pymatgen
data_NaLa(PaBr6)2
_symmetry_space_group_name_H-M   'P 1'
_cell_length_a   7.30591400
_cell_length_b   7.30591400
_cell_length_c   12.00476200
_cell_angle_alpha   90.00000000
_cell_angle_beta   90.00000000
_cell_angle_gamma   90.00000000
_symmetry_Int_Tables_number   1
_chemical_formula_structural   NaLa(PaBr6)2
_chemical_formula_sum   'Na1 La1 Pa2 Br12'
_cell_volume   640.77073082
_cell_formula_units_Z   1
loop_
 _symmetry_equiv_pos_site_id
 _symmetry_equiv_pos_as_xyz
  1  'x, y, z'
loop_
 _atom_site_type_symbol
 _atom_site_label
 _atom_site_symmetry_multiplicity
 _atom_site_fract_x
 _atom_site_fract_y
 _atom_site_fract_z
 _atom_site_occupancy
  Na  Na0  1  0.000000  0.000000  0.250000  1
  La  La1  1  0.000000  0.000000  0.750000  1
  Pa  Pa2  1  0.500000  0.000000  0.500389  1
  Pa  Pa3  1  0.000000  0.500000  0.999611  1
  Br  Br4  1  0.793908  0.174456  0.967465  1
  Br  Br5  1  0.825544  0.793908  0.532535  1
  Br  Br6  1  0.174456  0.206092  0.532535  1
  Br  Br7  1  0.206092  0.825544  0.967465  1
  Br  Br8  1  0.207666  0.327242  0.160666  1
  Br  Br9  1  0.674765  0.217682  0.670225  1
  Br  Br10  1  0.325235  0.782318  0.670225  1
  Br  Br11  1  0.792334  0.672758  0.160666  1
  Br  Br12  1  0.782318  0.674765  0.829775  1
  Br  Br13  1  0.327242  0.792334  0.339334  1
  Br  Br14  1  0.672758  0.207666  0.339334  1
  Br  Br15  1  0.217682  0.325235  0.829775  1
