# generated using pymatgen
data_K6HgTe4
_symmetry_space_group_name_H-M   'P 1'
_cell_length_a   11.13609200
_cell_length_b   11.13609237
_cell_length_c   8.56249200
_cell_angle_alpha   90.00000000
_cell_angle_beta   90.00000000
_cell_angle_gamma   119.99999890
_symmetry_Int_Tables_number   1
_chemical_formula_structural   K6HgTe4
_chemical_formula_sum   'K12 Hg2 Te8'
_cell_volume   919.59467991
_cell_formula_units_Z   2
loop_
 _symmetry_equiv_pos_site_id
 _symmetry_equiv_pos_as_xyz
  1  'x, y, z'
loop_
 _atom_site_type_symbol
 _atom_site_label
 _atom_site_symmetry_multiplicity
 _atom_site_fract_x
 _atom_site_fract_y
 _atom_site_fract_z
 _atom_site_occupancy
  K  K0  1  0.148729  0.851271  0.544079  1
  K  K1  1  0.297458  0.148729  0.044079  1
  K  K2  1  0.851271  0.702542  0.044079  1
  K  K3  1  0.148729  0.297458  0.544079  1
  K  K4  1  0.702542  0.851271  0.544079  1
  K  K5  1  0.851271  0.148729  0.044079  1
  K  K6  1  0.525720  0.474280  0.365276  1
  K  K7  1  0.051438  0.525720  0.865276  1
  K  K8  1  0.474280  0.948562  0.865276  1
  K  K9  1  0.525720  0.051438  0.365276  1
  K  K10  1  0.948562  0.474280  0.365276  1
  K  K11  1  0.474280  0.525720  0.865276  1
  Hg  Hg12  1  0.333333  0.666667  0.248730  1
  Hg  Hg13  1  0.666667  0.333333  0.748730  1
  Te  Te14  1  0.333333  0.666667  0.591937  1
  Te  Te15  1  0.666667  0.333333  0.091937  1
  Te  Te16  1  0.189098  0.810902  0.144255  1
  Te  Te17  1  0.378196  0.189098  0.644255  1
  Te  Te18  1  0.810902  0.621804  0.644255  1
  Te  Te19  1  0.189098  0.378196  0.144255  1
  Te  Te20  1  0.621804  0.810902  0.144255  1
  Te  Te21  1  0.810902  0.189098  0.644255  1
