# generated using pymatgen
data_Ca2La4Si3Sn
_symmetry_space_group_name_H-M   'P 1'
_cell_length_a   7.93983726
_cell_length_b   7.93983726
_cell_length_c   4.57259500
_cell_angle_alpha   90.00000000
_cell_angle_beta   90.00000000
_cell_angle_gamma   89.40995423
_symmetry_Int_Tables_number   1
_chemical_formula_structural   Ca2La4Si3Sn
_chemical_formula_sum   'Ca2 La4 Si3 Sn1'
_cell_volume   288.24574751
_cell_formula_units_Z   1
loop_
 _symmetry_equiv_pos_site_id
 _symmetry_equiv_pos_as_xyz
  1  'x, y, z'
loop_
 _atom_site_type_symbol
 _atom_site_label
 _atom_site_symmetry_multiplicity
 _atom_site_fract_x
 _atom_site_fract_y
 _atom_site_fract_z
 _atom_site_occupancy
  Ca  Ca0  1  0.506298  0.496640  0.000000  1
  Ca  Ca1  1  0.996640  0.006298  0.000000  1
  La  La2  1  0.812855  0.678656  0.500000  1
  La  La3  1  0.332034  0.832034  0.500000  1
  La  La4  1  0.178656  0.312855  0.500000  1
  La  La5  1  0.675411  0.175411  0.500000  1
  Si  Si6  1  0.610462  0.890945  0.000000  1
  Si  Si7  1  0.390945  0.110462  0.000000  1
  Si  Si8  1  0.880062  0.380062  0.000000  1
  Sn  Sn9  1  0.116636  0.616636  0.000000  1
