# generated using pymatgen
data_RbPaBr4O
_symmetry_space_group_name_H-M   'P 1'
_cell_length_a   8.05220401
_cell_length_b   8.05220370
_cell_length_c   8.39003591
_cell_angle_alpha   106.46290292
_cell_angle_beta   106.46290328
_cell_angle_gamma   30.34575432
_symmetry_Int_Tables_number   1
_chemical_formula_structural   RbPaBr4O
_chemical_formula_sum   'Rb1 Pa1 Br4 O1'
_cell_volume   262.71953556
_cell_formula_units_Z   1
loop_
 _symmetry_equiv_pos_site_id
 _symmetry_equiv_pos_as_xyz
  1  'x, y, z'
loop_
 _atom_site_type_symbol
 _atom_site_label
 _atom_site_symmetry_multiplicity
 _atom_site_fract_x
 _atom_site_fract_y
 _atom_site_fract_z
 _atom_site_occupancy
  Rb  Rb0  1  0.996167  0.003833  0.000000  1
  Pa  Pa1  1  0.499397  0.500603  0.500000  1
  Br  Br2  1  0.370685  0.368831  0.191260  1
  Br  Br3  1  0.629057  0.627096  0.328683  1
  Br  Br4  1  0.372905  0.370943  0.671317  1
  Br  Br5  1  0.631169  0.629314  0.808739  1
  O  O6  1  0.999917  0.000083  0.500000  1
