# generated using pymatgen
data_Pa(Co3Ge2)2
_symmetry_space_group_name_H-M   'P 1'
_cell_length_a   6.78997300
_cell_length_b   6.78997266
_cell_length_c   3.70973000
_cell_angle_alpha   90.00000000
_cell_angle_beta   90.00000000
_cell_angle_gamma   119.99999681
_symmetry_Int_Tables_number   1
_chemical_formula_structural   Pa(Co3Ge2)2
_chemical_formula_sum   'Pa1 Co6 Ge4'
_cell_volume   148.11840285
_cell_formula_units_Z   1
loop_
 _symmetry_equiv_pos_site_id
 _symmetry_equiv_pos_as_xyz
  1  'x, y, z'
loop_
 _atom_site_type_symbol
 _atom_site_label
 _atom_site_symmetry_multiplicity
 _atom_site_fract_x
 _atom_site_fract_y
 _atom_site_fract_z
 _atom_site_occupancy
  Pa  Pa0  1  0.000000  0.000000  0.000000  1
  Co  Co1  1  0.534277  0.465723  0.000000  1
  Co  Co2  1  0.534277  0.068555  0.000000  1
  Co  Co3  1  0.931445  0.465723  0.000000  1
  Co  Co4  1  0.201363  0.798637  0.500000  1
  Co  Co5  1  0.201363  0.402727  0.500000  1
  Co  Co6  1  0.597273  0.798637  0.500000  1
  Ge  Ge7  1  0.802307  0.197693  0.500000  1
  Ge  Ge8  1  0.802307  0.604615  0.500000  1
  Ge  Ge9  1  0.395385  0.197693  0.500000  1
  Ge  Ge10  1  0.333333  0.666667  0.000000  1
