# generated using pymatgen
data_Pr4Al17SiRh5Au
_symmetry_space_group_name_H-M   'P 1'
_cell_length_a   7.68138928
_cell_length_b   7.68211891
_cell_length_c   9.59629907
_cell_angle_alpha   89.98875341
_cell_angle_beta   90.00645792
_cell_angle_gamma   119.65438766
_symmetry_Int_Tables_number   1
_chemical_formula_structural   Pr4Al17SiRh5Au
_chemical_formula_sum   'Pr4 Al17 Si1 Rh5 Au1'
_cell_volume   492.10431143
_cell_formula_units_Z   1
loop_
 _symmetry_equiv_pos_site_id
 _symmetry_equiv_pos_as_xyz
  1  'x, y, z'
loop_
 _atom_site_type_symbol
 _atom_site_label
 _atom_site_symmetry_multiplicity
 _atom_site_fract_x
 _atom_site_fract_y
 _atom_site_fract_z
 _atom_site_occupancy
  Pr  Pr0  1  0.989403  0.669150  0.750077  1
  Pr  Pr1  1  0.001127  0.329471  0.250657  1
  Pr  Pr2  1  0.675004  0.996772  0.749487  1
  Pr  Pr3  1  0.334248  0.007931  0.250093  1
  Al  Al4  1  0.874739  0.872688  0.248012  1
  Al  Al5  1  0.015381  0.336685  0.578348  1
  Al  Al6  1  0.005955  0.675443  0.424737  1
  Al  Al7  1  0.000516  0.666391  0.071187  1
  Al  Al8  1  0.335805  0.999447  0.927590  1
  Al  Al9  1  0.002618  0.336466  0.926655  1
  Al  Al10  1  0.665866  0.997743  0.071669  1
  Al  Al11  1  0.665159  0.985348  0.423858  1
  Al  Al12  1  0.326835  0.994283  0.577251  1
  Al  Al13  1  0.332129  0.332987  0.048033  1
  Al  Al14  1  0.664529  0.665279  0.955915  1
  Al  Al15  1  0.661687  0.668571  0.552574  1
  Al  Al16  1  0.328641  0.335888  0.442761  1
  Al  Al17  1  0.337995  0.550614  0.751839  1
  Al  Al18  1  0.660786  0.460579  0.240610  1
  Al  Al19  1  0.537277  0.335126  0.759340  1
  Al  Al20  1  0.450322  0.659403  0.248357  1
  Si  Si21  1  0.132203  0.129236  0.751316  1
  Rh  Rh22  1  0.328516  0.669254  0.500762  1
  Rh  Rh23  1  0.328436  0.669262  0.999429  1
  Rh  Rh24  1  0.669775  0.327569  0.999418  1
  Rh  Rh25  1  0.001353  0.001456  0.506140  1
  Rh  Rh26  1  0.001779  0.001124  0.993340  1
  Au  Au27  1  0.671916  0.325832  0.500546  1
