# generated using pymatgen
data_Dy2Ho7Tm(CoSb2)2
_symmetry_space_group_name_H-M   'P 1'
_cell_length_a   7.83424728
_cell_length_b   8.76116232
_cell_length_c   12.13625500
_cell_angle_alpha   90.00000000
_cell_angle_beta   90.00000000
_cell_angle_gamma   89.96921516
_symmetry_Int_Tables_number   1
_chemical_formula_structural   Dy2Ho7Tm(CoSb2)2
_chemical_formula_sum   'Dy4 Ho14 Tm2 Co4 Sb8'
_cell_volume   832.99737429
_cell_formula_units_Z   2
loop_
 _symmetry_equiv_pos_site_id
 _symmetry_equiv_pos_as_xyz
  1  'x, y, z'
loop_
 _atom_site_type_symbol
 _atom_site_label
 _atom_site_symmetry_multiplicity
 _atom_site_fract_x
 _atom_site_fract_y
 _atom_site_fract_z
 _atom_site_occupancy
  Dy  Dy0  1  0.621861  0.749818  0.306998  1
  Dy  Dy1  1  0.878139  0.750182  0.806998  1
  Dy  Dy2  1  0.378545  0.250105  0.692990  1
  Dy  Dy3  1  0.121455  0.249895  0.192990  1
  Ho  Ho4  1  0.155181  0.750102  0.203664  1
  Ho  Ho5  1  0.344819  0.749898  0.703664  1
  Ho  Ho6  1  0.844575  0.249996  0.796347  1
  Ho  Ho7  1  0.655425  0.250004  0.296347  1
  Ho  Ho8  1  0.451552  0.750092  0.998071  1
  Ho  Ho9  1  0.048448  0.749908  0.498071  1
  Ho  Ho10  1  0.548967  0.249842  0.001945  1
  Ho  Ho11  1  0.951033  0.250158  0.501945  1
  Ho  Ho12  1  0.822340  0.536320  0.065417  1
  Ho  Ho13  1  0.677660  0.963680  0.565417  1
  Ho  Ho14  1  0.177397  0.036178  0.934718  1
  Ho  Ho15  1  0.322603  0.463822  0.434718  1
  Ho  Ho16  1  0.177685  0.463816  0.934628  1
  Ho  Ho17  1  0.322315  0.036184  0.434628  1
  Tm  Tm18  1  0.823231  0.963629  0.065304  1
  Tm  Tm19  1  0.676769  0.536371  0.565304  1
  Co  Co20  1  0.433536  0.749685  0.491231  1
  Co  Co21  1  0.066464  0.750315  0.991231  1
  Co  Co22  1  0.567196  0.250240  0.508910  1
  Co  Co23  1  0.932804  0.249760  0.008910  1
  Sb  Sb24  1  0.929559  0.508804  0.327759  1
  Sb  Sb25  1  0.570441  0.991196  0.827759  1
  Sb  Sb26  1  0.070540  0.008771  0.672240  1
  Sb  Sb27  1  0.429460  0.491229  0.172240  1
  Sb  Sb28  1  0.070161  0.491292  0.672172  1
  Sb  Sb29  1  0.429839  0.008708  0.172172  1
  Sb  Sb30  1  0.929369  0.991183  0.327608  1
  Sb  Sb31  1  0.570631  0.508817  0.827608  1
