# generated using pymatgen
data_Rb5Ag5Au
_symmetry_space_group_name_H-M   'P 1'
_cell_length_a   16.27397049
_cell_length_b   16.27396980
_cell_length_c   5.28041800
_cell_angle_alpha   90.00000000
_cell_angle_beta   90.00000000
_cell_angle_gamma   162.02437035
_symmetry_Int_Tables_number   1
_chemical_formula_structural   Rb5Ag5Au
_chemical_formula_sum   'Rb5 Ag5 Au1'
_cell_volume   431.58740586
_cell_formula_units_Z   1
loop_
 _symmetry_equiv_pos_site_id
 _symmetry_equiv_pos_as_xyz
  1  'x, y, z'
loop_
 _atom_site_type_symbol
 _atom_site_label
 _atom_site_symmetry_multiplicity
 _atom_site_fract_x
 _atom_site_fract_y
 _atom_site_fract_z
 _atom_site_occupancy
  Rb  Rb0  1  0.000028  0.999972  0.000000  1
  Rb  Rb1  1  0.616606  0.383392  0.000000  1
  Rb  Rb2  1  0.384048  0.615950  0.000000  1
  Rb  Rb3  1  0.805569  0.194429  0.500001  1
  Rb  Rb4  1  0.193988  0.806010  0.500001  1
  Ag  Ag5  1  0.265150  0.734848  0.000000  1
  Ag  Ag6  1  0.922736  0.077263  0.500001  1
  Ag  Ag7  1  0.544941  0.455057  0.500001  1
  Ag  Ag8  1  0.455083  0.544915  0.500001  1
  Ag  Ag9  1  0.077298  0.922701  0.500001  1
  Au  Au10  1  0.734543  0.265455  0.000000  1
