# generated using pymatgen
data_Cs2TcTe6Mo5
_symmetry_space_group_name_H-M   'P 1'
_cell_length_a   4.60205300
_cell_length_b   10.36089143
_cell_length_c   10.45486571
_cell_angle_alpha   120.38706798
_cell_angle_beta   90.00000000
_cell_angle_gamma   90.00000000
_symmetry_Int_Tables_number   1
_chemical_formula_structural   Cs2TcTe6Mo5
_chemical_formula_sum   'Cs2 Tc1 Te6 Mo5'
_cell_volume   430.02200426
_cell_formula_units_Z   1
loop_
 _symmetry_equiv_pos_site_id
 _symmetry_equiv_pos_as_xyz
  1  'x, y, z'
loop_
 _atom_site_type_symbol
 _atom_site_label
 _atom_site_symmetry_multiplicity
 _atom_site_fract_x
 _atom_site_fract_y
 _atom_site_fract_z
 _atom_site_occupancy
  Cs  Cs0  1  0.750000  0.670652  0.334111  1
  Cs  Cs1  1  0.250000  0.331013  0.665015  1
  Tc  Tc2  1  0.750000  0.978028  0.838043  1
  Te  Te3  1  0.750000  0.669924  0.710112  1
  Te  Te4  1  0.750000  0.284207  0.953275  1
  Te  Te5  1  0.750000  0.045483  0.338896  1
  Te  Te6  1  0.250000  0.336267  0.291600  1
  Te  Te7  1  0.250000  0.708003  0.042392  1
  Te  Te8  1  0.250000  0.955246  0.664789  1
  Mo  Mo9  1  0.750000  0.156920  0.138296  1
  Mo  Mo10  1  0.750000  0.864249  0.022089  1
  Mo  Mo11  1  0.250000  0.021019  0.158805  1
  Mo  Mo12  1  0.250000  0.844505  0.863565  1
  Mo  Mo13  1  0.250000  0.134482  0.979013  1
