# generated using pymatgen
data_NaSr3PaS6
_symmetry_space_group_name_H-M   'P 1'
_cell_length_a   8.18697303
_cell_length_b   8.18697395
_cell_length_c   8.18697400
_cell_angle_alpha   90.73903132
_cell_angle_beta   90.73903141
_cell_angle_gamma   90.73904597
_symmetry_Int_Tables_number   1
_chemical_formula_structural   NaSr3PaS6
_chemical_formula_sum   'Na2 Sr6 Pa2 S12'
_cell_volume   548.60636609
_cell_formula_units_Z   2
loop_
 _symmetry_equiv_pos_site_id
 _symmetry_equiv_pos_as_xyz
  1  'x, y, z'
loop_
 _atom_site_type_symbol
 _atom_site_label
 _atom_site_symmetry_multiplicity
 _atom_site_fract_x
 _atom_site_fract_y
 _atom_site_fract_z
 _atom_site_occupancy
  Na  Na0  1  0.250000  0.250000  0.250000  1
  Na  Na1  1  0.750000  0.750000  0.750000  1
  Sr  Sr2  1  0.874017  0.625983  0.250000  1
  Sr  Sr3  1  0.250000  0.874017  0.625983  1
  Sr  Sr4  1  0.625983  0.250000  0.874017  1
  Sr  Sr5  1  0.750000  0.125983  0.374017  1
  Sr  Sr6  1  0.374017  0.750000  0.125983  1
  Sr  Sr7  1  0.125983  0.374017  0.750000  1
  Pa  Pa8  1  0.500000  0.500000  0.500000  1
  Pa  Pa9  1  0.000000  0.000000  0.000000  1
  S  S10  1  0.194955  0.558229  0.420671  1
  S  S11  1  0.420671  0.194955  0.558229  1
  S  S12  1  0.558229  0.420671  0.194955  1
  S  S13  1  0.920671  0.058229  0.694955  1
  S  S14  1  0.694955  0.920671  0.058229  1
  S  S15  1  0.058229  0.694955  0.920671  1
  S  S16  1  0.805045  0.441771  0.579329  1
  S  S17  1  0.579329  0.805045  0.441771  1
  S  S18  1  0.441771  0.579329  0.805045  1
  S  S19  1  0.079329  0.941771  0.305045  1
  S  S20  1  0.305045  0.079329  0.941771  1
  S  S21  1  0.941771  0.305045  0.079329  1
