# generated using pymatgen
data_Tb2GaGe3(PRh4)3
_symmetry_space_group_name_H-M   'P 1'
_cell_length_a   3.86971109
_cell_length_b   9.84905920
_cell_length_c   9.85128018
_cell_angle_alpha   120.04208620
_cell_angle_beta   89.97820865
_cell_angle_gamma   89.99505276
_symmetry_Int_Tables_number   1
_chemical_formula_structural   Tb2GaGe3(PRh4)3
_chemical_formula_sum   'Tb2 Ga1 Ge3 P3 Rh12'
_cell_volume   325.02158492
_cell_formula_units_Z   1
loop_
 _symmetry_equiv_pos_site_id
 _symmetry_equiv_pos_as_xyz
  1  'x, y, z'
loop_
 _atom_site_type_symbol
 _atom_site_label
 _atom_site_symmetry_multiplicity
 _atom_site_fract_x
 _atom_site_fract_y
 _atom_site_fract_z
 _atom_site_occupancy
  Tb  Tb0  1  0.238148  0.666624  0.333152  1
  Tb  Tb1  1  0.738838  0.333253  0.666618  1
  Ga  Ga2  1  0.733989  0.000100  0.000151  1
  Ge  Ge3  1  0.737919  0.883366  0.598320  1
  Ge  Ge4  1  0.738028  0.401627  0.285122  1
  Ge  Ge5  1  0.738218  0.715007  0.116389  1
  P  P6  1  0.238575  0.111924  0.401497  1
  P  P7  1  0.238452  0.598603  0.710494  1
  P  P8  1  0.238370  0.289464  0.888129  1
  Rh  Rh9  1  0.738308  0.133153  0.845195  1
  Rh  Rh10  1  0.738451  0.154835  0.288137  1
  Rh  Rh11  1  0.738434  0.712032  0.866770  1
  Rh  Rh12  1  0.238210  0.894713  0.143276  1
  Rh  Rh13  1  0.237980  0.856893  0.751516  1
  Rh  Rh14  1  0.238043  0.248591  0.105375  1
  Rh  Rh15  1  0.738298  0.615611  0.558084  1
  Rh  Rh16  1  0.738346  0.441851  0.057408  1
  Rh  Rh17  1  0.738390  0.942463  0.384379  1
  Rh  Rh18  1  0.238358  0.382838  0.452343  1
  Rh  Rh19  1  0.238343  0.547673  0.930510  1
  Rh  Rh20  1  0.238302  0.069380  0.617134  1
