# generated using pymatgen
data_Pa2I7Br
_symmetry_space_group_name_H-M   'P 1'
_cell_length_a   9.54959998
_cell_length_b   7.78563009
_cell_length_c   7.78563064
_cell_angle_alpha   103.41185647
_cell_angle_beta   107.15622260
_cell_angle_gamma   109.34169986
_symmetry_Int_Tables_number   1
_chemical_formula_structural   Pa2I7Br
_chemical_formula_sum   'Pa2 I7 Br1'
_cell_volume   485.74913792
_cell_formula_units_Z   1
loop_
 _symmetry_equiv_pos_site_id
 _symmetry_equiv_pos_as_xyz
  1  'x, y, z'
loop_
 _atom_site_type_symbol
 _atom_site_label
 _atom_site_symmetry_multiplicity
 _atom_site_fract_x
 _atom_site_fract_y
 _atom_site_fract_z
 _atom_site_occupancy
  Pa  Pa0  1  0.679407  0.203162  0.476245  1
  Pa  Pa1  1  0.576591  0.547822  0.028770  1
  I  I2  1  0.456878  0.751983  0.320211  1
  I  I3  1  0.388900  0.218164  0.170736  1
  I  I4  1  0.867917  0.535500  0.332418  1
  I  I5  1  0.800453  0.002340  0.184501  1
  I  I6  1  0.800453  0.615951  0.798113  1
  I  I7  1  0.315573  0.573514  0.742058  1
  I  I8  1  0.456878  0.136667  0.704896  1
  Br  Br9  1  0.906950  0.164897  0.742052  1
