# generated using pymatgen
data_Ho2Tm10InFe3Rh
_symmetry_space_group_name_H-M   'P 1'
_cell_length_a   8.16020895
_cell_length_b   8.15401270
_cell_length_c   8.16020812
_cell_angle_alpha   110.91412578
_cell_angle_beta   107.12428225
_cell_angle_gamma   110.43363689
_symmetry_Int_Tables_number   1
_chemical_formula_structural   Ho2Tm10InFe3Rh
_chemical_formula_sum   'Ho2 Tm10 In1 Fe3 Rh1'
_cell_volume   417.27274450
_cell_formula_units_Z   1
loop_
 _symmetry_equiv_pos_site_id
 _symmetry_equiv_pos_as_xyz
  1  'x, y, z'
loop_
 _atom_site_type_symbol
 _atom_site_label
 _atom_site_symmetry_multiplicity
 _atom_site_fract_x
 _atom_site_fract_y
 _atom_site_fract_z
 _atom_site_occupancy
  Ho  Ho0  1  0.189764  0.466803  0.277039  1
  Ho  Ho1  1  0.810236  0.533197  0.722961  1
  Tm  Tm2  1  0.190386  0.913548  0.723161  1
  Tm  Tm3  1  0.971501  0.186835  0.783461  1
  Tm  Tm4  1  0.809614  0.086452  0.276839  1
  Tm  Tm5  1  0.028499  0.813165  0.216539  1
  Tm  Tm6  1  0.403374  0.186835  0.215336  1
  Tm  Tm7  1  0.596626  0.813165  0.784664  1
  Tm  Tm8  1  0.307979  0.309683  0.618832  1
  Tm  Tm9  1  0.692021  0.690317  0.381168  1
  Tm  Tm10  1  0.690850  0.309683  0.001704  1
  Tm  Tm11  1  0.309150  0.690317  0.998296  1
  In  In12  1  0.500000  0.000000  0.500000  1
  Fe  Fe13  1  0.382384  0.381384  0.999000  1
  Fe  Fe14  1  0.617616  0.618616  0.001000  1
  Fe  Fe15  1  0.000000  0.000000  0.000000  1
  Rh  Rh16  1  0.000000  0.500000  0.500000  1
