# generated using pymatgen
data_Nd4DyY3(ReB6)4
_symmetry_space_group_name_H-M   'P 1'
_cell_length_a   3.73441200
_cell_length_b   9.26488700
_cell_length_c   11.72172501
_cell_angle_alpha   90.00346681
_cell_angle_beta   90.00000000
_cell_angle_gamma   90.00000000
_symmetry_Int_Tables_number   1
_chemical_formula_structural   Nd4DyY3(ReB6)4
_chemical_formula_sum   'Nd4 Dy1 Y3 Re4 B24'
_cell_volume   405.55885158
_cell_formula_units_Z   1
loop_
 _symmetry_equiv_pos_site_id
 _symmetry_equiv_pos_as_xyz
  1  'x, y, z'
loop_
 _atom_site_type_symbol
 _atom_site_label
 _atom_site_symmetry_multiplicity
 _atom_site_fract_x
 _atom_site_fract_y
 _atom_site_fract_z
 _atom_site_occupancy
  Nd  Nd0  1  0.000000  0.323065  0.414172  1
  Nd  Nd1  1  0.000000  0.676931  0.585840  1
  Nd  Nd2  1  0.000000  0.823040  0.085802  1
  Nd  Nd3  1  0.000000  0.176990  0.914175  1
  Dy  Dy4  1  0.000000  0.557057  0.869320  1
  Y  Y5  1  0.000000  0.943030  0.369484  1
  Y  Y6  1  0.000000  0.056967  0.630536  1
  Y  Y7  1  0.000000  0.443020  0.130493  1
  Re  Re8  1  0.000000  0.639276  0.319675  1
  Re  Re9  1  0.000000  0.360826  0.680460  1
  Re  Re10  1  0.000000  0.139290  0.180328  1
  Re  Re11  1  0.000000  0.860506  0.819696  1
  B  B12  1  0.500000  0.555058  0.430612  1
  B  B13  1  0.500000  0.444942  0.569399  1
  B  B14  1  0.500000  0.055052  0.069394  1
  B  B15  1  0.500000  0.944941  0.930597  1
  B  B16  1  0.500000  0.749426  0.416053  1
  B  B17  1  0.500000  0.250582  0.583944  1
  B  B18  1  0.500000  0.249430  0.083932  1
  B  B19  1  0.500000  0.750519  0.915975  1
  B  B20  1  0.500000  0.791186  0.266174  1
  B  B21  1  0.500000  0.208827  0.733829  1
  B  B22  1  0.500000  0.291189  0.233825  1
  B  B23  1  0.500000  0.708763  0.766285  1
  B  B24  1  0.500000  0.630100  0.186743  1
  B  B25  1  0.500000  0.370013  0.813212  1
  B  B26  1  0.500000  0.130104  0.313228  1
  B  B27  1  0.500000  0.869893  0.686776  1
  B  B28  1  0.500000  0.984324  0.212761  1
  B  B29  1  0.500000  0.015655  0.787243  1
  B  B30  1  0.500000  0.484321  0.287235  1
  B  B31  1  0.500000  0.515636  0.712882  1
  B  B32  1  0.500000  0.596752  0.026768  1
  B  B33  1  0.500000  0.403289  0.973137  1
  B  B34  1  0.500000  0.096847  0.473171  1
  B  B35  1  0.500000  0.903151  0.526844  1
