# generated using pymatgen
data_YTm6Co6Sn23
_symmetry_space_group_name_H-M   'P 1'
_cell_length_a   9.66699900
_cell_length_b   9.66699950
_cell_length_c   9.96103500
_cell_angle_alpha   90.00000000
_cell_angle_beta   90.00000000
_cell_angle_gamma   120.00000171
_symmetry_Int_Tables_number   1
_chemical_formula_structural   YTm6Co6Sn23
_chemical_formula_sum   'Y1 Tm6 Co6 Sn23'
_cell_volume   806.15482938
_cell_formula_units_Z   1
loop_
 _symmetry_equiv_pos_site_id
 _symmetry_equiv_pos_as_xyz
  1  'x, y, z'
loop_
 _atom_site_type_symbol
 _atom_site_label
 _atom_site_symmetry_multiplicity
 _atom_site_fract_x
 _atom_site_fract_y
 _atom_site_fract_z
 _atom_site_occupancy
  Y  Y0  1  0.000000  0.000000  0.000000  1
  Tm  Tm1  1  0.042882  0.521441  0.306104  1
  Tm  Tm2  1  0.478559  0.957118  0.306104  1
  Tm  Tm3  1  0.478559  0.521441  0.306104  1
  Tm  Tm4  1  0.957118  0.478559  0.693896  1
  Tm  Tm5  1  0.521441  0.042882  0.693896  1
  Tm  Tm6  1  0.521441  0.478559  0.693896  1
  Co  Co7  1  0.167819  0.832181  0.802799  1
  Co  Co8  1  0.664362  0.832181  0.802799  1
  Co  Co9  1  0.167819  0.335638  0.802799  1
  Co  Co10  1  0.832181  0.167819  0.197201  1
  Co  Co11  1  0.335638  0.167819  0.197201  1
  Co  Co12  1  0.832181  0.664362  0.197201  1
  Sn  Sn13  1  0.000000  0.000000  0.500000  1
  Sn  Sn14  1  0.118618  0.881382  0.274873  1
  Sn  Sn15  1  0.762763  0.881382  0.274873  1
  Sn  Sn16  1  0.118618  0.237237  0.274873  1
  Sn  Sn17  1  0.881382  0.118618  0.725127  1
  Sn  Sn18  1  0.237237  0.118618  0.725127  1
  Sn  Sn19  1  0.881382  0.762763  0.725127  1
  Sn  Sn20  1  0.346310  0.000000  0.000000  1
  Sn  Sn21  1  0.653690  0.653690  0.000000  1
  Sn  Sn22  1  0.000000  0.346310  0.000000  1
  Sn  Sn23  1  0.346310  0.346310  0.000000  1
  Sn  Sn24  1  0.000000  0.653690  0.000000  1
  Sn  Sn25  1  0.653690  0.000000  0.000000  1
  Sn  Sn26  1  0.780920  0.561839  0.451314  1
  Sn  Sn27  1  0.780920  0.219080  0.451314  1
  Sn  Sn28  1  0.438161  0.219080  0.451314  1
  Sn  Sn29  1  0.219080  0.438161  0.548686  1
  Sn  Sn30  1  0.219080  0.780920  0.548686  1
  Sn  Sn31  1  0.561839  0.780920  0.548686  1
  Sn  Sn32  1  0.666667  0.333333  0.182842  1
  Sn  Sn33  1  0.333333  0.666667  0.817158  1
  Sn  Sn34  1  0.666667  0.333333  0.881213  1
  Sn  Sn35  1  0.333333  0.666667  0.118787  1
