# generated using pymatgen
data_Sc7Co16P12Os
_symmetry_space_group_name_H-M   'P 1'
_cell_length_a   12.01519966
_cell_length_b   12.01519922
_cell_length_c   3.64267100
_cell_angle_alpha   90.00000000
_cell_angle_beta   90.00000000
_cell_angle_gamma   119.95708534
_symmetry_Int_Tables_number   1
_chemical_formula_structural   Sc7Co16P12Os
_chemical_formula_sum   'Sc7 Co16 P12 Os1'
_cell_volume   455.61728380
_cell_formula_units_Z   1
loop_
 _symmetry_equiv_pos_site_id
 _symmetry_equiv_pos_as_xyz
  1  'x, y, z'
loop_
 _atom_site_type_symbol
 _atom_site_label
 _atom_site_symmetry_multiplicity
 _atom_site_fract_x
 _atom_site_fract_y
 _atom_site_fract_z
 _atom_site_occupancy
  Sc  Sc0  1  0.819036  0.001327  0.500000  1
  Sc  Sc1  1  0.001327  0.819036  0.500000  1
  Sc  Sc2  1  0.185860  0.185860  0.500000  1
  Sc  Sc3  1  0.332237  0.665000  0.000000  1
  Sc  Sc4  1  0.665000  0.332237  0.000000  1
  Sc  Sc5  1  0.442082  0.998904  0.000000  1
  Sc  Sc6  1  0.998904  0.442082  0.000000  1
  Co  Co7  1  0.279349  0.002938  0.500000  1
  Co  Co8  1  0.002938  0.279349  0.500000  1
  Co  Co9  1  0.717963  0.717963  0.500000  1
  Co  Co10  1  0.628203  0.800371  0.000000  1
  Co  Co11  1  0.192037  0.821642  0.000000  1
  Co  Co12  1  0.183059  0.375694  0.000000  1
  Co  Co13  1  0.375694  0.183059  0.000000  1
  Co  Co14  1  0.800371  0.628203  0.000000  1
  Co  Co15  1  0.821642  0.192037  0.000000  1
  Co  Co16  1  0.518950  0.868934  0.500000  1
  Co  Co17  1  0.123318  0.645211  0.500000  1
  Co  Co18  1  0.359230  0.483936  0.500000  1
  Co  Co19  1  0.483936  0.359230  0.500000  1
  Co  Co20  1  0.868934  0.518950  0.500000  1
  Co  Co21  1  0.645211  0.123318  0.500000  1
  Co  Co22  1  0.000088  0.000088  0.000000  1
  P  P23  1  0.177326  0.002204  0.000000  1
  P  P24  1  0.002204  0.177326  0.000000  1
  P  P25  1  0.824986  0.824986  0.000000  1
  P  P26  1  0.518409  0.684677  0.500000  1
  P  P27  1  0.308581  0.825745  0.500000  1
  P  P28  1  0.173977  0.485349  0.500000  1
  P  P29  1  0.485349  0.173977  0.500000  1
  P  P30  1  0.684677  0.518409  0.500000  1
  P  P31  1  0.825745  0.308581  0.500000  1
  P  P32  1  0.648976  0.996077  0.000000  1
  P  P33  1  0.996077  0.648976  0.000000  1
  P  P34  1  0.357443  0.357443  0.000000  1
  Os  Os35  1  0.550880  0.550880  0.000000  1
