# generated using pymatgen
data_Er2Mn3Al20Co
_symmetry_space_group_name_H-M   'P 1'
_cell_length_a   6.76572585
_cell_length_b   6.78086818
_cell_length_c   8.96502181
_cell_angle_alpha   89.98294109
_cell_angle_beta   90.33971574
_cell_angle_gamma   97.25324375
_symmetry_Int_Tables_number   1
_chemical_formula_structural   Er2Mn3Al20Co
_chemical_formula_sum   'Er2 Mn3 Al20 Co1'
_cell_volume   407.99428507
_cell_formula_units_Z   1
loop_
 _symmetry_equiv_pos_site_id
 _symmetry_equiv_pos_as_xyz
  1  'x, y, z'
loop_
 _atom_site_type_symbol
 _atom_site_label
 _atom_site_symmetry_multiplicity
 _atom_site_fract_x
 _atom_site_fract_y
 _atom_site_fract_z
 _atom_site_occupancy
  Er  Er0  1  0.877177  0.129842  0.249908  1
  Er  Er1  1  0.122823  0.870158  0.750092  1
  Mn  Mn2  1  0.000000  0.500000  0.500000  1
  Mn  Mn3  1  0.000000  0.500000  0.000000  1
  Mn  Mn4  1  0.500000  0.000000  0.000000  1
  Al  Al5  1  0.226388  0.227480  0.499750  1
  Al  Al6  1  0.772024  0.772320  0.000072  1
  Al  Al7  1  0.773612  0.772520  0.500250  1
  Al  Al8  1  0.227976  0.227680  0.999928  1
  Al  Al9  1  0.374310  0.623315  0.547592  1
  Al  Al10  1  0.625055  0.374300  0.046963  1
  Al  Al11  1  0.586194  0.866984  0.749917  1
  Al  Al12  1  0.413806  0.133016  0.250083  1
  Al  Al13  1  0.867187  0.586656  0.250202  1
  Al  Al14  1  0.132813  0.413344  0.749798  1
  Al  Al15  1  0.474840  0.219219  0.751960  1
  Al  Al16  1  0.525160  0.780781  0.248040  1
  Al  Al17  1  0.220629  0.476141  0.251043  1
  Al  Al18  1  0.779371  0.523859  0.748957  1
  Al  Al19  1  0.155848  0.843152  0.403404  1
  Al  Al20  1  0.842332  0.156805  0.904420  1
  Al  Al21  1  0.844152  0.156848  0.596596  1
  Al  Al22  1  0.157668  0.843195  0.095580  1
  Al  Al23  1  0.374945  0.625700  0.953037  1
  Al  Al24  1  0.625690  0.376685  0.452408  1
  Co  Co25  1  0.500000  0.000000  0.500000  1
