# generated using pymatgen
data_La3(Sn2Ru)2
_symmetry_space_group_name_H-M   'P 1'
_cell_length_a   7.65809400
_cell_length_b   7.65809454
_cell_length_c   4.41179000
_cell_angle_alpha   90.00000000
_cell_angle_beta   90.00000000
_cell_angle_gamma   120.00000629
_symmetry_Int_Tables_number   1
_chemical_formula_structural   La3(Sn2Ru)2
_chemical_formula_sum   'La3 Sn4 Ru2'
_cell_volume   224.07161930
_cell_formula_units_Z   1
loop_
 _symmetry_equiv_pos_site_id
 _symmetry_equiv_pos_as_xyz
  1  'x, y, z'
loop_
 _atom_site_type_symbol
 _atom_site_label
 _atom_site_symmetry_multiplicity
 _atom_site_fract_x
 _atom_site_fract_y
 _atom_site_fract_z
 _atom_site_occupancy
  La  La0  1  0.603115  0.022155  0.000000  1
  La  La1  1  0.977845  0.580959  0.000000  1
  La  La2  1  0.419041  0.396885  0.000000  1
  Sn  Sn3  1  0.248632  0.018688  0.500000  1
  Sn  Sn4  1  0.981312  0.229945  0.500000  1
  Sn  Sn5  1  0.770055  0.751368  0.500000  1
  Sn  Sn6  1  0.333333  0.666667  0.500000  1
  Ru  Ru7  1  0.666667  0.333333  0.500000  1
  Ru  Ru8  1  0.000000  0.000000  0.000000  1
