# generated using pymatgen
data_Er6Tm6Fe4CuSn
_symmetry_space_group_name_H-M   'P 1'
_cell_length_a   8.23689212
_cell_length_b   8.24564538
_cell_length_c   8.24716152
_cell_angle_alpha   110.92367003
_cell_angle_beta   110.94551289
_cell_angle_gamma   106.62032803
_symmetry_Int_Tables_number   1
_chemical_formula_structural   Er6Tm6Fe4CuSn
_chemical_formula_sum   'Er6 Tm6 Fe4 Cu1 Sn1'
_cell_volume   430.18457850
_cell_formula_units_Z   1
loop_
 _symmetry_equiv_pos_site_id
 _symmetry_equiv_pos_as_xyz
  1  'x, y, z'
loop_
 _atom_site_type_symbol
 _atom_site_label
 _atom_site_symmetry_multiplicity
 _atom_site_fract_x
 _atom_site_fract_y
 _atom_site_fract_z
 _atom_site_occupancy
  Er  Er0  1  0.014258  0.216878  0.797356  1
  Er  Er1  1  0.985742  0.783122  0.202644  1
  Er  Er2  1  0.188798  0.289949  0.478110  1
  Er  Er3  1  0.811202  0.710051  0.521890  1
  Er  Er4  1  0.188500  0.710589  0.898728  1
  Er  Er5  1  0.811500  0.289411  0.101272  1
  Tm  Tm6  1  0.312251  0.613389  0.301860  1
  Tm  Tm7  1  0.687749  0.386612  0.698140  1
  Tm  Tm8  1  0.312238  0.010363  0.698893  1
  Tm  Tm9  1  0.687762  0.989637  0.301107  1
  Tm  Tm10  1  0.420060  0.216948  0.203122  1
  Tm  Tm11  1  0.579940  0.783052  0.796878  1
  Fe  Fe12  1  0.109747  0.607856  0.500174  1
  Fe  Fe13  1  0.890254  0.392145  0.499826  1
  Fe  Fe14  1  0.385148  0.001060  0.384662  1
  Fe  Fe15  1  0.614852  0.998940  0.615338  1
  Cu  Cu16  1  0.000000  0.000000  0.000000  1
  Sn  Sn17  1  0.500000  0.500000  0.000000  1
