# generated using pymatgen
data_Dy6Al24ZnOs7
_symmetry_space_group_name_H-M   'P 1'
_cell_length_a   8.86576685
_cell_length_b   8.86576707
_cell_length_c   9.51316662
_cell_angle_alpha   89.94230211
_cell_angle_beta   90.05769958
_cell_angle_gamma   119.92825472
_symmetry_Int_Tables_number   1
_chemical_formula_structural   Dy6Al24ZnOs7
_chemical_formula_sum   'Dy6 Al24 Zn1 Os7'
_cell_volume   648.03965979
_cell_formula_units_Z   1
loop_
 _symmetry_equiv_pos_site_id
 _symmetry_equiv_pos_as_xyz
  1  'x, y, z'
loop_
 _atom_site_type_symbol
 _atom_site_label
 _atom_site_symmetry_multiplicity
 _atom_site_fract_x
 _atom_site_fract_y
 _atom_site_fract_z
 _atom_site_occupancy
  Dy  Dy0  1  0.191052  0.386310  0.248497  1
  Dy  Dy1  1  0.808948  0.613690  0.751503  1
  Dy  Dy2  1  0.613690  0.808948  0.248497  1
  Dy  Dy3  1  0.386310  0.191052  0.751503  1
  Dy  Dy4  1  0.194416  0.805584  0.252857  1
  Dy  Dy5  1  0.805584  0.194416  0.747143  1
  Al  Al6  1  0.329706  0.670294  0.020009  1
  Al  Al7  1  0.670294  0.329706  0.979991  1
  Al  Al8  1  0.666140  0.333860  0.516966  1
  Al  Al9  1  0.333860  0.666140  0.483034  1
  Al  Al10  1  0.162508  0.325672  0.573957  1
  Al  Al11  1  0.837492  0.674328  0.426043  1
  Al  Al12  1  0.674328  0.837492  0.573957  1
  Al  Al13  1  0.848522  0.677165  0.080547  1
  Al  Al14  1  0.325672  0.162508  0.426043  1
  Al  Al15  1  0.151478  0.322835  0.919453  1
  Al  Al16  1  0.162937  0.837063  0.574940  1
  Al  Al17  1  0.322835  0.151478  0.080547  1
  Al  Al18  1  0.837063  0.162937  0.425060  1
  Al  Al19  1  0.677165  0.848522  0.919453  1
  Al  Al20  1  0.836725  0.163275  0.076434  1
  Al  Al21  1  0.163275  0.836725  0.923566  1
  Al  Al22  1  0.561500  0.121589  0.249264  1
  Al  Al23  1  0.438500  0.878411  0.750736  1
  Al  Al24  1  0.878411  0.438500  0.249264  1
  Al  Al25  1  0.121589  0.561500  0.750736  1
  Al  Al26  1  0.563464  0.436536  0.254502  1
  Al  Al27  1  0.436536  0.563464  0.745498  1
  Al  Al28  1  0.999072  0.000928  0.250686  1
  Al  Al29  1  0.000928  0.999072  0.749314  1
  Zn  Zn30  1  0.500000  0.500000  0.000000  1
  Os  Os31  1  0.500000  0.000000  0.000000  1
  Os  Os32  1  0.000000  0.500000  0.000000  1
  Os  Os33  1  0.500000  0.000000  0.500000  1
  Os  Os34  1  0.000000  0.500000  0.500000  1
  Os  Os35  1  0.500000  0.500000  0.500000  1
  Os  Os36  1  0.000000  0.000000  0.000000  1
  Os  Os37  1  0.000000  0.000000  0.500000  1
