# generated using pymatgen
data_Tb3Tm3Al19Si5Os8
_symmetry_space_group_name_H-M   'P 1'
_cell_length_a   8.69490300
_cell_length_b   8.68023961
_cell_length_c   9.58001700
_cell_angle_alpha   90.00000000
_cell_angle_beta   90.00000000
_cell_angle_gamma   120.05590062
_symmetry_Int_Tables_number   1
_chemical_formula_structural   Tb3Tm3Al19Si5Os8
_chemical_formula_sum   'Tb3 Tm3 Al19 Si5 Os8'
_cell_volume   625.81858510
_cell_formula_units_Z   1
loop_
 _symmetry_equiv_pos_site_id
 _symmetry_equiv_pos_as_xyz
  1  'x, y, z'
loop_
 _atom_site_type_symbol
 _atom_site_label
 _atom_site_symmetry_multiplicity
 _atom_site_fract_x
 _atom_site_fract_y
 _atom_site_fract_z
 _atom_site_occupancy
  Tb  Tb0  1  0.806694  0.613387  0.750000  1
  Tb  Tb1  1  0.387860  0.194250  0.750000  1
  Tb  Tb2  1  0.806390  0.194250  0.750000  1
  Tm  Tm3  1  0.195814  0.391630  0.250000  1
  Tm  Tm4  1  0.605832  0.805359  0.250000  1
  Tm  Tm5  1  0.199528  0.805359  0.250000  1
  Al  Al6  1  0.164880  0.329760  0.577356  1
  Al  Al7  1  0.834848  0.669695  0.421133  1
  Al  Al8  1  0.669480  0.835156  0.575961  1
  Al  Al9  1  0.834848  0.669695  0.078867  1
  Al  Al10  1  0.328751  0.165315  0.421279  1
  Al  Al11  1  0.164880  0.329760  0.922644  1
  Al  Al12  1  0.165676  0.835156  0.575961  1
  Al  Al13  1  0.328751  0.165315  0.078721  1
  Al  Al14  1  0.836564  0.165315  0.421279  1
  Al  Al15  1  0.669480  0.835156  0.924039  1
  Al  Al16  1  0.836564  0.165315  0.078721  1
  Al  Al17  1  0.165676  0.835156  0.924039  1
  Al  Al18  1  0.436869  0.873737  0.750000  1
  Al  Al19  1  0.873435  0.433828  0.250000  1
  Al  Al20  1  0.128324  0.564858  0.750000  1
  Al  Al21  1  0.560394  0.433828  0.250000  1
  Al  Al22  1  0.436534  0.564858  0.750000  1
  Al  Al23  1  0.999788  0.999576  0.250000  1
  Al  Al24  1  0.000419  0.000839  0.750000  1
  Si  Si25  1  0.332532  0.665065  0.039611  1
  Si  Si26  1  0.667333  0.334666  0.962090  1
  Si  Si27  1  0.667333  0.334666  0.537910  1
  Si  Si28  1  0.332532  0.665065  0.460389  1
  Si  Si29  1  0.563518  0.127036  0.250000  1
  Os  Os30  1  0.500197  0.000393  0.007790  1
  Os  Os31  1  0.000057  0.499491  0.001736  1
  Os  Os32  1  0.500197  0.000393  0.492210  1
  Os  Os33  1  0.499434  0.499491  0.001736  1
  Os  Os34  1  0.000057  0.499491  0.498264  1
  Os  Os35  1  0.499434  0.499491  0.498264  1
  Os  Os36  1  0.999550  0.999099  0.000200  1
  Os  Os37  1  0.999550  0.999099  0.499800  1
