# generated using pymatgen
data_Ho9Tm(GaPb3)2
_symmetry_space_group_name_H-M   'P 1'
_cell_length_a   9.27816900
_cell_length_b   9.27816920
_cell_length_c   6.54566500
_cell_angle_alpha   90.00000000
_cell_angle_beta   90.00000000
_cell_angle_gamma   120.00000284
_symmetry_Int_Tables_number   1
_chemical_formula_structural   Ho9Tm(GaPb3)2
_chemical_formula_sum   'Ho9 Tm1 Ga2 Pb6'
_cell_volume   487.98779634
_cell_formula_units_Z   1
loop_
 _symmetry_equiv_pos_site_id
 _symmetry_equiv_pos_as_xyz
  1  'x, y, z'
loop_
 _atom_site_type_symbol
 _atom_site_label
 _atom_site_symmetry_multiplicity
 _atom_site_fract_x
 _atom_site_fract_y
 _atom_site_fract_z
 _atom_site_occupancy
  Ho  Ho0  1  0.666667  0.333333  0.000000  1
  Ho  Ho1  1  0.333333  0.666667  0.000000  1
  Ho  Ho2  1  0.333333  0.666667  0.500000  1
  Ho  Ho3  1  0.740409  0.740341  0.749980  1
  Ho  Ho4  1  0.259659  0.000068  0.749980  1
  Ho  Ho5  1  0.999932  0.259591  0.749980  1
  Ho  Ho6  1  0.259659  0.259591  0.250020  1
  Ho  Ho7  1  0.740409  0.000068  0.250020  1
  Ho  Ho8  1  0.999932  0.740341  0.250020  1
  Tm  Tm9  1  0.666667  0.333333  0.500000  1
  Ga  Ga10  1  0.000000  0.000000  0.000000  1
  Ga  Ga11  1  0.000000  0.000000  0.500000  1
  Pb  Pb12  1  0.387031  0.386790  0.749792  1
  Pb  Pb13  1  0.613210  0.000241  0.749792  1
  Pb  Pb14  1  0.999759  0.612969  0.749792  1
  Pb  Pb15  1  0.613210  0.612969  0.250208  1
  Pb  Pb16  1  0.387031  0.000241  0.250208  1
  Pb  Pb17  1  0.999759  0.386790  0.250208  1
