# generated using pymatgen
data_Nd2Ho2Al17SiIr6
_symmetry_space_group_name_H-M   'P 1'
_cell_length_a   7.58714341
_cell_length_b   7.58713499
_cell_length_c   9.46276400
_cell_angle_alpha   90.00000000
_cell_angle_beta   90.00000000
_cell_angle_gamma   119.60742505
_symmetry_Int_Tables_number   1
_chemical_formula_structural   Nd2Ho2Al17SiIr6
_chemical_formula_sum   'Nd2 Ho2 Al17 Si1 Ir6'
_cell_volume   473.59726978
_cell_formula_units_Z   1
loop_
 _symmetry_equiv_pos_site_id
 _symmetry_equiv_pos_as_xyz
  1  'x, y, z'
loop_
 _atom_site_type_symbol
 _atom_site_label
 _atom_site_symmetry_multiplicity
 _atom_site_fract_x
 _atom_site_fract_y
 _atom_site_fract_z
 _atom_site_occupancy
  Nd  Nd0  1  0.003435  0.330252  0.750000  1
  Nd  Nd1  1  0.330252  0.003434  0.750000  1
  Ho  Ho2  1  0.994070  0.676191  0.250000  1
  Ho  Ho3  1  0.676191  0.994070  0.250000  1
  Al  Al4  1  0.871372  0.871372  0.750000  1
  Al  Al5  1  0.000783  0.337323  0.079372  1
  Al  Al6  1  0.997085  0.665670  0.929511  1
  Al  Al7  1  0.997085  0.665670  0.570489  1
  Al  Al8  1  0.337322  0.000783  0.420628  1
  Al  Al9  1  0.000783  0.337323  0.420628  1
  Al  Al10  1  0.665671  0.997086  0.570489  1
  Al  Al11  1  0.665671  0.997086  0.929511  1
  Al  Al12  1  0.337322  0.000783  0.079372  1
  Al  Al13  1  0.333479  0.333479  0.551227  1
  Al  Al14  1  0.663591  0.663591  0.447052  1
  Al  Al15  1  0.663591  0.663591  0.052948  1
  Al  Al16  1  0.333479  0.333479  0.948773  1
  Al  Al17  1  0.337412  0.550015  0.250000  1
  Al  Al18  1  0.661409  0.454667  0.750000  1
  Al  Al19  1  0.550016  0.337413  0.250000  1
  Al  Al20  1  0.454668  0.661409  0.750000  1
  Si  Si21  1  0.130783  0.130783  0.250000  1
  Ir  Ir22  1  0.670478  0.327580  0.002382  1
  Ir  Ir23  1  0.327580  0.670477  0.002381  1
  Ir  Ir24  1  0.327580  0.670477  0.497619  1
  Ir  Ir25  1  0.670478  0.327580  0.497618  1
  Ir  Ir26  1  0.999205  0.999205  0.009871  1
  Ir  Ir27  1  0.999205  0.999205  0.490129  1
