# generated using pymatgen
data_Tm2GaB2Ir3Ru2
_symmetry_space_group_name_H-M   'P 1'
_cell_length_a   9.60741780
_cell_length_b   9.58329387
_cell_length_c   3.08188200
_cell_angle_alpha   90.00000000
_cell_angle_beta   90.00000000
_cell_angle_gamma   89.83592880
_symmetry_Int_Tables_number   1
_chemical_formula_structural   Tm2GaB2Ir3Ru2
_chemical_formula_sum   'Tm4 Ga2 B4 Ir6 Ru4'
_cell_volume   283.74989468
_cell_formula_units_Z   2
loop_
 _symmetry_equiv_pos_site_id
 _symmetry_equiv_pos_as_xyz
  1  'x, y, z'
loop_
 _atom_site_type_symbol
 _atom_site_label
 _atom_site_symmetry_multiplicity
 _atom_site_fract_x
 _atom_site_fract_y
 _atom_site_fract_z
 _atom_site_occupancy
  Tm  Tm0  1  0.825284  0.328459  0.000000  1
  Tm  Tm1  1  0.174716  0.671541  0.000000  1
  Tm  Tm2  1  0.324738  0.177277  0.000000  1
  Tm  Tm3  1  0.675262  0.822723  0.000000  1
  Ga  Ga4  1  0.500000  0.500000  0.000000  1
  Ga  Ga5  1  0.000000  0.000000  0.000000  1
  B  B6  1  0.621854  0.121181  0.000000  1
  B  B7  1  0.378146  0.878819  0.000000  1
  B  B8  1  0.124445  0.379609  0.000000  1
  B  B9  1  0.875555  0.620391  0.000000  1
  Ir  Ir10  1  0.217914  0.930961  0.500000  1
  Ir  Ir11  1  0.782086  0.069039  0.500000  1
  Ir  Ir12  1  0.430094  0.717592  0.500000  1
  Ir  Ir13  1  0.569906  0.282408  0.500000  1
  Ir  Ir14  1  0.069589  0.217743  0.500000  1
  Ir  Ir15  1  0.930411  0.782257  0.500000  1
  Ru  Ru16  1  0.500000  0.000000  0.500000  1
  Ru  Ru17  1  0.000000  0.500000  0.500000  1
  Ru  Ru18  1  0.716461  0.569636  0.500000  1
  Ru  Ru19  1  0.283539  0.430364  0.500000  1
