# generated using pymatgen
data_Li2Nd3Eu(Co3P2)6
_symmetry_space_group_name_H-M   'P 1'
_cell_length_a   3.71412600
_cell_length_b   10.40007887
_cell_length_c   11.95607846
_cell_angle_alpha   89.96062831
_cell_angle_beta   90.00000000
_cell_angle_gamma   90.00000000
_symmetry_Int_Tables_number   1
_chemical_formula_structural   Li2Nd3Eu(Co3P2)6
_chemical_formula_sum   'Li2 Nd3 Eu1 Co18 P12'
_cell_volume   461.82976485
_cell_formula_units_Z   1
loop_
 _symmetry_equiv_pos_site_id
 _symmetry_equiv_pos_as_xyz
  1  'x, y, z'
loop_
 _atom_site_type_symbol
 _atom_site_label
 _atom_site_symmetry_multiplicity
 _atom_site_fract_x
 _atom_site_fract_y
 _atom_site_fract_z
 _atom_site_occupancy
  Li  Li0  1  0.750000  0.299150  0.008594  1
  Li  Li1  1  0.750000  0.201666  0.509518  1
  Nd  Nd2  1  0.250000  0.917997  0.202833  1
  Nd  Nd3  1  0.750000  0.419436  0.298833  1
  Nd  Nd4  1  0.750000  0.080725  0.799735  1
  Eu  Eu5  1  0.250000  0.582480  0.702818  1
  Co  Co6  1  0.250000  0.708513  0.990516  1
  Co  Co7  1  0.250000  0.791506  0.490380  1
  Co  Co8  1  0.250000  0.411490  0.488582  1
  Co  Co9  1  0.250000  0.088286  0.989192  1
  Co  Co10  1  0.750000  0.598403  0.510851  1
  Co  Co11  1  0.750000  0.901390  0.011966  1
  Co  Co12  1  0.250000  0.219402  0.172718  1
  Co  Co13  1  0.250000  0.280981  0.672433  1
  Co  Co14  1  0.750000  0.777854  0.826635  1
  Co  Co15  1  0.750000  0.723075  0.325688  1
  Co  Co16  1  0.250000  0.879074  0.698928  1
  Co  Co17  1  0.250000  0.620202  0.198261  1
  Co  Co18  1  0.750000  0.117925  0.302492  1
  Co  Co19  1  0.750000  0.381737  0.802127  1
  Co  Co20  1  0.250000  0.468929  0.933598  1
  Co  Co21  1  0.250000  0.031418  0.434876  1
  Co  Co22  1  0.750000  0.535304  0.066473  1
  Co  Co23  1  0.750000  0.963761  0.568187  1
  P  P24  1  0.250000  0.422565  0.112588  1
  P  P25  1  0.250000  0.077089  0.613781  1
  P  P26  1  0.750000  0.578700  0.888370  1
  P  P27  1  0.750000  0.920963  0.390943  1
  P  P28  1  0.250000  0.277739  0.859590  1
  P  P29  1  0.250000  0.222906  0.360441  1
  P  P30  1  0.750000  0.726558  0.133020  1
  P  P31  1  0.750000  0.770923  0.634199  1
  P  P32  1  0.250000  0.608273  0.394722  1
  P  P33  1  0.250000  0.891291  0.894587  1
  P  P34  1  0.750000  0.398742  0.605826  1
  P  P35  1  0.750000  0.103550  0.105698  1
