# generated using pymatgen
data_TbCoCuO5
_symmetry_space_group_name_H-M   'P 1'
_cell_length_a   5.60938900
_cell_length_b   7.50302300
_cell_length_c   8.36547700
_cell_angle_alpha   90.00000000
_cell_angle_beta   90.00000000
_cell_angle_gamma   90.00000000
_symmetry_Int_Tables_number   1
_chemical_formula_structural   TbCoCuO5
_chemical_formula_sum   'Tb4 Co4 Cu4 O20'
_cell_volume   352.08096490
_cell_formula_units_Z   4
loop_
 _symmetry_equiv_pos_site_id
 _symmetry_equiv_pos_as_xyz
  1  'x, y, z'
loop_
 _atom_site_type_symbol
 _atom_site_label
 _atom_site_symmetry_multiplicity
 _atom_site_fract_x
 _atom_site_fract_y
 _atom_site_fract_z
 _atom_site_occupancy
  Tb  Tb0  1  0.500000  0.350060  0.327127  1
  Tb  Tb1  1  0.500000  0.649940  0.672873  1
  Tb  Tb2  1  0.500000  0.149940  0.827127  1
  Tb  Tb3  1  0.500000  0.850060  0.172873  1
  Co  Co4  1  0.242278  0.000000  0.500000  1
  Co  Co5  1  0.757722  0.000000  0.500000  1
  Co  Co6  1  0.757722  0.500000  0.000000  1
  Co  Co7  1  0.242278  0.500000  0.000000  1
  Cu  Cu8  1  0.000000  0.071618  0.153530  1
  Cu  Cu9  1  0.000000  0.928382  0.846470  1
  Cu  Cu10  1  0.000000  0.428382  0.653530  1
  Cu  Cu11  1  0.000000  0.571618  0.346470  1
  O  O12  1  0.228092  0.000000  0.000000  1
  O  O13  1  0.771908  0.000000  0.000000  1
  O  O14  1  0.771908  0.500000  0.500000  1
  O  O15  1  0.228092  0.500000  0.500000  1
  O  O16  1  0.000000  0.351850  0.060332  1
  O  O17  1  0.000000  0.648150  0.939668  1
  O  O18  1  0.000000  0.148150  0.560332  1
  O  O19  1  0.000000  0.851850  0.439668  1
  O  O20  1  0.258046  0.092152  0.291531  1
  O  O21  1  0.741954  0.907848  0.708469  1
  O  O22  1  0.258046  0.907848  0.708469  1
  O  O23  1  0.741954  0.407848  0.791531  1
  O  O24  1  0.741954  0.092152  0.291531  1
  O  O25  1  0.258046  0.592152  0.208469  1
  O  O26  1  0.741954  0.592152  0.208469  1
  O  O27  1  0.258046  0.407848  0.791531  1
  O  O28  1  0.500000  0.338522  0.051826  1
  O  O29  1  0.500000  0.661478  0.948174  1
  O  O30  1  0.500000  0.161478  0.551826  1
  O  O31  1  0.500000  0.838522  0.448174  1
