# generated using pymatgen
data_Hf3Zr6FeRe4
_symmetry_space_group_name_H-M   'P 1'
_cell_length_a   8.65438600
_cell_length_b   8.65433479
_cell_length_c   8.51419300
_cell_angle_alpha   90.00014342
_cell_angle_beta   90.00006675
_cell_angle_gamma   120.00020236
_symmetry_Int_Tables_number   1
_chemical_formula_structural   Hf3Zr6FeRe4
_chemical_formula_sum   'Hf6 Zr12 Fe2 Re8'
_cell_volume   552.25949324
_cell_formula_units_Z   2
loop_
 _symmetry_equiv_pos_site_id
 _symmetry_equiv_pos_as_xyz
  1  'x, y, z'
loop_
 _atom_site_type_symbol
 _atom_site_label
 _atom_site_symmetry_multiplicity
 _atom_site_fract_x
 _atom_site_fract_y
 _atom_site_fract_z
 _atom_site_occupancy
  Hf  Hf0  1  0.199252  0.800750  0.441241  1
  Hf  Hf1  1  0.199252  0.398503  0.441240  1
  Hf  Hf2  1  0.601497  0.800749  0.441240  1
  Hf  Hf3  1  0.800748  0.199250  0.558759  1
  Hf  Hf4  1  0.800748  0.601497  0.558760  1
  Hf  Hf5  1  0.398503  0.199251  0.558760  1
  Zr  Zr6  1  0.799508  0.200490  0.940587  1
  Zr  Zr7  1  0.799509  0.599019  0.940587  1
  Zr  Zr8  1  0.400981  0.200490  0.940588  1
  Zr  Zr9  1  0.200492  0.799510  0.059413  1
  Zr  Zr10  1  0.200491  0.400981  0.059413  1
  Zr  Zr11  1  0.599019  0.799510  0.059412  1
  Zr  Zr12  1  0.540669  0.459331  0.253834  1
  Zr  Zr13  1  0.540670  0.081337  0.253834  1
  Zr  Zr14  1  0.918665  0.459331  0.253833  1
  Zr  Zr15  1  0.459331  0.540669  0.746166  1
  Zr  Zr16  1  0.459330  0.918663  0.746166  1
  Zr  Zr17  1  0.081335  0.540669  0.746167  1
  Fe  Fe18  1  0.333331  0.666667  0.252181  1
  Fe  Fe19  1  0.666669  0.333333  0.747819  1
  Re  Re20  1  0.890797  0.109201  0.251356  1
  Re  Re21  1  0.890797  0.781601  0.251355  1
  Re  Re22  1  0.218398  0.109202  0.251356  1
  Re  Re23  1  0.109203  0.890799  0.748644  1
  Re  Re24  1  0.109203  0.218399  0.748645  1
  Re  Re25  1  0.781602  0.890798  0.748644  1
  Re  Re26  1  0.000000  0.000000  0.500000  1
  Re  Re27  1  0.000000  0.000000  0.000000  1
