# generated using pymatgen
data_Cs(HfSe2)4
_symmetry_space_group_name_H-M   'P 1'
_cell_length_a   10.43142223
_cell_length_b   10.43142276
_cell_length_c   10.43142179
_cell_angle_alpha   42.23178034
_cell_angle_beta   42.23177846
_cell_angle_gamma   42.23178624
_symmetry_Int_Tables_number   1
_chemical_formula_structural   Cs(HfSe2)4
_chemical_formula_sum   'Cs1 Hf4 Se8'
_cell_volume   464.06988114
_cell_formula_units_Z   1
loop_
 _symmetry_equiv_pos_site_id
 _symmetry_equiv_pos_as_xyz
  1  'x, y, z'
loop_
 _atom_site_type_symbol
 _atom_site_label
 _atom_site_symmetry_multiplicity
 _atom_site_fract_x
 _atom_site_fract_y
 _atom_site_fract_z
 _atom_site_occupancy
  Cs  Cs0  1  0.500000  0.500000  0.500000  1
  Hf  Hf1  1  0.000000  0.500000  0.500000  1
  Hf  Hf2  1  0.500000  0.000000  0.500000  1
  Hf  Hf3  1  0.500000  0.500000  0.000000  1
  Hf  Hf4  1  0.000000  0.000000  0.000000  1
  Se  Se5  1  0.276224  0.777835  0.777835  1
  Se  Se6  1  0.222165  0.222165  0.723776  1
  Se  Se7  1  0.723776  0.222165  0.222165  1
  Se  Se8  1  0.222165  0.723776  0.222165  1
  Se  Se9  1  0.277742  0.277742  0.277742  1
  Se  Se10  1  0.722258  0.722258  0.722258  1
  Se  Se11  1  0.777835  0.276224  0.777835  1
  Se  Se12  1  0.777835  0.777835  0.276224  1
