# generated using pymatgen
data_Y9Er(In2Sb)2
_symmetry_space_group_name_H-M   'P 1'
_cell_length_a   8.99526305
_cell_length_b   8.95142056
_cell_length_c   6.61050402
_cell_angle_alpha   89.99115762
_cell_angle_beta   90.00440347
_cell_angle_gamma   119.83889275
_symmetry_Int_Tables_number   1
_chemical_formula_structural   Y9Er(In2Sb)2
_chemical_formula_sum   'Y9 Er1 In4 Sb2'
_cell_volume   461.71479095
_cell_formula_units_Z   1
loop_
 _symmetry_equiv_pos_site_id
 _symmetry_equiv_pos_as_xyz
  1  'x, y, z'
loop_
 _atom_site_type_symbol
 _atom_site_label
 _atom_site_symmetry_multiplicity
 _atom_site_fract_x
 _atom_site_fract_y
 _atom_site_fract_z
 _atom_site_occupancy
  Y  Y0  1  0.003078  0.763923  0.750287  1
  Y  Y1  1  0.003078  0.239154  0.249713  1
  Y  Y2  1  0.761697  0.757937  0.249751  1
  Y  Y3  1  0.761697  0.003760  0.750249  1
  Y  Y4  1  0.236314  0.238444  0.750314  1
  Y  Y5  1  0.236314  0.997870  0.249686  1
  Y  Y6  1  0.331322  0.665662  0.500000  1
  Y  Y7  1  0.664663  0.332332  0.000000  1
  Y  Y8  1  0.664910  0.332455  0.500000  1
  Er  Er9  1  0.330252  0.665126  0.000000  1
  In  In10  1  0.397828  0.000445  0.751001  1
  In  In11  1  0.397828  0.397383  0.248999  1
  In  In12  1  0.999361  0.597697  0.249085  1
  In  In13  1  0.999361  0.401664  0.750915  1
  Sb  Sb14  1  0.606150  0.608680  0.751055  1
  Sb  Sb15  1  0.606150  0.997470  0.248945  1
