# generated using pymatgen
data_EuErSc3Si7Pt9
_symmetry_space_group_name_H-M   'P 1'
_cell_length_a   10.09448300
_cell_length_b   10.09448300
_cell_length_c   3.99943800
_cell_angle_alpha   90.00000000
_cell_angle_beta   90.00000000
_cell_angle_gamma   119.99999674
_symmetry_Int_Tables_number   1
_chemical_formula_structural   EuErSc3Si7Pt9
_chemical_formula_sum   'Eu1 Er1 Sc3 Si7 Pt9'
_cell_volume   352.93747672
_cell_formula_units_Z   1
loop_
 _symmetry_equiv_pos_site_id
 _symmetry_equiv_pos_as_xyz
  1  'x, y, z'
loop_
 _atom_site_type_symbol
 _atom_site_label
 _atom_site_symmetry_multiplicity
 _atom_site_fract_x
 _atom_site_fract_y
 _atom_site_fract_z
 _atom_site_occupancy
  Eu  Eu0  1  0.000000  0.000000  0.000000  1
  Er  Er1  1  0.333333  0.666667  0.500000  1
  Sc  Sc2  1  0.894797  0.455819  0.500000  1
  Sc  Sc3  1  0.561023  0.105203  0.500000  1
  Sc  Sc4  1  0.544181  0.438977  0.500000  1
  Si  Si5  1  0.246889  0.195818  0.500000  1
  Si  Si6  1  0.804182  0.051073  0.500000  1
  Si  Si7  1  0.948927  0.753111  0.500000  1
  Si  Si8  1  0.556377  0.647404  0.000000  1
  Si  Si9  1  0.352596  0.908972  0.000000  1
  Si  Si10  1  0.091028  0.443623  0.000000  1
  Si  Si11  1  0.666667  0.333333  0.000000  1
  Pt  Pt12  1  0.221398  0.935116  0.500000  1
  Pt  Pt13  1  0.064884  0.286284  0.500000  1
  Pt  Pt14  1  0.713716  0.778602  0.500000  1
  Pt  Pt15  1  0.314284  0.413434  0.000000  1
  Pt  Pt16  1  0.586566  0.900851  0.000000  1
  Pt  Pt17  1  0.099149  0.685716  0.000000  1
  Pt  Pt18  1  0.385065  0.172548  0.000000  1
  Pt  Pt19  1  0.827452  0.212518  0.000000  1
  Pt  Pt20  1  0.787482  0.614935  0.000000  1
