# generated using pymatgen
data_RbUCuSe2S
_symmetry_space_group_name_H-M   'P 1'
_cell_length_a   7.89943112
_cell_length_b   7.89943112
_cell_length_c   10.39644100
_cell_angle_alpha   90.00000000
_cell_angle_beta   90.00000000
_cell_angle_gamma   150.16797268
_symmetry_Int_Tables_number   1
_chemical_formula_structural   RbUCuSe2S
_chemical_formula_sum   'Rb2 U2 Cu2 Se4 S2'
_cell_volume   322.72571654
_cell_formula_units_Z   2
loop_
 _symmetry_equiv_pos_site_id
 _symmetry_equiv_pos_as_xyz
  1  'x, y, z'
loop_
 _atom_site_type_symbol
 _atom_site_label
 _atom_site_symmetry_multiplicity
 _atom_site_fract_x
 _atom_site_fract_y
 _atom_site_fract_z
 _atom_site_occupancy
  Rb  Rb0  1  0.264450  0.735550  0.250000  1
  Rb  Rb1  1  0.735550  0.264450  0.750000  1
  U  U2  1  0.000000  0.000000  0.000000  1
  U  U3  1  0.000000  0.000000  0.500000  1
  Cu  Cu4  1  0.531594  0.468405  0.250000  1
  Cu  Cu5  1  0.468405  0.531594  0.750000  1
  Se  Se6  1  0.624322  0.375677  0.057004  1
  Se  Se7  1  0.624322  0.375677  0.442996  1
  Se  Se8  1  0.375677  0.624322  0.557004  1
  Se  Se9  1  0.375677  0.624322  0.942996  1
  S  S10  1  0.948659  0.051340  0.250000  1
  S  S11  1  0.051340  0.948659  0.750000  1
