# generated using pymatgen
data_YbEr(CoC2)2
_symmetry_space_group_name_H-M   'P 1'
_cell_length_a   3.64986281
_cell_length_b   3.66087401
_cell_length_c   7.28338214
_cell_angle_alpha   82.46183341
_cell_angle_beta   82.50175353
_cell_angle_gamma   90.04342922
_symmetry_Int_Tables_number   1
_chemical_formula_structural   YbEr(CoC2)2
_chemical_formula_sum   'Yb1 Er1 Co2 C4'
_cell_volume   95.63641056
_cell_formula_units_Z   1
loop_
 _symmetry_equiv_pos_site_id
 _symmetry_equiv_pos_as_xyz
  1  'x, y, z'
loop_
 _atom_site_type_symbol
 _atom_site_label
 _atom_site_symmetry_multiplicity
 _atom_site_fract_x
 _atom_site_fract_y
 _atom_site_fract_z
 _atom_site_occupancy
  Yb  Yb0  1  0.069222  0.930057  0.999417  1
  Er  Er1  1  0.931605  0.069288  0.499840  1
  Co  Co2  1  0.375030  0.509546  0.692331  1
  Co  Co3  1  0.509675  0.374241  0.193181  1
  C  C4  1  0.443935  0.591902  0.428983  1
  C  C5  1  0.592371  0.444450  0.929244  1
  C  C6  1  0.488738  0.860081  0.274970  1
  C  C7  1  0.856423  0.487433  0.775835  1
