# generated using pymatgen
data_La5Nd3(HgRh)2
_symmetry_space_group_name_H-M   'P 1'
_cell_length_a   10.05367529
_cell_length_b   10.05367586
_cell_length_c   10.05367600
_cell_angle_alpha   59.99999953
_cell_angle_beta   59.99999767
_cell_angle_gamma   60.00000030
_symmetry_Int_Tables_number   1
_chemical_formula_structural   La5Nd3(HgRh)2
_chemical_formula_sum   'La10 Nd6 Hg4 Rh4'
_cell_volume   718.55433281
_cell_formula_units_Z   2
loop_
 _symmetry_equiv_pos_site_id
 _symmetry_equiv_pos_as_xyz
  1  'x, y, z'
loop_
 _atom_site_type_symbol
 _atom_site_label
 _atom_site_symmetry_multiplicity
 _atom_site_fract_x
 _atom_site_fract_y
 _atom_site_fract_z
 _atom_site_occupancy
  La  La0  1  0.599523  0.599523  0.599523  1
  La  La1  1  0.599523  0.599523  0.201432  1
  La  La2  1  0.599523  0.201432  0.599523  1
  La  La3  1  0.201432  0.599523  0.599523  1
  La  La4  1  0.057985  0.442015  0.442015  1
  La  La5  1  0.442015  0.057985  0.057985  1
  La  La6  1  0.442015  0.057985  0.442015  1
  La  La7  1  0.057985  0.442015  0.057985  1
  La  La8  1  0.442015  0.442015  0.057985  1
  La  La9  1  0.057985  0.057985  0.442015  1
  Nd  Nd10  1  0.185642  0.814358  0.814358  1
  Nd  Nd11  1  0.814358  0.185642  0.185642  1
  Nd  Nd12  1  0.814358  0.185642  0.814358  1
  Nd  Nd13  1  0.185642  0.814358  0.185642  1
  Nd  Nd14  1  0.814358  0.814358  0.185642  1
  Nd  Nd15  1  0.185642  0.185642  0.814358  1
  Hg  Hg16  1  0.834824  0.834824  0.834824  1
  Hg  Hg17  1  0.834824  0.834824  0.495527  1
  Hg  Hg18  1  0.834824  0.495527  0.834824  1
  Hg  Hg19  1  0.495527  0.834824  0.834824  1
  Rh  Rh20  1  0.391213  0.391213  0.391213  1
  Rh  Rh21  1  0.391213  0.391213  0.826360  1
  Rh  Rh22  1  0.391213  0.826360  0.391213  1
  Rh  Rh23  1  0.826360  0.391213  0.391213  1
