# generated using pymatgen
data_TbTh(Ni2B)12
_symmetry_space_group_name_H-M   'P 1'
_cell_length_a   6.04523580
_cell_length_b   6.04523493
_cell_length_c   10.98199042
_cell_angle_alpha   89.83039737
_cell_angle_beta   89.83039628
_cell_angle_gamma   104.62963426
_symmetry_Int_Tables_number   1
_chemical_formula_structural   TbTh(Ni2B)12
_chemical_formula_sum   'Tb1 Th1 Ni24 B12'
_cell_volume   388.31903715
_cell_formula_units_Z   1
loop_
 _symmetry_equiv_pos_site_id
 _symmetry_equiv_pos_as_xyz
  1  'x, y, z'
loop_
 _atom_site_type_symbol
 _atom_site_label
 _atom_site_symmetry_multiplicity
 _atom_site_fract_x
 _atom_site_fract_y
 _atom_site_fract_z
 _atom_site_occupancy
  Tb  Tb0  1  0.166108  0.166108  0.503943  1
  Th  Th1  1  0.831600  0.831600  0.003735  1
  Ni  Ni2  1  0.996696  0.630958  0.562594  1
  Ni  Ni3  1  0.730433  0.342276  0.432510  1
  Ni  Ni4  1  0.342276  0.730433  0.432510  1
  Ni  Ni5  1  0.657156  0.270135  0.932042  1
  Ni  Ni6  1  0.004313  0.369249  0.062678  1
  Ni  Ni7  1  0.369249  0.004313  0.062678  1
  Ni  Ni8  1  0.630958  0.996696  0.562594  1
  Ni  Ni9  1  0.433599  0.433599  0.081518  1
  Ni  Ni10  1  0.211882  0.473920  0.723346  1
  Ni  Ni11  1  0.787303  0.526180  0.223942  1
  Ni  Ni12  1  0.526180  0.787303  0.223942  1
  Ni  Ni13  1  0.473920  0.211882  0.723346  1
  Ni  Ni14  1  0.566100  0.566100  0.581364  1
  Ni  Ni15  1  0.218847  0.218847  0.900856  1
  Ni  Ni16  1  0.146019  0.881622  0.744129  1
  Ni  Ni17  1  0.853499  0.119739  0.244877  1
  Ni  Ni18  1  0.119739  0.853499  0.244877  1
  Ni  Ni19  1  0.881622  0.146019  0.744129  1
  Ni  Ni20  1  0.543354  0.805295  0.765722  1
  Ni  Ni21  1  0.456742  0.195592  0.266835  1
  Ni  Ni22  1  0.195592  0.456742  0.266835  1
  Ni  Ni23  1  0.805295  0.543354  0.765722  1
  Ni  Ni24  1  0.780377  0.780377  0.401645  1
  Ni  Ni25  1  0.270135  0.657156  0.932042  1
  B  B26  1  0.399771  0.986826  0.877316  1
  B  B27  1  0.600549  0.012608  0.377287  1
  B  B28  1  0.012608  0.600549  0.377287  1
  B  B29  1  0.986826  0.399771  0.877316  1
  B  B30  1  0.326416  0.757562  0.614384  1
  B  B31  1  0.673776  0.244049  0.115043  1
  B  B32  1  0.244049  0.673776  0.115043  1
  B  B33  1  0.757562  0.326416  0.614384  1
  B  B34  1  0.512015  0.512015  0.345922  1
  B  B35  1  0.487463  0.487463  0.842321  1
  B  B36  1  0.163182  0.163182  0.165114  1
  B  B37  1  0.836788  0.836788  0.662173  1
