# generated using pymatgen
data_Tm6MnAl24Ir6Ru
_symmetry_space_group_name_H-M   'P 1'
_cell_length_a   8.79595900
_cell_length_b   8.79595757
_cell_length_c   9.43287100
_cell_angle_alpha   90.00000000
_cell_angle_beta   90.00000000
_cell_angle_gamma   120.00000915
_symmetry_Int_Tables_number   1
_chemical_formula_structural   Tm6MnAl24Ir6Ru
_chemical_formula_sum   'Tm6 Mn1 Al24 Ir6 Ru1'
_cell_volume   632.03453435
_cell_formula_units_Z   1
loop_
 _symmetry_equiv_pos_site_id
 _symmetry_equiv_pos_as_xyz
  1  'x, y, z'
loop_
 _atom_site_type_symbol
 _atom_site_label
 _atom_site_symmetry_multiplicity
 _atom_site_fract_x
 _atom_site_fract_y
 _atom_site_fract_z
 _atom_site_occupancy
  Tm  Tm0  1  0.806086  0.193914  0.750001  1
  Tm  Tm1  1  0.193914  0.806086  0.249999  1
  Tm  Tm2  1  0.387827  0.193914  0.750001  1
  Tm  Tm3  1  0.612173  0.806086  0.249999  1
  Tm  Tm4  1  0.806086  0.612173  0.750001  1
  Tm  Tm5  1  0.193914  0.387827  0.249999  1
  Mn  Mn6  1  0.000000  0.000000  0.000000  1
  Al  Al7  1  0.666667  0.333333  0.972542  1
  Al  Al8  1  0.333333  0.666667  0.027458  1
  Al  Al9  1  0.333333  0.666667  0.471834  1
  Al  Al10  1  0.666667  0.333333  0.528166  1
  Al  Al11  1  0.837410  0.162590  0.423460  1
  Al  Al12  1  0.162590  0.837410  0.576540  1
  Al  Al13  1  0.325179  0.162590  0.423460  1
  Al  Al14  1  0.160319  0.839681  0.923121  1
  Al  Al15  1  0.674821  0.837410  0.576540  1
  Al  Al16  1  0.839681  0.160319  0.076879  1
  Al  Al17  1  0.837410  0.674821  0.423460  1
  Al  Al18  1  0.679363  0.839681  0.923121  1
  Al  Al19  1  0.162590  0.325179  0.576540  1
  Al  Al20  1  0.320637  0.160319  0.076879  1
  Al  Al21  1  0.160319  0.320637  0.923121  1
  Al  Al22  1  0.839681  0.679363  0.076879  1
  Al  Al23  1  0.437514  0.562486  0.750221  1
  Al  Al24  1  0.562486  0.437514  0.249779  1
  Al  Al25  1  0.124971  0.562486  0.750221  1
  Al  Al26  1  0.875029  0.437514  0.249779  1
  Al  Al27  1  0.437514  0.875029  0.750221  1
  Al  Al28  1  0.562486  0.124971  0.249779  1
  Al  Al29  1  0.000000  0.000000  0.754226  1
  Al  Al30  1  0.000000  0.000000  0.245774  1
  Ir  Ir31  1  0.500000  0.500000  0.000000  1
  Ir  Ir32  1  0.000000  0.500000  0.000000  1
  Ir  Ir33  1  0.500000  0.500000  0.500000  1
  Ir  Ir34  1  0.500000  0.000000  0.000000  1
  Ir  Ir35  1  0.000000  0.500000  0.500000  1
  Ir  Ir36  1  0.500000  0.000000  0.500000  1
  Ru  Ru37  1  0.000000  0.000000  0.500000  1
