# generated using pymatgen
data_Y10Ga3TcPb2
_symmetry_space_group_name_H-M   'P 1'
_cell_length_a   8.77097149
_cell_length_b   8.77099973
_cell_length_c   8.87851100
_cell_angle_alpha   125.90013079
_cell_angle_beta   125.90036915
_cell_angle_gamma   79.21586770
_symmetry_Int_Tables_number   1
_chemical_formula_structural   Y10Ga3TcPb2
_chemical_formula_sum   'Y10 Ga3 Tc1 Pb2'
_cell_volume   435.20401926
_cell_formula_units_Z   1
loop_
 _symmetry_equiv_pos_site_id
 _symmetry_equiv_pos_as_xyz
  1  'x, y, z'
loop_
 _atom_site_type_symbol
 _atom_site_label
 _atom_site_symmetry_multiplicity
 _atom_site_fract_x
 _atom_site_fract_y
 _atom_site_fract_z
 _atom_site_occupancy
  Y  Y0  1  0.004861  0.005406  0.010261  1
  Y  Y1  1  0.494596  0.495138  0.989742  1
  Y  Y2  1  0.016291  0.505811  0.806718  1
  Y  Y3  1  0.709571  0.199082  0.193280  1
  Y  Y4  1  0.522550  0.701913  0.499989  1
  Y  Y5  1  0.188939  0.038802  0.500001  1
  Y  Y6  1  0.994184  0.483704  0.193276  1
  Y  Y7  1  0.300919  0.790428  0.806721  1
  Y  Y8  1  0.461201  0.311064  0.500004  1
  Y  Y9  1  0.798085  0.977450  0.500010  1
  Ga  Ga10  1  0.363386  0.857329  0.220711  1
  Ga  Ga11  1  0.642669  0.136618  0.779290  1
  Ga  Ga12  1  0.870053  0.629949  0.500002  1
  Tc  Tc13  1  0.122404  0.377594  0.499997  1
  Pb  Pb14  1  0.755161  0.744838  0.999998  1
  Pb  Pb15  1  0.255129  0.244870  0.000001  1
