# generated using pymatgen
data_YbSi2NiRh2
_symmetry_space_group_name_H-M   'P 1'
_cell_length_a   6.47232810
_cell_length_b   6.60067730
_cell_length_c   6.47232900
_cell_angle_alpha   131.13448697
_cell_angle_beta   113.60683692
_cell_angle_gamma   85.98916019
_symmetry_Int_Tables_number   1
_chemical_formula_structural   YbSi2NiRh2
_chemical_formula_sum   'Yb2 Si4 Ni2 Rh4'
_cell_volume   183.17643122
_cell_formula_units_Z   2
loop_
 _symmetry_equiv_pos_site_id
 _symmetry_equiv_pos_as_xyz
  1  'x, y, z'
loop_
 _atom_site_type_symbol
 _atom_site_label
 _atom_site_symmetry_multiplicity
 _atom_site_fract_x
 _atom_site_fract_y
 _atom_site_fract_z
 _atom_site_occupancy
  Yb  Yb0  1  0.752855  0.044390  0.291536  1
  Yb  Yb1  1  0.247145  0.955610  0.708464  1
  Si  Si2  1  0.578819  0.386906  0.808088  1
  Si  Si3  1  0.923803  0.723491  0.799687  1
  Si  Si4  1  0.421181  0.613094  0.191912  1
  Si  Si5  1  0.076197  0.276509  0.200313  1
  Ni  Ni6  1  0.215489  0.500000  0.715489  1
  Ni  Ni7  1  0.784511  0.500000  0.284511  1
  Rh  Rh8  1  0.500000  0.500000  0.500000  1
  Rh  Rh9  1  0.000000  0.500000  0.000000  1
  Rh  Rh10  1  0.714019  0.000000  0.714019  1
  Rh  Rh11  1  0.285981  0.000000  0.285981  1
