# generated using pymatgen
data_Er10(InBi)3
_symmetry_space_group_name_H-M   'P 1'
_cell_length_a   8.99293800
_cell_length_b   8.99293957
_cell_length_c   6.51482800
_cell_angle_alpha   90.00000000
_cell_angle_beta   90.00000000
_cell_angle_gamma   120.00000158
_symmetry_Int_Tables_number   1
_chemical_formula_structural   Er10(InBi)3
_chemical_formula_sum   'Er10 In3 Bi3'
_cell_volume   456.28569506
_cell_formula_units_Z   1
loop_
 _symmetry_equiv_pos_site_id
 _symmetry_equiv_pos_as_xyz
  1  'x, y, z'
loop_
 _atom_site_type_symbol
 _atom_site_label
 _atom_site_symmetry_multiplicity
 _atom_site_fract_x
 _atom_site_fract_y
 _atom_site_fract_z
 _atom_site_occupancy
  Er  Er0  1  0.666667  0.333333  0.007487  1
  Er  Er1  1  0.333333  0.666667  0.007487  1
  Er  Er2  1  0.333333  0.666667  0.492513  1
  Er  Er3  1  0.666667  0.333333  0.492513  1
  Er  Er4  1  0.763667  0.763667  0.750000  1
  Er  Er5  1  0.236333  0.000000  0.750000  1
  Er  Er6  1  0.000000  0.236333  0.750000  1
  Er  Er7  1  0.238035  0.238035  0.250000  1
  Er  Er8  1  0.761965  0.000000  0.250000  1
  Er  Er9  1  0.000000  0.761965  0.250000  1
  In  In10  1  0.606663  0.606663  0.250000  1
  In  In11  1  0.393337  0.000000  0.250000  1
  In  In12  1  0.000000  0.393337  0.250000  1
  Bi  Bi13  1  0.395859  0.395859  0.750000  1
  Bi  Bi14  1  0.604141  0.000000  0.750000  1
  Bi  Bi15  1  0.000000  0.604141  0.750000  1
