# generated using pymatgen
data_Hf5Al16GaIrPt6
_symmetry_space_group_name_H-M   'P 1'
_cell_length_a   8.72192618
_cell_length_b   8.78436412
_cell_length_c   8.78436479
_cell_angle_alpha   59.53029661
_cell_angle_beta   60.23484315
_cell_angle_gamma   60.23485541
_symmetry_Int_Tables_number   1
_chemical_formula_structural   Hf5Al16GaIrPt6
_chemical_formula_sum   'Hf5 Al16 Ga1 Ir1 Pt6'
_cell_volume   475.85485918
_cell_formula_units_Z   1
loop_
 _symmetry_equiv_pos_site_id
 _symmetry_equiv_pos_as_xyz
  1  'x, y, z'
loop_
 _atom_site_type_symbol
 _atom_site_label
 _atom_site_symmetry_multiplicity
 _atom_site_fract_x
 _atom_site_fract_y
 _atom_site_fract_z
 _atom_site_occupancy
  Hf  Hf0  1  0.324355  0.675645  0.675645  1
  Hf  Hf1  1  0.293365  0.706635  0.298008  1
  Hf  Hf2  1  0.701992  0.298008  0.706635  1
  Hf  Hf3  1  0.293365  0.298008  0.706635  1
  Hf  Hf4  1  0.701992  0.706635  0.298008  1
  Al  Al5  1  0.371383  0.336623  0.336623  1
  Al  Al6  1  0.676498  0.656483  0.656483  1
  Al  Al7  1  0.343517  0.323502  0.989463  1
  Al  Al8  1  0.343517  0.989463  0.323502  1
  Al  Al9  1  0.663377  0.628617  0.044628  1
  Al  Al10  1  0.663377  0.044628  0.628617  1
  Al  Al11  1  0.955372  0.336623  0.336623  1
  Al  Al12  1  0.010537  0.656483  0.656483  1
  Al  Al13  1  0.114433  0.117710  0.117710  1
  Al  Al14  1  0.884548  0.872659  0.872659  1
  Al  Al15  1  0.127341  0.115452  0.629867  1
  Al  Al16  1  0.127341  0.629867  0.115452  1
  Al  Al17  1  0.882290  0.885567  0.349852  1
  Al  Al18  1  0.882290  0.349852  0.885567  1
  Al  Al19  1  0.650148  0.117710  0.117710  1
  Al  Al20  1  0.370133  0.872659  0.872659  1
  Ga  Ga21  1  0.561128  0.438872  0.438872  1
  Ir  Ir22  1  0.009988  0.990012  0.990012  1
  Pt  Pt23  1  0.511415  0.988585  0.988585  1
  Pt  Pt24  1  0.011415  0.488585  0.488585  1
  Pt  Pt25  1  0.010231  0.497792  0.989769  1
  Pt  Pt26  1  0.502208  0.989769  0.497792  1
  Pt  Pt27  1  0.010231  0.989769  0.497792  1
  Pt  Pt28  1  0.502208  0.497792  0.989769  1
