# generated using pymatgen
data_Dy2YTm(OsC2)2
_symmetry_space_group_name_H-M   'P 1'
_cell_length_a   5.12272500
_cell_length_b   6.44865968
_cell_length_c   9.76116452
_cell_angle_alpha   90.29824045
_cell_angle_beta   90.00000000
_cell_angle_gamma   90.00000000
_symmetry_Int_Tables_number   1
_chemical_formula_structural   Dy2YTm(OsC2)2
_chemical_formula_sum   'Dy4 Y2 Tm2 Os4 C8'
_cell_volume   322.45287235
_cell_formula_units_Z   2
loop_
 _symmetry_equiv_pos_site_id
 _symmetry_equiv_pos_as_xyz
  1  'x, y, z'
loop_
 _atom_site_type_symbol
 _atom_site_label
 _atom_site_symmetry_multiplicity
 _atom_site_fract_x
 _atom_site_fract_y
 _atom_site_fract_z
 _atom_site_occupancy
  Dy  Dy0  1  0.750000  0.816121  0.053025  1
  Dy  Dy1  1  0.250000  0.183879  0.946975  1
  Dy  Dy2  1  0.250000  0.527123  0.220231  1
  Dy  Dy3  1  0.750000  0.472877  0.779769  1
  Y  Y4  1  0.750000  0.972436  0.715816  1
  Y  Y5  1  0.250000  0.027564  0.284184  1
  Tm  Tm6  1  0.250000  0.678675  0.552760  1
  Tm  Tm7  1  0.750000  0.321325  0.447240  1
  Os  Os8  1  0.250000  0.725497  0.863379  1
  Os  Os9  1  0.750000  0.274503  0.136621  1
  Os  Os10  1  0.750000  0.775156  0.367522  1
  Os  Os11  1  0.250000  0.224844  0.632478  1
  C  C12  1  0.250000  0.460800  0.756447  1
  C  C13  1  0.750000  0.539200  0.243553  1
  C  C14  1  0.750000  0.039781  0.260655  1
  C  C15  1  0.250000  0.960219  0.739345  1
  C  C16  1  0.250000  0.824428  0.051845  1
  C  C17  1  0.750000  0.175572  0.948155  1
  C  C18  1  0.750000  0.669260  0.554137  1
  C  C19  1  0.250000  0.330740  0.445863  1
