# generated using pymatgen
data_Y5Ho3Er8(CdPd)4
_symmetry_space_group_name_H-M   'P 1'
_cell_length_a   9.66244472
_cell_length_b   9.65829445
_cell_length_c   9.65829402
_cell_angle_alpha   60.00948125
_cell_angle_beta   59.98969741
_cell_angle_gamma   59.98969838
_symmetry_Int_Tables_number   1
_chemical_formula_structural   Y5Ho3Er8(CdPd)4
_chemical_formula_sum   'Y5 Ho3 Er8 Cd4 Pd4'
_cell_volume   637.28888466
_cell_formula_units_Z   1
loop_
 _symmetry_equiv_pos_site_id
 _symmetry_equiv_pos_as_xyz
  1  'x, y, z'
loop_
 _atom_site_type_symbol
 _atom_site_label
 _atom_site_symmetry_multiplicity
 _atom_site_fract_x
 _atom_site_fract_y
 _atom_site_fract_z
 _atom_site_occupancy
  Y  Y0  1  0.563377  0.936579  0.936579  1
  Y  Y1  1  0.565657  0.934559  0.564507  1
  Y  Y2  1  0.935273  0.564425  0.934647  1
  Y  Y3  1  0.565657  0.564507  0.934559  1
  Y  Y4  1  0.935273  0.934647  0.564425  1
  Ho  Ho5  1  0.350711  0.354149  0.354149  1
  Ho  Ho6  1  0.353942  0.357443  0.934582  1
  Ho  Ho7  1  0.353942  0.934582  0.357443  1
  Er  Er8  1  0.940988  0.354045  0.354045  1
  Er  Er9  1  0.810312  0.189743  0.189743  1
  Er  Er10  1  0.187620  0.812415  0.812415  1
  Er  Er11  1  0.188003  0.811827  0.189168  1
  Er  Er12  1  0.810975  0.189278  0.811637  1
  Er  Er13  1  0.188003  0.189168  0.811827  1
  Er  Er14  1  0.810975  0.811637  0.189278  1
  Er  Er15  1  0.934728  0.565240  0.565240  1
  Cd  Cd16  1  0.584931  0.580658  0.580658  1
  Cd  Cd17  1  0.583139  0.580051  0.254351  1
  Cd  Cd18  1  0.583139  0.254351  0.580051  1
  Cd  Cd19  1  0.253589  0.580957  0.580957  1
  Pd  Pd20  1  0.145889  0.144511  0.144511  1
  Pd  Pd21  1  0.144145  0.143386  0.567702  1
  Pd  Pd22  1  0.144145  0.567702  0.143386  1
  Pd  Pd23  1  0.565591  0.144138  0.144138  1
