# generated using pymatgen
data_K3B2SbPt6
_symmetry_space_group_name_H-M   'P 1'
_cell_length_a   8.23282145
_cell_length_b   8.23282149
_cell_length_c   8.23281966
_cell_angle_alpha   41.43243266
_cell_angle_beta   41.43243198
_cell_angle_gamma   41.43243362
_symmetry_Int_Tables_number   1
_chemical_formula_structural   K3B2SbPt6
_chemical_formula_sum   'K3 B2 Sb1 Pt6'
_cell_volume   220.78398467
_cell_formula_units_Z   1
loop_
 _symmetry_equiv_pos_site_id
 _symmetry_equiv_pos_as_xyz
  1  'x, y, z'
loop_
 _atom_site_type_symbol
 _atom_site_label
 _atom_site_symmetry_multiplicity
 _atom_site_fract_x
 _atom_site_fract_y
 _atom_site_fract_z
 _atom_site_occupancy
  K  K0  1  0.860610  0.860610  0.860610  1
  K  K1  1  0.139390  0.139390  0.139390  1
  K  K2  1  0.000000  0.000000  0.000000  1
  B  B3  1  0.669338  0.669338  0.669338  1
  B  B4  1  0.330662  0.330662  0.330662  1
  Sb  Sb5  1  0.500000  0.500000  0.500000  1
  Pt  Pt6  1  0.437856  0.934709  0.437856  1
  Pt  Pt7  1  0.437856  0.437856  0.934709  1
  Pt  Pt8  1  0.934709  0.437856  0.437856  1
  Pt  Pt9  1  0.562144  0.065291  0.562144  1
  Pt  Pt10  1  0.562144  0.562144  0.065291  1
  Pt  Pt11  1  0.065291  0.562144  0.562144  1
