# generated using pymatgen
data_Y5TmSi11GePt8
_symmetry_space_group_name_H-M   'P 1'
_cell_length_a   4.27183100
_cell_length_b   8.57846348
_cell_length_c   12.95421706
_cell_angle_alpha   80.30758613
_cell_angle_beta   90.00000000
_cell_angle_gamma   90.00000000
_symmetry_Int_Tables_number   1
_chemical_formula_structural   Y5TmSi11GePt8
_chemical_formula_sum   'Y5 Tm1 Si11 Ge1 Pt8'
_cell_volume   467.94073166
_cell_formula_units_Z   1
loop_
 _symmetry_equiv_pos_site_id
 _symmetry_equiv_pos_as_xyz
  1  'x, y, z'
loop_
 _atom_site_type_symbol
 _atom_site_label
 _atom_site_symmetry_multiplicity
 _atom_site_fract_x
 _atom_site_fract_y
 _atom_site_fract_z
 _atom_site_occupancy
  Y  Y0  1  0.250000  0.585135  0.183855  1
  Y  Y1  1  0.750000  0.234184  0.561993  1
  Y  Y2  1  0.750000  0.416197  0.814994  1
  Y  Y3  1  0.750000  0.926947  0.816468  1
  Y  Y4  1  0.250000  0.074227  0.183444  1
  Tm  Tm5  1  0.250000  0.763974  0.439348  1
  Si  Si6  1  0.750000  0.588671  0.572377  1
  Si  Si7  1  0.750000  0.127424  0.003994  1
  Si  Si8  1  0.750000  0.871620  0.575128  1
  Si  Si9  1  0.250000  0.698213  0.714831  1
  Si  Si10  1  0.750000  0.305395  0.284568  1
  Si  Si11  1  0.750000  0.807852  0.275848  1
  Si  Si12  1  0.250000  0.873432  0.995370  1
  Si  Si13  1  0.250000  0.194330  0.724066  1
  Si  Si14  1  0.250000  0.378680  0.001548  1
  Si  Si15  1  0.250000  0.114968  0.429916  1
  Si  Si16  1  0.750000  0.621951  0.997835  1
  Ge  Ge17  1  0.250000  0.405659  0.426054  1
  Pt  Pt18  1  0.750000  0.352471  0.097721  1
  Pt  Pt19  1  0.250000  0.971143  0.623761  1
  Pt  Pt20  1  0.750000  0.850505  0.087486  1
  Pt  Pt21  1  0.750000  0.029330  0.374982  1
  Pt  Pt22  1  0.250000  0.648198  0.901978  1
  Pt  Pt23  1  0.250000  0.150497  0.912117  1
  Pt  Pt24  1  0.750000  0.539802  0.373238  1
  Pt  Pt25  1  0.250000  0.469193  0.627083  1
