# generated using pymatgen
data_Tb2Ho10AlCo4Pb
_symmetry_space_group_name_H-M   'P 1'
_cell_length_a   8.31643139
_cell_length_b   8.33947937
_cell_length_c   8.33947854
_cell_angle_alpha   112.13055738
_cell_angle_beta   109.30539884
_cell_angle_gamma   107.12188804
_symmetry_Int_Tables_number   1
_chemical_formula_structural   Tb2Ho10AlCo4Pb
_chemical_formula_sum   'Tb2 Ho10 Al1 Co4 Pb1'
_cell_volume   443.80306799
_cell_formula_units_Z   1
loop_
 _symmetry_equiv_pos_site_id
 _symmetry_equiv_pos_as_xyz
  1  'x, y, z'
loop_
 _atom_site_type_symbol
 _atom_site_label
 _atom_site_symmetry_multiplicity
 _atom_site_fract_x
 _atom_site_fract_y
 _atom_site_fract_z
 _atom_site_occupancy
  Tb  Tb0  1  0.969623  0.266919  0.702705  1
  Tb  Tb1  1  0.030377  0.733081  0.297295  1
  Ho  Ho2  1  0.674954  0.860936  0.184183  1
  Ho  Ho3  1  0.325046  0.509228  0.185981  1
  Ho  Ho4  1  0.325046  0.139064  0.815817  1
  Ho  Ho5  1  0.674954  0.490772  0.814019  1
  Ho  Ho6  1  0.563673  0.266308  0.297365  1
  Ho  Ho7  1  0.436327  0.733692  0.702635  1
  Ho  Ho8  1  0.179866  0.781543  0.960501  1
  Ho  Ho9  1  0.820134  0.780635  0.601677  1
  Ho  Ho10  1  0.179866  0.219365  0.398323  1
  Ho  Ho11  1  0.820134  0.218457  0.039499  1
  Al  Al12  1  0.000000  0.500000  0.500000  1
  Co  Co13  1  0.115108  0.114001  0.001109  1
  Co  Co14  1  0.884892  0.885999  0.998891  1
  Co  Co15  1  0.662344  0.499469  0.162875  1
  Co  Co16  1  0.337656  0.500531  0.837125  1
  Pb  Pb17  1  0.500000  0.000000  0.500000  1
