# generated using pymatgen
data_YbPr3Sn2Rh3
_symmetry_space_group_name_H-M   'P 1'
_cell_length_a   7.62978200
_cell_length_b   7.59585819
_cell_length_c   4.28784100
_cell_angle_alpha   90.00000000
_cell_angle_beta   90.00000000
_cell_angle_gamma   120.14784745
_symmetry_Int_Tables_number   1
_chemical_formula_structural   YbPr3Sn2Rh3
_chemical_formula_sum   'Yb1 Pr3 Sn2 Rh3'
_cell_volume   214.88660106
_cell_formula_units_Z   1
loop_
 _symmetry_equiv_pos_site_id
 _symmetry_equiv_pos_as_xyz
  1  'x, y, z'
loop_
 _atom_site_type_symbol
 _atom_site_label
 _atom_site_symmetry_multiplicity
 _atom_site_fract_x
 _atom_site_fract_y
 _atom_site_fract_z
 _atom_site_occupancy
  Yb  Yb0  1  0.241681  0.000000  0.000000  1
  Pr  Pr1  1  0.610659  0.000000  0.500000  1
  Pr  Pr2  1  0.411260  0.434017  0.500000  1
  Pr  Pr3  1  0.977243  0.565983  0.500000  1
  Sn  Sn4  1  0.753316  0.747112  0.000000  1
  Sn  Sn5  1  0.006204  0.252888  0.000000  1
  Rh  Rh6  1  0.982736  0.000000  0.500000  1
  Rh  Rh7  1  0.340715  0.664532  0.000000  1
  Rh  Rh8  1  0.676184  0.335468  0.000000  1
