# generated using pymatgen
data_YEr3As3S
_symmetry_space_group_name_H-M   'P 1'
_cell_length_a   6.98551517
_cell_length_b   6.98551372
_cell_length_c   7.00203000
_cell_angle_alpha   80.37418953
_cell_angle_beta   80.37419987
_cell_angle_gamma   33.76011962
_symmetry_Int_Tables_number   1
_chemical_formula_structural   YEr3As3S
_chemical_formula_sum   'Y1 Er3 As3 S1'
_cell_volume   186.95653583
_cell_formula_units_Z   1
loop_
 _symmetry_equiv_pos_site_id
 _symmetry_equiv_pos_as_xyz
  1  'x, y, z'
loop_
 _atom_site_type_symbol
 _atom_site_label
 _atom_site_symmetry_multiplicity
 _atom_site_fract_x
 _atom_site_fract_y
 _atom_site_fract_z
 _atom_site_occupancy
  Y  Y0  1  0.000047  0.000047  0.999470  1
  Er  Er1  1  0.250079  0.250079  0.249411  1
  Er  Er2  1  0.500088  0.500088  0.500863  1
  Er  Er3  1  0.749764  0.749764  0.750499  1
  As  As4  1  0.625815  0.625815  0.124329  1
  As  As5  1  0.874637  0.874637  0.376724  1
  As  As6  1  0.125880  0.125880  0.625405  1
  S  S7  1  0.373689  0.373689  0.873301  1
