# generated using pymatgen
data_Tb3Hf(Ga3Rh)6
_symmetry_space_group_name_H-M   'P 1'
_cell_length_a   7.55277424
_cell_length_b   7.54470464
_cell_length_c   9.47270000
_cell_angle_alpha   90.00000000
_cell_angle_beta   90.00000000
_cell_angle_gamma   119.74265931
_symmetry_Int_Tables_number   1
_chemical_formula_structural   Tb3Hf(Ga3Rh)6
_chemical_formula_sum   'Tb3 Hf1 Ga18 Rh6'
_cell_volume   468.67686362
_cell_formula_units_Z   1
loop_
 _symmetry_equiv_pos_site_id
 _symmetry_equiv_pos_as_xyz
  1  'x, y, z'
loop_
 _atom_site_type_symbol
 _atom_site_label
 _atom_site_symmetry_multiplicity
 _atom_site_fract_x
 _atom_site_fract_y
 _atom_site_fract_z
 _atom_site_occupancy
  Tb  Tb0  1  0.003474  0.329300  0.750000  1
  Tb  Tb1  1  0.669963  0.998207  0.250000  1
  Tb  Tb2  1  0.330811  0.003367  0.750000  1
  Hf  Hf3  1  0.996775  0.670109  0.250000  1
  Ga  Ga4  1  0.336374  0.548721  0.250000  1
  Ga  Ga5  1  0.661667  0.452528  0.750000  1
  Ga  Ga6  1  0.552095  0.340734  0.250000  1
  Ga  Ga7  1  0.451008  0.660209  0.750000  1
  Ga  Ga8  1  0.000294  0.340026  0.083549  1
  Ga  Ga9  1  0.999889  0.664924  0.924066  1
  Ga  Ga10  1  0.999889  0.664924  0.575934  1
  Ga  Ga11  1  0.330107  0.996131  0.416212  1
  Ga  Ga12  1  0.000294  0.340026  0.416451  1
  Ga  Ga13  1  0.665163  0.998704  0.579342  1
  Ga  Ga14  1  0.665163  0.998704  0.920658  1
  Ga  Ga15  1  0.330107  0.996131  0.083788  1
  Ga  Ga16  1  0.333574  0.333179  0.563036  1
  Ga  Ga17  1  0.671346  0.668005  0.429306  1
  Ga  Ga18  1  0.671346  0.668005  0.070694  1
  Ga  Ga19  1  0.333574  0.333179  0.936964  1
  Ga  Ga20  1  0.124809  0.124321  0.250000  1
  Ga  Ga21  1  0.872245  0.871129  0.750000  1
  Rh  Rh22  1  0.672108  0.328657  0.001688  1
  Rh  Rh23  1  0.328294  0.672088  0.002043  1
  Rh  Rh24  1  0.328294  0.672088  0.497957  1
  Rh  Rh25  1  0.672108  0.328657  0.498312  1
  Rh  Rh26  1  0.999615  0.998972  0.001734  1
  Rh  Rh27  1  0.999615  0.998972  0.498266  1
