# generated using pymatgen
data_TlCu4PS2
_symmetry_space_group_name_H-M   'P 1'
_cell_length_a   3.87507200
_cell_length_b   3.87507200
_cell_length_c   9.50601000
_cell_angle_alpha   90.00000000
_cell_angle_beta   90.00000000
_cell_angle_gamma   90.00000000
_symmetry_Int_Tables_number   1
_chemical_formula_structural   TlCu4PS2
_chemical_formula_sum   'Tl1 Cu4 P1 S2'
_cell_volume   142.74398581
_cell_formula_units_Z   1
loop_
 _symmetry_equiv_pos_site_id
 _symmetry_equiv_pos_as_xyz
  1  'x, y, z'
loop_
 _atom_site_type_symbol
 _atom_site_label
 _atom_site_symmetry_multiplicity
 _atom_site_fract_x
 _atom_site_fract_y
 _atom_site_fract_z
 _atom_site_occupancy
  Tl  Tl0  1  0.000000  0.000000  0.500000  1
  Cu  Cu1  1  0.000000  0.500000  0.855616  1
  Cu  Cu2  1  0.500000  0.000000  0.855616  1
  Cu  Cu3  1  0.000000  0.500000  0.144384  1
  Cu  Cu4  1  0.500000  0.000000  0.144384  1
  P  P5  1  0.000000  0.000000  0.000000  1
  S  S6  1  0.500000  0.500000  0.715650  1
  S  S7  1  0.500000  0.500000  0.284350  1
