# generated using pymatgen
data_Ba4PaSe6
_symmetry_space_group_name_H-M   'P 1'
_cell_length_a   9.12623034
_cell_length_b   9.12622900
_cell_length_c   9.12623061
_cell_angle_alpha   89.54722233
_cell_angle_beta   89.54722388
_cell_angle_gamma   89.54722961
_symmetry_Int_Tables_number   1
_chemical_formula_structural   Ba4PaSe6
_chemical_formula_sum   'Ba8 Pa2 Se12'
_cell_volume   760.03528841
_cell_formula_units_Z   2
loop_
 _symmetry_equiv_pos_site_id
 _symmetry_equiv_pos_as_xyz
  1  'x, y, z'
loop_
 _atom_site_type_symbol
 _atom_site_label
 _atom_site_symmetry_multiplicity
 _atom_site_fract_x
 _atom_site_fract_y
 _atom_site_fract_z
 _atom_site_occupancy
  Ba  Ba0  1  0.874816  0.625184  0.250000  1
  Ba  Ba1  1  0.250000  0.874816  0.625184  1
  Ba  Ba2  1  0.625184  0.250000  0.874816  1
  Ba  Ba3  1  0.750000  0.125184  0.374816  1
  Ba  Ba4  1  0.374816  0.750000  0.125184  1
  Ba  Ba5  1  0.125184  0.374816  0.750000  1
  Ba  Ba6  1  0.250000  0.250000  0.250000  1
  Ba  Ba7  1  0.750000  0.750000  0.750000  1
  Pa  Pa8  1  0.500000  0.500000  0.500000  1
  Pa  Pa9  1  0.000000  0.000000  0.000000  1
  Se  Se10  1  0.201205  0.561197  0.423324  1
  Se  Se11  1  0.423324  0.201205  0.561197  1
  Se  Se12  1  0.561197  0.423324  0.201205  1
  Se  Se13  1  0.923324  0.061197  0.701205  1
  Se  Se14  1  0.701205  0.923324  0.061197  1
  Se  Se15  1  0.061197  0.701205  0.923324  1
  Se  Se16  1  0.798795  0.438803  0.576676  1
  Se  Se17  1  0.576676  0.798795  0.438803  1
  Se  Se18  1  0.438803  0.576676  0.798795  1
  Se  Se19  1  0.076676  0.938803  0.298795  1
  Se  Se20  1  0.298795  0.076676  0.938803  1
  Se  Se21  1  0.938803  0.298795  0.076676  1
