# generated using pymatgen
data_HoEr3Se4
_symmetry_space_group_name_H-M   'P 1'
_cell_length_a   13.12522327
_cell_length_b   13.12522413
_cell_length_c   13.12522287
_cell_angle_alpha   17.95436050
_cell_angle_beta   17.95436576
_cell_angle_gamma   17.95436090
_symmetry_Int_Tables_number   1
_chemical_formula_structural   HoEr3Se4
_chemical_formula_sum   'Ho1 Er3 Se4'
_cell_volume   187.59533023
_cell_formula_units_Z   1
loop_
 _symmetry_equiv_pos_site_id
 _symmetry_equiv_pos_as_xyz
  1  'x, y, z'
loop_
 _atom_site_type_symbol
 _atom_site_label
 _atom_site_symmetry_multiplicity
 _atom_site_fract_x
 _atom_site_fract_y
 _atom_site_fract_z
 _atom_site_occupancy
  Ho  Ho0  1  0.000000  0.000000  0.000000  1
  Er  Er1  1  0.250420  0.250420  0.250420  1
  Er  Er2  1  0.500000  0.500000  0.500000  1
  Er  Er3  1  0.749580  0.749580  0.749580  1
  Se  Se4  1  0.375190  0.375190  0.375190  1
  Se  Se5  1  0.124852  0.124852  0.124852  1
  Se  Se6  1  0.624810  0.624810  0.624810  1
  Se  Se7  1  0.875148  0.875148  0.875148  1
