# generated using pymatgen
data_Sm2Be24CuNi
_symmetry_space_group_name_H-M   'P 1'
_cell_length_a   7.28297998
_cell_length_b   7.30854921
_cell_length_c   7.28639977
_cell_angle_alpha   60.54041645
_cell_angle_beta   60.21724241
_cell_angle_gamma   59.91517801
_symmetry_Int_Tables_number   1
_chemical_formula_structural   Sm2Be24CuNi
_chemical_formula_sum   'Sm2 Be24 Cu1 Ni1'
_cell_volume   275.62095710
_cell_formula_units_Z   1
loop_
 _symmetry_equiv_pos_site_id
 _symmetry_equiv_pos_as_xyz
  1  'x, y, z'
loop_
 _atom_site_type_symbol
 _atom_site_label
 _atom_site_symmetry_multiplicity
 _atom_site_fract_x
 _atom_site_fract_y
 _atom_site_fract_z
 _atom_site_occupancy
  Sm  Sm0  1  0.249614  0.250007  0.253117  1
  Sm  Sm1  1  0.752738  0.746883  0.749993  1
  Be  Be2  1  0.996827  0.998633  0.001367  1
  Be  Be3  1  0.500807  0.498639  0.501361  1
  Be  Be4  1  0.065892  0.290877  0.709123  1
  Be  Be5  1  0.932816  0.711953  0.288047  1
  Be  Be6  1  0.933754  0.292582  0.065057  1
  Be  Be7  1  0.209744  0.440299  0.786314  1
  Be  Be8  1  0.063633  0.709272  0.935504  1
  Be  Be9  1  0.788006  0.564167  0.211832  1
  Be  Be10  1  0.708408  0.064497  0.290729  1
  Be  Be11  1  0.436358  0.213684  0.559702  1
  Be  Be12  1  0.291393  0.934943  0.707418  1
  Be  Be13  1  0.564006  0.788169  0.435832  1
  Be  Be14  1  0.059290  0.934161  0.298718  1
  Be  Be15  1  0.569628  0.216398  0.783603  1
  Be  Be16  1  0.938426  0.064648  0.705350  1
  Be  Be17  1  0.434411  0.781563  0.218437  1
  Be  Be18  1  0.708422  0.294650  0.935353  1
  Be  Be19  1  0.209500  0.565124  0.434877  1
  Be  Be20  1  0.292170  0.701282  0.065838  1
  Be  Be21  1  0.791129  0.435272  0.564727  1
  Be  Be22  1  0.787751  0.216111  0.431377  1
  Be  Be23  1  0.212638  0.784910  0.566518  1
  Be  Be24  1  0.564067  0.433482  0.215089  1
  Be  Be25  1  0.435238  0.568622  0.783890  1
  Cu  Cu26  1  0.300581  0.058735  0.941263  1
  Ni  Ni27  1  0.702752  0.940436  0.059563  1
