# generated using pymatgen
data_Sr2TbSi5PPd20
_symmetry_space_group_name_H-M   'P 1'
_cell_length_a   8.78516534
_cell_length_b   8.78516509
_cell_length_c   8.78391300
_cell_angle_alpha   60.00471830
_cell_angle_beta   60.00471923
_cell_angle_gamma   59.99056604
_symmetry_Int_Tables_number   1
_chemical_formula_structural   Sr2TbSi5PPd20
_chemical_formula_sum   'Sr2 Tb1 Si5 P1 Pd20'
_cell_volume   479.37224876
_cell_formula_units_Z   1
loop_
 _symmetry_equiv_pos_site_id
 _symmetry_equiv_pos_as_xyz
  1  'x, y, z'
loop_
 _atom_site_type_symbol
 _atom_site_label
 _atom_site_symmetry_multiplicity
 _atom_site_fract_x
 _atom_site_fract_y
 _atom_site_fract_z
 _atom_site_occupancy
  Sr  Sr0  1  0.249485  0.249485  0.250515  1
  Sr  Sr1  1  0.749485  0.749485  0.750515  1
  Tb  Tb2  1  0.001138  0.001138  0.998862  1
  Si  Si3  1  0.731890  0.266784  0.268110  1
  Si  Si4  1  0.266784  0.731890  0.733216  1
  Si  Si5  1  0.266784  0.731890  0.268110  1
  Si  Si6  1  0.731890  0.266784  0.733216  1
  Si  Si7  1  0.268038  0.268038  0.731962  1
  P  P8  1  0.733549  0.733549  0.266451  1
  Pd  Pd9  1  0.386502  0.386502  0.386419  1
  Pd  Pd10  1  0.613582  0.613582  0.611579  1
  Pd  Pd11  1  0.386502  0.386502  0.840577  1
  Pd  Pd12  1  0.388421  0.838743  0.386418  1
  Pd  Pd13  1  0.613582  0.613582  0.161257  1
  Pd  Pd14  1  0.613581  0.159423  0.613498  1
  Pd  Pd15  1  0.838743  0.388421  0.386418  1
  Pd  Pd16  1  0.159423  0.613581  0.613498  1
  Pd  Pd17  1  0.343560  0.000003  0.999997  1
  Pd  Pd18  1  0.656778  0.998397  0.001603  1
  Pd  Pd19  1  0.000003  0.343560  0.656440  1
  Pd  Pd20  1  0.998397  0.656778  0.343222  1
  Pd  Pd21  1  0.000003  0.343560  0.999997  1
  Pd  Pd22  1  0.656778  0.998397  0.343222  1
  Pd  Pd23  1  0.998397  0.656778  0.001603  1
  Pd  Pd24  1  0.343560  0.000003  0.656440  1
  Pd  Pd25  1  0.000786  0.000786  0.343239  1
  Pd  Pd26  1  0.000786  0.000786  0.655190  1
  Pd  Pd27  1  0.656761  0.344810  0.999214  1
  Pd  Pd28  1  0.344810  0.656761  0.999214  1
