# generated using pymatgen
data_Pa5Ti2P12Ir11Ru6
_symmetry_space_group_name_H-M   'P 1'
_cell_length_a   12.78486621
_cell_length_b   12.65415243
_cell_length_c   3.97169200
_cell_angle_alpha   90.00000000
_cell_angle_beta   90.00000000
_cell_angle_gamma   119.74741523
_symmetry_Int_Tables_number   1
_chemical_formula_structural   Pa5Ti2P12Ir11Ru6
_chemical_formula_sum   'Pa5 Ti2 P12 Ir11 Ru6'
_cell_volume   557.87281264
_cell_formula_units_Z   1
loop_
 _symmetry_equiv_pos_site_id
 _symmetry_equiv_pos_as_xyz
  1  'x, y, z'
loop_
 _atom_site_type_symbol
 _atom_site_label
 _atom_site_symmetry_multiplicity
 _atom_site_fract_x
 _atom_site_fract_y
 _atom_site_fract_z
 _atom_site_occupancy
  Pa  Pa0  1  0.664211  0.329422  0.000000  1
  Pa  Pa1  1  0.338970  0.670282  0.000000  1
  Pa  Pa2  1  0.814095  0.000484  0.500000  1
  Pa  Pa3  1  0.181713  0.183125  0.500000  1
  Pa  Pa4  1  0.999545  0.816472  0.500000  1
  Ti  Ti5  1  0.443451  0.999101  0.000000  1
  Ti  Ti6  1  0.552954  0.551791  0.000000  1
  P  P7  1  0.633277  0.000100  0.000000  1
  P  P8  1  0.365148  0.367355  0.000000  1
  P  P9  1  0.000278  0.634628  0.000000  1
  P  P10  1  0.683843  0.520077  0.500000  1
  P  P11  1  0.832035  0.308276  0.500000  1
  P  P12  1  0.320937  0.838745  0.500000  1
  P  P13  1  0.524886  0.686811  0.500000  1
  P  P14  1  0.177995  0.999038  0.000000  1
  P  P15  1  0.820784  0.820291  0.000000  1
  P  P16  1  0.997221  0.182263  0.000000  1
  P  P17  1  0.474911  0.159611  0.500000  1
  P  P18  1  0.168275  0.480285  0.500000  1
  Ir  Ir19  1  0.629689  0.807227  0.000000  1
  Ir  Ir20  1  0.180019  0.376339  0.000000  1
  Ir  Ir21  1  0.367998  0.179668  0.000000  1
  Ir  Ir22  1  0.189270  0.816405  0.000000  1
  Ir  Ir23  1  0.809135  0.623265  0.000000  1
  Ir  Ir24  1  0.865335  0.504422  0.500000  1
  Ir  Ir25  1  0.492909  0.356270  0.500000  1
  Ir  Ir26  1  0.639041  0.130826  0.500000  1
  Ir  Ir27  1  0.135715  0.642256  0.500000  1
  Ir  Ir28  1  0.360857  0.491955  0.500000  1
  Ir  Ir29  1  0.999626  0.001528  0.000000  1
  Ru  Ru30  1  0.511602  0.866648  0.500000  1
  Ru  Ru31  1  0.722217  0.718318  0.500000  1
  Ru  Ru32  1  0.001534  0.286444  0.500000  1
  Ru  Ru33  1  0.001011  0.454564  0.000000  1
  Ru  Ru34  1  0.821272  0.198180  0.000000  1
  Ru  Ru35  1  0.278240  0.997524  0.500000  1
