# generated using pymatgen
data_HoTm2In3Cu2Pt
_symmetry_space_group_name_H-M   'P 1'
_cell_length_a   7.56195882
_cell_length_b   7.58762164
_cell_length_c   3.80632000
_cell_angle_alpha   90.00000000
_cell_angle_beta   90.00000000
_cell_angle_gamma   120.13570797
_symmetry_Int_Tables_number   1
_chemical_formula_structural   HoTm2In3Cu2Pt
_chemical_formula_sum   'Ho1 Tm2 In3 Cu2 Pt1'
_cell_volume   188.87757019
_cell_formula_units_Z   1
loop_
 _symmetry_equiv_pos_site_id
 _symmetry_equiv_pos_as_xyz
  1  'x, y, z'
loop_
 _atom_site_type_symbol
 _atom_site_label
 _atom_site_symmetry_multiplicity
 _atom_site_fract_x
 _atom_site_fract_y
 _atom_site_fract_z
 _atom_site_occupancy
  Ho  Ho0  1  0.402152  0.413305  0.500000  1
  Tm  Tm1  1  0.586320  0.987637  0.500000  1
  Tm  Tm2  1  0.012462  0.599087  0.500000  1
  In  In3  1  0.987613  0.251625  0.000000  1
  In  In4  1  0.748966  0.737109  0.000000  1
  In  In5  1  0.262872  0.010990  0.000000  1
  Cu  Cu6  1  0.667601  0.332384  0.000000  1
  Cu  Cu7  1  0.999205  0.999866  0.500000  1
  Pt  Pt8  1  0.332809  0.667996  0.000000  1
