# generated using pymatgen
data_La4PrGd3(TeO6)4
_symmetry_space_group_name_H-M   'P 1'
_cell_length_a   5.51007025
_cell_length_b   9.43566759
_cell_length_c   10.33803600
_cell_angle_alpha   90.07076897
_cell_angle_beta   89.85718432
_cell_angle_gamma   89.86254970
_symmetry_Int_Tables_number   1
_chemical_formula_structural   La4PrGd3(TeO6)4
_chemical_formula_sum   'La4 Pr1 Gd3 Te4 O24'
_cell_volume   537.48317747
_cell_formula_units_Z   1
loop_
 _symmetry_equiv_pos_site_id
 _symmetry_equiv_pos_as_xyz
  1  'x, y, z'
loop_
 _atom_site_type_symbol
 _atom_site_label
 _atom_site_symmetry_multiplicity
 _atom_site_fract_x
 _atom_site_fract_y
 _atom_site_fract_z
 _atom_site_occupancy
  La  La0  1  0.029053  0.218896  0.142499  1
  La  La1  1  0.468654  0.780372  0.642571  1
  La  La2  1  0.968855  0.717825  0.357336  1
  La  La3  1  0.532646  0.281028  0.859144  1
  Pr  Pr4  1  0.524340  0.392682  0.456913  1
  Gd  Gd5  1  0.016023  0.099752  0.544286  1
  Gd  Gd6  1  0.479586  0.896653  0.043187  1
  Gd  Gd7  1  0.979449  0.604738  0.956011  1
  Te  Te8  1  0.532243  0.005999  0.357360  1
  Te  Te9  1  0.965503  0.991295  0.858223  1
  Te  Te10  1  0.463646  0.509871  0.139527  1
  Te  Te11  1  0.038251  0.493079  0.644444  1
  O  O12  1  0.395344  0.150879  0.470894  1
  O  O13  1  0.099751  0.842229  0.967695  1
  O  O14  1  0.597105  0.658877  0.029580  1
  O  O15  1  0.921417  0.340808  0.532592  1
  O  O16  1  0.724979  0.391985  0.064007  1
  O  O17  1  0.774263  0.605947  0.565586  1
  O  O18  1  0.274676  0.887370  0.433427  1
  O  O19  1  0.225039  0.108008  0.935477  1
  O  O20  1  0.258777  0.425338  0.002543  1
  O  O21  1  0.240193  0.581040  0.507627  1
  O  O22  1  0.740196  0.921052  0.493684  1
  O  O23  1  0.759164  0.076303  0.995756  1
  O  O24  1  0.195088  0.642807  0.168331  1
  O  O25  1  0.311078  0.364516  0.676328  1
  O  O26  1  0.795677  0.143962  0.332312  1
  O  O27  1  0.696107  0.859360  0.830653  1
  O  O28  1  0.332681  0.050392  0.208899  1
  O  O29  1  0.163687  0.948327  0.708117  1
  O  O30  1  0.663165  0.554205  0.287473  1
  O  O31  1  0.838194  0.448512  0.792570  1
  O  O32  1  0.321058  0.367465  0.251233  1
  O  O33  1  0.170854  0.637529  0.757005  1
  O  O34  1  0.678025  0.867935  0.242347  1
  O  O35  1  0.825234  0.132963  0.744365  1
