# generated using pymatgen
data_LaTbYTaO7
_symmetry_space_group_name_H-M   'P 1'
_cell_length_a   6.55009817
_cell_length_b   6.55009699
_cell_length_c   7.65557900
_cell_angle_alpha   90.00000000
_cell_angle_beta   90.00000000
_cell_angle_gamma   109.05533652
_symmetry_Int_Tables_number   1
_chemical_formula_structural   LaTbYTaO7
_chemical_formula_sum   'La2 Tb2 Y2 Ta2 O14'
_cell_volume   310.45524000
_cell_formula_units_Z   2
loop_
 _symmetry_equiv_pos_site_id
 _symmetry_equiv_pos_as_xyz
  1  'x, y, z'
loop_
 _atom_site_type_symbol
 _atom_site_label
 _atom_site_symmetry_multiplicity
 _atom_site_fract_x
 _atom_site_fract_y
 _atom_site_fract_z
 _atom_site_occupancy
  La  La0  1  0.499870  0.499870  0.500000  1
  La  La1  1  0.499870  0.499870  0.000000  1
  Tb  Tb2  1  0.533176  0.000760  0.750000  1
  Tb  Tb3  1  0.000760  0.533176  0.250000  1
  Y  Y4  1  0.467653  0.999184  0.250000  1
  Y  Y5  1  0.999184  0.467653  0.750000  1
  Ta  Ta6  1  0.999880  0.999880  0.500000  1
  Ta  Ta7  1  0.999880  0.999880  0.000000  1
  O  O8  1  0.682448  0.933918  0.467871  1
  O  O9  1  0.933918  0.682448  0.532129  1
  O  O10  1  0.682448  0.933918  0.032129  1
  O  O11  1  0.933918  0.682448  0.967871  1
  O  O12  1  0.317702  0.066166  0.531906  1
  O  O13  1  0.066166  0.317702  0.468094  1
  O  O14  1  0.317702  0.066166  0.968094  1
  O  O15  1  0.066166  0.317702  0.031906  1
  O  O16  1  0.938148  0.061790  0.750000  1
  O  O17  1  0.061790  0.938148  0.250000  1
  O  O18  1  0.362290  0.636024  0.750000  1
  O  O19  1  0.636024  0.362290  0.250000  1
  O  O20  1  0.644138  0.356870  0.750000  1
  O  O21  1  0.356870  0.644138  0.250000  1
