# generated using pymatgen
data_Dy5Zr3Si3P9Ir16
_symmetry_space_group_name_H-M   'P 1'
_cell_length_a   12.94422776
_cell_length_b   12.98859124
_cell_length_c   3.96396300
_cell_angle_alpha   90.00000000
_cell_angle_beta   90.00000000
_cell_angle_gamma   120.17804227
_symmetry_Int_Tables_number   1
_chemical_formula_structural   Dy5Zr3Si3P9Ir16
_chemical_formula_sum   'Dy5 Zr3 Si3 P9 Ir16'
_cell_volume   576.12465981
_cell_formula_units_Z   1
loop_
 _symmetry_equiv_pos_site_id
 _symmetry_equiv_pos_as_xyz
  1  'x, y, z'
loop_
 _atom_site_type_symbol
 _atom_site_label
 _atom_site_symmetry_multiplicity
 _atom_site_fract_x
 _atom_site_fract_y
 _atom_site_fract_z
 _atom_site_occupancy
  Dy  Dy0  1  0.332350  0.666801  0.500000  1
  Dy  Dy1  1  0.667007  0.334586  0.500000  1
  Dy  Dy2  1  0.001366  0.814309  0.000000  1
  Dy  Dy3  1  0.184250  0.184542  0.000000  1
  Dy  Dy4  1  0.812138  0.999604  0.000000  1
  Zr  Zr5  1  0.998789  0.439966  0.500000  1
  Zr  Zr6  1  0.557932  0.556662  0.500000  1
  Zr  Zr7  1  0.447081  0.002615  0.500000  1
  Si  Si8  1  0.001683  0.646292  0.500000  1
  Si  Si9  1  0.351846  0.352441  0.500000  1
  Si  Si10  1  0.517849  0.689336  0.000000  1
  P  P11  1  0.645134  0.996502  0.500000  1
  P  P12  1  0.311673  0.829139  0.000000  1
  P  P13  1  0.171671  0.480787  0.000000  1
  P  P14  1  0.481254  0.173168  0.000000  1
  P  P15  1  0.690367  0.518845  0.000000  1
  P  P16  1  0.829624  0.312981  0.000000  1
  P  P17  1  0.998288  0.174645  0.500000  1
  P  P18  1  0.823800  0.823704  0.500000  1
  P  P19  1  0.176502  0.999545  0.500000  1
  Ir  Ir20  1  0.512428  0.873818  0.000000  1
  Ir  Ir21  1  0.131542  0.640571  0.000000  1
  Ir  Ir22  1  0.358021  0.485702  0.000000  1
  Ir  Ir23  1  0.489872  0.359302  0.000000  1
  Ir  Ir24  1  0.871160  0.512206  0.000000  1
  Ir  Ir25  1  0.641190  0.139403  0.000000  1
  Ir  Ir26  1  0.996264  0.273901  0.000000  1
  Ir  Ir27  1  0.725989  0.725005  0.000000  1
  Ir  Ir28  1  0.276878  0.000154  0.000000  1
  Ir  Ir29  1  0.628562  0.807332  0.500000  1
  Ir  Ir30  1  0.196374  0.822887  0.500000  1
  Ir  Ir31  1  0.174980  0.369536  0.500000  1
  Ir  Ir32  1  0.371616  0.177606  0.500000  1
  Ir  Ir33  1  0.806864  0.628087  0.500000  1
  Ir  Ir34  1  0.817629  0.188237  0.500000  1
  Ir  Ir35  1  0.000029  0.999783  0.500000  1
