# generated using pymatgen
data_TbHo7(WC2)4
_symmetry_space_group_name_H-M   'P 1'
_cell_length_a   5.73072253
_cell_length_b   5.73072266
_cell_length_c   9.84109980
_cell_angle_alpha   89.90867044
_cell_angle_beta   89.90866805
_cell_angle_gamma   89.96698375
_symmetry_Int_Tables_number   1
_chemical_formula_structural   TbHo7(WC2)4
_chemical_formula_sum   'Tb1 Ho7 W4 C8'
_cell_volume   323.19246968
_cell_formula_units_Z   1
loop_
 _symmetry_equiv_pos_site_id
 _symmetry_equiv_pos_as_xyz
  1  'x, y, z'
loop_
 _atom_site_type_symbol
 _atom_site_label
 _atom_site_symmetry_multiplicity
 _atom_site_fract_x
 _atom_site_fract_y
 _atom_site_fract_z
 _atom_site_occupancy
  Tb  Tb0  1  0.799735  0.799735  0.657726  1
  Ho  Ho1  1  0.200157  0.200157  0.342012  1
  Ho  Ho2  1  0.300804  0.700782  0.842839  1
  Ho  Ho3  1  0.700782  0.300804  0.842839  1
  Ho  Ho4  1  0.700977  0.300240  0.157900  1
  Ho  Ho5  1  0.300240  0.700977  0.157900  1
  Ho  Ho6  1  0.199769  0.199769  0.657315  1
  Ho  Ho7  1  0.799172  0.799172  0.342211  1
  W  W8  1  0.320855  0.676887  0.499233  1
  W  W9  1  0.822814  0.822814  0.000728  1
  W  W10  1  0.179136  0.179136  0.000786  1
  W  W11  1  0.676887  0.320855  0.499233  1
  C  C12  1  0.000420  0.000420  0.155018  1
  C  C13  1  0.497978  0.497978  0.654068  1
  C  C14  1  0.497609  0.999230  0.498287  1
  C  C15  1  0.499542  0.499542  0.344967  1
  C  C16  1  0.001803  0.001803  0.846802  1
  C  C17  1  0.500954  0.001138  0.000922  1
  C  C18  1  0.001138  0.500954  0.000922  1
  C  C19  1  0.999230  0.497609  0.498287  1
