# generated using pymatgen
data_Y4Co15Si4P8Ru5
_symmetry_space_group_name_H-M   'P 1'
_cell_length_a   3.71565200
_cell_length_b   10.48207136
_cell_length_c   11.89704652
_cell_angle_alpha   89.71543968
_cell_angle_beta   90.00000000
_cell_angle_gamma   90.00000000
_symmetry_Int_Tables_number   1
_chemical_formula_structural   Y4Co15Si4P8Ru5
_chemical_formula_sum   'Y4 Co15 Si4 P8 Ru5'
_cell_volume   463.35723397
_cell_formula_units_Z   1
loop_
 _symmetry_equiv_pos_site_id
 _symmetry_equiv_pos_as_xyz
  1  'x, y, z'
loop_
 _atom_site_type_symbol
 _atom_site_label
 _atom_site_symmetry_multiplicity
 _atom_site_fract_x
 _atom_site_fract_y
 _atom_site_fract_z
 _atom_site_occupancy
  Y  Y0  1  0.250000  0.913296  0.204614  1
  Y  Y1  1  0.750000  0.082751  0.793036  1
  Y  Y2  1  0.750000  0.417468  0.297514  1
  Y  Y3  1  0.250000  0.585258  0.702543  1
  Co  Co4  1  0.750000  0.899758  0.013205  1
  Co  Co5  1  0.750000  0.593159  0.510713  1
  Co  Co6  1  0.250000  0.412969  0.490967  1
  Co  Co7  1  0.250000  0.288397  0.673850  1
  Co  Co8  1  0.750000  0.721383  0.324873  1
  Co  Co9  1  0.750000  0.776928  0.823394  1
  Co  Co10  1  0.250000  0.216677  0.178633  1
  Co  Co11  1  0.250000  0.617372  0.202210  1
  Co  Co12  1  0.750000  0.390640  0.797342  1
  Co  Co13  1  0.750000  0.110434  0.299271  1
  Co  Co14  1  0.250000  0.881426  0.700252  1
  Co  Co15  1  0.250000  0.026742  0.429351  1
  Co  Co16  1  0.750000  0.960528  0.565400  1
  Co  Co17  1  0.750000  0.539910  0.065804  1
  Co  Co18  1  0.250000  0.473163  0.929867  1
  Si  Si19  1  0.250000  0.083652  0.609578  1
  Si  Si20  1  0.250000  0.418490  0.111883  1
  Si  Si21  1  0.250000  0.227710  0.370050  1
  Si  Si22  1  0.250000  0.274493  0.866708  1
  P  P23  1  0.750000  0.919763  0.386297  1
  P  P24  1  0.750000  0.579282  0.885371  1
  P  P25  1  0.750000  0.771318  0.633874  1
  P  P26  1  0.750000  0.728073  0.135258  1
  P  P27  1  0.250000  0.898039  0.886899  1
  P  P28  1  0.750000  0.100377  0.112695  1
  P  P29  1  0.750000  0.402876  0.609271  1
  P  P30  1  0.250000  0.597281  0.389618  1
  Ru  Ru31  1  0.250000  0.782008  0.492004  1
  Ru  Ru32  1  0.750000  0.212600  0.511823  1
  Ru  Ru33  1  0.750000  0.294660  0.014110  1
  Ru  Ru34  1  0.250000  0.713928  0.991139  1
  Ru  Ru35  1  0.250000  0.087194  0.990581  1
