# generated using pymatgen
data_Hf18Cr2Re6GeRh
_symmetry_space_group_name_H-M   'P 1'
_cell_length_a   8.60545403
_cell_length_b   8.60545291
_cell_length_c   8.52083100
_cell_angle_alpha   90.00000000
_cell_angle_beta   90.00000000
_cell_angle_gamma   119.99298005
_symmetry_Int_Tables_number   1
_chemical_formula_structural   Hf18Cr2Re6GeRh
_chemical_formula_sum   'Hf18 Cr2 Re6 Ge1 Rh1'
_cell_volume   546.50082449
_cell_formula_units_Z   1
loop_
 _symmetry_equiv_pos_site_id
 _symmetry_equiv_pos_as_xyz
  1  'x, y, z'
loop_
 _atom_site_type_symbol
 _atom_site_label
 _atom_site_symmetry_multiplicity
 _atom_site_fract_x
 _atom_site_fract_y
 _atom_site_fract_z
 _atom_site_occupancy
  Hf  Hf0  1  0.809434  0.618988  0.547951  1
  Hf  Hf1  1  0.809545  0.190455  0.548004  1
  Hf  Hf2  1  0.381012  0.190566  0.547951  1
  Hf  Hf3  1  0.195655  0.391497  0.447098  1
  Hf  Hf4  1  0.195766  0.804234  0.447065  1
  Hf  Hf5  1  0.608503  0.804345  0.447098  1
  Hf  Hf6  1  0.195655  0.391497  0.052902  1
  Hf  Hf7  1  0.195766  0.804234  0.052935  1
  Hf  Hf8  1  0.608503  0.804345  0.052902  1
  Hf  Hf9  1  0.809434  0.618988  0.952049  1
  Hf  Hf10  1  0.809545  0.190455  0.951996  1
  Hf  Hf11  1  0.381012  0.190566  0.952049  1
  Hf  Hf12  1  0.459200  0.918616  0.750000  1
  Hf  Hf13  1  0.459189  0.540811  0.750000  1
  Hf  Hf14  1  0.081384  0.540800  0.750000  1
  Hf  Hf15  1  0.542043  0.084382  0.250000  1
  Hf  Hf16  1  0.542136  0.457864  0.250000  1
  Hf  Hf17  1  0.915618  0.457957  0.250000  1
  Cr  Cr18  1  0.000165  0.999835  0.498843  1
  Cr  Cr19  1  0.000165  0.999835  0.001157  1
  Re  Re20  1  0.107637  0.215550  0.750000  1
  Re  Re21  1  0.107904  0.892096  0.750000  1
  Re  Re22  1  0.784450  0.892363  0.750000  1
  Re  Re23  1  0.892163  0.784194  0.250000  1
  Re  Re24  1  0.892077  0.107923  0.250000  1
  Re  Re25  1  0.215806  0.107837  0.250000  1
  Ge  Ge26  1  0.666865  0.333135  0.750000  1
  Rh  Rh27  1  0.333367  0.666633  0.250000  1
