# generated using pymatgen
data_DyHo9Si5Pb
_symmetry_space_group_name_H-M   'P 1'
_cell_length_a   8.49488700
_cell_length_b   8.52779439
_cell_length_c   6.38658200
_cell_angle_alpha   90.00000000
_cell_angle_beta   90.00000000
_cell_angle_gamma   119.87242865
_symmetry_Int_Tables_number   1
_chemical_formula_structural   DyHo9Si5Pb
_chemical_formula_sum   'Dy1 Ho9 Si5 Pb1'
_cell_volume   401.19018506
_cell_formula_units_Z   1
loop_
 _symmetry_equiv_pos_site_id
 _symmetry_equiv_pos_as_xyz
  1  'x, y, z'
loop_
 _atom_site_type_symbol
 _atom_site_label
 _atom_site_symmetry_multiplicity
 _atom_site_fract_x
 _atom_site_fract_y
 _atom_site_fract_z
 _atom_site_occupancy
  Dy  Dy0  1  0.240498  0.000000  0.250000  1
  Ho  Ho1  1  0.987345  0.747097  0.750000  1
  Ho  Ho2  1  0.998545  0.242745  0.250000  1
  Ho  Ho3  1  0.755801  0.757255  0.250000  1
  Ho  Ho4  1  0.766710  0.000000  0.750000  1
  Ho  Ho5  1  0.240247  0.252903  0.750000  1
  Ho  Ho6  1  0.674995  0.343731  0.003955  1
  Ho  Ho7  1  0.331263  0.656269  0.496045  1
  Ho  Ho8  1  0.331263  0.656269  0.003955  1
  Ho  Ho9  1  0.674995  0.343731  0.496045  1
  Si  Si10  1  0.393694  0.392371  0.250000  1
  Si  Si11  1  0.001323  0.607629  0.250000  1
  Si  Si12  1  0.998472  0.394364  0.750000  1
  Si  Si13  1  0.604109  0.605636  0.750000  1
  Si  Si14  1  0.606133  0.000000  0.250000  1
  Pb  Pb15  1  0.394609  0.000000  0.750000  1
