# generated using pymatgen
data_Dy3Lu(B4Ir)4
_symmetry_space_group_name_H-M   'P 1'
_cell_length_a   3.56960800
_cell_length_b   5.96146716
_cell_length_c   11.56208726
_cell_angle_alpha   89.92838068
_cell_angle_beta   90.00000000
_cell_angle_gamma   90.00000000
_symmetry_Int_Tables_number   1
_chemical_formula_structural   Dy3Lu(B4Ir)4
_chemical_formula_sum   'Dy3 Lu1 B16 Ir4'
_cell_volume   246.04219104
_cell_formula_units_Z   1
loop_
 _symmetry_equiv_pos_site_id
 _symmetry_equiv_pos_as_xyz
  1  'x, y, z'
loop_
 _atom_site_type_symbol
 _atom_site_label
 _atom_site_symmetry_multiplicity
 _atom_site_fract_x
 _atom_site_fract_y
 _atom_site_fract_z
 _atom_site_occupancy
  Dy  Dy0  1  0.000000  0.632071  0.351480  1
  Dy  Dy1  1  0.000000  0.367707  0.648769  1
  Dy  Dy2  1  0.000000  0.132123  0.148130  1
  Lu  Lu3  1  0.000000  0.868193  0.851624  1
  B  B4  1  0.500000  0.791081  0.187445  1
  B  B5  1  0.500000  0.205956  0.812743  1
  B  B6  1  0.500000  0.291214  0.312209  1
  B  B7  1  0.500000  0.708873  0.688877  1
  B  B8  1  0.500000  0.864230  0.028986  1
  B  B9  1  0.500000  0.135485  0.969180  1
  B  B10  1  0.500000  0.363560  0.470137  1
  B  B11  1  0.500000  0.636964  0.530286  1
  B  B12  1  0.500000  0.888101  0.453552  1
  B  B13  1  0.500000  0.111668  0.547097  1
  B  B14  1  0.500000  0.388586  0.045880  1
  B  B15  1  0.500000  0.613873  0.952279  1
  B  B16  1  0.500000  0.977295  0.307185  1
  B  B17  1  0.500000  0.022304  0.693947  1
  B  B18  1  0.500000  0.477173  0.192185  1
  B  B19  1  0.500000  0.524673  0.807672  1
  Ir  Ir20  1  0.000000  0.645130  0.095604  1
  Ir  Ir21  1  0.000000  0.354564  0.902682  1
  Ir  Ir22  1  0.000000  0.143493  0.403636  1
  Ir  Ir23  1  0.000000  0.855683  0.598417  1
