# generated using pymatgen
data_Nd3Er(AlNi)4
_symmetry_space_group_name_H-M   'P 1'
_cell_length_a   4.10303200
_cell_length_b   7.02027822
_cell_length_c   15.85380821
_cell_angle_alpha   89.66965609
_cell_angle_beta   90.00000000
_cell_angle_gamma   90.00000000
_symmetry_Int_Tables_number   1
_chemical_formula_structural   Nd3Er(AlNi)4
_chemical_formula_sum   'Nd6 Er2 Al8 Ni8'
_cell_volume   456.65225827
_cell_formula_units_Z   2
loop_
 _symmetry_equiv_pos_site_id
 _symmetry_equiv_pos_as_xyz
  1  'x, y, z'
loop_
 _atom_site_type_symbol
 _atom_site_label
 _atom_site_symmetry_multiplicity
 _atom_site_fract_x
 _atom_site_fract_y
 _atom_site_fract_z
 _atom_site_occupancy
  Nd  Nd0  1  0.750000  0.854287  0.936886  1
  Nd  Nd1  1  0.250000  0.145713  0.063114  1
  Nd  Nd2  1  0.250000  0.643606  0.436663  1
  Nd  Nd3  1  0.750000  0.356394  0.563337  1
  Nd  Nd4  1  0.750000  0.984540  0.722531  1
  Nd  Nd5  1  0.250000  0.015460  0.277469  1
  Er  Er6  1  0.250000  0.516492  0.219561  1
  Er  Er7  1  0.750000  0.483508  0.780439  1
  Al  Al8  1  0.750000  0.827544  0.148057  1
  Al  Al9  1  0.250000  0.172456  0.851943  1
  Al  Al10  1  0.250000  0.662302  0.649995  1
  Al  Al11  1  0.750000  0.337698  0.350005  1
  Al  Al12  1  0.750000  0.992575  0.438263  1
  Al  Al13  1  0.250000  0.007425  0.561737  1
  Al  Al14  1  0.250000  0.509959  0.937864  1
  Al  Al15  1  0.750000  0.490041  0.062136  1
  Ni  Ni16  1  0.750000  0.790264  0.569313  1
  Ni  Ni17  1  0.250000  0.209736  0.430687  1
  Ni  Ni18  1  0.250000  0.707314  0.070561  1
  Ni  Ni19  1  0.750000  0.292686  0.929439  1
  Ni  Ni20  1  0.750000  0.719739  0.313919  1
  Ni  Ni21  1  0.250000  0.280261  0.686081  1
  Ni  Ni22  1  0.250000  0.759978  0.815174  1
  Ni  Ni23  1  0.750000  0.240022  0.184826  1
