# generated using pymatgen
data_Pr10Mg3AlRu6
_symmetry_space_group_name_H-M   'P 1'
_cell_length_a   8.67698635
_cell_length_b   8.71694962
_cell_length_c   8.67698647
_cell_angle_alpha   109.56454819
_cell_angle_beta   109.37773531
_cell_angle_gamma   109.56454816
_symmetry_Int_Tables_number   1
_chemical_formula_structural   Pr10Mg3AlRu6
_chemical_formula_sum   'Pr10 Mg3 Al1 Ru6'
_cell_volume   504.63683912
_cell_formula_units_Z   1
loop_
 _symmetry_equiv_pos_site_id
 _symmetry_equiv_pos_as_xyz
  1  'x, y, z'
loop_
 _atom_site_type_symbol
 _atom_site_label
 _atom_site_symmetry_multiplicity
 _atom_site_fract_x
 _atom_site_fract_y
 _atom_site_fract_z
 _atom_site_occupancy
  Pr  Pr0  1  0.244989  0.679005  0.433178  1
  Pr  Pr1  1  0.751147  0.822429  0.075712  1
  Pr  Pr2  1  0.424289  0.246717  0.675435  1
  Pr  Pr3  1  0.688188  0.434016  0.255011  1
  Pr  Pr4  1  0.066823  0.745828  0.811812  1
  Pr  Pr5  1  0.824565  0.071282  0.748853  1
  Pr  Pr6  1  0.211599  0.211096  0.209053  1
  Pr  Pr7  1  0.497455  0.999496  0.288401  1
  Pr  Pr8  1  0.290947  0.502044  0.002546  1
  Pr  Pr9  1  0.000000  0.279986  0.500001  1
  Mg  Mg10  1  0.500946  0.001992  0.905895  1
  Mg  Mg11  1  0.594105  0.596098  0.595050  1
  Mg  Mg12  1  0.904950  0.501048  0.999055  1
  Al  Al13  1  0.000000  0.906552  0.500001  1
  Ru  Ru14  1  0.234822  0.119996  0.860726  1
  Ru  Ru15  1  0.747798  0.366679  0.614268  1
  Ru  Ru16  1  0.885731  0.252413  0.133528  1
  Ru  Ru17  1  0.125905  0.885175  0.265180  1
  Ru  Ru18  1  0.639273  0.759270  0.374094  1
  Ru  Ru19  1  0.366471  0.618882  0.752202  1
