# generated using pymatgen
data_Nd19SmSi15Pt
_symmetry_space_group_name_H-M   'P 1'
_cell_length_a   7.79521950
_cell_length_b   7.94602298
_cell_length_c   15.17074803
_cell_angle_alpha   89.75011483
_cell_angle_beta   89.64914550
_cell_angle_gamma   89.99399494
_symmetry_Int_Tables_number   1
_chemical_formula_structural   Nd19SmSi15Pt
_chemical_formula_sum   'Nd19 Sm1 Si15 Pt1'
_cell_volume   939.66464420
_cell_formula_units_Z   1
loop_
 _symmetry_equiv_pos_site_id
 _symmetry_equiv_pos_as_xyz
  1  'x, y, z'
loop_
 _atom_site_type_symbol
 _atom_site_label
 _atom_site_symmetry_multiplicity
 _atom_site_fract_x
 _atom_site_fract_y
 _atom_site_fract_z
 _atom_site_occupancy
  Nd  Nd0  1  0.813099  0.328060  0.617696  1
  Nd  Nd1  1  0.457719  0.686188  0.898684  1
  Nd  Nd2  1  0.957952  0.813320  0.898058  1
  Nd  Nd3  1  0.185892  0.683662  0.120706  1
  Nd  Nd4  1  0.691106  0.819171  0.120849  1
  Nd  Nd5  1  0.309200  0.180307  0.878092  1
  Nd  Nd6  1  0.187937  0.678009  0.379575  1
  Nd  Nd7  1  0.042067  0.187013  0.102401  1
  Nd  Nd8  1  0.312998  0.179892  0.622092  1
  Nd  Nd9  1  0.856477  0.490288  0.257259  1
  Nd  Nd10  1  0.363227  0.008812  0.251922  1
  Nd  Nd11  1  0.536283  0.316079  0.398012  1
  Nd  Nd12  1  0.811096  0.317578  0.878658  1
  Nd  Nd13  1  0.963862  0.815743  0.600539  1
  Nd  Nd14  1  0.460808  0.686427  0.603011  1
  Nd  Nd15  1  0.042863  0.183764  0.398237  1
  Nd  Nd16  1  0.689809  0.816564  0.382514  1
  Nd  Nd17  1  0.638593  0.992835  0.749129  1
  Nd  Nd18  1  0.542296  0.312952  0.101822  1
  Sm  Sm19  1  0.136173  0.512732  0.748351  1
  Si  Si20  1  0.478637  0.602887  0.245937  1
  Si  Si21  1  0.250188  0.379216  0.247014  1
  Si  Si22  1  0.516053  0.400934  0.751062  1
  Si  Si23  1  0.632286  0.025654  0.958626  1
  Si  Si24  1  0.016991  0.101992  0.749599  1
  Si  Si25  1  0.748356  0.621811  0.751013  1
  Si  Si26  1  0.750811  0.120483  0.248388  1
  Si  Si27  1  0.365144  0.970682  0.460751  1
  Si  Si28  1  0.981566  0.900385  0.248631  1
  Si  Si29  1  0.365703  0.974665  0.040962  1
  Si  Si30  1  0.635302  0.024999  0.542237  1
  Si  Si31  1  0.135285  0.473371  0.958610  1
  Si  Si32  1  0.146363  0.474377  0.543074  1
  Si  Si33  1  0.866698  0.525303  0.039734  1
  Si  Si34  1  0.247236  0.876488  0.751161  1
  Pt  Pt35  1  0.863922  0.517361  0.455596  1
