# generated using pymatgen
data_Ho4Lu(ReO6)2
_symmetry_space_group_name_H-M   'P 1'
_cell_length_a   6.79128082
_cell_length_b   6.79128142
_cell_length_c   7.47375653
_cell_angle_alpha   73.74374758
_cell_angle_beta   73.74374522
_cell_angle_gamma   49.21978176
_symmetry_Int_Tables_number   1
_chemical_formula_structural   Ho4Lu(ReO6)2
_chemical_formula_sum   'Ho4 Lu1 Re2 O12'
_cell_volume   248.33397245
_cell_formula_units_Z   1
loop_
 _symmetry_equiv_pos_site_id
 _symmetry_equiv_pos_as_xyz
  1  'x, y, z'
loop_
 _atom_site_type_symbol
 _atom_site_label
 _atom_site_symmetry_multiplicity
 _atom_site_fract_x
 _atom_site_fract_y
 _atom_site_fract_z
 _atom_site_occupancy
  Ho  Ho0  1  0.802512  0.802512  0.359092  1
  Ho  Ho1  1  0.197488  0.197488  0.640908  1
  Ho  Ho2  1  0.184704  0.184704  0.177930  1
  Ho  Ho3  1  0.815296  0.815296  0.822070  1
  Lu  Lu4  1  0.500000  0.500000  0.500000  1
  Re  Re5  1  0.285407  0.714593  0.000000  1
  Re  Re6  1  0.714593  0.285407  0.000000  1
  O  O7  1  0.412301  0.920219  0.913225  1
  O  O8  1  0.079781  0.587699  0.086775  1
  O  O9  1  0.587699  0.079781  0.086775  1
  O  O10  1  0.920219  0.412301  0.913225  1
  O  O11  1  0.598633  0.098637  0.571048  1
  O  O12  1  0.901363  0.401367  0.428952  1
  O  O13  1  0.401367  0.901363  0.428952  1
  O  O14  1  0.001007  0.001007  0.820721  1
  O  O15  1  0.998993  0.998993  0.179279  1
  O  O16  1  0.497598  0.497598  0.791447  1
  O  O17  1  0.502402  0.502402  0.208553  1
  O  O18  1  0.098637  0.598633  0.571048  1
