# generated using pymatgen
data_Sm4Ga4Ir3Pd
_symmetry_space_group_name_H-M   'P 1'
_cell_length_a   4.42434800
_cell_length_b   7.00442024
_cell_length_c   7.81529938
_cell_angle_alpha   90.09057646
_cell_angle_beta   90.00000000
_cell_angle_gamma   90.00000000
_symmetry_Int_Tables_number   1
_chemical_formula_structural   Sm4Ga4Ir3Pd
_chemical_formula_sum   'Sm4 Ga4 Ir3 Pd1'
_cell_volume   242.19576807
_cell_formula_units_Z   1
loop_
 _symmetry_equiv_pos_site_id
 _symmetry_equiv_pos_as_xyz
  1  'x, y, z'
loop_
 _atom_site_type_symbol
 _atom_site_label
 _atom_site_symmetry_multiplicity
 _atom_site_fract_x
 _atom_site_fract_y
 _atom_site_fract_z
 _atom_site_occupancy
  Sm  Sm0  1  0.250000  0.018727  0.310641  1
  Sm  Sm1  1  0.250000  0.526751  0.194004  1
  Sm  Sm2  1  0.750000  0.980531  0.694015  1
  Sm  Sm3  1  0.750000  0.483657  0.801592  1
  Ga  Ga4  1  0.250000  0.663077  0.575309  1
  Ga  Ga5  1  0.250000  0.161752  0.923502  1
  Ga  Ga6  1  0.750000  0.339766  0.428739  1
  Ga  Ga7  1  0.750000  0.829819  0.074569  1
  Ir  Ir8  1  0.250000  0.275648  0.602441  1
  Ir  Ir9  1  0.250000  0.777583  0.898075  1
  Ir  Ir10  1  0.750000  0.724604  0.396764  1
  Pd  Pd11  1  0.750000  0.218084  0.100348  1
