# generated using pymatgen
data_HfSn(SeO3)4
_symmetry_space_group_name_H-M   'P 1'
_cell_length_a   8.54793403
_cell_length_b   8.45160900
_cell_length_c   8.53970747
_cell_angle_alpha   90.00000000
_cell_angle_beta   90.54392807
_cell_angle_gamma   90.00000000
_symmetry_Int_Tables_number   1
_chemical_formula_structural   HfSn(SeO3)4
_chemical_formula_sum   'Hf2 Sn2 Se8 O24'
_cell_volume   616.91308564
_cell_formula_units_Z   2
loop_
 _symmetry_equiv_pos_site_id
 _symmetry_equiv_pos_as_xyz
  1  'x, y, z'
loop_
 _atom_site_type_symbol
 _atom_site_label
 _atom_site_symmetry_multiplicity
 _atom_site_fract_x
 _atom_site_fract_y
 _atom_site_fract_z
 _atom_site_occupancy
  Hf  Hf0  1  0.500000  0.500000  0.000000  1
  Hf  Hf1  1  0.500000  0.000000  0.500000  1
  Sn  Sn2  1  0.000000  0.000000  0.000000  1
  Sn  Sn3  1  0.000000  0.500000  0.500000  1
  Se  Se4  1  0.836179  0.183617  0.681863  1
  Se  Se5  1  0.163821  0.816383  0.318137  1
  Se  Se6  1  0.689922  0.671250  0.673143  1
  Se  Se7  1  0.163821  0.683617  0.818137  1
  Se  Se8  1  0.310078  0.171250  0.826857  1
  Se  Se9  1  0.836179  0.316383  0.181863  1
  Se  Se10  1  0.689922  0.828750  0.173143  1
  Se  Se11  1  0.310078  0.328750  0.326857  1
  O  O12  1  0.237752  0.459884  0.466861  1
  O  O13  1  0.965857  0.240701  0.044993  1
  O  O14  1  0.034143  0.740701  0.455007  1
  O  O15  1  0.447286  0.267520  0.940564  1
  O  O16  1  0.273816  0.934438  0.439849  1
  O  O17  1  0.571052  0.542300  0.771847  1
  O  O18  1  0.960591  0.040864  0.761084  1
  O  O19  1  0.552714  0.732480  0.059436  1
  O  O20  1  0.571052  0.957700  0.271847  1
  O  O21  1  0.428948  0.042300  0.728153  1
  O  O22  1  0.762248  0.959884  0.033139  1
  O  O23  1  0.273816  0.565562  0.939849  1
  O  O24  1  0.039409  0.540864  0.738916  1
  O  O25  1  0.039409  0.959136  0.238916  1
  O  O26  1  0.237752  0.040116  0.966861  1
  O  O27  1  0.428948  0.457700  0.228153  1
  O  O28  1  0.762248  0.540116  0.533139  1
  O  O29  1  0.960591  0.459136  0.261084  1
  O  O30  1  0.034143  0.759299  0.955007  1
  O  O31  1  0.447286  0.232480  0.440564  1
  O  O32  1  0.552714  0.767520  0.559436  1
  O  O33  1  0.965857  0.259299  0.544993  1
  O  O34  1  0.726184  0.065562  0.560151  1
  O  O35  1  0.726184  0.434438  0.060151  1
