# generated using pymatgen
data_Gd2S2BrCl
_symmetry_space_group_name_H-M   'P 1'
_cell_length_a   4.10989200
_cell_length_b   5.39651300
_cell_length_c   9.15602800
_cell_angle_alpha   90.00000000
_cell_angle_beta   90.00000000
_cell_angle_gamma   90.00000000
_symmetry_Int_Tables_number   1
_chemical_formula_structural   Gd2S2BrCl
_chemical_formula_sum   'Gd2 S2 Br1 Cl1'
_cell_volume   203.07232883
_cell_formula_units_Z   1
loop_
 _symmetry_equiv_pos_site_id
 _symmetry_equiv_pos_as_xyz
  1  'x, y, z'
loop_
 _atom_site_type_symbol
 _atom_site_label
 _atom_site_symmetry_multiplicity
 _atom_site_fract_x
 _atom_site_fract_y
 _atom_site_fract_z
 _atom_site_occupancy
  Gd  Gd0  1  0.000000  0.500000  0.127435  1
  Gd  Gd1  1  0.500000  0.000000  0.864148  1
  S  S2  1  0.500000  0.500000  0.923893  1
  S  S3  1  0.000000  0.000000  0.069397  1
  Br  Br4  1  0.500000  0.500000  0.345060  1
  Cl  Cl5  1  0.000000  0.000000  0.670067  1
