# generated using pymatgen
data_CeY3HgIr
_symmetry_space_group_name_H-M   'P 1'
_cell_length_a   9.66468908
_cell_length_b   9.66468871
_cell_length_c   9.66468900
_cell_angle_alpha   59.99999557
_cell_angle_beta   59.99999686
_cell_angle_gamma   59.99999860
_symmetry_Int_Tables_number   1
_chemical_formula_structural   CeY3HgIr
_chemical_formula_sum   'Ce4 Y12 Hg4 Ir4'
_cell_volume   638.33493539
_cell_formula_units_Z   4
loop_
 _symmetry_equiv_pos_site_id
 _symmetry_equiv_pos_as_xyz
  1  'x, y, z'
loop_
 _atom_site_type_symbol
 _atom_site_label
 _atom_site_symmetry_multiplicity
 _atom_site_fract_x
 _atom_site_fract_y
 _atom_site_fract_z
 _atom_site_occupancy
  Ce  Ce0  1  0.350321  0.350321  0.350321  1
  Ce  Ce1  1  0.350321  0.350321  0.949036  1
  Ce  Ce2  1  0.350321  0.949036  0.350321  1
  Ce  Ce3  1  0.949036  0.350321  0.350321  1
  Y  Y4  1  0.810565  0.189435  0.189435  1
  Y  Y5  1  0.189435  0.810565  0.810565  1
  Y  Y6  1  0.189435  0.810565  0.189435  1
  Y  Y7  1  0.810565  0.189435  0.810565  1
  Y  Y8  1  0.189435  0.189435  0.810565  1
  Y  Y9  1  0.810565  0.810565  0.189435  1
  Y  Y10  1  0.938331  0.561669  0.561669  1
  Y  Y11  1  0.561669  0.938331  0.938331  1
  Y  Y12  1  0.561669  0.938331  0.561669  1
  Y  Y13  1  0.938331  0.561669  0.938331  1
  Y  Y14  1  0.561669  0.561669  0.938331  1
  Y  Y15  1  0.938331  0.938331  0.561669  1
  Hg  Hg16  1  0.585354  0.585354  0.585354  1
  Hg  Hg17  1  0.585354  0.585354  0.243939  1
  Hg  Hg18  1  0.585354  0.243939  0.585354  1
  Hg  Hg19  1  0.243939  0.585354  0.585354  1
  Ir  Ir20  1  0.143964  0.143964  0.143964  1
  Ir  Ir21  1  0.143964  0.143964  0.568109  1
  Ir  Ir22  1  0.143964  0.568109  0.143964  1
  Ir  Ir23  1  0.568109  0.143964  0.143964  1
