# generated using pymatgen
data_SmCuPdO4
_symmetry_space_group_name_H-M   'P 1'
_cell_length_a   6.44441704
_cell_length_b   6.44441626
_cell_length_c   6.48640735
_cell_angle_alpha   127.17939381
_cell_angle_beta   125.26728516
_cell_angle_gamma   79.08201082
_symmetry_Int_Tables_number   1
_chemical_formula_structural   SmCuPdO4
_chemical_formula_sum   'Sm2 Cu2 Pd2 O8'
_cell_volume   169.88847941
_cell_formula_units_Z   2
loop_
 _symmetry_equiv_pos_site_id
 _symmetry_equiv_pos_as_xyz
  1  'x, y, z'
loop_
 _atom_site_type_symbol
 _atom_site_label
 _atom_site_symmetry_multiplicity
 _atom_site_fract_x
 _atom_site_fract_y
 _atom_site_fract_z
 _atom_site_occupancy
  Sm  Sm0  1  0.750480  0.250480  0.500000  1
  Sm  Sm1  1  0.999520  0.999520  0.000000  1
  Cu  Cu2  1  0.875000  0.625000  0.250000  1
  Cu  Cu3  1  0.375000  0.625000  0.750000  1
  Pd  Pd4  1  0.375000  0.625000  0.250000  1
  Pd  Pd5  1  0.375000  0.125000  0.750000  1
  O  O6  1  0.597977  0.940498  0.945082  1
  O  O7  1  0.399708  0.842919  0.130744  1
  O  O8  1  0.712175  0.268963  0.869256  1
  O  O9  1  0.995415  0.652896  0.054918  1
  O  O10  1  0.152023  0.309502  0.554918  1
  O  O11  1  0.350292  0.407081  0.369256  1
  O  O12  1  0.754585  0.597104  0.445082  1
  O  O13  1  0.037825  0.981037  0.630744  1
