# generated using pymatgen
data_AgMo3Cl7
_symmetry_space_group_name_H-M   'P 1'
_cell_length_a   15.27851700
_cell_length_b   9.48793794
_cell_length_c   9.72924300
_cell_angle_alpha   59.65964735
_cell_angle_beta   90.00000000
_cell_angle_gamma   90.00000000
_symmetry_Int_Tables_number   1
_chemical_formula_structural   AgMo3Cl7
_chemical_formula_sum   'Ag4 Mo12 Cl28'
_cell_volume   1217.20300139
_cell_formula_units_Z   4
loop_
 _symmetry_equiv_pos_site_id
 _symmetry_equiv_pos_as_xyz
  1  'x, y, z'
loop_
 _atom_site_type_symbol
 _atom_site_label
 _atom_site_symmetry_multiplicity
 _atom_site_fract_x
 _atom_site_fract_y
 _atom_site_fract_z
 _atom_site_occupancy
  Ag  Ag0  1  0.287728  0.081577  0.832076  1
  Ag  Ag1  1  0.787728  0.918423  0.667924  1
  Ag  Ag2  1  0.712272  0.918423  0.167924  1
  Ag  Ag3  1  0.212272  0.081577  0.332076  1
  Mo  Mo4  1  0.061925  0.348225  0.677623  1
  Mo  Mo5  1  0.539299  0.596889  0.113130  1
  Mo  Mo6  1  0.960701  0.596889  0.613130  1
  Mo  Mo7  1  0.460701  0.403111  0.886870  1
  Mo  Mo8  1  0.039299  0.403111  0.386870  1
  Mo  Mo9  1  0.561925  0.651775  0.822377  1
  Mo  Mo10  1  0.938075  0.651775  0.322377  1
  Mo  Mo11  1  0.438075  0.348225  0.177623  1
  Mo  Mo12  1  0.096632  0.637437  0.432197  1
  Mo  Mo13  1  0.596632  0.362563  0.067803  1
  Mo  Mo14  1  0.903368  0.362563  0.567803  1
  Mo  Mo15  1  0.403368  0.637437  0.932197  1
  Cl  Cl16  1  0.570160  0.317864  0.339539  1
  Cl  Cl17  1  0.728606  0.188371  0.154986  1
  Cl  Cl18  1  0.771394  0.188371  0.654986  1
  Cl  Cl19  1  0.271394  0.811629  0.845014  1
  Cl  Cl20  1  0.087563  0.277069  0.230888  1
  Cl  Cl21  1  0.587563  0.722931  0.269112  1
  Cl  Cl22  1  0.912437  0.722931  0.769112  1
  Cl  Cl23  1  0.412437  0.277069  0.730888  1
  Cl  Cl24  1  0.142008  0.145338  0.916379  1
  Cl  Cl25  1  0.642008  0.854662  0.583621  1
  Cl  Cl26  1  0.857992  0.854662  0.083621  1
  Cl  Cl27  1  0.357992  0.145338  0.416379  1
  Cl  Cl28  1  0.387087  0.578225  0.211504  1
  Cl  Cl29  1  0.887087  0.421775  0.288496  1
  Cl  Cl30  1  0.612913  0.421775  0.788496  1
  Cl  Cl31  1  0.187955  0.393679  0.496093  1
  Cl  Cl32  1  0.504726  0.866578  0.874251  1
  Cl  Cl33  1  0.004726  0.133422  0.625749  1
  Cl  Cl34  1  0.495274  0.133422  0.125749  1
  Cl  Cl35  1  0.995274  0.866578  0.374251  1
  Cl  Cl36  1  0.429840  0.682136  0.660461  1
  Cl  Cl37  1  0.929840  0.317864  0.839539  1
  Cl  Cl38  1  0.112913  0.578225  0.711504  1
  Cl  Cl39  1  0.070160  0.682136  0.160461  1
  Cl  Cl40  1  0.312045  0.393679  0.996093  1
  Cl  Cl41  1  0.812045  0.606321  0.503907  1
  Cl  Cl42  1  0.687955  0.606321  0.003907  1
  Cl  Cl43  1  0.228606  0.811629  0.345014  1
