# generated using pymatgen
data_U2SeNO
_symmetry_space_group_name_H-M   'P 1'
_cell_length_a   3.87781000
_cell_length_b   3.87780916
_cell_length_c   6.85913800
_cell_angle_alpha   90.00000000
_cell_angle_beta   90.00000000
_cell_angle_gamma   120.00000717
_symmetry_Int_Tables_number   1
_chemical_formula_structural   U2SeNO
_chemical_formula_sum   'U2 Se1 N1 O1'
_cell_volume   89.32501529
_cell_formula_units_Z   1
loop_
 _symmetry_equiv_pos_site_id
 _symmetry_equiv_pos_as_xyz
  1  'x, y, z'
loop_
 _atom_site_type_symbol
 _atom_site_label
 _atom_site_symmetry_multiplicity
 _atom_site_fract_x
 _atom_site_fract_y
 _atom_site_fract_z
 _atom_site_occupancy
  U  U0  1  0.666667  0.333333  0.705421  1
  U  U1  1  0.333333  0.666667  0.289112  1
  Se  Se2  1  0.000000  0.000000  0.998510  1
  N  N3  1  0.666667  0.333333  0.376313  1
  O  O4  1  0.333333  0.666667  0.630644  1
