# generated using pymatgen
data_TbY7Hf9Si16Mo3
_symmetry_space_group_name_H-M   'P 1'
_cell_length_a   7.20327623
_cell_length_b   7.20321418
_cell_length_c   13.17586401
_cell_angle_alpha   90.11416057
_cell_angle_beta   90.11223000
_cell_angle_gamma   90.06935521
_symmetry_Int_Tables_number   1
_chemical_formula_structural   TbY7Hf9Si16Mo3
_chemical_formula_sum   'Tb1 Y7 Hf9 Si16 Mo3'
_cell_volume   683.64947591
_cell_formula_units_Z   1
loop_
 _symmetry_equiv_pos_site_id
 _symmetry_equiv_pos_as_xyz
  1  'x, y, z'
loop_
 _atom_site_type_symbol
 _atom_site_label
 _atom_site_symmetry_multiplicity
 _atom_site_fract_x
 _atom_site_fract_y
 _atom_site_fract_z
 _atom_site_occupancy
  Tb  Tb0  1  0.655992  0.000132  0.284868  1
  Y  Y1  1  0.999869  0.344043  0.215151  1
  Y  Y2  1  0.003147  0.657058  0.714516  1
  Y  Y3  1  0.155283  0.500350  0.464055  1
  Y  Y4  1  0.499666  0.844697  0.035940  1
  Y  Y5  1  0.846022  0.501261  0.967679  1
  Y  Y6  1  0.498748  0.153960  0.532318  1
  Y  Y7  1  0.342951  0.996836  0.785450  1
  Hf  Hf8  1  0.675306  0.324703  0.749991  1
  Hf  Hf9  1  0.146989  0.992694  0.373616  1
  Hf  Hf10  1  0.854662  0.005031  0.876660  1
  Hf  Hf11  1  0.506116  0.649542  0.621612  1
  Hf  Hf12  1  0.350460  0.493920  0.878373  1
  Hf  Hf13  1  0.492413  0.352518  0.125504  1
  Hf  Hf14  1  0.647473  0.507608  0.374515  1
  Hf  Hf15  1  0.994961  0.145329  0.623323  1
  Hf  Hf16  1  0.007264  0.853032  0.126404  1
  Si  Si17  1  0.361587  0.296863  0.316883  1
  Si  Si18  1  0.637321  0.705717  0.817521  1
  Si  Si19  1  0.204411  0.862130  0.566189  1
  Si  Si20  1  0.137869  0.795550  0.933809  1
  Si  Si21  1  0.796160  0.137652  0.067244  1
  Si  Si22  1  0.862373  0.203844  0.432788  1
  Si  Si23  1  0.294283  0.362680  0.682472  1
  Si  Si24  1  0.703146  0.638366  0.183113  1
  Si  Si25  1  0.295545  0.050920  0.184262  1
  Si  Si26  1  0.705035  0.947744  0.682543  1
  Si  Si27  1  0.448590  0.795129  0.432703  1
  Si  Si28  1  0.204855  0.551399  0.067318  1
  Si  Si29  1  0.547722  0.203359  0.936097  1
  Si  Si30  1  0.796646  0.452323  0.563906  1
  Si  Si31  1  0.052236  0.294989  0.817425  1
  Si  Si32  1  0.949088  0.704426  0.315738  1
  Mo  Mo33  1  0.176311  0.175182  0.001251  1
  Mo  Mo34  1  0.824841  0.823673  0.498761  1
  Mo  Mo35  1  0.324659  0.675342  0.250004  1
