# generated using pymatgen
data_Dy2ErTm(OsC2)2
_symmetry_space_group_name_H-M   'P 1'
_cell_length_a   5.10362200
_cell_length_b   6.43443860
_cell_length_c   9.72975058
_cell_angle_alpha   90.09405725
_cell_angle_beta   90.00000000
_cell_angle_gamma   90.00000000
_symmetry_Int_Tables_number   1
_chemical_formula_structural   Dy2ErTm(OsC2)2
_chemical_formula_sum   'Dy4 Er2 Tm2 Os4 C8'
_cell_volume   319.51428822
_cell_formula_units_Z   2
loop_
 _symmetry_equiv_pos_site_id
 _symmetry_equiv_pos_as_xyz
  1  'x, y, z'
loop_
 _atom_site_type_symbol
 _atom_site_label
 _atom_site_symmetry_multiplicity
 _atom_site_fract_x
 _atom_site_fract_y
 _atom_site_fract_z
 _atom_site_occupancy
  Dy  Dy0  1  0.250000  0.526489  0.218574  1
  Dy  Dy1  1  0.750000  0.473511  0.781426  1
  Dy  Dy2  1  0.750000  0.973499  0.717048  1
  Dy  Dy3  1  0.250000  0.026501  0.282952  1
  Er  Er4  1  0.750000  0.818370  0.053405  1
  Er  Er5  1  0.250000  0.181630  0.946595  1
  Tm  Tm6  1  0.250000  0.679901  0.553393  1
  Tm  Tm7  1  0.750000  0.320099  0.446607  1
  Os  Os8  1  0.250000  0.725454  0.865408  1
  Os  Os9  1  0.750000  0.274546  0.134592  1
  Os  Os10  1  0.750000  0.774858  0.366740  1
  Os  Os11  1  0.250000  0.225142  0.633260  1
  C  C12  1  0.250000  0.460348  0.757890  1
  C  C13  1  0.750000  0.539652  0.242110  1
  C  C14  1  0.750000  0.039686  0.259051  1
  C  C15  1  0.250000  0.960314  0.740949  1
  C  C16  1  0.250000  0.827805  0.053517  1
  C  C17  1  0.750000  0.172195  0.946483  1
  C  C18  1  0.750000  0.670282  0.554277  1
  C  C19  1  0.250000  0.329718  0.445723  1
