# generated using pymatgen
data_Tb5ThGa18
_symmetry_space_group_name_H-M   'P 1'
_cell_length_a   14.55422853
_cell_length_b   14.55422847
_cell_length_c   14.55422900
_cell_angle_alpha   24.82497040
_cell_angle_beta   24.82497091
_cell_angle_gamma   24.82497161
_symmetry_Int_Tables_number   1
_chemical_formula_structural   Tb5ThGa18
_chemical_formula_sum   'Tb5 Th1 Ga18'
_cell_volume   477.98998633
_cell_formula_units_Z   1
loop_
 _symmetry_equiv_pos_site_id
 _symmetry_equiv_pos_as_xyz
  1  'x, y, z'
loop_
 _atom_site_type_symbol
 _atom_site_label
 _atom_site_symmetry_multiplicity
 _atom_site_fract_x
 _atom_site_fract_y
 _atom_site_fract_z
 _atom_site_occupancy
  Tb  Tb0  1  0.000045  0.000045  0.000045  1
  Tb  Tb1  1  0.499738  0.499738  0.499738  1
  Tb  Tb2  1  0.108531  0.108531  0.108531  1
  Tb  Tb3  1  0.891464  0.891464  0.891464  1
  Tb  Tb4  1  0.392205  0.392205  0.392205  1
  Th  Th5  1  0.608230  0.608230  0.608230  1
  Ga  Ga6  1  0.929065  0.365708  0.365708  1
  Ga  Ga7  1  0.428304  0.868710  0.868710  1
  Ga  Ga8  1  0.365708  0.365708  0.929065  1
  Ga  Ga9  1  0.868710  0.868710  0.428304  1
  Ga  Ga10  1  0.365708  0.929065  0.365708  1
  Ga  Ga11  1  0.868710  0.428304  0.868710  1
  Ga  Ga12  1  0.573981  0.130978  0.130978  1
  Ga  Ga13  1  0.073034  0.631470  0.631470  1
  Ga  Ga14  1  0.130978  0.130978  0.573981  1
  Ga  Ga15  1  0.631470  0.631470  0.073034  1
  Ga  Ga16  1  0.130978  0.573981  0.130978  1
  Ga  Ga17  1  0.631470  0.073034  0.631470  1
  Ga  Ga18  1  0.499038  0.499038  0.004978  1
  Ga  Ga19  1  0.998042  0.998042  0.502534  1
  Ga  Ga20  1  0.499038  0.004978  0.499038  1
  Ga  Ga21  1  0.998042  0.502534  0.998042  1
  Ga  Ga22  1  0.004978  0.499038  0.499038  1
  Ga  Ga23  1  0.502534  0.998042  0.998042  1
