# generated using pymatgen
data_Sc8V7Si16MoW4
_symmetry_space_group_name_H-M   'P 1'
_cell_length_a   6.65997431
_cell_length_b   6.66245651
_cell_length_c   12.36882904
_cell_angle_alpha   90.09305336
_cell_angle_beta   89.98702855
_cell_angle_gamma   90.00433638
_symmetry_Int_Tables_number   1
_chemical_formula_structural   Sc8V7Si16MoW4
_chemical_formula_sum   'Sc8 V7 Si16 Mo1 W4'
_cell_volume   548.82633578
_cell_formula_units_Z   1
loop_
 _symmetry_equiv_pos_site_id
 _symmetry_equiv_pos_as_xyz
  1  'x, y, z'
loop_
 _atom_site_type_symbol
 _atom_site_label
 _atom_site_symmetry_multiplicity
 _atom_site_fract_x
 _atom_site_fract_y
 _atom_site_fract_z
 _atom_site_occupancy
  Sc  Sc0  1  0.002662  0.662053  0.030008  1
  Sc  Sc1  1  0.836717  0.501155  0.280341  1
  Sc  Sc2  1  0.163422  0.498350  0.779178  1
  Sc  Sc3  1  0.502454  0.836938  0.720066  1
  Sc  Sc4  1  0.497549  0.162995  0.220100  1
  Sc  Sc5  1  0.997604  0.337172  0.530094  1
  Sc  Sc6  1  0.663442  0.002306  0.969804  1
  Sc  Sc7  1  0.337078  0.996908  0.470655  1
  V  V8  1  0.342394  0.504631  0.376621  1
  V  V9  1  0.657428  0.495137  0.875884  1
  V  V10  1  0.505195  0.342225  0.623472  1
  V  V11  1  0.494591  0.658585  0.123582  1
  V  V12  1  0.994944  0.842215  0.626547  1
  V  V13  1  0.157970  0.005346  0.873754  1
  V  V14  1  0.842999  0.995282  0.373242  1
  Si  Si15  1  0.297206  0.959086  0.063165  1
  Si  Si16  1  0.539370  0.794515  0.314601  1
  Si  Si17  1  0.460142  0.205274  0.813267  1
  Si  Si18  1  0.794713  0.539926  0.686130  1
  Si  Si19  1  0.207975  0.462416  0.187137  1
  Si  Si20  1  0.705701  0.039274  0.563585  1
  Si  Si21  1  0.959991  0.297074  0.933891  1
  Si  Si22  1  0.039537  0.705546  0.436786  1
  Si  Si23  1  0.702665  0.374687  0.069696  1
  Si  Si24  1  0.130155  0.206388  0.323402  1
  Si  Si25  1  0.871656  0.794087  0.820934  1
  Si  Si26  1  0.205865  0.128314  0.678604  1
  Si  Si27  1  0.792095  0.866366  0.180180  1
  Si  Si28  1  0.293773  0.628325  0.571341  1
  Si  Si29  1  0.371550  0.705981  0.928407  1
  Si  Si30  1  0.628528  0.293520  0.428966  1
  Mo  Mo31  1  0.001398  0.159017  0.126599  1
  W  W32  1  0.333555  0.333906  0.999035  1
  W  W33  1  0.167917  0.831643  0.251099  1
  W  W34  1  0.832863  0.166741  0.749626  1
  W  W35  1  0.666899  0.666610  0.500205  1
