# generated using pymatgen
data_La7Yb5(DyGe2)8
_symmetry_space_group_name_H-M   'P 1'
_cell_length_a   7.98939868
_cell_length_b   7.98270134
_cell_length_c   14.81603500
_cell_angle_alpha   90.21968205
_cell_angle_beta   89.96280155
_cell_angle_gamma   90.10614705
_symmetry_Int_Tables_number   1
_chemical_formula_structural   La7Yb5(DyGe2)8
_chemical_formula_sum   'La7 Yb5 Dy8 Ge16'
_cell_volume   944.91325878
_cell_formula_units_Z   1
loop_
 _symmetry_equiv_pos_site_id
 _symmetry_equiv_pos_as_xyz
  1  'x, y, z'
loop_
 _atom_site_type_symbol
 _atom_site_label
 _atom_site_symmetry_multiplicity
 _atom_site_fract_x
 _atom_site_fract_y
 _atom_site_fract_z
 _atom_site_occupancy
  La  La0  1  0.007624  0.358807  0.541183  1
  La  La1  1  0.638861  0.994674  0.958483  1
  La  La2  1  0.138343  0.507640  0.793122  1
  La  La3  1  0.860292  0.492096  0.290395  1
  La  La4  1  0.509157  0.138308  0.207232  1
  La  La5  1  0.490850  0.861168  0.708389  1
  La  La6  1  0.359521  0.007862  0.457636  1
  Yb  Yb7  1  0.994055  0.635732  0.042126  1
  Yb  Yb8  1  0.683720  0.682560  0.500008  1
  Yb  Yb9  1  0.816178  0.184947  0.750359  1
  Yb  Yb10  1  0.181736  0.813438  0.248377  1
  Yb  Yb11  1  0.314966  0.319224  0.000687  1
  Dy  Dy12  1  0.360243  0.493536  0.376019  1
  Dy  Dy13  1  0.859737  0.005018  0.373618  1
  Dy  Dy14  1  0.993390  0.139434  0.125477  1
  Dy  Dy15  1  0.006560  0.861834  0.625255  1
  Dy  Dy16  1  0.642692  0.508553  0.877474  1
  Dy  Dy17  1  0.492060  0.360056  0.624185  1
  Dy  Dy18  1  0.509112  0.640911  0.124390  1
  Dy  Dy19  1  0.138606  0.992133  0.875088  1
  Ge  Ge20  1  0.063649  0.711241  0.436515  1
  Ge  Ge21  1  0.937643  0.288472  0.937915  1
  Ge  Ge22  1  0.709834  0.063411  0.563093  1
  Ge  Ge23  1  0.213022  0.433170  0.188281  1
  Ge  Ge24  1  0.787680  0.563971  0.687484  1
  Ge  Ge25  1  0.436690  0.212276  0.814438  1
  Ge  Ge26  1  0.564767  0.788822  0.312421  1
  Ge  Ge27  1  0.288813  0.936096  0.062970  1
  Ge  Ge28  1  0.847706  0.798958  0.811282  1
  Ge  Ge29  1  0.149885  0.204573  0.313298  1
  Ge  Ge30  1  0.798249  0.847616  0.185042  1
  Ge  Ge31  1  0.295817  0.650401  0.563298  1
  Ge  Ge32  1  0.705106  0.352121  0.063914  1
  Ge  Ge33  1  0.650287  0.295491  0.435812  1
  Ge  Ge34  1  0.350293  0.703969  0.937587  1
  Ge  Ge35  1  0.202856  0.151482  0.687151  1
