# generated using pymatgen
data_PrNdZr3Pb4
_symmetry_space_group_name_H-M   'P 1'
_cell_length_a   8.03408100
_cell_length_b   8.12424800
_cell_length_c   15.27329500
_cell_angle_alpha   90.00000000
_cell_angle_beta   90.00000000
_cell_angle_gamma   90.00000000
_symmetry_Int_Tables_number   1
_chemical_formula_structural   PrNdZr3Pb4
_chemical_formula_sum   'Pr4 Nd4 Zr12 Pb16'
_cell_volume   996.90119890
_cell_formula_units_Z   4
loop_
 _symmetry_equiv_pos_site_id
 _symmetry_equiv_pos_as_xyz
  1  'x, y, z'
loop_
 _atom_site_type_symbol
 _atom_site_label
 _atom_site_symmetry_multiplicity
 _atom_site_fract_x
 _atom_site_fract_y
 _atom_site_fract_z
 _atom_site_occupancy
  Pr  Pr0  1  0.483434  0.677179  0.593247  1
  Pr  Pr1  1  0.983434  0.822821  0.906753  1
  Pr  Pr2  1  0.516566  0.322821  0.093247  1
  Pr  Pr3  1  0.016566  0.177179  0.406753  1
  Nd  Nd4  1  0.517302  0.322048  0.406467  1
  Nd  Nd5  1  0.017302  0.177952  0.093533  1
  Nd  Nd6  1  0.482698  0.677952  0.906467  1
  Nd  Nd7  1  0.982698  0.822048  0.593533  1
  Zr  Zr8  1  0.647646  0.157747  0.628999  1
  Zr  Zr9  1  0.147646  0.342253  0.871001  1
  Zr  Zr10  1  0.352354  0.842253  0.128999  1
  Zr  Zr11  1  0.852354  0.657747  0.371001  1
  Zr  Zr12  1  0.351888  0.842252  0.371050  1
  Zr  Zr13  1  0.851888  0.657748  0.128950  1
  Zr  Zr14  1  0.648112  0.157748  0.871050  1
  Zr  Zr15  1  0.148112  0.342252  0.628950  1
  Zr  Zr16  1  0.826607  0.489432  0.749867  1
  Zr  Zr17  1  0.326607  0.010568  0.750133  1
  Zr  Zr18  1  0.173393  0.510568  0.249867  1
  Zr  Zr19  1  0.673393  0.989432  0.250133  1
  Pb  Pb20  1  0.691569  0.954943  0.455204  1
  Pb  Pb21  1  0.191569  0.545057  0.044796  1
  Pb  Pb22  1  0.308431  0.045057  0.955204  1
  Pb  Pb23  1  0.808431  0.454943  0.544796  1
  Pb  Pb24  1  0.307718  0.044434  0.545152  1
  Pb  Pb25  1  0.807718  0.455566  0.954848  1
  Pb  Pb26  1  0.692282  0.955566  0.045152  1
  Pb  Pb27  1  0.192282  0.544434  0.454848  1
  Pb  Pb28  1  0.454829  0.375030  0.750252  1
  Pb  Pb29  1  0.954829  0.124970  0.749748  1
  Pb  Pb30  1  0.545171  0.624970  0.250252  1
  Pb  Pb31  1  0.045171  0.875030  0.249748  1
  Pb  Pb32  1  0.676288  0.845062  0.750268  1
  Pb  Pb33  1  0.176288  0.654938  0.749732  1
  Pb  Pb34  1  0.323712  0.154938  0.250268  1
  Pb  Pb35  1  0.823712  0.345062  0.249732  1
