# generated using pymatgen
data_Er6Al24FePd2Ru5
_symmetry_space_group_name_H-M   'P 1'
_cell_length_a   8.82076941
_cell_length_b   8.78412202
_cell_length_c   9.51506600
_cell_angle_alpha   90.00000000
_cell_angle_beta   90.11707594
_cell_angle_gamma   119.86265520
_symmetry_Int_Tables_number   1
_chemical_formula_structural   Er6Al24FePd2Ru5
_chemical_formula_sum   'Er6 Al24 Fe1 Pd2 Ru5'
_cell_volume   639.35998462
_cell_formula_units_Z   1
loop_
 _symmetry_equiv_pos_site_id
 _symmetry_equiv_pos_as_xyz
  1  'x, y, z'
loop_
 _atom_site_type_symbol
 _atom_site_label
 _atom_site_symmetry_multiplicity
 _atom_site_fract_x
 _atom_site_fract_y
 _atom_site_fract_z
 _atom_site_occupancy
  Er  Er0  1  0.191803  0.387831  0.252459  1
  Er  Er1  1  0.808197  0.612169  0.747541  1
  Er  Er2  1  0.614429  0.807215  0.250934  1
  Er  Er3  1  0.385571  0.192785  0.749066  1
  Er  Er4  1  0.191803  0.803972  0.252459  1
  Er  Er5  1  0.808197  0.196028  0.747541  1
  Al  Al6  1  0.328020  0.664010  0.026318  1
  Al  Al7  1  0.671980  0.335990  0.973682  1
  Al  Al8  1  0.666700  0.333349  0.520338  1
  Al  Al9  1  0.333300  0.666651  0.479662  1
  Al  Al10  1  0.160555  0.320324  0.575664  1
  Al  Al11  1  0.839445  0.679676  0.424336  1
  Al  Al12  1  0.680609  0.840305  0.575505  1
  Al  Al13  1  0.842371  0.675717  0.078505  1
  Al  Al14  1  0.319391  0.159695  0.424495  1
  Al  Al15  1  0.157629  0.324283  0.921495  1
  Al  Al16  1  0.160555  0.840233  0.575664  1
  Al  Al17  1  0.321809  0.160903  0.080531  1
  Al  Al18  1  0.839445  0.159767  0.424336  1
  Al  Al19  1  0.678191  0.839097  0.919469  1
  Al  Al20  1  0.842371  0.166653  0.078505  1
  Al  Al21  1  0.157629  0.833347  0.921495  1
  Al  Al22  1  0.562166  0.124619  0.252334  1
  Al  Al23  1  0.437834  0.875381  0.747666  1
  Al  Al24  1  0.877071  0.438536  0.249264  1
  Al  Al25  1  0.122929  0.561464  0.750736  1
  Al  Al26  1  0.562166  0.437548  0.252334  1
  Al  Al27  1  0.437834  0.562452  0.747666  1
  Al  Al28  1  0.998685  0.999343  0.256447  1
  Al  Al29  1  0.001315  0.000657  0.743553  1
  Fe  Fe30  1  0.000000  0.000000  0.500000  1
  Pd  Pd31  1  0.500000  0.000000  0.000000  1
  Pd  Pd32  1  0.500000  0.500000  0.000000  1
  Ru  Ru33  1  0.000000  0.500000  0.000000  1
  Ru  Ru34  1  0.500000  0.000000  0.500000  1
  Ru  Ru35  1  0.000000  0.500000  0.500000  1
  Ru  Ru36  1  0.500000  0.500000  0.500000  1
  Ru  Ru37  1  0.000000  0.000000  0.000000  1
