# generated using pymatgen
data_Pa2I7F
_symmetry_space_group_name_H-M   'P 1'
_cell_length_a   7.84869899
_cell_length_b   9.52468110
_cell_length_c   9.52468078
_cell_angle_alpha   118.71199886
_cell_angle_beta   107.71553485
_cell_angle_gamma   109.04152561
_symmetry_Int_Tables_number   1
_chemical_formula_structural   Pa2I7F
_chemical_formula_sum   'Pa2 I7 F1'
_cell_volume   490.62388681
_cell_formula_units_Z   1
loop_
 _symmetry_equiv_pos_site_id
 _symmetry_equiv_pos_as_xyz
  1  'x, y, z'
loop_
 _atom_site_type_symbol
 _atom_site_label
 _atom_site_symmetry_multiplicity
 _atom_site_fract_x
 _atom_site_fract_y
 _atom_site_fract_z
 _atom_site_occupancy
  Pa  Pa0  1  0.022649  0.044746  0.977902  1
  Pa  Pa1  1  0.238355  0.703622  0.534733  1
  I  I2  1  0.334937  0.498998  0.220557  1
  I  I3  1  0.334937  0.114381  0.835940  1
  I  I4  1  0.705862  0.034192  0.671671  1
  I  I5  1  0.939693  0.634384  0.686948  1
  I  I6  1  0.556986  0.717003  0.839983  1
  I  I7  1  0.942962  0.692891  0.250071  1
  I  I8  1  0.939693  0.252744  0.305309  1
  F  F9  1  0.233923  0.057038  0.176885  1
