# generated using pymatgen
data_Rb2ZnSi3O8
_symmetry_space_group_name_H-M   'P 1'
_cell_length_a   5.41418366
_cell_length_b   6.95458668
_cell_length_c   7.08039188
_cell_angle_alpha   78.05980331
_cell_angle_beta   67.71232347
_cell_angle_gamma   67.22449860
_symmetry_Int_Tables_number   1
_chemical_formula_structural   Rb2ZnSi3O8
_chemical_formula_sum   'Rb2 Zn1 Si3 O8'
_cell_volume   226.88473728
_cell_formula_units_Z   1
loop_
 _symmetry_equiv_pos_site_id
 _symmetry_equiv_pos_as_xyz
  1  'x, y, z'
loop_
 _atom_site_type_symbol
 _atom_site_label
 _atom_site_symmetry_multiplicity
 _atom_site_fract_x
 _atom_site_fract_y
 _atom_site_fract_z
 _atom_site_occupancy
  Rb  Rb0  1  0.952067  0.293251  0.814782  1
  Rb  Rb1  1  0.093545  0.679837  0.148938  1
  Zn  Zn2  1  0.666927  0.888999  0.774438  1
  Si  Si3  1  0.324413  0.088089  0.259991  1
  Si  Si4  1  0.654663  0.286814  0.404635  1
  Si  Si5  1  0.343315  0.709610  0.602151  1
  O  O6  1  0.996831  0.251672  0.270185  1
  O  O7  1  0.544334  0.676032  0.733326  1
  O  O8  1  0.513516  0.231656  0.257217  1
  O  O9  1  0.044382  0.687359  0.750982  1
  O  O10  1  0.288586  0.945000  0.476673  1
  O  O11  1  0.605575  0.163818  0.624756  1
  O  O12  1  0.467763  0.957337  0.063712  1
  O  O13  1  0.504081  0.542529  0.416214  1
