# generated using pymatgen
data_Yb4CrNi(OsO6)2
_symmetry_space_group_name_H-M   'P 1'
_cell_length_a   5.30588917
_cell_length_b   5.55920752
_cell_length_c   7.64499217
_cell_angle_alpha   90.16769801
_cell_angle_beta   90.27025279
_cell_angle_gamma   89.97792484
_symmetry_Int_Tables_number   1
_chemical_formula_structural   Yb4CrNi(OsO6)2
_chemical_formula_sum   'Yb4 Cr1 Ni1 Os2 O12'
_cell_volume   225.49731962
_cell_formula_units_Z   1
loop_
 _symmetry_equiv_pos_site_id
 _symmetry_equiv_pos_as_xyz
  1  'x, y, z'
loop_
 _atom_site_type_symbol
 _atom_site_label
 _atom_site_symmetry_multiplicity
 _atom_site_fract_x
 _atom_site_fract_y
 _atom_site_fract_z
 _atom_site_occupancy
  Yb  Yb0  1  0.982644  0.068473  0.256167  1
  Yb  Yb1  1  0.519481  0.563637  0.252514  1
  Yb  Yb2  1  0.017355  0.931526  0.743834  1
  Yb  Yb3  1  0.480518  0.436364  0.747485  1
  Cr  Cr4  1  0.500000  0.000000  0.000000  1
  Ni  Ni5  1  0.000000  0.500000  0.500000  1
  Os  Os6  1  0.499999  0.999999  0.500000  1
  Os  Os7  1  0.999999  0.500001  0.999999  1
  O  O8  1  0.685204  0.292161  0.449444  1
  O  O9  1  0.809317  0.796093  0.053902  1
  O  O10  1  0.314796  0.707838  0.550556  1
  O  O11  1  0.190682  0.203908  0.946097  1
  O  O12  1  0.201561  0.190247  0.548394  1
  O  O13  1  0.300553  0.697355  0.947793  1
  O  O14  1  0.798438  0.809752  0.451606  1
  O  O15  1  0.699446  0.302646  0.052206  1
  O  O16  1  0.098946  0.471694  0.243382  1
  O  O17  1  0.402396  0.970184  0.250360  1
  O  O18  1  0.597604  0.029816  0.749640  1
  O  O19  1  0.901054  0.528306  0.756618  1
