# generated using pymatgen
data_Er20Ru7Pt5
_symmetry_space_group_name_H-M   'P 1'
_cell_length_a   10.82213304
_cell_length_b   10.82213323
_cell_length_c   6.41496400
_cell_angle_alpha   90.02508976
_cell_angle_beta   90.02509505
_cell_angle_gamma   89.73562708
_symmetry_Int_Tables_number   1
_chemical_formula_structural   Er20Ru7Pt5
_chemical_formula_sum   'Er20 Ru7 Pt5'
_cell_volume   751.30324070
_cell_formula_units_Z   1
loop_
 _symmetry_equiv_pos_site_id
 _symmetry_equiv_pos_as_xyz
  1  'x, y, z'
loop_
 _atom_site_type_symbol
 _atom_site_label
 _atom_site_symmetry_multiplicity
 _atom_site_fract_x
 _atom_site_fract_y
 _atom_site_fract_z
 _atom_site_occupancy
  Er  Er0  1  0.296980  0.088981  0.374014  1
  Er  Er1  1  0.296910  0.910267  0.873759  1
  Er  Er2  1  0.702170  0.083849  0.873511  1
  Er  Er3  1  0.702291  0.910465  0.374223  1
  Er  Er4  1  0.583980  0.790395  0.877578  1
  Er  Er5  1  0.582286  0.205436  0.372695  1
  Er  Er6  1  0.415218  0.792391  0.376986  1
  Er  Er7  1  0.412350  0.206344  0.879494  1
  Er  Er8  1  0.209605  0.416020  0.622422  1
  Er  Er9  1  0.207609  0.584782  0.123014  1
  Er  Er10  1  0.794564  0.417714  0.127305  1
  Er  Er11  1  0.793656  0.587650  0.620506  1
  Er  Er12  1  0.911019  0.703020  0.125986  1
  Er  Er13  1  0.916151  0.297830  0.626489  1
  Er  Er14  1  0.089733  0.703090  0.626241  1
  Er  Er15  1  0.089535  0.297709  0.125777  1
  Er  Er16  1  0.999876  0.999855  0.499335  1
  Er  Er17  1  0.000145  0.000124  0.000665  1
  Er  Er18  1  0.497450  0.501613  0.002274  1
  Er  Er19  1  0.498387  0.502550  0.497726  1
  Ru  Ru20  1  0.653585  0.652193  0.249488  1
  Ru  Ru21  1  0.347807  0.346415  0.250512  1
  Ru  Ru22  1  0.345881  0.654119  0.750000  1
  Ru  Ru23  1  0.499845  0.000358  0.122220  1
  Ru  Ru24  1  0.499866  0.000187  0.623727  1
  Ru  Ru25  1  0.999813  0.500134  0.876273  1
  Ru  Ru26  1  0.999642  0.500155  0.377780  1
  Pt  Pt27  1  0.847055  0.152945  0.250000  1
  Pt  Pt28  1  0.848639  0.848873  0.750163  1
  Pt  Pt29  1  0.151127  0.151361  0.749837  1
  Pt  Pt30  1  0.151723  0.848277  0.250000  1
  Pt  Pt31  1  0.655100  0.344900  0.750000  1
