# generated using pymatgen
data_BaSb12(RuRh)2
_symmetry_space_group_name_H-M   'P 1'
_cell_length_a   8.18693173
_cell_length_b   8.17913338
_cell_length_c   8.18693166
_cell_angle_alpha   109.46520138
_cell_angle_beta   109.51697598
_cell_angle_gamma   109.47007562
_symmetry_Int_Tables_number   1
_chemical_formula_structural   BaSb12(RuRh)2
_chemical_formula_sum   'Ba1 Sb12 Ru2 Rh2'
_cell_volume   421.81366074
_cell_formula_units_Z   1
loop_
 _symmetry_equiv_pos_site_id
 _symmetry_equiv_pos_as_xyz
  1  'x, y, z'
loop_
 _atom_site_type_symbol
 _atom_site_label
 _atom_site_symmetry_multiplicity
 _atom_site_fract_x
 _atom_site_fract_y
 _atom_site_fract_z
 _atom_site_occupancy
  Ba  Ba0  1  0.000000  0.000000  0.000000  1
  Sb  Sb1  1  0.157329  0.813364  0.656035  1
  Sb  Sb2  1  0.159393  0.500592  0.341199  1
  Sb  Sb3  1  0.498967  0.655491  0.839893  1
  Sb  Sb4  1  0.341246  0.840308  0.184467  1
  Sb  Sb5  1  0.815598  0.655491  0.156524  1
  Sb  Sb6  1  0.655840  0.840308  0.499062  1
  Sb  Sb7  1  0.184402  0.344509  0.843476  1
  Sb  Sb8  1  0.658754  0.159692  0.815533  1
  Sb  Sb9  1  0.344160  0.159692  0.500938  1
  Sb  Sb10  1  0.501033  0.344509  0.160107  1
  Sb  Sb11  1  0.840607  0.499408  0.658801  1
  Sb  Sb12  1  0.842671  0.186636  0.343965  1
  Ru  Ru13  1  0.500000  0.500000  0.500000  1
  Ru  Ru14  1  0.000000  0.500000  0.000000  1
  Rh  Rh15  1  0.000000  0.000000  0.500000  1
  Rh  Rh16  1  0.500000  0.000000  0.000000  1
