# generated using pymatgen
data_Zr4NiOs7
_symmetry_space_group_name_H-M   'P 1'
_cell_length_a   5.18968834
_cell_length_b   5.18968955
_cell_length_c   8.55442600
_cell_angle_alpha   90.00000000
_cell_angle_beta   90.00000000
_cell_angle_gamma   119.43812654
_symmetry_Int_Tables_number   1
_chemical_formula_structural   Zr4NiOs7
_chemical_formula_sum   'Zr4 Ni1 Os7'
_cell_volume   200.64822170
_cell_formula_units_Z   1
loop_
 _symmetry_equiv_pos_site_id
 _symmetry_equiv_pos_as_xyz
  1  'x, y, z'
loop_
 _atom_site_type_symbol
 _atom_site_label
 _atom_site_symmetry_multiplicity
 _atom_site_fract_x
 _atom_site_fract_y
 _atom_site_fract_z
 _atom_site_occupancy
  Zr  Zr0  1  0.334941  0.665059  0.431373  1
  Zr  Zr1  1  0.669789  0.330211  0.564428  1
  Zr  Zr2  1  0.669789  0.330211  0.935572  1
  Zr  Zr3  1  0.334941  0.665059  0.068627  1
  Ni  Ni4  1  0.827178  0.172822  0.250000  1
  Os  Os5  1  0.000604  0.999396  0.497406  1
  Os  Os6  1  0.000604  0.999396  0.002594  1
  Os  Os7  1  0.823221  0.656664  0.250000  1
  Os  Os8  1  0.343336  0.176779  0.250000  1
  Os  Os9  1  0.168483  0.831517  0.750000  1
  Os  Os10  1  0.173499  0.346386  0.750000  1
  Os  Os11  1  0.653614  0.826501  0.750000  1
