# generated using pymatgen
data_Lu7Ti4Si16Mo9
_symmetry_space_group_name_H-M   'P 1'
_cell_length_a   6.82609554
_cell_length_b   6.83087625
_cell_length_c   12.62152789
_cell_angle_alpha   89.94890199
_cell_angle_beta   90.14559878
_cell_angle_gamma   89.61720477
_symmetry_Int_Tables_number   1
_chemical_formula_structural   Lu7Ti4Si16Mo9
_chemical_formula_sum   'Lu7 Ti4 Si16 Mo9'
_cell_volume   588.50402455
_cell_formula_units_Z   1
loop_
 _symmetry_equiv_pos_site_id
 _symmetry_equiv_pos_as_xyz
  1  'x, y, z'
loop_
 _atom_site_type_symbol
 _atom_site_label
 _atom_site_symmetry_multiplicity
 _atom_site_fract_x
 _atom_site_fract_y
 _atom_site_fract_z
 _atom_site_occupancy
  Lu  Lu0  1  0.999337  0.334709  0.219450  1
  Lu  Lu1  1  0.160577  0.498630  0.467264  1
  Lu  Lu2  1  0.840482  0.498045  0.969999  1
  Lu  Lu3  1  0.499567  0.161459  0.530162  1
  Lu  Lu4  1  0.498993  0.840970  0.030883  1
  Lu  Lu5  1  0.001385  0.661380  0.719174  1
  Lu  Lu6  1  0.337694  0.002625  0.782164  1
  Ti  Ti7  1  0.653601  0.990103  0.283100  1
  Ti  Ti8  1  0.333401  0.669617  0.249046  1
  Ti  Ti9  1  0.666837  0.330961  0.751346  1
  Ti  Ti10  1  0.830962  0.832863  0.498172  1
  Si  Si11  1  0.039902  0.290203  0.815050  1
  Si  Si12  1  0.210706  0.534465  0.062658  1
  Si  Si13  1  0.793133  0.458505  0.562411  1
  Si  Si14  1  0.535520  0.210448  0.939583  1
  Si  Si15  1  0.461318  0.796162  0.433488  1
  Si  Si16  1  0.958364  0.711720  0.313460  1
  Si  Si17  1  0.299023  0.042024  0.186530  1
  Si  Si18  1  0.706565  0.962029  0.686137  1
  Si  Si19  1  0.296818  0.369523  0.681359  1
  Si  Si20  1  0.127282  0.801682  0.933115  1
  Si  Si21  1  0.862495  0.197485  0.426225  1
  Si  Si22  1  0.798714  0.126554  0.070808  1
  Si  Si23  1  0.202731  0.869657  0.567260  1
  Si  Si24  1  0.705834  0.637077  0.183791  1
  Si  Si25  1  0.376648  0.292084  0.318418  1
  Si  Si26  1  0.629939  0.703889  0.817068  1
  Mo  Mo27  1  0.994516  0.158440  0.622167  1
  Mo  Mo28  1  0.344328  0.498870  0.872044  1
  Mo  Mo29  1  0.657939  0.508290  0.373418  1
  Mo  Mo30  1  0.504255  0.346524  0.129835  1
  Mo  Mo31  1  0.506368  0.658597  0.624553  1
  Mo  Mo32  1  0.005052  0.836059  0.125597  1
  Mo  Mo33  1  0.158933  0.997646  0.375513  1
  Mo  Mo34  1  0.831636  0.003140  0.876996  1
  Mo  Mo35  1  0.169144  0.167565  0.001756  1
