# generated using pymatgen
data_Dy2Sc3Sn3Hg
_symmetry_space_group_name_H-M   'P 1'
_cell_length_a   7.57694000
_cell_length_b   8.00247300
_cell_length_c   14.84798700
_cell_angle_alpha   90.00000000
_cell_angle_beta   90.00000000
_cell_angle_gamma   90.00000000
_symmetry_Int_Tables_number   1
_chemical_formula_structural   Dy2Sc3Sn3Hg
_chemical_formula_sum   'Dy8 Sc12 Sn12 Hg4'
_cell_volume   900.29667116
_cell_formula_units_Z   4
loop_
 _symmetry_equiv_pos_site_id
 _symmetry_equiv_pos_as_xyz
  1  'x, y, z'
loop_
 _atom_site_type_symbol
 _atom_site_label
 _atom_site_symmetry_multiplicity
 _atom_site_fract_x
 _atom_site_fract_y
 _atom_site_fract_z
 _atom_site_occupancy
  Dy  Dy0  1  0.996156  0.180224  0.091683  1
  Dy  Dy1  1  0.003844  0.819776  0.908317  1
  Dy  Dy2  1  0.503844  0.680224  0.908317  1
  Dy  Dy3  1  0.003844  0.819776  0.591683  1
  Dy  Dy4  1  0.496156  0.319776  0.091683  1
  Dy  Dy5  1  0.996156  0.180224  0.408317  1
  Dy  Dy6  1  0.496156  0.319776  0.408317  1
  Dy  Dy7  1  0.503844  0.680224  0.591683  1
  Sc  Sc8  1  0.170959  0.497190  0.750000  1
  Sc  Sc9  1  0.829041  0.502810  0.250000  1
  Sc  Sc10  1  0.329041  0.997190  0.250000  1
  Sc  Sc11  1  0.670959  0.002810  0.750000  1
  Sc  Sc12  1  0.333115  0.163379  0.627316  1
  Sc  Sc13  1  0.666885  0.836621  0.372684  1
  Sc  Sc14  1  0.166885  0.663379  0.372684  1
  Sc  Sc15  1  0.666885  0.836621  0.127316  1
  Sc  Sc16  1  0.833115  0.336621  0.627316  1
  Sc  Sc17  1  0.333115  0.163379  0.872684  1
  Sc  Sc18  1  0.833115  0.336621  0.872684  1
  Sc  Sc19  1  0.166885  0.663379  0.127316  1
  Sn  Sn20  1  0.300343  0.856944  0.750000  1
  Sn  Sn21  1  0.699657  0.143056  0.250000  1
  Sn  Sn22  1  0.199657  0.356944  0.250000  1
  Sn  Sn23  1  0.800343  0.643056  0.750000  1
  Sn  Sn24  1  0.180238  0.458828  0.542635  1
  Sn  Sn25  1  0.819762  0.541172  0.457365  1
  Sn  Sn26  1  0.319762  0.958828  0.457365  1
  Sn  Sn27  1  0.819762  0.541172  0.042635  1
  Sn  Sn28  1  0.680238  0.041172  0.542635  1
  Sn  Sn29  1  0.180238  0.458828  0.957365  1
  Sn  Sn30  1  0.680238  0.041172  0.957365  1
  Sn  Sn31  1  0.319762  0.958828  0.042635  1
  Hg  Hg32  1  0.028848  0.122074  0.750000  1
  Hg  Hg33  1  0.971152  0.877926  0.250000  1
  Hg  Hg34  1  0.471152  0.622074  0.250000  1
  Hg  Hg35  1  0.528848  0.377926  0.750000  1
