# generated using pymatgen
data_Y17Er3(NiAg3)2
_symmetry_space_group_name_H-M   'P 1'
_cell_length_a   9.52516529
_cell_length_b   9.52516539
_cell_length_c   9.60269845
_cell_angle_alpha   90.10574251
_cell_angle_beta   89.89425661
_cell_angle_gamma   119.97475213
_symmetry_Int_Tables_number   1
_chemical_formula_structural   Y17Er3(NiAg3)2
_chemical_formula_sum   'Y17 Er3 Ni2 Ag6'
_cell_volume   754.70706689
_cell_formula_units_Z   1
loop_
 _symmetry_equiv_pos_site_id
 _symmetry_equiv_pos_as_xyz
  1  'x, y, z'
loop_
 _atom_site_type_symbol
 _atom_site_label
 _atom_site_symmetry_multiplicity
 _atom_site_fract_x
 _atom_site_fract_y
 _atom_site_fract_z
 _atom_site_occupancy
  Y  Y0  1  0.543765  0.456235  0.250096  1
  Y  Y1  1  0.542987  0.086707  0.250431  1
  Y  Y2  1  0.913293  0.457013  0.250431  1
  Y  Y3  1  0.456373  0.543627  0.750016  1
  Y  Y4  1  0.455736  0.912325  0.749325  1
  Y  Y5  1  0.087675  0.544264  0.749325  1
  Y  Y6  1  0.209161  0.419263  0.440223  1
  Y  Y7  1  0.580737  0.790839  0.440223  1
  Y  Y8  1  0.790858  0.209142  0.559873  1
  Y  Y9  1  0.791476  0.581731  0.559563  1
  Y  Y10  1  0.418269  0.208524  0.559563  1
  Y  Y11  1  0.790686  0.209314  0.940216  1
  Y  Y12  1  0.790813  0.581414  0.940179  1
  Y  Y13  1  0.418586  0.209187  0.940179  1
  Y  Y14  1  0.209239  0.790761  0.060635  1
  Y  Y15  1  0.209281  0.418549  0.059807  1
  Y  Y16  1  0.581451  0.790719  0.059807  1
  Er  Er17  1  0.000454  0.999546  0.499718  1
  Er  Er18  1  0.999987  0.000013  0.999797  1
  Er  Er19  1  0.210002  0.789998  0.439601  1
  Ni  Ni20  1  0.332190  0.667810  0.251412  1
  Ni  Ni21  1  0.666639  0.333361  0.749880  1
  Ag  Ag22  1  0.884350  0.115650  0.250025  1
  Ag  Ag23  1  0.884469  0.768625  0.250125  1
  Ag  Ag24  1  0.231375  0.115531  0.250125  1
  Ag  Ag25  1  0.115762  0.884238  0.749490  1
  Ag  Ag26  1  0.115677  0.231291  0.749967  1
  Ag  Ag27  1  0.768709  0.884323  0.749967  1
