# generated using pymatgen
data_PmGeIrF
_symmetry_space_group_name_H-M   'P 1'
_cell_length_a   4.12442800
_cell_length_b   4.12442800
_cell_length_c   8.22165200
_cell_angle_alpha   90.00000000
_cell_angle_beta   90.00000000
_cell_angle_gamma   90.00000000
_symmetry_Int_Tables_number   1
_chemical_formula_structural   PmGeIrF
_chemical_formula_sum   'Pm2 Ge2 Ir2 F2'
_cell_volume   139.85775203
_cell_formula_units_Z   2
loop_
 _symmetry_equiv_pos_site_id
 _symmetry_equiv_pos_as_xyz
  1  'x, y, z'
loop_
 _atom_site_type_symbol
 _atom_site_label
 _atom_site_symmetry_multiplicity
 _atom_site_fract_x
 _atom_site_fract_y
 _atom_site_fract_z
 _atom_site_occupancy
  Pm  Pm0  1  0.500000  0.000000  0.185376  1
  Pm  Pm1  1  0.000000  0.500000  0.814624  1
  Ge  Ge2  1  0.000000  0.500000  0.329298  1
  Ge  Ge3  1  0.500000  0.000000  0.670703  1
  Ir  Ir4  1  0.000000  0.000000  0.499999  1
  Ir  Ir5  1  0.500000  0.500000  0.499999  1
  F  F6  1  0.000000  0.000000  0.000000  1
  F  F7  1  0.500000  0.500000  0.000000  1
