# generated using pymatgen
data_Ti4Sn2PtRh9
_symmetry_space_group_name_H-M   'P 1'
_cell_length_a   4.04317800
_cell_length_b   5.53782425
_cell_length_c   10.93796297
_cell_angle_alpha   90.28202679
_cell_angle_beta   90.00000000
_cell_angle_gamma   90.00000000
_symmetry_Int_Tables_number   1
_chemical_formula_structural   Ti4Sn2PtRh9
_chemical_formula_sum   'Ti4 Sn2 Pt1 Rh9'
_cell_volume   244.90249942
_cell_formula_units_Z   1
loop_
 _symmetry_equiv_pos_site_id
 _symmetry_equiv_pos_as_xyz
  1  'x, y, z'
loop_
 _atom_site_type_symbol
 _atom_site_label
 _atom_site_symmetry_multiplicity
 _atom_site_fract_x
 _atom_site_fract_y
 _atom_site_fract_z
 _atom_site_occupancy
  Ti  Ti0  1  0.500000  0.331482  0.140412  1
  Ti  Ti1  1  0.500000  0.679703  0.855631  1
  Ti  Ti2  1  0.500000  0.813807  0.360711  1
  Ti  Ti3  1  0.500000  0.177587  0.644417  1
  Sn  Sn4  1  0.000000  0.001877  0.997851  1
  Sn  Sn5  1  0.000000  0.495333  0.501194  1
  Pt  Pt6  1  0.000000  0.054998  0.248716  1
  Rh  Rh7  1  0.000000  0.995405  0.499713  1
  Rh  Rh8  1  0.000000  0.503293  0.999843  1
  Rh  Rh9  1  0.000000  0.944298  0.750729  1
  Rh  Rh10  1  0.000000  0.554996  0.252051  1
  Rh  Rh11  1  0.000000  0.444446  0.748593  1
  Rh  Rh12  1  0.500000  0.282730  0.380823  1
  Rh  Rh13  1  0.500000  0.714699  0.618771  1
  Rh  Rh14  1  0.500000  0.787230  0.119264  1
  Rh  Rh15  1  0.500000  0.218116  0.881281  1
