# generated using pymatgen
data_Li4Sm6Pd13
_symmetry_space_group_name_H-M   'P 1'
_cell_length_a   8.32524930
_cell_length_b   8.32525033
_cell_length_c   8.32525000
_cell_angle_alpha   109.47122469
_cell_angle_beta   109.47122719
_cell_angle_gamma   109.47121845
_symmetry_Int_Tables_number   1
_chemical_formula_structural   Li4Sm6Pd13
_chemical_formula_sum   'Li4 Sm6 Pd13'
_cell_volume   444.19114513
_cell_formula_units_Z   1
loop_
 _symmetry_equiv_pos_site_id
 _symmetry_equiv_pos_as_xyz
  1  'x, y, z'
loop_
 _atom_site_type_symbol
 _atom_site_label
 _atom_site_symmetry_multiplicity
 _atom_site_fract_x
 _atom_site_fract_y
 _atom_site_fract_z
 _atom_site_occupancy
  Li  Li0  1  0.000000  0.000000  0.500000  1
  Li  Li1  1  0.000000  0.500000  0.000000  1
  Li  Li2  1  0.500000  0.000000  0.000000  1
  Li  Li3  1  0.500000  0.500000  0.500000  1
  Sm  Sm4  1  0.693253  0.693253  0.000000  1
  Sm  Sm5  1  0.306747  0.000000  0.306747  1
  Sm  Sm6  1  0.000000  0.306747  0.306747  1
  Sm  Sm7  1  0.306747  0.306747  0.000000  1
  Sm  Sm8  1  0.693253  0.000000  0.693253  1
  Sm  Sm9  1  0.000000  0.693253  0.693253  1
  Pd  Pd10  1  0.331914  0.331914  0.663829  1
  Pd  Pd11  1  0.668086  0.000000  0.331914  1
  Pd  Pd12  1  0.000000  0.668086  0.331914  1
  Pd  Pd13  1  0.668086  0.331914  0.000000  1
  Pd  Pd14  1  0.331914  0.663829  0.331914  1
  Pd  Pd15  1  0.000000  0.331914  0.668086  1
  Pd  Pd16  1  0.331914  0.668086  0.000000  1
  Pd  Pd17  1  0.331914  0.000000  0.668086  1
  Pd  Pd18  1  0.663829  0.331914  0.331914  1
  Pd  Pd19  1  0.668086  0.668086  0.336171  1
  Pd  Pd20  1  0.668086  0.336171  0.668086  1
  Pd  Pd21  1  0.336171  0.668086  0.668086  1
  Pd  Pd22  1  0.000000  0.000000  0.000000  1
