# generated using pymatgen
data_LaY4Si12Ir19
_symmetry_space_group_name_H-M   'P 1'
_cell_length_a   12.86043900
_cell_length_b   12.86044072
_cell_length_c   3.99819500
_cell_angle_alpha   90.00000000
_cell_angle_beta   90.00000000
_cell_angle_gamma   120.00000329
_symmetry_Int_Tables_number   1
_chemical_formula_structural   LaY4Si12Ir19
_chemical_formula_sum   'La1 Y4 Si12 Ir19'
_cell_volume   572.67237624
_cell_formula_units_Z   1
loop_
 _symmetry_equiv_pos_site_id
 _symmetry_equiv_pos_as_xyz
  1  'x, y, z'
loop_
 _atom_site_type_symbol
 _atom_site_label
 _atom_site_symmetry_multiplicity
 _atom_site_fract_x
 _atom_site_fract_y
 _atom_site_fract_z
 _atom_site_occupancy
  La  La0  1  0.666667  0.333333  0.000000  1
  Y  Y1  1  0.999969  0.814355  0.500000  1
  Y  Y2  1  0.185645  0.185614  0.500000  1
  Y  Y3  1  0.814386  0.000031  0.500000  1
  Y  Y4  1  0.333333  0.666667  0.000000  1
  Si  Si5  1  0.001246  0.181688  0.000000  1
  Si  Si6  1  0.818312  0.819559  0.000000  1
  Si  Si7  1  0.180441  0.998754  0.000000  1
  Si  Si8  1  0.519029  0.688392  0.500000  1
  Si  Si9  1  0.311608  0.830636  0.500000  1
  Si  Si10  1  0.169364  0.480971  0.500000  1
  Si  Si11  1  0.477542  0.165345  0.500000  1
  Si  Si12  1  0.687802  0.522458  0.500000  1
  Si  Si13  1  0.834655  0.312198  0.500000  1
  Si  Si14  1  0.000086  0.631481  0.000000  1
  Si  Si15  1  0.368519  0.368604  0.000000  1
  Si  Si16  1  0.631396  0.999914  0.000000  1
  Ir  Ir17  1  0.001544  0.282689  0.500000  1
  Ir  Ir18  1  0.717311  0.718855  0.500000  1
  Ir  Ir19  1  0.281145  0.998456  0.500000  1
  Ir  Ir20  1  0.622677  0.806057  0.000000  1
  Ir  Ir21  1  0.193943  0.816622  0.000000  1
  Ir  Ir22  1  0.183378  0.377323  0.000000  1
  Ir  Ir23  1  0.374293  0.181320  0.000000  1
  Ir  Ir24  1  0.807027  0.625707  0.000000  1
  Ir  Ir25  1  0.818680  0.192973  0.000000  1
  Ir  Ir26  1  0.511372  0.873190  0.500000  1
  Ir  Ir27  1  0.126810  0.638183  0.500000  1
  Ir  Ir28  1  0.361817  0.488628  0.500000  1
  Ir  Ir29  1  0.485257  0.361148  0.500000  1
  Ir  Ir30  1  0.875892  0.514743  0.500000  1
  Ir  Ir31  1  0.638852  0.124108  0.500000  1
  Ir  Ir32  1  0.000000  0.000000  0.000000  1
  Ir  Ir33  1  0.999913  0.446834  0.000000  1
  Ir  Ir34  1  0.553166  0.553079  0.000000  1
  Ir  Ir35  1  0.446921  0.000087  0.000000  1
