# generated using pymatgen
data_Hf5Co10SnB4
_symmetry_space_group_name_H-M   'P 1'
_cell_length_a   8.75555100
_cell_length_b   8.75555100
_cell_length_c   3.17064400
_cell_angle_alpha   90.00000000
_cell_angle_beta   90.00000000
_cell_angle_gamma   90.00000000
_symmetry_Int_Tables_number   1
_chemical_formula_structural   Hf5Co10SnB4
_chemical_formula_sum   'Hf5 Co10 Sn1 B4'
_cell_volume   243.06053323
_cell_formula_units_Z   1
loop_
 _symmetry_equiv_pos_site_id
 _symmetry_equiv_pos_as_xyz
  1  'x, y, z'
loop_
 _atom_site_type_symbol
 _atom_site_label
 _atom_site_symmetry_multiplicity
 _atom_site_fract_x
 _atom_site_fract_y
 _atom_site_fract_z
 _atom_site_occupancy
  Hf  Hf0  1  0.500000  0.500000  0.000000  1
  Hf  Hf1  1  0.826485  0.322983  0.000000  1
  Hf  Hf2  1  0.322983  0.173515  0.000000  1
  Hf  Hf3  1  0.677017  0.826485  0.000000  1
  Hf  Hf4  1  0.173515  0.677017  0.000000  1
  Co  Co5  1  0.500000  0.000000  0.500000  1
  Co  Co6  1  0.000000  0.500000  0.500000  1
  Co  Co7  1  0.070698  0.229360  0.500000  1
  Co  Co8  1  0.229360  0.929302  0.500000  1
  Co  Co9  1  0.770640  0.070698  0.500000  1
  Co  Co10  1  0.929302  0.770640  0.500000  1
  Co  Co11  1  0.429893  0.728410  0.500000  1
  Co  Co12  1  0.570107  0.271590  0.500000  1
  Co  Co13  1  0.728410  0.570107  0.500000  1
  Co  Co14  1  0.271590  0.429893  0.500000  1
  Sn  Sn15  1  0.000000  0.000000  0.000000  1
  B  B16  1  0.617364  0.118781  0.000000  1
  B  B17  1  0.118781  0.382636  0.000000  1
  B  B18  1  0.881219  0.617364  0.000000  1
  B  B19  1  0.382636  0.881219  0.000000  1
