# generated using pymatgen
data_Sr6Si11Ge
_symmetry_space_group_name_H-M   'P 1'
_cell_length_a   4.01446800
_cell_length_b   4.01446690
_cell_length_c   30.51539200
_cell_angle_alpha   90.00000000
_cell_angle_beta   90.00000000
_cell_angle_gamma   120.00000907
_symmetry_Int_Tables_number   1
_chemical_formula_structural   Sr6Si11Ge
_chemical_formula_sum   'Sr6 Si11 Ge1'
_cell_volume   425.89782980
_cell_formula_units_Z   1
loop_
 _symmetry_equiv_pos_site_id
 _symmetry_equiv_pos_as_xyz
  1  'x, y, z'
loop_
 _atom_site_type_symbol
 _atom_site_label
 _atom_site_symmetry_multiplicity
 _atom_site_fract_x
 _atom_site_fract_y
 _atom_site_fract_z
 _atom_site_occupancy
  Sr  Sr0  1  0.000000  0.000000  0.332046  1
  Sr  Sr1  1  0.000000  0.000000  0.835313  1
  Sr  Sr2  1  0.000000  0.000000  0.167059  1
  Sr  Sr3  1  0.000000  0.000000  0.000683  1
  Sr  Sr4  1  0.000000  0.000000  0.669320  1
  Sr  Sr5  1  0.000000  0.000000  0.494962  1
  Si  Si6  1  0.333333  0.666667  0.403241  1
  Si  Si7  1  0.333333  0.666667  0.260384  1
  Si  Si8  1  0.333333  0.666667  0.095997  1
  Si  Si9  1  0.666667  0.333333  0.905641  1
  Si  Si10  1  0.666667  0.333333  0.741108  1
  Si  Si11  1  0.666667  0.333333  0.597723  1
  Si  Si12  1  0.333333  0.666667  0.929901  1
  Si  Si13  1  0.333333  0.666667  0.764270  1
  Si  Si14  1  0.666667  0.333333  0.237790  1
  Si  Si15  1  0.666667  0.333333  0.071436  1
  Si  Si16  1  0.666667  0.333333  0.425315  1
  Ge  Ge17  1  0.333333  0.666667  0.567811  1
