# generated using pymatgen
data_Cd3PdRu3PbO14
_symmetry_space_group_name_H-M   'P 1'
_cell_length_a   7.30808364
_cell_length_b   7.27459268
_cell_length_c   7.30808322
_cell_angle_alpha   59.42266418
_cell_angle_beta   59.74207376
_cell_angle_gamma   59.42266601
_symmetry_Int_Tables_number   1
_chemical_formula_structural   Cd3PdRu3PbO14
_chemical_formula_sum   'Cd3 Pd1 Ru3 Pb1 O14'
_cell_volume   271.77939862
_cell_formula_units_Z   1
loop_
 _symmetry_equiv_pos_site_id
 _symmetry_equiv_pos_as_xyz
  1  'x, y, z'
loop_
 _atom_site_type_symbol
 _atom_site_label
 _atom_site_symmetry_multiplicity
 _atom_site_fract_x
 _atom_site_fract_y
 _atom_site_fract_z
 _atom_site_occupancy
  Cd  Cd0  1  0.125000  0.625000  0.125000  1
  Cd  Cd1  1  0.125000  0.125000  0.625000  1
  Cd  Cd2  1  0.625000  0.125000  0.125000  1
  Pd  Pd3  1  0.625000  0.125000  0.625000  1
  Ru  Ru4  1  0.625000  0.625000  0.125000  1
  Ru  Ru5  1  0.125000  0.625000  0.625000  1
  Ru  Ru6  1  0.625000  0.625000  0.625000  1
  Pb  Pb7  1  0.125000  0.125000  0.125000  1
  O  O8  1  0.702195  0.667209  0.313667  1
  O  O9  1  0.936333  0.582791  0.547805  1
  O  O10  1  0.542735  0.953801  0.963531  1
  O  O11  1  0.963531  0.953801  0.542735  1
  O  O12  1  0.943955  0.552407  0.943955  1
  O  O13  1  0.541344  0.951788  0.541344  1
  O  O14  1  0.306045  0.697593  0.306045  1
  O  O15  1  0.313667  0.667209  0.702195  1
  O  O16  1  0.707265  0.296199  0.286469  1
  O  O17  1  0.708656  0.298212  0.708656  1
  O  O18  1  0.547805  0.582791  0.936333  1
  O  O19  1  0.286469  0.296199  0.707265  1
  O  O20  1  0.250762  0.260104  0.250762  1
  O  O21  1  0.999238  0.989896  0.999238  1
