# generated using pymatgen
data_PrPa(FeB)8
_symmetry_space_group_name_H-M   'P 1'
_cell_length_a   7.01242200
_cell_length_b   7.01242200
_cell_length_c   3.80776600
_cell_angle_alpha   90.00000000
_cell_angle_beta   90.00000000
_cell_angle_gamma   90.00000000
_symmetry_Int_Tables_number   1
_chemical_formula_structural   PrPa(FeB)8
_chemical_formula_sum   'Pr1 Pa1 Fe8 B8'
_cell_volume   187.24332253
_cell_formula_units_Z   1
loop_
 _symmetry_equiv_pos_site_id
 _symmetry_equiv_pos_as_xyz
  1  'x, y, z'
loop_
 _atom_site_type_symbol
 _atom_site_label
 _atom_site_symmetry_multiplicity
 _atom_site_fract_x
 _atom_site_fract_y
 _atom_site_fract_z
 _atom_site_occupancy
  Pr  Pr0  1  0.500000  0.500000  0.500000  1
  Pa  Pa1  1  0.000000  0.000000  0.000000  1
  Fe  Fe2  1  0.128775  0.383222  0.898157  1
  Fe  Fe3  1  0.871225  0.616778  0.898157  1
  Fe  Fe4  1  0.889525  0.364528  0.394913  1
  Fe  Fe5  1  0.110475  0.635472  0.394913  1
  Fe  Fe6  1  0.364528  0.110475  0.605087  1
  Fe  Fe7  1  0.635472  0.889525  0.605087  1
  Fe  Fe8  1  0.616778  0.128775  0.101843  1
  Fe  Fe9  1  0.383222  0.871225  0.101843  1
  B  B10  1  0.665782  0.800603  0.105072  1
  B  B11  1  0.334218  0.199397  0.105072  1
  B  B12  1  0.290777  0.836813  0.602252  1
  B  B13  1  0.709223  0.163187  0.602252  1
  B  B14  1  0.836813  0.709223  0.397748  1
  B  B15  1  0.163187  0.290777  0.397748  1
  B  B16  1  0.199397  0.665782  0.894928  1
  B  B17  1  0.800603  0.334218  0.894928  1
