# generated using pymatgen
data_Sr2Hg3Pb
_symmetry_space_group_name_H-M   'P 1'
_cell_length_a   6.56118915
_cell_length_b   6.54365342
_cell_length_c   6.54365231
_cell_angle_alpha   134.51448739
_cell_angle_beta   104.64334898
_cell_angle_gamma   92.59696670
_symmetry_Int_Tables_number   1
_chemical_formula_structural   Sr2Hg3Pb
_chemical_formula_sum   'Sr2 Hg3 Pb1'
_cell_volume   183.46677800
_cell_formula_units_Z   1
loop_
 _symmetry_equiv_pos_site_id
 _symmetry_equiv_pos_as_xyz
  1  'x, y, z'
loop_
 _atom_site_type_symbol
 _atom_site_label
 _atom_site_symmetry_multiplicity
 _atom_site_fract_x
 _atom_site_fract_y
 _atom_site_fract_z
 _atom_site_occupancy
  Sr  Sr0  1  0.781124  0.534928  0.246195  1
  Sr  Sr1  1  0.215913  0.462586  0.753327  1
  Hg  Hg2  1  0.386786  0.844795  0.541992  1
  Hg  Hg3  1  0.627240  0.167701  0.459539  1
  Hg  Hg4  1  0.784264  0.830913  0.953352  1
  Pb  Pb5  1  0.204673  0.159077  0.045595  1
