# generated using pymatgen
data_Dy12Fe4BiRh
_symmetry_space_group_name_H-M   'P 1'
_cell_length_a   8.35397732
_cell_length_b   8.35400033
_cell_length_c   8.35397779
_cell_angle_alpha   110.85447367
_cell_angle_beta   111.03549380
_cell_angle_gamma   106.56221675
_symmetry_Int_Tables_number   1
_chemical_formula_structural   Dy12Fe4BiRh
_chemical_formula_sum   'Dy12 Fe4 Bi1 Rh1'
_cell_volume   447.94393231
_cell_formula_units_Z   1
loop_
 _symmetry_equiv_pos_site_id
 _symmetry_equiv_pos_as_xyz
  1  'x, y, z'
loop_
 _atom_site_type_symbol
 _atom_site_label
 _atom_site_symmetry_multiplicity
 _atom_site_fract_x
 _atom_site_fract_y
 _atom_site_fract_z
 _atom_site_occupancy
  Dy  Dy0  1  0.814609  0.711799  0.526405  1
  Dy  Dy1  1  0.185391  0.288201  0.473595  1
  Dy  Dy2  1  0.185393  0.711799  0.897188  1
  Dy  Dy3  1  0.814607  0.288201  0.102812  1
  Dy  Dy4  1  0.690912  0.385037  0.694124  1
  Dy  Dy5  1  0.309088  0.614963  0.305876  1
  Dy  Dy6  1  0.690916  0.996796  0.305882  1
  Dy  Dy7  1  0.309084  0.003204  0.694118  1
  Dy  Dy8  1  0.593178  0.790812  0.802363  1
  Dy  Dy9  1  0.406822  0.209188  0.197637  1
  Dy  Dy10  1  0.988451  0.790812  0.197634  1
  Dy  Dy11  1  0.011549  0.209188  0.802366  1
  Fe  Fe12  1  0.614067  0.000000  0.614067  1
  Fe  Fe13  1  0.385933  0.000000  0.385933  1
  Fe  Fe14  1  0.106143  0.606139  0.499996  1
  Fe  Fe15  1  0.893857  0.393861  0.500004  1
  Bi  Bi16  1  0.500000  0.500000  0.000000  1
  Rh  Rh17  1  0.000000  0.000000  0.000000  1
