# generated using pymatgen
data_Hf3PN
_symmetry_space_group_name_H-M   'P 1'
_cell_length_a   5.75832044
_cell_length_b   5.75832078
_cell_length_c   8.32717600
_cell_angle_alpha   90.00000000
_cell_angle_beta   90.00000000
_cell_angle_gamma   145.83830795
_symmetry_Int_Tables_number   1
_chemical_formula_structural   Hf3PN
_chemical_formula_sum   'Hf6 P2 N2'
_cell_volume   155.04672480
_cell_formula_units_Z   2
loop_
 _symmetry_equiv_pos_site_id
 _symmetry_equiv_pos_as_xyz
  1  'x, y, z'
loop_
 _atom_site_type_symbol
 _atom_site_label
 _atom_site_symmetry_multiplicity
 _atom_site_fract_x
 _atom_site_fract_y
 _atom_site_fract_z
 _atom_site_occupancy
  Hf  Hf0  1  0.864460  0.135542  0.058669  1
  Hf  Hf1  1  0.563705  0.436297  0.250000  1
  Hf  Hf2  1  0.864460  0.135542  0.441332  1
  Hf  Hf3  1  0.135542  0.864460  0.558669  1
  Hf  Hf4  1  0.436297  0.563705  0.750000  1
  Hf  Hf5  1  0.135542  0.864460  0.941332  1
  P  P6  1  0.242888  0.757114  0.250000  1
  P  P7  1  0.757114  0.242888  0.750000  1
  N  N8  1  0.500001  0.500001  0.000000  1
  N  N9  1  0.500001  0.500001  0.500000  1
