# generated using pymatgen
data_Li3Lu4GaPt4
_symmetry_space_group_name_H-M   'P 1'
_cell_length_a   3.99552000
_cell_length_b   6.89564827
_cell_length_c   8.26754978
_cell_angle_alpha   89.73005241
_cell_angle_beta   90.00000000
_cell_angle_gamma   90.00000000
_symmetry_Int_Tables_number   1
_chemical_formula_structural   Li3Lu4GaPt4
_chemical_formula_sum   'Li3 Lu4 Ga1 Pt4'
_cell_volume   227.78252778
_cell_formula_units_Z   1
loop_
 _symmetry_equiv_pos_site_id
 _symmetry_equiv_pos_as_xyz
  1  'x, y, z'
loop_
 _atom_site_type_symbol
 _atom_site_label
 _atom_site_symmetry_multiplicity
 _atom_site_fract_x
 _atom_site_fract_y
 _atom_site_fract_z
 _atom_site_occupancy
  Li  Li0  1  0.250000  0.369727  0.561105  1
  Li  Li1  1  0.250000  0.870786  0.941053  1
  Li  Li2  1  0.750000  0.628351  0.440454  1
  Lu  Lu3  1  0.250000  0.957061  0.319694  1
  Lu  Lu4  1  0.250000  0.452345  0.178279  1
  Lu  Lu5  1  0.750000  0.048683  0.680646  1
  Lu  Lu6  1  0.750000  0.545262  0.819561  1
  Ga  Ga7  1  0.750000  0.124433  0.059197  1
  Pt  Pt8  1  0.250000  0.251335  0.880325  1
  Pt  Pt9  1  0.250000  0.759653  0.626171  1
  Pt  Pt10  1  0.750000  0.746586  0.123273  1
  Pt  Pt11  1  0.750000  0.245778  0.370242  1
