# generated using pymatgen
data_LaTb3Er3CoI12
_symmetry_space_group_name_H-M   'P 1'
_cell_length_a   9.76368331
_cell_length_b   9.76368472
_cell_length_c   9.76368471
_cell_angle_alpha   106.30029957
_cell_angle_beta   106.30029405
_cell_angle_gamma   106.30031289
_symmetry_Int_Tables_number   1
_chemical_formula_structural   LaTb3Er3CoI12
_chemical_formula_sum   'La1 Tb3 Er3 Co1 I12'
_cell_volume   789.48026515
_cell_formula_units_Z   1
loop_
 _symmetry_equiv_pos_site_id
 _symmetry_equiv_pos_as_xyz
  1  'x, y, z'
loop_
 _atom_site_type_symbol
 _atom_site_label
 _atom_site_symmetry_multiplicity
 _atom_site_fract_x
 _atom_site_fract_y
 _atom_site_fract_z
 _atom_site_occupancy
  La  La0  1  0.996831  0.996831  0.996831  1
  Tb  Tb1  1  0.481926  0.409836  0.213231  1
  Tb  Tb2  1  0.213231  0.481926  0.409836  1
  Tb  Tb3  1  0.409836  0.213231  0.481926  1
  Er  Er4  1  0.516935  0.588221  0.780852  1
  Er  Er5  1  0.780852  0.516935  0.588221  1
  Er  Er6  1  0.588221  0.780852  0.516935  1
  Co  Co7  1  0.498704  0.498704  0.498704  1
  I  I8  1  0.278436  0.823916  0.427014  1
  I  I9  1  0.427014  0.278436  0.823916  1
  I  I10  1  0.823916  0.427014  0.278436  1
  I  I11  1  0.724744  0.176732  0.572743  1
  I  I12  1  0.572743  0.724744  0.176732  1
  I  I13  1  0.176732  0.572743  0.724744  1
  I  I14  1  0.043555  0.122849  0.351251  1
  I  I15  1  0.351251  0.043555  0.122849  1
  I  I16  1  0.122849  0.351251  0.043555  1
  I  I17  1  0.951988  0.873058  0.642544  1
  I  I18  1  0.642544  0.951988  0.873058  1
  I  I19  1  0.873058  0.642544  0.951988  1
