# generated using pymatgen
data_LiLa10Mg(AlRu3)2
_symmetry_space_group_name_H-M   'P 1'
_cell_length_a   8.70745580
_cell_length_b   8.70352318
_cell_length_c   8.63313314
_cell_angle_alpha   109.54997401
_cell_angle_beta   109.44271815
_cell_angle_gamma   109.75170289
_symmetry_Int_Tables_number   1
_chemical_formula_structural   LiLa10Mg(AlRu3)2
_chemical_formula_sum   'Li1 La10 Mg1 Al2 Ru6'
_cell_volume   501.58561845
_cell_formula_units_Z   1
loop_
 _symmetry_equiv_pos_site_id
 _symmetry_equiv_pos_as_xyz
  1  'x, y, z'
loop_
 _atom_site_type_symbol
 _atom_site_label
 _atom_site_symmetry_multiplicity
 _atom_site_fract_x
 _atom_site_fract_y
 _atom_site_fract_z
 _atom_site_occupancy
  Li  Li0  1  0.586083  0.589247  0.586578  1
  La  La1  1  0.245479  0.679428  0.436472  1
  La  La2  1  0.748248  0.805957  0.062695  1
  La  La3  1  0.435388  0.253850  0.689244  1
  La  La4  1  0.692834  0.446949  0.255254  1
  La  La5  1  0.054217  0.742536  0.807930  1
  La  La6  1  0.818316  0.065178  0.750868  1
  La  La7  1  0.216077  0.214674  0.213538  1
  La  La8  1  0.501622  0.000148  0.295971  1
  La  La9  1  0.284837  0.503022  0.999641  1
  La  La10  1  0.998409  0.283319  0.498632  1
  Mg  Mg11  1  0.499705  0.001253  0.914103  1
  Al  Al12  1  0.910821  0.497436  0.000586  1
  Al  Al13  1  0.003019  0.912201  0.499077  1
  Ru  Ru14  1  0.242015  0.127244  0.864674  1
  Ru  Ru15  1  0.759600  0.375568  0.635892  1
  Ru  Ru16  1  0.889135  0.259016  0.122291  1
  Ru  Ru17  1  0.115040  0.863338  0.248202  1
  Ru  Ru18  1  0.640490  0.766494  0.373097  1
  Ru  Ru19  1  0.358668  0.613143  0.745258  1
