# generated using pymatgen
data_Th8FeSe17
_symmetry_space_group_name_H-M   'P 1'
_cell_length_a   8.47863927
_cell_length_b   8.47863944
_cell_length_c   11.22959561
_cell_angle_alpha   80.20270965
_cell_angle_beta   80.20270840
_cell_angle_gamma   64.53439680
_symmetry_Int_Tables_number   1
_chemical_formula_structural   Th8FeSe17
_chemical_formula_sum   'Th8 Fe1 Se17'
_cell_volume   713.92387464
_cell_formula_units_Z   1
loop_
 _symmetry_equiv_pos_site_id
 _symmetry_equiv_pos_as_xyz
  1  'x, y, z'
loop_
 _atom_site_type_symbol
 _atom_site_label
 _atom_site_symmetry_multiplicity
 _atom_site_fract_x
 _atom_site_fract_y
 _atom_site_fract_z
 _atom_site_occupancy
  Th  Th0  1  0.815743  0.301654  0.294838  1
  Th  Th1  1  0.301654  0.815743  0.294838  1
  Th  Th2  1  0.184257  0.698346  0.705162  1
  Th  Th3  1  0.698346  0.184257  0.705162  1
  Th  Th4  1  0.202607  0.202607  0.545641  1
  Th  Th5  1  0.797393  0.797393  0.454359  1
  Th  Th6  1  0.683711  0.683711  0.980104  1
  Th  Th7  1  0.316289  0.316289  0.019896  1
  Fe  Fe8  1  0.000000  0.000000  0.000000  1
  Se  Se9  1  0.821815  0.431965  0.531844  1
  Se  Se10  1  0.431965  0.821815  0.531844  1
  Se  Se11  1  0.178185  0.568035  0.468156  1
  Se  Se12  1  0.568035  0.178185  0.468156  1
  Se  Se13  1  0.944502  0.323404  0.030074  1
  Se  Se14  1  0.323404  0.944502  0.030074  1
  Se  Se15  1  0.055498  0.676596  0.969926  1
  Se  Se16  1  0.676596  0.055498  0.969926  1
  Se  Se17  1  0.210309  0.210309  0.278826  1
  Se  Se18  1  0.789691  0.789691  0.721174  1
  Se  Se19  1  0.057825  0.057825  0.774290  1
  Se  Se20  1  0.942175  0.942175  0.225710  1
  Se  Se21  1  0.302293  0.302293  0.754663  1
  Se  Se22  1  0.697707  0.697707  0.245337  1
  Se  Se23  1  0.519758  0.519758  0.831745  1
  Se  Se24  1  0.480242  0.480242  0.168255  1
  Se  Se25  1  0.000000  0.000000  0.500000  1
