# generated using pymatgen
data_Zr4Mn2AlOs5
_symmetry_space_group_name_H-M   'P 1'
_cell_length_a   5.16963856
_cell_length_b   5.27289488
_cell_length_c   8.47015944
_cell_angle_alpha   90.00000302
_cell_angle_beta   90.57252914
_cell_angle_gamma   120.66296383
_symmetry_Int_Tables_number   1
_chemical_formula_structural   Zr4Mn2AlOs5
_chemical_formula_sum   'Zr4 Mn2 Al1 Os5'
_cell_volume   198.59210499
_cell_formula_units_Z   1
loop_
 _symmetry_equiv_pos_site_id
 _symmetry_equiv_pos_as_xyz
  1  'x, y, z'
loop_
 _atom_site_type_symbol
 _atom_site_label
 _atom_site_symmetry_multiplicity
 _atom_site_fract_x
 _atom_site_fract_y
 _atom_site_fract_z
 _atom_site_occupancy
  Zr  Zr0  1  0.335146  0.667573  0.059243  1
  Zr  Zr1  1  0.666353  0.333176  0.571287  1
  Zr  Zr2  1  0.664854  0.332427  0.940757  1
  Zr  Zr3  1  0.333647  0.666824  0.428713  1
  Mn  Mn4  1  0.667536  0.833767  0.752993  1
  Mn  Mn5  1  0.332464  0.166233  0.247007  1
  Al  Al6  1  0.000000  0.000000  0.500000  1
  Os  Os7  1  0.000000  0.000000  0.000000  1
  Os  Os8  1  0.175992  0.346975  0.747754  1
  Os  Os9  1  0.824008  0.170984  0.252246  1
  Os  Os10  1  0.824008  0.653025  0.252246  1
  Os  Os11  1  0.175992  0.829016  0.747754  1
