# generated using pymatgen
data_Li8Y6Ho2Sn7Bi
_symmetry_space_group_name_H-M   'P 1'
_cell_length_a   9.41669600
_cell_length_b   9.41736699
_cell_length_c   7.28178100
_cell_angle_alpha   90.09504883
_cell_angle_beta   90.00049150
_cell_angle_gamma   119.99372552
_symmetry_Int_Tables_number   1
_chemical_formula_structural   Li8Y6Ho2Sn7Bi
_chemical_formula_sum   'Li8 Y6 Ho2 Sn7 Bi1'
_cell_volume   559.27182983
_cell_formula_units_Z   1
loop_
 _symmetry_equiv_pos_site_id
 _symmetry_equiv_pos_as_xyz
  1  'x, y, z'
loop_
 _atom_site_type_symbol
 _atom_site_label
 _atom_site_symmetry_multiplicity
 _atom_site_fract_x
 _atom_site_fract_y
 _atom_site_fract_z
 _atom_site_occupancy
  Li  Li0  1  0.166517  0.333119  0.284659  1
  Li  Li1  1  0.167982  0.833717  0.288431  1
  Li  Li2  1  0.665677  0.833756  0.288377  1
  Li  Li3  1  0.833455  0.666821  0.786859  1
  Li  Li4  1  0.829222  0.164756  0.791209  1
  Li  Li5  1  0.335584  0.164716  0.791155  1
  Li  Li6  1  0.335339  0.670682  0.669726  1
  Li  Li7  1  0.666015  0.332064  0.171964  1
  Y  Y8  1  0.512602  0.025107  0.493702  1
  Y  Y9  1  0.517096  0.490788  0.491050  1
  Y  Y10  1  0.973784  0.490781  0.490972  1
  Y  Y11  1  0.487419  0.974903  0.994596  1
  Y  Y12  1  0.493403  0.514469  0.996415  1
  Y  Y13  1  0.020978  0.514441  0.996355  1
  Ho  Ho14  1  0.997260  0.994554  0.497134  1
  Ho  Ho15  1  0.997702  0.995375  0.002515  1
  Sn  Sn16  1  0.166405  0.833169  0.730328  1
  Sn  Sn17  1  0.666813  0.833166  0.730261  1
  Sn  Sn18  1  0.833353  0.666869  0.231036  1
  Sn  Sn19  1  0.834114  0.167165  0.230164  1
  Sn  Sn20  1  0.333015  0.167136  0.230194  1
  Sn  Sn21  1  0.332669  0.665364  0.260900  1
  Sn  Sn22  1  0.667045  0.334057  0.761432  1
  Bi  Bi23  1  0.166552  0.333026  0.732537  1
