# generated using pymatgen
data_Nd5V3Si3P9Ir16
_symmetry_space_group_name_H-M   'P 1'
_cell_length_a   12.94410200
_cell_length_b   12.94410186
_cell_length_c   4.00311100
_cell_angle_alpha   90.00000000
_cell_angle_beta   90.00000000
_cell_angle_gamma   120.00000036
_symmetry_Int_Tables_number   1
_chemical_formula_structural   Nd5V3Si3P9Ir16
_chemical_formula_sum   'Nd5 V3 Si3 P9 Ir16'
_cell_volume   580.86085679
_cell_formula_units_Z   1
loop_
 _symmetry_equiv_pos_site_id
 _symmetry_equiv_pos_as_xyz
  1  'x, y, z'
loop_
 _atom_site_type_symbol
 _atom_site_label
 _atom_site_symmetry_multiplicity
 _atom_site_fract_x
 _atom_site_fract_y
 _atom_site_fract_z
 _atom_site_occupancy
  Nd  Nd0  1  0.333333  0.666667  0.000000  1
  Nd  Nd1  1  0.666667  0.333333  0.000000  1
  Nd  Nd2  1  0.809412  0.998040  0.500000  1
  Nd  Nd3  1  0.001960  0.811373  0.500000  1
  Nd  Nd4  1  0.188627  0.190588  0.500000  1
  V  V5  1  0.448127  0.004808  0.000000  1
  V  V6  1  0.995192  0.443319  0.000000  1
  V  V7  1  0.556681  0.551873  0.000000  1
  Si  Si8  1  0.163257  0.479641  0.500000  1
  Si  Si9  1  0.520359  0.683615  0.500000  1
  Si  Si10  1  0.316385  0.836743  0.500000  1
  P  P11  1  0.181200  0.001864  0.000000  1
  P  P12  1  0.998136  0.179337  0.000000  1
  P  P13  1  0.820663  0.818800  0.000000  1
  P  P14  1  0.686821  0.519496  0.500000  1
  P  P15  1  0.832674  0.313179  0.500000  1
  P  P16  1  0.480504  0.167326  0.500000  1
  P  P17  1  0.627743  0.994983  0.000000  1
  P  P18  1  0.005017  0.632760  0.000000  1
  P  P19  1  0.367240  0.372257  0.000000  1
  Ir  Ir20  1  0.359613  0.482670  0.500000  1
  Ir  Ir21  1  0.517330  0.876943  0.500000  1
  Ir  Ir22  1  0.123057  0.640387  0.500000  1
  Ir  Ir23  1  0.866453  0.506247  0.500000  1
  Ir  Ir24  1  0.639794  0.133547  0.500000  1
  Ir  Ir25  1  0.493753  0.360206  0.500000  1
  Ir  Ir26  1  0.175670  0.375435  0.000000  1
  Ir  Ir27  1  0.624565  0.800236  0.000000  1
  Ir  Ir28  1  0.199764  0.824330  0.000000  1
  Ir  Ir29  1  0.806865  0.623683  0.000000  1
  Ir  Ir30  1  0.816819  0.193135  0.000000  1
  Ir  Ir31  1  0.376317  0.183181  0.000000  1
  Ir  Ir32  1  0.284792  0.005270  0.500000  1
  Ir  Ir33  1  0.994730  0.279522  0.500000  1
  Ir  Ir34  1  0.720478  0.715208  0.500000  1
  Ir  Ir35  1  0.000000  0.000000  0.000000  1
