# generated using pymatgen
data_RbNd3Te8
_symmetry_space_group_name_H-M   'P 1'
_cell_length_a   14.40361388
_cell_length_b   13.00252000
_cell_length_c   9.05294700
_cell_angle_alpha   90.00000000
_cell_angle_beta   98.97702153
_cell_angle_gamma   90.00000000
_symmetry_Int_Tables_number   1
_chemical_formula_structural   RbNd3Te8
_chemical_formula_sum   'Rb4 Nd12 Te32'
_cell_volume   1674.69782606
_cell_formula_units_Z   4
loop_
 _symmetry_equiv_pos_site_id
 _symmetry_equiv_pos_as_xyz
  1  'x, y, z'
loop_
 _atom_site_type_symbol
 _atom_site_label
 _atom_site_symmetry_multiplicity
 _atom_site_fract_x
 _atom_site_fract_y
 _atom_site_fract_z
 _atom_site_occupancy
  Rb  Rb0  1  0.964563  0.908145  0.241806  1
  Rb  Rb1  1  0.035436  0.408144  0.258195  1
  Rb  Rb2  1  0.964563  0.591856  0.741804  1
  Rb  Rb3  1  0.035437  0.091855  0.758194  1
  Nd  Nd4  1  0.353404  0.414741  0.080930  1
  Nd  Nd5  1  0.350098  0.750659  0.087733  1
  Nd  Nd6  1  0.355145  0.084440  0.095860  1
  Nd  Nd7  1  0.644851  0.584436  0.404139  1
  Nd  Nd8  1  0.649902  0.250656  0.412266  1
  Nd  Nd9  1  0.646600  0.914738  0.419073  1
  Nd  Nd10  1  0.353400  0.085261  0.580926  1
  Nd  Nd11  1  0.350099  0.749344  0.587735  1
  Nd  Nd12  1  0.355149  0.415565  0.595861  1
  Nd  Nd13  1  0.644856  0.915561  0.904140  1
  Nd  Nd14  1  0.649902  0.249342  0.912267  1
  Nd  Nd15  1  0.646595  0.585259  0.919070  1
  Te  Te16  1  0.178328  0.917378  0.034543  1
  Te  Te17  1  0.181915  0.249362  0.045124  1
  Te  Te18  1  0.178069  0.583527  0.054400  1
  Te  Te19  1  0.583688  0.415986  0.143798  1
  Te  Te20  1  0.579387  0.754400  0.145005  1
  Te  Te21  1  0.585931  0.079005  0.148361  1
  Te  Te22  1  0.822371  0.600153  0.205952  1
  Te  Te23  1  0.827568  0.232310  0.206445  1
  Te  Te24  1  0.172434  0.732317  0.293550  1
  Te  Te25  1  0.177626  0.100154  0.294046  1
  Te  Te26  1  0.414068  0.579005  0.351639  1
  Te  Te27  1  0.420613  0.254399  0.354992  1
  Te  Te28  1  0.416311  0.915986  0.356202  1
  Te  Te29  1  0.821932  0.083526  0.445601  1
  Te  Te30  1  0.818086  0.749359  0.454879  1
  Te  Te31  1  0.821673  0.417372  0.465456  1
  Te  Te32  1  0.178327  0.582629  0.534544  1
  Te  Te33  1  0.181914  0.250640  0.545122  1
  Te  Te34  1  0.178068  0.916474  0.554400  1
  Te  Te35  1  0.583690  0.084014  0.643797  1
  Te  Te36  1  0.579387  0.745601  0.645008  1
  Te  Te37  1  0.585932  0.420994  0.648362  1
  Te  Te38  1  0.822373  0.899846  0.705954  1
  Te  Te39  1  0.827567  0.267682  0.706450  1
  Te  Te40  1  0.172432  0.767690  0.793555  1
  Te  Te41  1  0.177628  0.399846  0.794048  1
  Te  Te42  1  0.414068  0.920994  0.851639  1
  Te  Te43  1  0.420613  0.245600  0.854996  1
  Te  Te44  1  0.416312  0.584015  0.856201  1
  Te  Te45  1  0.821931  0.416472  0.945600  1
  Te  Te46  1  0.818085  0.750637  0.954876  1
  Te  Te47  1  0.821672  0.082622  0.965456  1
