# generated using pymatgen
data_BaCdSnSe4
_symmetry_space_group_name_H-M   'P 1'
_cell_length_a   6.71194551
_cell_length_b   6.71194602
_cell_length_c   11.59290900
_cell_angle_alpha   90.00000000
_cell_angle_beta   90.00000000
_cell_angle_gamma   117.26514082
_symmetry_Int_Tables_number   1
_chemical_formula_structural   BaCdSnSe4
_chemical_formula_sum   'Ba2 Cd2 Sn2 Se8'
_cell_volume   464.23759938
_cell_formula_units_Z   2
loop_
 _symmetry_equiv_pos_site_id
 _symmetry_equiv_pos_as_xyz
  1  'x, y, z'
loop_
 _atom_site_type_symbol
 _atom_site_label
 _atom_site_symmetry_multiplicity
 _atom_site_fract_x
 _atom_site_fract_y
 _atom_site_fract_z
 _atom_site_occupancy
  Ba  Ba0  1  0.950718  0.950718  0.500000  1
  Ba  Ba1  1  0.950718  0.950718  0.000000  1
  Cd  Cd2  1  0.678762  0.351055  0.750000  1
  Cd  Cd3  1  0.351055  0.678762  0.250000  1
  Sn  Sn4  1  0.245397  0.671726  0.750000  1
  Sn  Sn5  1  0.671726  0.245397  0.250000  1
  Se  Se6  1  0.992167  0.463190  0.577791  1
  Se  Se7  1  0.463190  0.992167  0.422209  1
  Se  Se8  1  0.653716  0.755118  0.750000  1
  Se  Se9  1  0.755118  0.653716  0.250000  1
  Se  Se10  1  0.992167  0.463190  0.922209  1
  Se  Se11  1  0.463190  0.992167  0.077791  1
  Se  Se12  1  0.251798  0.061076  0.750000  1
  Se  Se13  1  0.061076  0.251798  0.250000  1
