# generated using pymatgen
data_Li2ZnF4
_symmetry_space_group_name_H-M   'P 1'
_cell_length_a   6.02468800
_cell_length_b   6.02468800
_cell_length_c   8.44119900
_cell_angle_alpha   90.00000000
_cell_angle_beta   90.00000000
_cell_angle_gamma   90.00000000
_symmetry_Int_Tables_number   1
_chemical_formula_structural   Li2ZnF4
_chemical_formula_sum   'Li8 Zn4 F16'
_cell_volume   306.38906474
_cell_formula_units_Z   4
loop_
 _symmetry_equiv_pos_site_id
 _symmetry_equiv_pos_as_xyz
  1  'x, y, z'
loop_
 _atom_site_type_symbol
 _atom_site_label
 _atom_site_symmetry_multiplicity
 _atom_site_fract_x
 _atom_site_fract_y
 _atom_site_fract_z
 _atom_site_occupancy
  Li  Li0  1  0.254487  0.254487  0.375000  1
  Li  Li1  1  0.254487  0.745513  0.125000  1
  Li  Li2  1  0.271158  0.500000  0.750000  1
  Li  Li3  1  0.500000  0.271158  0.000000  1
  Li  Li4  1  0.500000  0.728842  0.500000  1
  Li  Li5  1  0.728842  0.500000  0.250000  1
  Li  Li6  1  0.745513  0.254487  0.625000  1
  Li  Li7  1  0.745513  0.745513  0.875000  1
  Zn  Zn8  1  0.000000  0.265562  0.000000  1
  Zn  Zn9  1  0.000000  0.734438  0.500000  1
  Zn  Zn10  1  0.265562  0.000000  0.750000  1
  Zn  Zn11  1  0.734438  0.000000  0.250000  1
  F  F12  1  0.018213  0.247658  0.754607  1
  F  F13  1  0.018213  0.752342  0.745393  1
  F  F14  1  0.247658  0.018213  0.995393  1
  F  F15  1  0.247658  0.981787  0.504607  1
  F  F16  1  0.251629  0.487251  0.992650  1
  F  F17  1  0.251629  0.512749  0.507350  1
  F  F18  1  0.487251  0.251629  0.757350  1
  F  F19  1  0.487251  0.748371  0.742650  1
  F  F20  1  0.512749  0.251629  0.242650  1
  F  F21  1  0.512749  0.748371  0.257350  1
  F  F22  1  0.748371  0.512749  0.492650  1
  F  F23  1  0.748371  0.487251  0.007350  1
  F  F24  1  0.752342  0.981787  0.495393  1
  F  F25  1  0.752342  0.018213  0.004607  1
  F  F26  1  0.981787  0.247658  0.245393  1
  F  F27  1  0.981787  0.752342  0.254607  1
