# generated using pymatgen
data_Ba3CdPbO6
_symmetry_space_group_name_H-M   'P 1'
_cell_length_a   7.36570816
_cell_length_b   7.36570879
_cell_length_c   7.36570831
_cell_angle_alpha   92.11092809
_cell_angle_beta   92.11092690
_cell_angle_gamma   92.11092513
_symmetry_Int_Tables_number   1
_chemical_formula_structural   Ba3CdPbO6
_chemical_formula_sum   'Ba6 Cd2 Pb2 O12'
_cell_volume   398.78252377
_cell_formula_units_Z   2
loop_
 _symmetry_equiv_pos_site_id
 _symmetry_equiv_pos_as_xyz
  1  'x, y, z'
loop_
 _atom_site_type_symbol
 _atom_site_label
 _atom_site_symmetry_multiplicity
 _atom_site_fract_x
 _atom_site_fract_y
 _atom_site_fract_z
 _atom_site_occupancy
  Ba  Ba0  1  0.392252  0.107748  0.750000  1
  Ba  Ba1  1  0.107748  0.750000  0.392252  1
  Ba  Ba2  1  0.750000  0.392252  0.107748  1
  Ba  Ba3  1  0.607748  0.892252  0.250000  1
  Ba  Ba4  1  0.250000  0.607748  0.892252  1
  Ba  Ba5  1  0.892252  0.250000  0.607748  1
  Cd  Cd6  1  0.750000  0.750000  0.750000  1
  Cd  Cd7  1  0.250000  0.250000  0.250000  1
  Pb  Pb8  1  0.500000  0.500000  0.500000  1
  Pb  Pb9  1  0.000000  0.000000  0.000000  1
  O  O10  1  0.957087  0.089865  0.287575  1
  O  O11  1  0.287575  0.957087  0.089865  1
  O  O12  1  0.089865  0.287575  0.957087  1
  O  O13  1  0.542913  0.212425  0.410135  1
  O  O14  1  0.410135  0.542913  0.212425  1
  O  O15  1  0.212425  0.410135  0.542913  1
  O  O16  1  0.042913  0.910135  0.712425  1
  O  O17  1  0.712425  0.042913  0.910135  1
  O  O18  1  0.910135  0.712425  0.042913  1
  O  O19  1  0.457087  0.787575  0.589865  1
  O  O20  1  0.787575  0.589865  0.457087  1
  O  O21  1  0.589865  0.457087  0.787575  1
