# generated using pymatgen
data_Pr5Nd7(Si2Rh3)4
_symmetry_space_group_name_H-M   'P 1'
_cell_length_a   5.74933302
_cell_length_b   7.78674804
_cell_length_c   15.05457405
_cell_angle_alpha   90.00893060
_cell_angle_beta   89.99822751
_cell_angle_gamma   89.99168967
_symmetry_Int_Tables_number   1
_chemical_formula_structural   Pr5Nd7(Si2Rh3)4
_chemical_formula_sum   'Pr5 Nd7 Si8 Rh12'
_cell_volume   673.97230276
_cell_formula_units_Z   1
loop_
 _symmetry_equiv_pos_site_id
 _symmetry_equiv_pos_as_xyz
  1  'x, y, z'
loop_
 _atom_site_type_symbol
 _atom_site_label
 _atom_site_symmetry_multiplicity
 _atom_site_fract_x
 _atom_site_fract_y
 _atom_site_fract_z
 _atom_site_occupancy
  Pr  Pr0  1  0.140659  0.472494  0.890452  1
  Pr  Pr1  1  0.359355  0.972527  0.890448  1
  Pr  Pr2  1  0.640928  0.027579  0.390879  1
  Pr  Pr3  1  0.859845  0.527720  0.109670  1
  Pr  Pr4  1  0.858961  0.527612  0.390977  1
  Nd  Nd5  1  0.617593  0.333799  0.749552  1
  Nd  Nd6  1  0.382312  0.666517  0.250060  1
  Nd  Nd7  1  0.359241  0.972464  0.608953  1
  Nd  Nd8  1  0.882512  0.833754  0.749660  1
  Nd  Nd9  1  0.140965  0.472409  0.608875  1
  Nd  Nd10  1  0.641029  0.027222  0.108786  1
  Nd  Nd11  1  0.118013  0.165754  0.250020  1
  Si  Si12  1  0.366883  0.373365  0.097739  1
  Si  Si13  1  0.633748  0.625747  0.902136  1
  Si  Si14  1  0.866132  0.125827  0.902016  1
  Si  Si15  1  0.366081  0.374462  0.402336  1
  Si  Si16  1  0.866056  0.126019  0.597868  1
  Si  Si17  1  0.634020  0.626158  0.597888  1
  Si  Si18  1  0.134050  0.874399  0.402450  1
  Si  Si19  1  0.134435  0.874491  0.097870  1
  Rh  Rh20  1  0.602811  0.337356  0.962299  1
  Rh  Rh21  1  0.397932  0.662477  0.037961  1
  Rh  Rh22  1  0.571200  0.319744  0.249801  1
  Rh  Rh23  1  0.396058  0.662358  0.462898  1
  Rh  Rh24  1  0.072449  0.179510  0.749437  1
  Rh  Rh25  1  0.103891  0.162412  0.462890  1
  Rh  Rh26  1  0.427221  0.679650  0.749414  1
  Rh  Rh27  1  0.927719  0.821016  0.249906  1
  Rh  Rh28  1  0.101685  0.162563  0.037835  1
  Rh  Rh29  1  0.601378  0.337396  0.538140  1
  Rh  Rh30  1  0.898721  0.837346  0.538123  1
  Rh  Rh31  1  0.896116  0.837856  0.962661  1
