# generated using pymatgen
data_Mn6Co2Mo3W
_symmetry_space_group_name_H-M   'P 1'
_cell_length_a   4.65952100
_cell_length_b   4.65952077
_cell_length_c   7.86092600
_cell_angle_alpha   90.00000000
_cell_angle_beta   90.00000000
_cell_angle_gamma   120.00000874
_symmetry_Int_Tables_number   1
_chemical_formula_structural   Mn6Co2Mo3W
_chemical_formula_sum   'Mn6 Co2 Mo3 W1'
_cell_volume   147.80421755
_cell_formula_units_Z   1
loop_
 _symmetry_equiv_pos_site_id
 _symmetry_equiv_pos_as_xyz
  1  'x, y, z'
loop_
 _atom_site_type_symbol
 _atom_site_label
 _atom_site_symmetry_multiplicity
 _atom_site_fract_x
 _atom_site_fract_y
 _atom_site_fract_z
 _atom_site_occupancy
  Mn  Mn0  1  0.827609  0.172391  0.750120  1
  Mn  Mn1  1  0.827609  0.655216  0.750120  1
  Mn  Mn2  1  0.344784  0.172391  0.750120  1
  Mn  Mn3  1  0.172646  0.827354  0.250118  1
  Mn  Mn4  1  0.172646  0.345294  0.250118  1
  Mn  Mn5  1  0.654706  0.827354  0.250118  1
  Co  Co6  1  0.000000  0.000000  0.000292  1
  Co  Co7  1  0.000000  0.000000  0.500006  1
  Mo  Mo8  1  0.333333  0.666667  0.933424  1
  Mo  Mo9  1  0.666667  0.333333  0.066719  1
  Mo  Mo10  1  0.666667  0.333333  0.433052  1
  W  W11  1  0.333333  0.666667  0.565794  1
