# generated using pymatgen
data_YTa2(Nb2Sn3)2
_symmetry_space_group_name_H-M   'P 1'
_cell_length_a   5.80908900
_cell_length_b   5.80696038
_cell_length_c   9.60450100
_cell_angle_alpha   90.00000000
_cell_angle_beta   90.00000000
_cell_angle_gamma   119.98787617
_symmetry_Int_Tables_number   1
_chemical_formula_structural   YTa2(Nb2Sn3)2
_chemical_formula_sum   'Y1 Ta2 Nb4 Sn6'
_cell_volume   280.61790306
_cell_formula_units_Z   1
loop_
 _symmetry_equiv_pos_site_id
 _symmetry_equiv_pos_as_xyz
  1  'x, y, z'
loop_
 _atom_site_type_symbol
 _atom_site_label
 _atom_site_symmetry_multiplicity
 _atom_site_fract_x
 _atom_site_fract_y
 _atom_site_fract_z
 _atom_site_occupancy
  Y  Y0  1  0.000000  0.000000  0.999958  1
  Ta  Ta1  1  0.500000  0.500000  0.750860  1
  Ta  Ta2  1  0.500000  0.000000  0.750860  1
  Nb  Nb3  1  0.000000  0.500000  0.750491  1
  Nb  Nb4  1  0.000000  0.500000  0.249511  1
  Nb  Nb5  1  0.500000  0.500000  0.249581  1
  Nb  Nb6  1  0.500000  0.000000  0.249581  1
  Sn  Sn7  1  0.666341  0.333170  0.499866  1
  Sn  Sn8  1  0.333659  0.666830  0.499866  1
  Sn  Sn9  1  0.666641  0.333321  0.000091  1
  Sn  Sn10  1  0.333359  0.666679  0.000091  1
  Sn  Sn11  1  0.000000  0.000000  0.668800  1
  Sn  Sn12  1  0.000000  0.000000  0.330443  1
