# generated using pymatgen
data_Nd2Cd2In6Pd
_symmetry_space_group_name_H-M   'P 1'
_cell_length_a   4.78473400
_cell_length_b   4.67401500
_cell_length_c   12.29968100
_cell_angle_alpha   90.00000000
_cell_angle_beta   90.00000000
_cell_angle_gamma   90.00000000
_symmetry_Int_Tables_number   1
_chemical_formula_structural   Nd2Cd2In6Pd
_chemical_formula_sum   'Nd2 Cd2 In6 Pd1'
_cell_volume   275.06906330
_cell_formula_units_Z   1
loop_
 _symmetry_equiv_pos_site_id
 _symmetry_equiv_pos_as_xyz
  1  'x, y, z'
loop_
 _atom_site_type_symbol
 _atom_site_label
 _atom_site_symmetry_multiplicity
 _atom_site_fract_x
 _atom_site_fract_y
 _atom_site_fract_z
 _atom_site_occupancy
  Nd  Nd0  1  0.500000  0.500000  0.309513  1
  Nd  Nd1  1  0.500000  0.500000  0.692420  1
  Cd  Cd2  1  0.000000  0.500000  0.123817  1
  Cd  Cd3  1  0.000000  0.500000  0.499265  1
  In  In4  1  0.500000  0.000000  0.122987  1
  In  In5  1  0.000000  0.000000  0.310295  1
  In  In6  1  0.500000  0.000000  0.500055  1
  In  In7  1  0.000000  0.000000  0.687473  1
  In  In8  1  0.000000  0.500000  0.880760  1
  In  In9  1  0.500000  0.000000  0.876302  1
  Pd  Pd10  1  0.500000  0.500000  0.997115  1
