# generated using pymatgen
data_Sr(TmSe2)2
_symmetry_space_group_name_H-M   'P 1'
_cell_length_a   4.10267500
_cell_length_b   12.64287600
_cell_length_c   14.84918700
_cell_angle_alpha   90.00000000
_cell_angle_beta   90.00000000
_cell_angle_gamma   90.00000000
_symmetry_Int_Tables_number   1
_chemical_formula_structural   Sr(TmSe2)2
_chemical_formula_sum   'Sr4 Tm8 Se16'
_cell_volume   770.22155771
_cell_formula_units_Z   4
loop_
 _symmetry_equiv_pos_site_id
 _symmetry_equiv_pos_as_xyz
  1  'x, y, z'
loop_
 _atom_site_type_symbol
 _atom_site_label
 _atom_site_symmetry_multiplicity
 _atom_site_fract_x
 _atom_site_fract_y
 _atom_site_fract_z
 _atom_site_occupancy
  Sr  Sr0  1  0.250000  0.760385  0.334026  1
  Sr  Sr1  1  0.250000  0.260385  0.165974  1
  Sr  Sr2  1  0.750000  0.239615  0.665974  1
  Sr  Sr3  1  0.750000  0.739615  0.834026  1
  Tm  Tm4  1  0.250000  0.438813  0.389666  1
  Tm  Tm5  1  0.250000  0.938813  0.110334  1
  Tm  Tm6  1  0.750000  0.561187  0.610334  1
  Tm  Tm7  1  0.750000  0.061187  0.889666  1
  Tm  Tm8  1  0.250000  0.417726  0.902060  1
  Tm  Tm9  1  0.250000  0.917726  0.597940  1
  Tm  Tm10  1  0.750000  0.582274  0.097940  1
  Tm  Tm11  1  0.750000  0.082274  0.402060  1
  Se  Se12  1  0.250000  0.205067  0.831885  1
  Se  Se13  1  0.250000  0.705067  0.668115  1
  Se  Se14  1  0.750000  0.794933  0.168115  1
  Se  Se15  1  0.750000  0.294933  0.331885  1
  Se  Se16  1  0.250000  0.127624  0.529576  1
  Se  Se17  1  0.250000  0.627624  0.970424  1
  Se  Se18  1  0.750000  0.872376  0.470424  1
  Se  Se19  1  0.750000  0.372376  0.029576  1
  Se  Se20  1  0.250000  0.027055  0.284100  1
  Se  Se21  1  0.250000  0.527055  0.215900  1
  Se  Se22  1  0.750000  0.972945  0.715900  1
  Se  Se23  1  0.750000  0.472945  0.784100  1
  Se  Se24  1  0.250000  0.410112  0.577161  1
  Se  Se25  1  0.250000  0.910112  0.922839  1
  Se  Se26  1  0.750000  0.589888  0.422839  1
  Se  Se27  1  0.750000  0.089888  0.077161  1
