# generated using pymatgen
data_Tb2Lu2ReB12Os
_symmetry_space_group_name_H-M   'P 1'
_cell_length_a   3.63846600
_cell_length_b   9.10241786
_cell_length_c   11.50216516
_cell_angle_alpha   90.11005481
_cell_angle_beta   90.00000000
_cell_angle_gamma   90.00000000
_symmetry_Int_Tables_number   1
_chemical_formula_structural   Tb2Lu2ReB12Os
_chemical_formula_sum   'Tb4 Lu4 Re2 B24 Os2'
_cell_volume   380.93764066
_cell_formula_units_Z   2
loop_
 _symmetry_equiv_pos_site_id
 _symmetry_equiv_pos_as_xyz
  1  'x, y, z'
loop_
 _atom_site_type_symbol
 _atom_site_label
 _atom_site_symmetry_multiplicity
 _atom_site_fract_x
 _atom_site_fract_y
 _atom_site_fract_z
 _atom_site_occupancy
  Tb  Tb0  1  0.000000  0.320250  0.412563  1
  Tb  Tb1  1  0.000000  0.679750  0.587437  1
  Tb  Tb2  1  0.000000  0.823710  0.084995  1
  Tb  Tb3  1  0.000000  0.176290  0.915005  1
  Lu  Lu4  1  0.000000  0.943772  0.370992  1
  Lu  Lu5  1  0.000000  0.056228  0.629008  1
  Lu  Lu6  1  0.000000  0.442710  0.128580  1
  Lu  Lu7  1  0.000000  0.557290  0.871420  1
  Re  Re8  1  0.000000  0.139244  0.180541  1
  Re  Re9  1  0.000000  0.860756  0.819459  1
  B  B10  1  0.500000  0.554360  0.432491  1
  B  B11  1  0.500000  0.445640  0.567509  1
  B  B12  1  0.500000  0.053530  0.067411  1
  B  B13  1  0.500000  0.946470  0.932589  1
  B  B14  1  0.500000  0.750298  0.418283  1
  B  B15  1  0.500000  0.249702  0.581717  1
  B  B16  1  0.500000  0.250409  0.081541  1
  B  B17  1  0.500000  0.749591  0.918459  1
  B  B18  1  0.500000  0.791547  0.266073  1
  B  B19  1  0.500000  0.208453  0.733927  1
  B  B20  1  0.500000  0.292443  0.234384  1
  B  B21  1  0.500000  0.707557  0.765616  1
  B  B22  1  0.500000  0.629976  0.185501  1
  B  B23  1  0.500000  0.370024  0.814499  1
  B  B24  1  0.500000  0.130341  0.315306  1
  B  B25  1  0.500000  0.869659  0.684694  1
  B  B26  1  0.500000  0.982105  0.213474  1
  B  B27  1  0.500000  0.017895  0.786526  1
  B  B28  1  0.500000  0.482734  0.287137  1
  B  B29  1  0.500000  0.517266  0.712863  1
  B  B30  1  0.500000  0.600553  0.027871  1
  B  B31  1  0.500000  0.399447  0.972129  1
  B  B32  1  0.500000  0.100795  0.472365  1
  B  B33  1  0.500000  0.899205  0.527635  1
  Os  Os34  1  0.000000  0.638439  0.320684  1
  Os  Os35  1  0.000000  0.361561  0.679316  1
