# generated using pymatgen
data_Tb3Mn2Co9B4
_symmetry_space_group_name_H-M   'P 1'
_cell_length_a   5.10029400
_cell_length_b   5.10135910
_cell_length_c   9.70738200
_cell_angle_alpha   89.99986837
_cell_angle_beta   90.00025209
_cell_angle_gamma   119.99309360
_symmetry_Int_Tables_number   1
_chemical_formula_structural   Tb3Mn2Co9B4
_chemical_formula_sum   'Tb3 Mn2 Co9 B4'
_cell_volume   218.74799384
_cell_formula_units_Z   1
loop_
 _symmetry_equiv_pos_site_id
 _symmetry_equiv_pos_as_xyz
  1  'x, y, z'
loop_
 _atom_site_type_symbol
 _atom_site_label
 _atom_site_symmetry_multiplicity
 _atom_site_fract_x
 _atom_site_fract_y
 _atom_site_fract_z
 _atom_site_occupancy
  Tb  Tb0  1  0.999978  0.000000  0.999949  1
  Tb  Tb1  1  0.999996  0.000000  0.341470  1
  Tb  Tb2  1  0.000003  0.000000  0.658743  1
  Mn  Mn3  1  0.333309  0.666647  0.999958  1
  Mn  Mn4  1  0.666662  0.333353  0.999958  1
  Co  Co5  1  0.499999  0.000000  0.500041  1
  Co  Co6  1  0.499998  0.500001  0.500063  1
  Co  Co7  1  0.999998  0.499999  0.500063  1
  Co  Co8  1  0.499992  0.000000  0.205838  1
  Co  Co9  1  0.499992  0.500000  0.205838  1
  Co  Co10  1  0.999992  0.500000  0.205838  1
  Co  Co11  1  0.500001  0.000000  0.794049  1
  Co  Co12  1  0.500000  0.500001  0.794064  1
  Co  Co13  1  0.999998  0.499999  0.794064  1
  B  B14  1  0.333340  0.666692  0.350121  1
  B  B15  1  0.666647  0.333308  0.350121  1
  B  B16  1  0.666647  0.333298  0.649913  1
  B  B17  1  0.333348  0.666702  0.649913  1
