# generated using pymatgen
data_Tb3Y3(Al3Co)8
_symmetry_space_group_name_H-M   'P 1'
_cell_length_a   8.65967506
_cell_length_b   8.65796075
_cell_length_c   9.31154800
_cell_angle_alpha   90.00000000
_cell_angle_beta   90.00000000
_cell_angle_gamma   120.02009992
_symmetry_Int_Tables_number   1
_chemical_formula_structural   Tb3Y3(Al3Co)8
_chemical_formula_sum   'Tb3 Y3 Al24 Co8'
_cell_volume   604.47971165
_cell_formula_units_Z   1
loop_
 _symmetry_equiv_pos_site_id
 _symmetry_equiv_pos_as_xyz
  1  'x, y, z'
loop_
 _atom_site_type_symbol
 _atom_site_label
 _atom_site_symmetry_multiplicity
 _atom_site_fract_x
 _atom_site_fract_y
 _atom_site_fract_z
 _atom_site_occupancy
  Tb  Tb0  1  0.193584  0.387188  0.250000  1
  Tb  Tb1  1  0.806374  0.612779  0.750000  1
  Tb  Tb2  1  0.612782  0.806388  0.250000  1
  Y  Y3  1  0.387593  0.193789  0.750000  1
  Y  Y4  1  0.193777  0.806197  0.250000  1
  Y  Y5  1  0.806172  0.193790  0.750000  1
  Al  Al6  1  0.333291  0.666700  0.020059  1
  Al  Al7  1  0.666632  0.333262  0.979870  1
  Al  Al8  1  0.666632  0.333262  0.520130  1
  Al  Al9  1  0.333291  0.666700  0.479941  1
  Al  Al10  1  0.163154  0.326310  0.574623  1
  Al  Al11  1  0.836868  0.673680  0.425373  1
  Al  Al12  1  0.673683  0.836868  0.574633  1
  Al  Al13  1  0.836868  0.673680  0.074627  1
  Al  Al14  1  0.326319  0.163133  0.425410  1
  Al  Al15  1  0.163154  0.326310  0.925377  1
  Al  Al16  1  0.163185  0.836866  0.574595  1
  Al  Al17  1  0.326319  0.163133  0.074590  1
  Al  Al18  1  0.836838  0.163166  0.425400  1
  Al  Al19  1  0.673683  0.836868  0.925367  1
  Al  Al20  1  0.836838  0.163166  0.074600  1
  Al  Al21  1  0.163185  0.836866  0.925405  1
  Al  Al22  1  0.559909  0.119943  0.250000  1
  Al  Al23  1  0.440089  0.880195  0.750000  1
  Al  Al24  1  0.880079  0.440093  0.250000  1
  Al  Al25  1  0.119923  0.559907  0.750000  1
  Al  Al26  1  0.560014  0.439968  0.250000  1
  Al  Al27  1  0.439984  0.559890  0.750000  1
  Al  Al28  1  0.999929  0.000057  0.250000  1
  Al  Al29  1  0.999927  0.999873  0.750000  1
  Co  Co30  1  0.499982  0.000002  0.999988  1
  Co  Co31  1  0.999974  0.499988  0.999980  1
  Co  Co32  1  0.499982  0.000002  0.500012  1
  Co  Co33  1  0.499983  0.499983  0.999988  1
  Co  Co34  1  0.999974  0.499988  0.500020  1
  Co  Co35  1  0.499983  0.499983  0.500012  1
  Co  Co36  1  0.000023  0.000011  0.999961  1
  Co  Co37  1  0.000023  0.000011  0.500039  1
