# generated using pymatgen
data_Pu3Al3Ge2Au
_symmetry_space_group_name_H-M   'P 1'
_cell_length_a   7.02731500
_cell_length_b   7.02731448
_cell_length_c   4.36872800
_cell_angle_alpha   90.00000000
_cell_angle_beta   90.00000000
_cell_angle_gamma   119.99999773
_symmetry_Int_Tables_number   1
_chemical_formula_structural   Pu3Al3Ge2Au
_chemical_formula_sum   'Pu3 Al3 Ge2 Au1'
_cell_volume   186.83767665
_cell_formula_units_Z   1
loop_
 _symmetry_equiv_pos_site_id
 _symmetry_equiv_pos_as_xyz
  1  'x, y, z'
loop_
 _atom_site_type_symbol
 _atom_site_label
 _atom_site_symmetry_multiplicity
 _atom_site_fract_x
 _atom_site_fract_y
 _atom_site_fract_z
 _atom_site_occupancy
  Pu  Pu0  1  0.429565  0.000000  0.000000  1
  Pu  Pu1  1  0.000000  0.429565  0.000000  1
  Pu  Pu2  1  0.570435  0.570435  0.000000  1
  Al  Al3  1  0.761727  0.000000  0.499999  1
  Al  Al4  1  0.238273  0.238273  0.499999  1
  Al  Al5  1  0.000000  0.761727  0.499999  1
  Ge  Ge6  1  0.666667  0.333334  0.499999  1
  Ge  Ge7  1  0.333333  0.666666  0.499999  1
  Au  Au8  1  0.000000  0.000000  0.000000  1
