# generated using pymatgen
data_Eu9O16
_symmetry_space_group_name_H-M   'P 1'
_cell_length_a   6.72316464
_cell_length_b   6.73543599
_cell_length_c   8.68263178
_cell_angle_alpha   75.11314301
_cell_angle_beta   81.92663779
_cell_angle_gamma   80.08921674
_symmetry_Int_Tables_number   1
_chemical_formula_structural   Eu9O16
_chemical_formula_sum   'Eu9 O16'
_cell_volume   372.39508132
_cell_formula_units_Z   1
loop_
 _symmetry_equiv_pos_site_id
 _symmetry_equiv_pos_as_xyz
  1  'x, y, z'
loop_
 _atom_site_type_symbol
 _atom_site_label
 _atom_site_symmetry_multiplicity
 _atom_site_fract_x
 _atom_site_fract_y
 _atom_site_fract_z
 _atom_site_occupancy
  Eu  Eu0  1  0.662998  0.319445  0.670512  1
  Eu  Eu1  1  0.337002  0.680555  0.329488  1
  Eu  Eu2  1  0.414582  0.237277  0.100267  1
  Eu  Eu3  1  0.227421  0.123443  0.530335  1
  Eu  Eu4  1  0.000000  0.000000  0.000000  1
  Eu  Eu5  1  0.107543  0.524585  0.773497  1
  Eu  Eu6  1  0.892457  0.475415  0.226503  1
  Eu  Eu7  1  0.585418  0.762723  0.899733  1
  Eu  Eu8  1  0.772579  0.876557  0.469665  1
  O  O9  1  0.069150  0.293532  0.041471  1
  O  O10  1  0.785000  0.608784  0.706940  1
  O  O11  1  0.532539  0.002849  0.661419  1
  O  O12  1  0.662260  0.588737  0.426900  1
  O  O13  1  0.930850  0.706468  0.958529  1
  O  O14  1  0.127398  0.807879  0.548437  1
  O  O15  1  0.337740  0.411263  0.573100  1
  O  O16  1  0.978703  0.798141  0.255772  1
  O  O17  1  0.671294  0.092440  0.940920  1
  O  O18  1  0.215000  0.391216  0.293060  1
  O  O19  1  0.021297  0.201859  0.744228  1
  O  O20  1  0.417375  0.493468  0.859568  1
  O  O21  1  0.467461  0.997151  0.338581  1
  O  O22  1  0.582625  0.506532  0.140432  1
  O  O23  1  0.872602  0.192121  0.451563  1
  O  O24  1  0.328706  0.907560  0.059080  1
