# generated using pymatgen
data_NdEr4In4IrPd
_symmetry_space_group_name_H-M   'P 1'
_cell_length_a   3.63261800
_cell_length_b   8.15354385
_cell_length_c   18.33442282
_cell_angle_alpha   90.12944980
_cell_angle_beta   90.00000000
_cell_angle_gamma   90.00000000
_symmetry_Int_Tables_number   1
_chemical_formula_structural   NdEr4In4IrPd
_chemical_formula_sum   'Nd2 Er8 In8 Ir2 Pd2'
_cell_volume   543.04056927
_cell_formula_units_Z   2
loop_
 _symmetry_equiv_pos_site_id
 _symmetry_equiv_pos_as_xyz
  1  'x, y, z'
loop_
 _atom_site_type_symbol
 _atom_site_label
 _atom_site_symmetry_multiplicity
 _atom_site_fract_x
 _atom_site_fract_y
 _atom_site_fract_z
 _atom_site_occupancy
  Nd  Nd0  1  0.000000  0.500000  0.500000  1
  Nd  Nd1  1  0.000000  0.000000  0.000000  1
  Er  Er2  1  0.000000  0.726552  0.278423  1
  Er  Er3  1  0.000000  0.273448  0.721577  1
  Er  Er4  1  0.000000  0.746045  0.780570  1
  Er  Er5  1  0.000000  0.253955  0.219430  1
  Er  Er6  1  0.000000  0.616899  0.088791  1
  Er  Er7  1  0.000000  0.383101  0.911209  1
  Er  Er8  1  0.000000  0.881002  0.586190  1
  Er  Er9  1  0.000000  0.118998  0.413810  1
  In  In10  1  0.500000  0.701905  0.931219  1
  In  In11  1  0.500000  0.298095  0.068781  1
  In  In12  1  0.500000  0.799057  0.431360  1
  In  In13  1  0.500000  0.200943  0.568640  1
  In  In14  1  0.500000  0.579789  0.651281  1
  In  In15  1  0.500000  0.420211  0.348719  1
  In  In16  1  0.500000  0.922135  0.153204  1
  In  In17  1  0.500000  0.077865  0.846796  1
  Ir  Ir18  1  0.500000  0.519988  0.195730  1
  Ir  Ir19  1  0.500000  0.480012  0.804270  1
  Pd  Pd20  1  0.500000  0.981273  0.695955  1
  Pd  Pd21  1  0.500000  0.018727  0.304045  1
