# generated using pymatgen
data_Nd4Ho3Tm(ReB6)4
_symmetry_space_group_name_H-M   'P 1'
_cell_length_a   3.72346000
_cell_length_b   9.23967102
_cell_length_c   11.69949202
_cell_angle_alpha   90.00733290
_cell_angle_beta   90.00000000
_cell_angle_gamma   90.00000000
_symmetry_Int_Tables_number   1
_chemical_formula_structural   Nd4Ho3Tm(ReB6)4
_chemical_formula_sum   'Nd4 Ho3 Tm1 Re4 B24'
_cell_volume   402.50400232
_cell_formula_units_Z   1
loop_
 _symmetry_equiv_pos_site_id
 _symmetry_equiv_pos_as_xyz
  1  'x, y, z'
loop_
 _atom_site_type_symbol
 _atom_site_label
 _atom_site_symmetry_multiplicity
 _atom_site_fract_x
 _atom_site_fract_y
 _atom_site_fract_z
 _atom_site_occupancy
  Nd  Nd0  1  0.000000  0.322883  0.414478  1
  Nd  Nd1  1  0.000000  0.677101  0.585705  1
  Nd  Nd2  1  0.000000  0.822700  0.085462  1
  Nd  Nd3  1  0.000000  0.177205  0.914418  1
  Ho  Ho4  1  0.000000  0.943019  0.369421  1
  Ho  Ho5  1  0.000000  0.056997  0.630732  1
  Ho  Ho6  1  0.000000  0.443147  0.130140  1
  Tm  Tm7  1  0.000000  0.557105  0.869183  1
  Re  Re8  1  0.000000  0.639486  0.318988  1
  Re  Re9  1  0.000000  0.360880  0.681366  1
  Re  Re10  1  0.000000  0.139651  0.180807  1
  Re  Re11  1  0.000000  0.859759  0.819178  1
  B  B12  1  0.500000  0.555167  0.430400  1
  B  B13  1  0.500000  0.444900  0.569852  1
  B  B14  1  0.500000  0.055089  0.069573  1
  B  B15  1  0.500000  0.944552  0.930320  1
  B  B16  1  0.500000  0.749906  0.415641  1
  B  B17  1  0.500000  0.250245  0.584505  1
  B  B18  1  0.500000  0.249903  0.084320  1
  B  B19  1  0.500000  0.749217  0.915701  1
  B  B20  1  0.500000  0.791556  0.265807  1
  B  B21  1  0.500000  0.208749  0.734270  1
  B  B22  1  0.500000  0.291653  0.234142  1
  B  B23  1  0.500000  0.707758  0.765988  1
  B  B24  1  0.500000  0.629676  0.186094  1
  B  B25  1  0.500000  0.370920  0.814274  1
  B  B26  1  0.500000  0.129709  0.313826  1
  B  B27  1  0.500000  0.870105  0.686337  1
  B  B28  1  0.500000  0.983992  0.213145  1
  B  B29  1  0.500000  0.015822  0.786940  1
  B  B30  1  0.500000  0.483908  0.286783  1
  B  B31  1  0.500000  0.516483  0.713619  1
  B  B32  1  0.500000  0.596113  0.025670  1
  B  B33  1  0.500000  0.404621  0.972835  1
  B  B34  1  0.500000  0.096234  0.473536  1
  B  B35  1  0.500000  0.903790  0.526542  1
