# generated using pymatgen
data_Er2Si3Tc14C3
_symmetry_space_group_name_H-M   'P 1'
_cell_length_a   6.88907486
_cell_length_b   6.88907538
_cell_length_c   6.88907402
_cell_angle_alpha   82.11476372
_cell_angle_beta   82.11476750
_cell_angle_gamma   82.11475754
_symmetry_Int_Tables_number   1
_chemical_formula_structural   Er2Si3Tc14C3
_chemical_formula_sum   'Er2 Si3 Tc14 C3'
_cell_volume   318.45454047
_cell_formula_units_Z   1
loop_
 _symmetry_equiv_pos_site_id
 _symmetry_equiv_pos_as_xyz
  1  'x, y, z'
loop_
 _atom_site_type_symbol
 _atom_site_label
 _atom_site_symmetry_multiplicity
 _atom_site_fract_x
 _atom_site_fract_y
 _atom_site_fract_z
 _atom_site_occupancy
  Er  Er0  1  0.651949  0.651949  0.651949  1
  Er  Er1  1  0.348051  0.348051  0.348051  1
  Si  Si2  1  0.000000  0.000000  0.500000  1
  Si  Si3  1  0.500000  0.000000  0.000000  1
  Si  Si4  1  0.000000  0.500000  0.000000  1
  Tc  Tc5  1  0.722716  0.277284  0.000000  1
  Tc  Tc6  1  0.000000  0.722716  0.277284  1
  Tc  Tc7  1  0.277284  0.000000  0.722716  1
  Tc  Tc8  1  0.000000  0.277284  0.722716  1
  Tc  Tc9  1  0.722716  0.000000  0.277284  1
  Tc  Tc10  1  0.277284  0.722716  0.000000  1
  Tc  Tc11  1  0.347173  0.858852  0.347173  1
  Tc  Tc12  1  0.347173  0.347173  0.858852  1
  Tc  Tc13  1  0.858852  0.347173  0.347173  1
  Tc  Tc14  1  0.652827  0.141148  0.652827  1
  Tc  Tc15  1  0.652827  0.652827  0.141148  1
  Tc  Tc16  1  0.141148  0.652827  0.652827  1
  Tc  Tc17  1  0.900626  0.900626  0.900626  1
  Tc  Tc18  1  0.099374  0.099374  0.099374  1
  C  C19  1  0.500000  0.500000  0.000000  1
  C  C20  1  0.000000  0.500000  0.500000  1
  C  C21  1  0.500000  0.000000  0.500000  1
