# generated using pymatgen
data_Tb7Dy9MgCo4Au3
_symmetry_space_group_name_H-M   'P 1'
_cell_length_a   9.38508642
_cell_length_b   9.43258734
_cell_length_c   9.43548479
_cell_angle_alpha   60.02702262
_cell_angle_beta   59.86150345
_cell_angle_gamma   59.85954237
_symmetry_Int_Tables_number   1
_chemical_formula_structural   Tb7Dy9MgCo4Au3
_chemical_formula_sum   'Tb7 Dy9 Mg1 Co4 Au3'
_cell_volume   589.50537362
_cell_formula_units_Z   1
loop_
 _symmetry_equiv_pos_site_id
 _symmetry_equiv_pos_as_xyz
  1  'x, y, z'
loop_
 _atom_site_type_symbol
 _atom_site_label
 _atom_site_symmetry_multiplicity
 _atom_site_fract_x
 _atom_site_fract_y
 _atom_site_fract_z
 _atom_site_occupancy
  Tb  Tb0  1  0.936365  0.562476  0.938564  1
  Tb  Tb1  1  0.563376  0.563883  0.936112  1
  Tb  Tb2  1  0.936240  0.938528  0.562439  1
  Tb  Tb3  1  0.348011  0.346880  0.347273  1
  Tb  Tb4  1  0.348453  0.346287  0.958137  1
  Tb  Tb5  1  0.348653  0.957936  0.346547  1
  Tb  Tb6  1  0.932559  0.356147  0.356201  1
  Dy  Dy7  1  0.807825  0.190463  0.190838  1
  Dy  Dy8  1  0.187461  0.813676  0.813503  1
  Dy  Dy9  1  0.186987  0.813626  0.185903  1
  Dy  Dy10  1  0.807879  0.190923  0.810545  1
  Dy  Dy11  1  0.187166  0.185784  0.813428  1
  Dy  Dy12  1  0.807739  0.810573  0.191178  1
  Dy  Dy13  1  0.936210  0.562465  0.562238  1
  Dy  Dy14  1  0.562947  0.936857  0.936567  1
  Dy  Dy15  1  0.563332  0.936422  0.563645  1
  Mg  Mg16  1  0.311439  0.562899  0.562937  1
  Co  Co17  1  0.134591  0.144209  0.144155  1
  Co  Co18  1  0.133982  0.144539  0.577204  1
  Co  Co19  1  0.133820  0.577276  0.144544  1
  Co  Co20  1  0.574552  0.141565  0.141762  1
  Au  Au21  1  0.583908  0.591771  0.591030  1
  Au  Au22  1  0.583282  0.591913  0.233404  1
  Au  Au23  1  0.583223  0.232898  0.591848  1
