# generated using pymatgen
data_Cs18Bi5Sb
_symmetry_space_group_name_H-M   'P 1'
_cell_length_a   11.79408677
_cell_length_b   11.79094448
_cell_length_c   12.10745615
_cell_angle_alpha   89.68187093
_cell_angle_beta   90.15902316
_cell_angle_gamma   119.99118174
_symmetry_Int_Tables_number   1
_chemical_formula_structural   Cs18Bi5Sb
_chemical_formula_sum   'Cs18 Bi5 Sb1'
_cell_volume   1458.23775643
_cell_formula_units_Z   1
loop_
 _symmetry_equiv_pos_site_id
 _symmetry_equiv_pos_as_xyz
  1  'x, y, z'
loop_
 _atom_site_type_symbol
 _atom_site_label
 _atom_site_symmetry_multiplicity
 _atom_site_fract_x
 _atom_site_fract_y
 _atom_site_fract_z
 _atom_site_occupancy
  Cs  Cs0  1  0.631295  0.999467  0.510476  1
  Cs  Cs1  1  0.630969  0.632042  0.010239  1
  Cs  Cs2  1  0.000000  0.371044  0.008251  1
  Cs  Cs3  1  0.000000  0.632762  0.512122  1
  Cs  Cs4  1  0.368705  0.368173  0.510476  1
  Cs  Cs5  1  0.369031  0.001073  0.010239  1
  Cs  Cs6  1  0.708634  0.001113  0.178175  1
  Cs  Cs7  1  0.708956  0.707308  0.679683  1
  Cs  Cs8  1  0.000000  0.290306  0.678062  1
  Cs  Cs9  1  0.000000  0.705552  0.175717  1
  Cs  Cs10  1  0.291366  0.292479  0.178175  1
  Cs  Cs11  1  0.291044  0.998352  0.679683  1
  Cs  Cs12  1  0.000000  0.999793  0.414722  1
  Cs  Cs13  1  0.000000  0.995122  0.914606  1
  Cs  Cs14  1  0.666593  0.333314  0.300453  1
  Cs  Cs15  1  0.328685  0.666757  0.800738  1
  Cs  Cs16  1  0.671315  0.338072  0.800738  1
  Cs  Cs17  1  0.333407  0.666721  0.300453  1
  Bi  Bi18  1  0.000000  0.329586  0.344083  1
  Bi  Bi19  1  0.671781  0.999777  0.844433  1
  Bi  Bi20  1  0.328219  0.327996  0.844433  1
  Bi  Bi21  1  0.673174  0.671862  0.344323  1
  Bi  Bi22  1  0.326826  0.998688  0.344323  1
  Sb  Sb23  1  0.000000  0.672639  0.843395  1
