# generated using pymatgen
data_Hf3Mn4Si4Mo
_symmetry_space_group_name_H-M   'P 1'
_cell_length_a   3.57706100
_cell_length_b   6.50355967
_cell_length_c   7.58396572
_cell_angle_alpha   90.57825438
_cell_angle_beta   90.00000000
_cell_angle_gamma   90.00000000
_symmetry_Int_Tables_number   1
_chemical_formula_structural   Hf3Mn4Si4Mo
_chemical_formula_sum   'Hf3 Mn4 Si4 Mo1'
_cell_volume   176.42158446
_cell_formula_units_Z   1
loop_
 _symmetry_equiv_pos_site_id
 _symmetry_equiv_pos_as_xyz
  1  'x, y, z'
loop_
 _atom_site_type_symbol
 _atom_site_label
 _atom_site_symmetry_multiplicity
 _atom_site_fract_x
 _atom_site_fract_y
 _atom_site_fract_z
 _atom_site_occupancy
  Hf  Hf0  1  0.250000  0.469711  0.179514  1
  Hf  Hf1  1  0.750000  0.030062  0.672107  1
  Hf  Hf2  1  0.750000  0.536625  0.825100  1
  Mn  Mn3  1  0.250000  0.359897  0.562199  1
  Mn  Mn4  1  0.250000  0.864299  0.937716  1
  Mn  Mn5  1  0.750000  0.632973  0.435112  1
  Mn  Mn6  1  0.750000  0.137914  0.063218  1
  Si  Si7  1  0.250000  0.731547  0.618134  1
  Si  Si8  1  0.250000  0.232080  0.874561  1
  Si  Si9  1  0.750000  0.256469  0.371232  1
  Si  Si10  1  0.750000  0.779358  0.133900  1
  Mo  Mo11  1  0.250000  0.969065  0.327208  1
