# generated using pymatgen
data_Tb3Ho5Ti9Si16Tc3
_symmetry_space_group_name_H-M   'P 1'
_cell_length_a   6.97870341
_cell_length_b   6.97958172
_cell_length_c   12.82337514
_cell_angle_alpha   90.07838623
_cell_angle_beta   89.91562684
_cell_angle_gamma   90.02324054
_symmetry_Int_Tables_number   1
_chemical_formula_structural   Tb3Ho5Ti9Si16Tc3
_chemical_formula_sum   'Tb3 Ho5 Ti9 Si16 Tc3'
_cell_volume   624.60516731
_cell_formula_units_Z   1
loop_
 _symmetry_equiv_pos_site_id
 _symmetry_equiv_pos_as_xyz
  1  'x, y, z'
loop_
 _atom_site_type_symbol
 _atom_site_label
 _atom_site_symmetry_multiplicity
 _atom_site_fract_x
 _atom_site_fract_y
 _atom_site_fract_z
 _atom_site_occupancy
  Tb  Tb0  1  0.340196  0.002223  0.467179  1
  Tb  Tb1  1  0.497987  0.841574  0.719404  1
  Tb  Tb2  1  0.500867  0.158861  0.217655  1
  Ho  Ho3  1  0.842395  0.498927  0.280739  1
  Ho  Ho4  1  0.158149  0.499882  0.782474  1
  Ho  Ho5  1  0.658661  0.999872  0.968190  1
  Ho  Ho6  1  0.001360  0.341121  0.533021  1
  Ho  Ho7  1  0.999691  0.658442  0.031588  1
  Ti  Ti8  1  0.674434  0.673431  0.500004  1
  Ti  Ti9  1  0.152187  0.005972  0.877466  1
  Ti  Ti10  1  0.494586  0.653939  0.124852  1
  Ti  Ti11  1  0.505283  0.347565  0.628274  1
  Ti  Ti12  1  0.654135  0.494766  0.875278  1
  Ti  Ti13  1  0.347353  0.504771  0.371943  1
  Ti  Ti14  1  0.846791  0.992065  0.375940  1
  Ti  Ti15  1  0.005372  0.152320  0.122638  1
  Ti  Ti16  1  0.992400  0.846370  0.624141  1
  Si  Si17  1  0.198455  0.130067  0.684624  1
  Si  Si18  1  0.370304  0.699886  0.933632  1
  Si  Si19  1  0.632406  0.298358  0.435182  1
  Si  Si20  1  0.701039  0.371292  0.066201  1
  Si  Si21  1  0.296518  0.629732  0.564979  1
  Si  Si22  1  0.800262  0.869383  0.183654  1
  Si  Si23  1  0.127647  0.200462  0.315485  1
  Si  Si24  1  0.871178  0.799217  0.816481  1
  Si  Si25  1  0.289886  0.951420  0.066352  1
  Si  Si26  1  0.548141  0.788703  0.315820  1
  Si  Si27  1  0.451652  0.211840  0.817200  1
  Si  Si28  1  0.790830  0.546565  0.684162  1
  Si  Si29  1  0.210051  0.452848  0.182904  1
  Si  Si30  1  0.709569  0.050092  0.567494  1
  Si  Si31  1  0.952297  0.290546  0.933283  1
  Si  Si32  1  0.048334  0.707190  0.432424  1
  Tc  Tc33  1  0.327865  0.328485  0.999611  1
  Tc  Tc34  1  0.173177  0.827401  0.247940  1
  Tc  Tc35  1  0.828537  0.174410  0.751788  1
