# generated using pymatgen
data_Sm4DyP12Ru16Pt3
_symmetry_space_group_name_H-M   'P 1'
_cell_length_a   12.66841700
_cell_length_b   12.66841730
_cell_length_c   3.99174900
_cell_angle_alpha   90.00000000
_cell_angle_beta   90.00000000
_cell_angle_gamma   120.00000184
_symmetry_Int_Tables_number   1
_chemical_formula_structural   Sm4DyP12Ru16Pt3
_chemical_formula_sum   'Sm4 Dy1 P12 Ru16 Pt3'
_cell_volume   554.80269204
_cell_formula_units_Z   1
loop_
 _symmetry_equiv_pos_site_id
 _symmetry_equiv_pos_as_xyz
  1  'x, y, z'
loop_
 _atom_site_type_symbol
 _atom_site_label
 _atom_site_symmetry_multiplicity
 _atom_site_fract_x
 _atom_site_fract_y
 _atom_site_fract_z
 _atom_site_occupancy
  Sm  Sm0  1  0.666667  0.333333  0.000000  1
  Sm  Sm1  1  0.815776  0.999222  0.500000  1
  Sm  Sm2  1  0.183446  0.184224  0.500000  1
  Sm  Sm3  1  0.000778  0.816554  0.500000  1
  Dy  Dy4  1  0.333333  0.666667  0.000000  1
  P  P5  1  0.625999  0.986401  0.000000  1
  P  P6  1  0.360402  0.374001  0.000000  1
  P  P7  1  0.013599  0.639598  0.000000  1
  P  P8  1  0.696181  0.529102  0.500000  1
  P  P9  1  0.832923  0.303819  0.500000  1
  P  P10  1  0.308096  0.828812  0.500000  1
  P  P11  1  0.520715  0.691904  0.500000  1
  P  P12  1  0.184908  0.000819  0.000000  1
  P  P13  1  0.815912  0.815092  0.000000  1
  P  P14  1  0.999181  0.184088  0.000000  1
  P  P15  1  0.470898  0.167077  0.500000  1
  P  P16  1  0.171188  0.479285  0.500000  1
  Ru  Ru17  1  0.619179  0.798125  0.000000  1
  Ru  Ru18  1  0.178946  0.380821  0.000000  1
  Ru  Ru19  1  0.379056  0.187436  0.000000  1
  Ru  Ru20  1  0.201875  0.821054  0.000000  1
  Ru  Ru21  1  0.808379  0.620944  0.000000  1
  Ru  Ru22  1  0.126758  0.635750  0.500000  1
  Ru  Ru23  1  0.364250  0.491009  0.500000  1
  Ru  Ru24  1  0.508991  0.873242  0.500000  1
  Ru  Ru25  1  0.000000  0.000000  0.000000  1
  Ru  Ru26  1  0.715458  0.714588  0.500000  1
  Ru  Ru27  1  0.999130  0.284542  0.500000  1
  Ru  Ru28  1  0.453263  0.005560  0.000000  1
  Ru  Ru29  1  0.552297  0.546737  0.000000  1
  Ru  Ru30  1  0.994440  0.447703  0.000000  1
  Ru  Ru31  1  0.812564  0.191621  0.000000  1
  Ru  Ru32  1  0.285412  0.000870  0.500000  1
  Pt  Pt33  1  0.869719  0.503166  0.500000  1
  Pt  Pt34  1  0.496834  0.366552  0.500000  1
  Pt  Pt35  1  0.633448  0.130281  0.500000  1
