# generated using pymatgen
data_Tm20CoPt15
_symmetry_space_group_name_H-M   'P 1'
_cell_length_a   7.31427400
_cell_length_b   7.44978493
_cell_length_c   14.65378400
_cell_angle_alpha   90.00000000
_cell_angle_beta   90.00000000
_cell_angle_gamma   89.85476431
_symmetry_Int_Tables_number   1
_chemical_formula_structural   Tm20CoPt15
_chemical_formula_sum   'Tm20 Co1 Pt15'
_cell_volume   798.47872883
_cell_formula_units_Z   1
loop_
 _symmetry_equiv_pos_site_id
 _symmetry_equiv_pos_as_xyz
  1  'x, y, z'
loop_
 _atom_site_type_symbol
 _atom_site_label
 _atom_site_symmetry_multiplicity
 _atom_site_fract_x
 _atom_site_fract_y
 _atom_site_fract_z
 _atom_site_occupancy
  Tm  Tm0  1  0.626232  0.173919  0.623841  1
  Tm  Tm1  1  0.140730  0.330853  0.876466  1
  Tm  Tm2  1  0.366164  0.832064  0.120772  1
  Tm  Tm3  1  0.864744  0.670189  0.379755  1
  Tm  Tm4  1  0.366164  0.832064  0.379228  1
  Tm  Tm5  1  0.864744  0.670189  0.120245  1
  Tm  Tm6  1  0.626232  0.173919  0.876159  1
  Tm  Tm7  1  0.140730  0.330853  0.623534  1
  Tm  Tm8  1  0.479518  0.671293  0.596218  1
  Tm  Tm9  1  0.976668  0.824655  0.902166  1
  Tm  Tm10  1  0.521491  0.325664  0.095254  1
  Tm  Tm11  1  0.020490  0.176568  0.405939  1
  Tm  Tm12  1  0.521491  0.325664  0.404746  1
  Tm  Tm13  1  0.020490  0.176568  0.094061  1
  Tm  Tm14  1  0.479518  0.671293  0.903782  1
  Tm  Tm15  1  0.976668  0.824655  0.597834  1
  Tm  Tm16  1  0.794987  0.507157  0.750000  1
  Tm  Tm17  1  0.295601  0.989267  0.750000  1
  Tm  Tm18  1  0.201921  0.491266  0.250000  1
  Tm  Tm19  1  0.702420  0.010943  0.250000  1
  Co  Co20  1  0.426468  0.391410  0.750000  1
  Pt  Pt21  1  0.698516  0.976269  0.459236  1
  Pt  Pt22  1  0.198752  0.526698  0.041642  1
  Pt  Pt23  1  0.299139  0.023108  0.957014  1
  Pt  Pt24  1  0.803803  0.471638  0.542235  1
  Pt  Pt25  1  0.299139  0.023108  0.542986  1
  Pt  Pt26  1  0.803803  0.471638  0.957765  1
  Pt  Pt27  1  0.698516  0.976269  0.040764  1
  Pt  Pt28  1  0.198752  0.526698  0.458358  1
  Pt  Pt29  1  0.927579  0.116162  0.750000  1
  Pt  Pt30  1  0.570111  0.617054  0.250000  1
  Pt  Pt31  1  0.069950  0.883694  0.250000  1
  Pt  Pt32  1  0.658534  0.854828  0.750000  1
  Pt  Pt33  1  0.177288  0.631378  0.750000  1
  Pt  Pt34  1  0.341094  0.144063  0.250000  1
  Pt  Pt35  1  0.841552  0.356942  0.250000  1
