# generated using pymatgen
data_TbTm7(AlPt)2
_symmetry_space_group_name_H-M   'P 1'
_cell_length_a   9.49838167
_cell_length_b   9.49838240
_cell_length_c   9.47608200
_cell_angle_alpha   60.07764156
_cell_angle_beta   60.07763904
_cell_angle_gamma   59.84472545
_symmetry_Int_Tables_number   1
_chemical_formula_structural   TbTm7(AlPt)2
_chemical_formula_sum   'Tb2 Tm14 Al4 Pt4'
_cell_volume   604.51672662
_cell_formula_units_Z   2
loop_
 _symmetry_equiv_pos_site_id
 _symmetry_equiv_pos_as_xyz
  1  'x, y, z'
loop_
 _atom_site_type_symbol
 _atom_site_label
 _atom_site_symmetry_multiplicity
 _atom_site_fract_x
 _atom_site_fract_y
 _atom_site_fract_z
 _atom_site_occupancy
  Tb  Tb0  1  0.567230  0.567230  0.932770  1
  Tb  Tb1  1  0.932770  0.932770  0.567230  1
  Tm  Tm2  1  0.354390  0.354390  0.352951  1
  Tm  Tm3  1  0.354390  0.354390  0.938269  1
  Tm  Tm4  1  0.352951  0.938269  0.354390  1
  Tm  Tm5  1  0.938269  0.352951  0.354390  1
  Tm  Tm6  1  0.807414  0.192586  0.192586  1
  Tm  Tm7  1  0.192586  0.807414  0.807414  1
  Tm  Tm8  1  0.192586  0.807414  0.192586  1
  Tm  Tm9  1  0.807414  0.192586  0.807414  1
  Tm  Tm10  1  0.192494  0.192494  0.807506  1
  Tm  Tm11  1  0.807506  0.807506  0.192494  1
  Tm  Tm12  1  0.937313  0.562687  0.562687  1
  Tm  Tm13  1  0.562687  0.937313  0.937313  1
  Tm  Tm14  1  0.562687  0.937313  0.562687  1
  Tm  Tm15  1  0.937313  0.562687  0.937313  1
  Al  Al16  1  0.577894  0.577894  0.577619  1
  Al  Al17  1  0.577894  0.577894  0.266594  1
  Al  Al18  1  0.577619  0.266594  0.577894  1
  Al  Al19  1  0.266594  0.577619  0.577894  1
  Pt  Pt20  1  0.144195  0.144195  0.142231  1
  Pt  Pt21  1  0.144195  0.144195  0.569380  1
  Pt  Pt22  1  0.142231  0.569380  0.144195  1
  Pt  Pt23  1  0.569380  0.142231  0.144195  1
