# generated using pymatgen
data_EuDy2Ho3(SbO7)2
_symmetry_space_group_name_H-M   'P 1'
_cell_length_a   6.48443218
_cell_length_b   6.48282236
_cell_length_c   7.54747360
_cell_angle_alpha   90.03014963
_cell_angle_beta   89.96989737
_cell_angle_gamma   109.06292561
_symmetry_Int_Tables_number   1
_chemical_formula_structural   EuDy2Ho3(SbO7)2
_chemical_formula_sum   'Eu1 Dy2 Ho3 Sb2 O14'
_cell_volume   299.87697761
_cell_formula_units_Z   1
loop_
 _symmetry_equiv_pos_site_id
 _symmetry_equiv_pos_as_xyz
  1  'x, y, z'
loop_
 _atom_site_type_symbol
 _atom_site_label
 _atom_site_symmetry_multiplicity
 _atom_site_fract_x
 _atom_site_fract_y
 _atom_site_fract_z
 _atom_site_occupancy
  Eu  Eu0  1  0.499963  0.499869  0.000170  1
  Dy  Dy1  1  0.499940  0.499837  0.499853  1
  Dy  Dy2  1  0.531500  0.000113  0.748901  1
  Ho  Ho3  1  0.000460  0.531205  0.251162  1
  Ho  Ho4  1  0.468713  0.999575  0.251151  1
  Ho  Ho5  1  0.999588  0.468846  0.748835  1
  Sb  Sb6  1  0.999948  0.000003  0.499722  1
  Sb  Sb7  1  0.999941  0.999997  0.000276  1
  O  O8  1  0.678512  0.928554  0.469160  1
  O  O9  1  0.928855  0.678492  0.530268  1
  O  O10  1  0.678769  0.932531  0.031060  1
  O  O11  1  0.932774  0.678717  0.969500  1
  O  O12  1  0.321496  0.071638  0.529626  1
  O  O13  1  0.071095  0.321649  0.469706  1
  O  O14  1  0.321222  0.067658  0.970157  1
  O  O15  1  0.067173  0.321413  0.030496  1
  O  O16  1  0.929624  0.071060  0.749942  1
  O  O17  1  0.070871  0.928914  0.250059  1
  O  O18  1  0.366350  0.631629  0.742885  1
  O  O19  1  0.633045  0.366909  0.257082  1
  O  O20  1  0.639115  0.362399  0.744663  1
  O  O21  1  0.361045  0.638991  0.255325  1
