# generated using pymatgen
data_Nd4Ga10(PdAu)3
_symmetry_space_group_name_H-M   'P 1'
_cell_length_a   8.63651577
_cell_length_b   8.61998791
_cell_length_c   8.61998800
_cell_angle_alpha   138.09749664
_cell_angle_beta   104.57765228
_cell_angle_gamma   90.20262257
_symmetry_Int_Tables_number   1
_chemical_formula_structural   Nd4Ga10(PdAu)3
_chemical_formula_sum   'Nd4 Ga10 Pd3 Au3'
_cell_volume   396.29448419
_cell_formula_units_Z   1
loop_
 _symmetry_equiv_pos_site_id
 _symmetry_equiv_pos_as_xyz
  1  'x, y, z'
loop_
 _atom_site_type_symbol
 _atom_site_label
 _atom_site_symmetry_multiplicity
 _atom_site_fract_x
 _atom_site_fract_y
 _atom_site_fract_z
 _atom_site_occupancy
  Nd  Nd0  1  0.638287  0.870606  0.767681  1
  Nd  Nd1  1  0.365123  0.129917  0.235205  1
  Nd  Nd2  1  0.101546  0.370080  0.731467  1
  Nd  Nd3  1  0.898292  0.630453  0.267839  1
  Ga  Ga4  1  0.275581  0.026374  0.749443  1
  Ga  Ga5  1  0.729452  0.969952  0.247269  1
  Ga  Ga6  1  0.729452  0.482183  0.759500  1
  Ga  Ga7  1  0.275581  0.526138  0.249207  1
  Ga  Ga8  1  0.462043  0.607146  0.854897  1
  Ga  Ga9  1  0.540245  0.394294  0.145951  1
  Ga  Ga10  1  0.749643  0.106170  0.643473  1
  Ga  Ga11  1  0.239254  0.892123  0.347132  1
  Ga  Ga12  1  0.002299  0.753724  0.759378  1
  Ga  Ga13  1  0.002299  0.242920  0.248575  1
  Pd  Pd14  1  0.978786  0.862184  0.116602  1
  Pd  Pd15  1  0.496608  0.750416  0.249831  1
  Pd  Pd16  1  0.496608  0.246777  0.746192  1
  Au  Au17  1  0.257643  0.638309  0.619335  1
  Au  Au18  1  0.744347  0.362382  0.381964  1
  Au  Au19  1  0.016907  0.137851  0.879056  1
