# generated using pymatgen
data_CeNp5F24
_symmetry_space_group_name_H-M   'P 1'
_cell_length_a   8.37734002
_cell_length_b   8.37734068
_cell_length_c   8.39084553
_cell_angle_alpha   63.09887826
_cell_angle_beta   63.09887404
_cell_angle_gamma   80.55182115
_symmetry_Int_Tables_number   1
_chemical_formula_structural   CeNp5F24
_chemical_formula_sum   'Ce1 Np5 F24'
_cell_volume   467.70978545
_cell_formula_units_Z   1
loop_
 _symmetry_equiv_pos_site_id
 _symmetry_equiv_pos_as_xyz
  1  'x, y, z'
loop_
 _atom_site_type_symbol
 _atom_site_label
 _atom_site_symmetry_multiplicity
 _atom_site_fract_x
 _atom_site_fract_y
 _atom_site_fract_z
 _atom_site_occupancy
  Ce  Ce0  1  0.786008  0.213992  0.750000  1
  Np  Np1  1  0.366862  0.222059  0.330376  1
  Np  Np2  1  0.777941  0.633138  0.169624  1
  Np  Np3  1  0.632596  0.776584  0.670398  1
  Np  Np4  1  0.223416  0.367404  0.829602  1
  Np  Np5  1  0.214356  0.785644  0.250000  1
  F  F6  1  0.601333  0.398667  0.250000  1
  F  F7  1  0.395838  0.604162  0.750000  1
  F  F8  1  0.497128  0.740381  0.215461  1
  F  F9  1  0.259619  0.502872  0.284539  1
  F  F10  1  0.500103  0.260309  0.785359  1
  F  F11  1  0.739691  0.499897  0.714641  1
  F  F12  1  0.273978  0.971241  0.349817  1
  F  F13  1  0.028759  0.726022  0.150183  1
  F  F14  1  0.723822  0.023968  0.650283  1
  F  F15  1  0.976032  0.276178  0.849717  1
  F  F16  1  0.497180  0.998453  0.502565  1
  F  F17  1  0.001547  0.502820  0.997435  1
  F  F18  1  0.178911  0.064353  0.044377  1
  F  F19  1  0.935647  0.821089  0.455623  1
  F  F20  1  0.821942  0.930336  0.960737  1
  F  F21  1  0.069664  0.178058  0.539263  1
  F  F22  1  0.594373  0.186877  0.079049  1
  F  F23  1  0.813123  0.405627  0.420951  1
  F  F24  1  0.401668  0.810556  0.928576  1
  F  F25  1  0.189444  0.598332  0.571424  1
  F  F26  1  0.259763  0.319980  0.104653  1
  F  F27  1  0.680020  0.740237  0.395347  1
  F  F28  1  0.738722  0.679486  0.896166  1
  F  F29  1  0.320514  0.261278  0.603834  1
