# generated using pymatgen
data_Er3Al12Os3Au
_symmetry_space_group_name_H-M   'P 1'
_cell_length_a   8.82570000
_cell_length_b   8.87262315
_cell_length_c   9.56846613
_cell_angle_alpha   90.04849234
_cell_angle_beta   90.00000000
_cell_angle_gamma   119.82521043
_symmetry_Int_Tables_number   1
_chemical_formula_structural   Er3Al12Os3Au
_chemical_formula_sum   'Er6 Al24 Os6 Au2'
_cell_volume   650.03415371
_cell_formula_units_Z   2
loop_
 _symmetry_equiv_pos_site_id
 _symmetry_equiv_pos_as_xyz
  1  'x, y, z'
loop_
 _atom_site_type_symbol
 _atom_site_label
 _atom_site_symmetry_multiplicity
 _atom_site_fract_x
 _atom_site_fract_y
 _atom_site_fract_z
 _atom_site_occupancy
  Er  Er0  1  0.193002  0.386004  0.250662  1
  Er  Er1  1  0.806998  0.613996  0.749338  1
  Er  Er2  1  0.612046  0.809143  0.255506  1
  Er  Er3  1  0.387954  0.190857  0.744494  1
  Er  Er4  1  0.197097  0.809143  0.255506  1
  Er  Er5  1  0.802903  0.190857  0.744494  1
  Al  Al6  1  0.338544  0.677090  0.033450  1
  Al  Al7  1  0.661456  0.322910  0.966550  1
  Al  Al8  1  0.667039  0.334077  0.527019  1
  Al  Al9  1  0.332961  0.665923  0.472981  1
  Al  Al10  1  0.163713  0.327426  0.571697  1
  Al  Al11  1  0.836287  0.672574  0.428303  1
  Al  Al12  1  0.671920  0.835088  0.575045  1
  Al  Al13  1  0.840510  0.681019  0.084190  1
  Al  Al14  1  0.328080  0.164912  0.424955  1
  Al  Al15  1  0.159490  0.318981  0.915810  1
  Al  Al16  1  0.163168  0.835088  0.575045  1
  Al  Al17  1  0.324119  0.152391  0.080962  1
  Al  Al18  1  0.836832  0.164912  0.424955  1
  Al  Al19  1  0.675881  0.847609  0.919038  1
  Al  Al20  1  0.828272  0.152391  0.080962  1
  Al  Al21  1  0.171728  0.847609  0.919038  1
  Al  Al22  1  0.561414  0.122827  0.249959  1
  Al  Al23  1  0.438586  0.877173  0.750041  1
  Al  Al24  1  0.872270  0.435591  0.255798  1
  Al  Al25  1  0.127730  0.564409  0.744202  1
  Al  Al26  1  0.563320  0.435591  0.255798  1
  Al  Al27  1  0.436680  0.564409  0.744202  1
  Al  Al28  1  0.001538  0.003076  0.250840  1
  Al  Al29  1  0.998462  0.996924  0.749160  1
  Os  Os30  1  0.500000  0.000000  0.000000  1
  Os  Os31  1  0.500000  0.000000  0.500000  1
  Os  Os32  1  0.000000  0.500000  0.500000  1
  Os  Os33  1  0.500000  0.500000  0.500000  1
  Os  Os34  1  0.000000  0.000000  0.000000  1
  Os  Os35  1  0.000000  0.000000  0.500000  1
  Au  Au36  1  0.000000  0.500000  0.000000  1
  Au  Au37  1  0.500000  0.500000  0.000000  1
