# generated using pymatgen
data_Tb4Ti2Sn5
_symmetry_space_group_name_H-M   'P 1'
_cell_length_a   11.24570430
_cell_length_b   11.24570308
_cell_length_c   11.24570299
_cell_angle_alpha   148.64299898
_cell_angle_beta   131.32025735
_cell_angle_gamma   59.05541405
_symmetry_Int_Tables_number   1
_chemical_formula_structural   Tb4Ti2Sn5
_chemical_formula_sum   'Tb8 Ti4 Sn10'
_cell_volume   551.31499512
_cell_formula_units_Z   2
loop_
 _symmetry_equiv_pos_site_id
 _symmetry_equiv_pos_as_xyz
  1  'x, y, z'
loop_
 _atom_site_type_symbol
 _atom_site_label
 _atom_site_symmetry_multiplicity
 _atom_site_fract_x
 _atom_site_fract_y
 _atom_site_fract_z
 _atom_site_occupancy
  Tb  Tb0  1  0.667747  0.442005  0.225742  1
  Tb  Tb1  1  0.332253  0.557995  0.774258  1
  Tb  Tb2  1  0.216262  0.942005  0.274258  1
  Tb  Tb3  1  0.783738  0.057995  0.725742  1
  Tb  Tb4  1  0.253958  0.146381  0.107577  1
  Tb  Tb5  1  0.746042  0.853619  0.892423  1
  Tb  Tb6  1  0.038804  0.646381  0.392423  1
  Tb  Tb7  1  0.961196  0.353619  0.607577  1
  Ti  Ti8  1  0.301863  0.551863  0.250000  1
  Ti  Ti9  1  0.698137  0.448137  0.750000  1
  Ti  Ti10  1  0.698137  0.948137  0.250000  1
  Ti  Ti11  1  0.301863  0.051863  0.750000  1
  Sn  Sn12  1  0.584141  0.287832  0.296310  1
  Sn  Sn13  1  0.415859  0.712168  0.703690  1
  Sn  Sn14  1  0.991522  0.787832  0.203690  1
  Sn  Sn15  1  0.008478  0.212168  0.796310  1
  Sn  Sn16  1  0.000000  0.250000  0.250000  1
  Sn  Sn17  1  0.000000  0.750000  0.750000  1
  Sn  Sn18  1  0.488620  0.085992  0.402626  1
  Sn  Sn19  1  0.511380  0.914008  0.597374  1
  Sn  Sn20  1  0.683366  0.585992  0.097374  1
  Sn  Sn21  1  0.316634  0.414008  0.902626  1
