# generated using pymatgen
data_Lu4Al18(PtRh)3
_symmetry_space_group_name_H-M   'P 1'
_cell_length_a   7.56842938
_cell_length_b   7.56843009
_cell_length_c   9.35363501
_cell_angle_alpha   89.98019004
_cell_angle_beta   89.98019764
_cell_angle_gamma   119.54627074
_symmetry_Int_Tables_number   1
_chemical_formula_structural   Lu4Al18(PtRh)3
_chemical_formula_sum   'Lu4 Al18 Pt3 Rh3'
_cell_volume   466.11173907
_cell_formula_units_Z   1
loop_
 _symmetry_equiv_pos_site_id
 _symmetry_equiv_pos_as_xyz
  1  'x, y, z'
loop_
 _atom_site_type_symbol
 _atom_site_label
 _atom_site_symmetry_multiplicity
 _atom_site_fract_x
 _atom_site_fract_y
 _atom_site_fract_z
 _atom_site_occupancy
  Lu  Lu0  1  0.995774  0.670928  0.250692  1
  Lu  Lu1  1  0.004719  0.329487  0.749432  1
  Lu  Lu2  1  0.670513  0.995281  0.250568  1
  Lu  Lu3  1  0.329072  0.004226  0.749308  1
  Al  Al4  1  0.124981  0.125619  0.250543  1
  Al  Al5  1  0.874381  0.875019  0.749457  1
  Al  Al6  1  0.999281  0.331457  0.077450  1
  Al  Al7  1  0.000202  0.669032  0.921960  1
  Al  Al8  1  0.997191  0.664608  0.576322  1
  Al  Al9  1  0.335392  0.002809  0.423678  1
  Al  Al10  1  0.995630  0.331205  0.423765  1
  Al  Al11  1  0.668795  0.004370  0.576235  1
  Al  Al12  1  0.668543  0.000719  0.922550  1
  Al  Al13  1  0.330968  0.999798  0.078040  1
  Al  Al14  1  0.331785  0.328150  0.555370  1
  Al  Al15  1  0.671850  0.668215  0.444630  1
  Al  Al16  1  0.671025  0.671181  0.058713  1
  Al  Al17  1  0.328819  0.328975  0.941287  1
  Al  Al18  1  0.339899  0.546255  0.250569  1
  Al  Al19  1  0.659607  0.450980  0.746727  1
  Al  Al20  1  0.549020  0.340393  0.253273  1
  Al  Al21  1  0.453745  0.660101  0.749431  1
  Pt  Pt22  1  0.672446  0.327554  0.000000  1
  Pt  Pt23  1  0.326921  0.673079  0.000000  1
  Pt  Pt24  1  0.327092  0.672908  0.500000  1
  Rh  Rh25  1  0.672365  0.327635  0.500000  1
  Rh  Rh26  1  0.999718  0.000282  0.000000  1
  Rh  Rh27  1  0.000265  0.999735  0.500000  1
