# generated using pymatgen
data_Cs10Mn5FeS14
_symmetry_space_group_name_H-M   'P 1'
_cell_length_a   10.67449621
_cell_length_b   10.67450326
_cell_length_c   9.03626540
_cell_angle_alpha   79.49276210
_cell_angle_beta   79.49277534
_cell_angle_gamma   74.23133799
_symmetry_Int_Tables_number   1
_chemical_formula_structural   Cs10Mn5FeS14
_chemical_formula_sum   'Cs10 Mn5 Fe1 S14'
_cell_volume   964.62959237
_cell_formula_units_Z   1
loop_
 _symmetry_equiv_pos_site_id
 _symmetry_equiv_pos_as_xyz
  1  'x, y, z'
loop_
 _atom_site_type_symbol
 _atom_site_label
 _atom_site_symmetry_multiplicity
 _atom_site_fract_x
 _atom_site_fract_y
 _atom_site_fract_z
 _atom_site_occupancy
  Cs  Cs0  1  0.035225  0.429704  0.731890  1
  Cs  Cs1  1  0.429704  0.035226  0.731890  1
  Cs  Cs2  1  0.958220  0.576567  0.271822  1
  Cs  Cs3  1  0.576567  0.958220  0.271822  1
  Cs  Cs4  1  0.296674  0.706751  0.994956  1
  Cs  Cs5  1  0.706751  0.296674  0.994956  1
  Cs  Cs6  1  0.844279  0.151762  0.500979  1
  Cs  Cs7  1  0.151762  0.844279  0.500979  1
  Cs  Cs8  1  0.431135  0.431135  0.692861  1
  Cs  Cs9  1  0.572031  0.572031  0.307298  1
  Mn  Mn10  1  0.200817  0.200817  0.181255  1
  Mn  Mn11  1  0.798201  0.798201  0.821737  1
  Mn  Mn12  1  0.069889  0.069889  0.060570  1
  Mn  Mn13  1  0.935892  0.935892  0.943190  1
  Mn  Mn14  1  0.327961  0.327962  0.316535  1
  Fe  Fe15  1  0.664865  0.664865  0.673763  1
  S  S16  1  0.000819  0.270734  0.120656  1
  S  S17  1  0.270734  0.000819  0.120655  1
  S  S18  1  0.997490  0.731364  0.883716  1
  S  S19  1  0.731364  0.997490  0.883716  1
  S  S20  1  0.199440  0.199440  0.424561  1
  S  S21  1  0.802132  0.802132  0.578849  1
  S  S22  1  0.063735  0.063735  0.820152  1
  S  S23  1  0.942640  0.942640  0.184019  1
  S  S24  1  0.330920  0.330920  0.071728  1
  S  S25  1  0.669009  0.669009  0.927240  1
  S  S26  1  0.259071  0.523703  0.385545  1
  S  S27  1  0.523703  0.259071  0.385545  1
  S  S28  1  0.748052  0.460918  0.608559  1
  S  S29  1  0.460918  0.748052  0.608559  1
