# generated using pymatgen
data_LiTb4Dy7Y5Cd3Pt4
_symmetry_space_group_name_H-M   'P 1'
_cell_length_a   9.71070730
_cell_length_b   9.71084067
_cell_length_c   9.71084102
_cell_angle_alpha   59.91815420
_cell_angle_beta   59.92298062
_cell_angle_gamma   59.92297455
_symmetry_Int_Tables_number   1
_chemical_formula_structural   LiTb4Dy7Y5Cd3Pt4
_chemical_formula_sum   'Li1 Tb4 Dy7 Y5 Cd3 Pt4'
_cell_volume   646.35963556
_cell_formula_units_Z   1
loop_
 _symmetry_equiv_pos_site_id
 _symmetry_equiv_pos_as_xyz
  1  'x, y, z'
loop_
 _atom_site_type_symbol
 _atom_site_label
 _atom_site_symmetry_multiplicity
 _atom_site_fract_x
 _atom_site_fract_y
 _atom_site_fract_z
 _atom_site_occupancy
  Li  Li0  1  0.571405  0.571483  0.571483  1
  Tb  Tb1  1  0.351161  0.351311  0.351311  1
  Tb  Tb2  1  0.352338  0.352183  0.944307  1
  Tb  Tb3  1  0.352338  0.944307  0.352183  1
  Tb  Tb4  1  0.944255  0.352359  0.352359  1
  Dy  Dy5  1  0.810227  0.191492  0.191492  1
  Dy  Dy6  1  0.187729  0.812817  0.812817  1
  Dy  Dy7  1  0.191320  0.810203  0.191578  1
  Dy  Dy8  1  0.812834  0.187861  0.812770  1
  Dy  Dy9  1  0.191320  0.191578  0.810203  1
  Dy  Dy10  1  0.812834  0.812770  0.187861  1
  Dy  Dy11  1  0.936656  0.564936  0.564936  1
  Y  Y12  1  0.563823  0.936358  0.936358  1
  Y  Y13  1  0.565155  0.936360  0.564937  1
  Y  Y14  1  0.936243  0.563964  0.936165  1
  Y  Y15  1  0.565155  0.564937  0.936360  1
  Y  Y16  1  0.936243  0.936165  0.563964  1
  Cd  Cd17  1  0.582358  0.582328  0.253225  1
  Cd  Cd18  1  0.582358  0.253225  0.582328  1
  Cd  Cd19  1  0.253071  0.582384  0.582384  1
  Pt  Pt20  1  0.143979  0.143923  0.143923  1
  Pt  Pt21  1  0.142748  0.142737  0.571600  1
  Pt  Pt22  1  0.142748  0.571600  0.142737  1
  Pt  Pt23  1  0.571701  0.142718  0.142718  1
