# generated using pymatgen
data_U8Ta6Nb6Si15Ge
_symmetry_space_group_name_H-M   'P 1'
_cell_length_a   6.86183002
_cell_length_b   7.07594589
_cell_length_c   13.28425522
_cell_angle_alpha   89.97979532
_cell_angle_beta   89.99454325
_cell_angle_gamma   90.04808928
_symmetry_Int_Tables_number   1
_chemical_formula_structural   U8Ta6Nb6Si15Ge
_chemical_formula_sum   'U8 Ta6 Nb6 Si15 Ge1'
_cell_volume   645.00263250
_cell_formula_units_Z   1
loop_
 _symmetry_equiv_pos_site_id
 _symmetry_equiv_pos_as_xyz
  1  'x, y, z'
loop_
 _atom_site_type_symbol
 _atom_site_label
 _atom_site_symmetry_multiplicity
 _atom_site_fract_x
 _atom_site_fract_y
 _atom_site_fract_z
 _atom_site_occupancy
  U  U0  1  0.498836  0.668878  0.592841  1
  U  U1  1  0.998302  0.831074  0.907429  1
  U  U2  1  0.498986  0.331452  0.091594  1
  U  U3  1  0.004016  0.165940  0.409815  1
  U  U4  1  0.498831  0.331353  0.408520  1
  U  U5  1  0.003878  0.165983  0.090011  1
  U  U6  1  0.499072  0.668675  0.907060  1
  U  U7  1  0.998546  0.831310  0.592707  1
  Ta  Ta8  1  0.662648  0.173446  0.875649  1
  Ta  Ta9  1  0.162740  0.326827  0.624268  1
  Ta  Ta10  1  0.832399  0.499755  0.749988  1
  Ta  Ta11  1  0.332461  0.000219  0.750072  1
  Ta  Ta12  1  0.170637  0.501617  0.249992  1
  Ta  Ta13  1  0.666335  0.997007  0.249978  1
  Nb  Nb14  1  0.662756  0.173410  0.624370  1
  Nb  Nb15  1  0.162914  0.326906  0.875767  1
  Nb  Nb16  1  0.337086  0.827751  0.123792  1
  Nb  Nb17  1  0.837178  0.675484  0.376552  1
  Nb  Nb18  1  0.337006  0.827732  0.376125  1
  Nb  Nb19  1  0.837084  0.675507  0.123419  1
  Si  Si20  1  0.663823  0.961921  0.458939  1
  Si  Si21  1  0.163275  0.539514  0.041268  1
  Si  Si22  1  0.336571  0.038414  0.957877  1
  Si  Si23  1  0.835892  0.460668  0.541193  1
  Si  Si24  1  0.335818  0.038525  0.542145  1
  Si  Si25  1  0.835064  0.460685  0.958789  1
  Si  Si26  1  0.663771  0.961923  0.040813  1
  Si  Si27  1  0.163168  0.539461  0.458946  1
  Si  Si28  1  0.457471  0.377993  0.749886  1
  Si  Si29  1  0.957465  0.122412  0.750161  1
  Si  Si30  1  0.541095  0.624656  0.249980  1
  Si  Si31  1  0.042116  0.878059  0.249998  1
  Si  Si32  1  0.699872  0.870499  0.750148  1
  Si  Si33  1  0.200176  0.629590  0.749930  1
  Si  Si34  1  0.299626  0.130431  0.249964  1
  Ge  Ge35  1  0.803086  0.364923  0.250015  1
