# generated using pymatgen
data_H7WF12
_symmetry_space_group_name_H-M   'P 1'
_cell_length_a   8.02850828
_cell_length_b   8.02850777
_cell_length_c   5.22253607
_cell_angle_alpha   72.98449110
_cell_angle_beta   72.98449605
_cell_angle_gamma   48.18782433
_symmetry_Int_Tables_number   1
_chemical_formula_structural   H7WF12
_chemical_formula_sum   'H7 W1 F12'
_cell_volume   237.66058105
_cell_formula_units_Z   1
loop_
 _symmetry_equiv_pos_site_id
 _symmetry_equiv_pos_as_xyz
  1  'x, y, z'
loop_
 _atom_site_type_symbol
 _atom_site_label
 _atom_site_symmetry_multiplicity
 _atom_site_fract_x
 _atom_site_fract_y
 _atom_site_fract_z
 _atom_site_occupancy
  H  H0  1  0.801259  0.824012  0.802403  1
  H  H1  1  0.175988  0.198741  0.197597  1
  H  H2  1  0.716558  0.736564  0.571728  1
  H  H3  1  0.263436  0.283442  0.428272  1
  H  H4  1  0.634077  0.635893  0.362243  1
  H  H5  1  0.364107  0.365923  0.637757  1
  H  H6  1  0.500734  0.499266  0.500000  1
  W  W7  1  0.000916  0.999084  0.000000  1
  F  F8  1  0.909816  0.908349  0.786203  1
  F  F9  1  0.091651  0.090184  0.213797  1
  F  F10  1  0.570298  0.568359  0.316064  1
  F  F11  1  0.431641  0.429702  0.683936  1
  F  F12  1  0.716603  0.720154  0.383762  1
  F  F13  1  0.279846  0.283397  0.616238  1
  F  F14  1  0.863293  0.284921  0.773264  1
  F  F15  1  0.715079  0.136707  0.226736  1
  F  F16  1  0.139169  0.713631  0.227617  1
  F  F17  1  0.286369  0.860831  0.772383  1
  F  F18  1  0.723050  0.763892  0.808699  1
  F  F19  1  0.236108  0.276950  0.191301  1
