# generated using pymatgen
data_Eu2Cr2C3
_symmetry_space_group_name_H-M   'P 1'
_cell_length_a   5.50118923
_cell_length_b   5.50119001
_cell_length_c   5.83691498
_cell_angle_alpha   75.13165288
_cell_angle_beta   75.13164688
_cell_angle_gamma   38.35948586
_symmetry_Int_Tables_number   1
_chemical_formula_structural   Eu2Cr2C3
_chemical_formula_sum   'Eu2 Cr2 C3'
_cell_volume   105.50036142
_cell_formula_units_Z   1
loop_
 _symmetry_equiv_pos_site_id
 _symmetry_equiv_pos_as_xyz
  1  'x, y, z'
loop_
 _atom_site_type_symbol
 _atom_site_label
 _atom_site_symmetry_multiplicity
 _atom_site_fract_x
 _atom_site_fract_y
 _atom_site_fract_z
 _atom_site_occupancy
  Eu  Eu0  1  0.598544  0.598544  0.180872  1
  Eu  Eu1  1  0.401456  0.401456  0.819128  1
  Cr  Cr2  1  0.840542  0.840542  0.410728  1
  Cr  Cr3  1  0.159458  0.159458  0.589272  1
  C  C4  1  0.000000  0.000000  0.500000  1
  C  C5  1  0.312542  0.312542  0.303959  1
  C  C6  1  0.687458  0.687458  0.696041  1
