# generated using pymatgen
data_Mn6Si6Tc7Ru5
_symmetry_space_group_name_H-M   'P 1'
_cell_length_a   4.19194600
_cell_length_b   5.94240129
_cell_length_c   12.57820561
_cell_angle_alpha   89.96433335
_cell_angle_beta   89.99942150
_cell_angle_gamma   90.00035115
_symmetry_Int_Tables_number   1
_chemical_formula_structural   Mn6Si6Tc7Ru5
_chemical_formula_sum   'Mn6 Si6 Tc7 Ru5'
_cell_volume   313.32587499
_cell_formula_units_Z   1
loop_
 _symmetry_equiv_pos_site_id
 _symmetry_equiv_pos_as_xyz
  1  'x, y, z'
loop_
 _atom_site_type_symbol
 _atom_site_label
 _atom_site_symmetry_multiplicity
 _atom_site_fract_x
 _atom_site_fract_y
 _atom_site_fract_z
 _atom_site_occupancy
  Mn  Mn0  1  0.999996  0.999680  0.001423  1
  Mn  Mn1  1  0.499721  0.500193  0.166525  1
  Mn  Mn2  1  0.999720  0.000522  0.332816  1
  Mn  Mn3  1  0.499998  0.497358  0.498613  1
  Mn  Mn4  1  0.000293  0.001684  0.665793  1
  Mn  Mn5  1  0.500267  0.500093  0.834754  1
  Si  Si6  1  0.000013  0.500211  0.999288  1
  Si  Si7  1  0.499692  0.999575  0.166697  1
  Si  Si8  1  0.999705  0.501199  0.333697  1
  Si  Si9  1  0.500014  0.997311  0.500795  1
  Si  Si10  1  0.000290  0.501635  0.667336  1
  Si  Si11  1  0.500268  0.999744  0.832236  1
  Tc  Tc12  1  0.500007  0.250602  0.997569  1
  Tc  Tc13  1  0.500008  0.749578  0.997465  1
  Tc  Tc14  1  0.999716  0.248460  0.166242  1
  Tc  Tc15  1  0.999728  0.750388  0.166067  1
  Tc  Tc16  1  0.499736  0.250750  0.334838  1
  Tc  Tc17  1  0.499738  0.749130  0.335167  1
  Tc  Tc18  1  0.000013  0.251469  0.502365  1
  Ru  Ru19  1  0.000012  0.751341  0.502515  1
  Ru  Ru20  1  0.500262  0.249087  0.667734  1
  Ru  Ru21  1  0.500287  0.751135  0.667007  1
  Ru  Ru22  1  0.000247  0.249315  0.831475  1
  Ru  Ru23  1  0.000268  0.749540  0.831585  1
