# generated using pymatgen
data_Hf18Mo8AuS
_symmetry_space_group_name_H-M   'P 1'
_cell_length_a   8.73480600
_cell_length_b   8.73480473
_cell_length_c   8.58888200
_cell_angle_alpha   90.00000000
_cell_angle_beta   90.00000000
_cell_angle_gamma   119.99999725
_symmetry_Int_Tables_number   1
_chemical_formula_structural   Hf18Mo8AuS
_chemical_formula_sum   'Hf18 Mo8 Au1 S1'
_cell_volume   567.51029466
_cell_formula_units_Z   1
loop_
 _symmetry_equiv_pos_site_id
 _symmetry_equiv_pos_as_xyz
  1  'x, y, z'
loop_
 _atom_site_type_symbol
 _atom_site_label
 _atom_site_symmetry_multiplicity
 _atom_site_fract_x
 _atom_site_fract_y
 _atom_site_fract_z
 _atom_site_occupancy
  Hf  Hf0  1  0.194051  0.805949  0.452212  1
  Hf  Hf1  1  0.194051  0.388102  0.452212  1
  Hf  Hf2  1  0.611898  0.805949  0.452212  1
  Hf  Hf3  1  0.802496  0.197504  0.549111  1
  Hf  Hf4  1  0.802496  0.604992  0.549111  1
  Hf  Hf5  1  0.395008  0.197504  0.549111  1
  Hf  Hf6  1  0.802496  0.197504  0.950889  1
  Hf  Hf7  1  0.802496  0.604992  0.950889  1
  Hf  Hf8  1  0.395008  0.197504  0.950889  1
  Hf  Hf9  1  0.194051  0.805949  0.047788  1
  Hf  Hf10  1  0.194051  0.388102  0.047788  1
  Hf  Hf11  1  0.611898  0.805949  0.047788  1
  Hf  Hf12  1  0.542612  0.457388  0.250000  1
  Hf  Hf13  1  0.542612  0.085223  0.250000  1
  Hf  Hf14  1  0.914777  0.457388  0.250000  1
  Hf  Hf15  1  0.456456  0.543544  0.750000  1
  Hf  Hf16  1  0.456456  0.912911  0.750000  1
  Hf  Hf17  1  0.087089  0.543544  0.750000  1
  Mo  Mo18  1  0.888248  0.111752  0.250000  1
  Mo  Mo19  1  0.888248  0.776494  0.250000  1
  Mo  Mo20  1  0.223506  0.111752  0.250000  1
  Mo  Mo21  1  0.110365  0.889635  0.750000  1
  Mo  Mo22  1  0.110365  0.220730  0.750000  1
  Mo  Mo23  1  0.779270  0.889635  0.750000  1
  Mo  Mo24  1  0.000000  0.000000  0.499797  1
  Mo  Mo25  1  0.000000  0.000000  0.000203  1
  Au  Au26  1  0.333333  0.666667  0.250000  1
  S  S27  1  0.666667  0.333333  0.750000  1
