# generated using pymatgen
data_Ho6Al24PdRu6Pt
_symmetry_space_group_name_H-M   'P 1'
_cell_length_a   8.82886866
_cell_length_b   8.83724720
_cell_length_c   9.53731782
_cell_angle_alpha   89.68407444
_cell_angle_beta   90.53160150
_cell_angle_gamma   119.83265139
_symmetry_Int_Tables_number   1
_chemical_formula_structural   Ho6Al24PdRu6Pt
_chemical_formula_sum   'Ho6 Al24 Pd1 Ru6 Pt1'
_cell_volume   645.49058288
_cell_formula_units_Z   1
loop_
 _symmetry_equiv_pos_site_id
 _symmetry_equiv_pos_as_xyz
  1  'x, y, z'
loop_
 _atom_site_type_symbol
 _atom_site_label
 _atom_site_symmetry_multiplicity
 _atom_site_fract_x
 _atom_site_fract_y
 _atom_site_fract_z
 _atom_site_occupancy
  Ho  Ho0  1  0.192220  0.386447  0.250889  1
  Ho  Ho1  1  0.807780  0.613553  0.749111  1
  Ho  Ho2  1  0.612219  0.808484  0.250519  1
  Ho  Ho3  1  0.387781  0.191516  0.749481  1
  Ho  Ho4  1  0.194871  0.807807  0.252446  1
  Ho  Ho5  1  0.805129  0.192193  0.747554  1
  Al  Al6  1  0.330159  0.669590  0.022162  1
  Al  Al7  1  0.669841  0.330410  0.977838  1
  Al  Al8  1  0.661859  0.330801  0.521533  1
  Al  Al9  1  0.338141  0.669199  0.478467  1
  Al  Al10  1  0.166730  0.323962  0.578246  1
  Al  Al11  1  0.833270  0.676038  0.421754  1
  Al  Al12  1  0.674893  0.837142  0.577744  1
  Al  Al13  1  0.844826  0.677299  0.079911  1
  Al  Al14  1  0.325107  0.162858  0.422256  1
  Al  Al15  1  0.155174  0.322701  0.920089  1
  Al  Al16  1  0.166762  0.841869  0.577889  1
  Al  Al17  1  0.323736  0.156426  0.079186  1
  Al  Al18  1  0.833238  0.158131  0.422111  1
  Al  Al19  1  0.676264  0.843574  0.920814  1
  Al  Al20  1  0.837520  0.162879  0.077847  1
  Al  Al21  1  0.162480  0.837121  0.922153  1
  Al  Al22  1  0.560705  0.121600  0.250235  1
  Al  Al23  1  0.439295  0.878400  0.749765  1
  Al  Al24  1  0.875547  0.437700  0.246299  1
  Al  Al25  1  0.124453  0.562300  0.753701  1
  Al  Al26  1  0.561931  0.438011  0.254515  1
  Al  Al27  1  0.438069  0.561989  0.745485  1
  Al  Al28  1  0.000032  0.001085  0.250157  1
  Al  Al29  1  0.999968  0.998915  0.749843  1
  Pd  Pd30  1  0.500000  0.500000  0.000000  1
  Ru  Ru31  1  0.500000  0.000000  0.000000  1
  Ru  Ru32  1  0.000000  0.500000  0.000000  1
  Ru  Ru33  1  0.500000  0.000000  0.500000  1
  Ru  Ru34  1  0.500000  0.500000  0.500000  1
  Ru  Ru35  1  0.000000  0.000000  0.000000  1
  Ru  Ru36  1  0.000000  0.000000  0.500000  1
  Pt  Pt37  1  0.000000  0.500000  0.500000  1
