# generated using pymatgen
data_Dy2Si14TcIr5
_symmetry_space_group_name_H-M   'P 1'
_cell_length_a   8.00534588
_cell_length_b   8.00534579
_cell_length_c   8.08661665
_cell_angle_alpha   56.84680622
_cell_angle_beta   56.84679803
_cell_angle_gamma   57.05817480
_symmetry_Int_Tables_number   1
_chemical_formula_structural   Dy2Si14TcIr5
_chemical_formula_sum   'Dy2 Si14 Tc1 Ir5'
_cell_volume   340.38627176
_cell_formula_units_Z   1
loop_
 _symmetry_equiv_pos_site_id
 _symmetry_equiv_pos_as_xyz
  1  'x, y, z'
loop_
 _atom_site_type_symbol
 _atom_site_label
 _atom_site_symmetry_multiplicity
 _atom_site_fract_x
 _atom_site_fract_y
 _atom_site_fract_z
 _atom_site_occupancy
  Dy  Dy0  1  0.000931  0.003338  0.996467  1
  Dy  Dy1  1  0.496662  0.499069  0.503533  1
  Si  Si2  1  0.754623  0.745377  0.750000  1
  Si  Si3  1  0.249101  0.250899  0.250000  1
  Si  Si4  1  0.848708  0.065024  0.672939  1
  Si  Si5  1  0.671396  0.853059  0.063224  1
  Si  Si6  1  0.060838  0.671176  0.851733  1
  Si  Si7  1  0.646941  0.828604  0.436776  1
  Si  Si8  1  0.434976  0.651292  0.827061  1
  Si  Si9  1  0.828824  0.439162  0.648267  1
  Si  Si10  1  0.171981  0.561643  0.355496  1
  Si  Si11  1  0.566786  0.350641  0.170724  1
  Si  Si12  1  0.352327  0.174436  0.562741  1
  Si  Si13  1  0.938357  0.328019  0.144504  1
  Si  Si14  1  0.325564  0.147673  0.937259  1
  Si  Si15  1  0.149359  0.933214  0.329276  1
  Tc  Tc16  1  0.078218  0.421782  0.750000  1
  Ir  Ir17  1  0.249798  0.928131  0.571150  1
  Ir  Ir18  1  0.571869  0.250202  0.928850  1
  Ir  Ir19  1  0.924653  0.575347  0.250000  1
  Ir  Ir20  1  0.428366  0.750276  0.071406  1
  Ir  Ir21  1  0.749724  0.071634  0.428594  1
