# generated using pymatgen
data_Rb16Si15Ge
_symmetry_space_group_name_H-M   'P 1'
_cell_length_a   11.91752125
_cell_length_b   11.91269975
_cell_length_c   11.92041349
_cell_angle_alpha   124.76970950
_cell_angle_beta   124.69413902
_cell_angle_gamma   82.01396828
_symmetry_Int_Tables_number   1
_chemical_formula_structural   Rb16Si15Ge
_chemical_formula_sum   'Rb16 Si15 Ge1'
_cell_volume   1098.96633748
_cell_formula_units_Z   1
loop_
 _symmetry_equiv_pos_site_id
 _symmetry_equiv_pos_as_xyz
  1  'x, y, z'
loop_
 _atom_site_type_symbol
 _atom_site_label
 _atom_site_symmetry_multiplicity
 _atom_site_fract_x
 _atom_site_fract_y
 _atom_site_fract_z
 _atom_site_occupancy
  Rb  Rb0  1  0.268184  0.875607  0.892431  1
  Rb  Rb1  1  0.767473  0.875141  0.392490  1
  Rb  Rb2  1  0.125404  0.018328  0.394020  1
  Rb  Rb3  1  0.624766  0.232659  0.107542  1
  Rb  Rb4  1  0.482516  0.374951  0.607472  1
  Rb  Rb5  1  0.982581  0.376014  0.107964  1
  Rb  Rb6  1  0.125749  0.516138  0.892449  1
  Rb  Rb7  1  0.623972  0.732674  0.606671  1
  Rb  Rb8  1  0.371962  0.372031  0.243731  1
  Rb  Rb9  1  0.870773  0.627004  0.000478  1
  Rb  Rb10  1  0.621360  0.121926  0.743349  1
  Rb  Rb11  1  0.121746  0.378401  0.500202  1
  Rb  Rb12  1  0.380203  0.878635  0.258073  1
  Rb  Rb13  1  0.877701  0.621188  0.498263  1
  Rb  Rb14  1  0.128330  0.128223  0.756476  1
  Rb  Rb15  1  0.628572  0.872021  0.000132  1
  Si  Si16  1  0.511332  0.546270  0.152659  1
  Si  Si17  1  0.108607  0.761285  0.464859  1
  Si  Si18  1  0.608815  0.143609  0.347545  1
  Si  Si19  1  0.739133  0.391780  0.535423  1
  Si  Si20  1  0.238571  0.703854  0.347259  1
  Si  Si21  1  0.641226  0.488736  0.035042  1
  Si  Si22  1  0.141258  0.108301  0.153091  1
  Si  Si23  1  0.393542  0.358519  0.847336  1
  Si  Si24  1  0.893613  0.049112  0.035803  1
  Si  Si25  1  0.796300  0.261232  0.652655  1
  Si  Si26  1  0.296045  0.643527  0.534750  1
  Si  Si27  1  0.356320  0.891586  0.652530  1
  Si  Si28  1  0.856451  0.203729  0.465138  1
  Si  Si29  1  0.953527  0.991155  0.847840  1
  Si  Si30  1  0.453855  0.606614  0.965249  1
  Ge  Ge31  1  0.010110  0.849748  0.961076  1
