# generated using pymatgen
data_Er3TaBi3SbO14
_symmetry_space_group_name_H-M   'P 1'
_cell_length_a   6.43650331
_cell_length_b   6.67763247
_cell_length_c   7.61108896
_cell_angle_alpha   106.68921357
_cell_angle_beta   89.39318039
_cell_angle_gamma   98.39758376
_symmetry_Int_Tables_number   1
_chemical_formula_structural   Er3TaBi3SbO14
_chemical_formula_sum   'Er3 Ta1 Bi3 Sb1 O14'
_cell_volume   309.82013408
_cell_formula_units_Z   1
loop_
 _symmetry_equiv_pos_site_id
 _symmetry_equiv_pos_as_xyz
  1  'x, y, z'
loop_
 _atom_site_type_symbol
 _atom_site_label
 _atom_site_symmetry_multiplicity
 _atom_site_fract_x
 _atom_site_fract_y
 _atom_site_fract_z
 _atom_site_occupancy
  Er  Er0  1  0.546266  0.994461  0.751034  1
  Er  Er1  1  0.457156  0.003947  0.251643  1
  Er  Er2  1  0.257673  0.532276  0.882954  1
  Ta  Ta3  1  0.003847  0.008347  0.502744  1
  Bi  Bi4  1  0.745561  0.479474  0.116669  1
  Bi  Bi5  1  0.726170  0.459215  0.612150  1
  Bi  Bi6  1  0.261425  0.538601  0.388964  1
  Sb  Sb7  1  0.004977  0.000970  0.999327  1
  O  O8  1  0.438990  0.653976  0.165594  1
  O  O9  1  0.539858  0.341066  0.822240  1
  O  O10  1  0.297256  0.933774  0.951637  1
  O  O11  1  0.707345  0.042478  0.047788  1
  O  O12  1  0.290517  0.925246  0.515500  1
  O  O13  1  0.711410  0.077137  0.485208  1
  O  O14  1  0.526708  0.352775  0.346293  1
  O  O15  1  0.457808  0.646382  0.663158  1
  O  O16  1  0.940826  0.680683  0.954052  1
  O  O17  1  0.083883  0.313627  0.036221  1
  O  O18  1  0.096077  0.310894  0.626788  1
  O  O19  1  0.901945  0.700585  0.379404  1
  O  O20  1  0.904301  0.947246  0.736527  1
  O  O21  1  0.100000  0.056839  0.264102  1
