# generated using pymatgen
data_Mn7Nb4Al
_symmetry_space_group_name_H-M   'P 1'
_cell_length_a   4.85179800
_cell_length_b   4.85179736
_cell_length_c   8.00697700
_cell_angle_alpha   90.00000000
_cell_angle_beta   90.00000000
_cell_angle_gamma   120.00001803
_symmetry_Int_Tables_number   1
_chemical_formula_structural   Mn7Nb4Al
_chemical_formula_sum   'Mn7 Nb4 Al1'
_cell_volume   163.23169799
_cell_formula_units_Z   1
loop_
 _symmetry_equiv_pos_site_id
 _symmetry_equiv_pos_as_xyz
  1  'x, y, z'
loop_
 _atom_site_type_symbol
 _atom_site_label
 _atom_site_symmetry_multiplicity
 _atom_site_fract_x
 _atom_site_fract_y
 _atom_site_fract_z
 _atom_site_occupancy
  Mn  Mn0  1  0.171349  0.342698  0.744443  1
  Mn  Mn1  1  0.828651  0.171349  0.255557  1
  Mn  Mn2  1  0.342698  0.171349  0.255557  1
  Mn  Mn3  1  0.657302  0.828651  0.744443  1
  Mn  Mn4  1  0.000000  0.000000  0.500000  1
  Mn  Mn5  1  0.828651  0.657302  0.255557  1
  Mn  Mn6  1  0.171349  0.828651  0.744443  1
  Nb  Nb7  1  0.333333  0.666667  0.442724  1
  Nb  Nb8  1  0.666667  0.333333  0.929323  1
  Nb  Nb9  1  0.666667  0.333333  0.557276  1
  Nb  Nb10  1  0.333333  0.666667  0.070677  1
  Al  Al11  1  0.000000  0.000000  0.000000  1
