# generated using pymatgen
data_La4Lu2Si3Ge
_symmetry_space_group_name_H-M   'P 1'
_cell_length_a   7.62063919
_cell_length_b   7.62063891
_cell_length_c   4.54859900
_cell_angle_alpha   90.00000000
_cell_angle_beta   90.00000000
_cell_angle_gamma   90.27473474
_symmetry_Int_Tables_number   1
_chemical_formula_structural   La4Lu2Si3Ge
_chemical_formula_sum   'La4 Lu2 Si3 Ge1'
_cell_volume   264.15293629
_cell_formula_units_Z   1
loop_
 _symmetry_equiv_pos_site_id
 _symmetry_equiv_pos_as_xyz
  1  'x, y, z'
loop_
 _atom_site_type_symbol
 _atom_site_label
 _atom_site_symmetry_multiplicity
 _atom_site_fract_x
 _atom_site_fract_y
 _atom_site_fract_z
 _atom_site_occupancy
  La  La0  1  0.676496  0.178670  0.500000  1
  La  La1  1  0.825409  0.674591  0.500000  1
  La  La2  1  0.176097  0.323903  0.500000  1
  La  La3  1  0.321330  0.823504  0.500000  1
  Lu  Lu4  1  0.498560  0.497264  0.000000  1
  Lu  Lu5  1  0.002736  0.001440  0.000000  1
  Si  Si6  1  0.884797  0.385111  0.000000  1
  Si  Si7  1  0.114889  0.615203  0.000000  1
  Si  Si8  1  0.381515  0.118485  0.000000  1
  Ge  Ge9  1  0.618170  0.881830  0.000000  1
