# generated using pymatgen
data_Nd16Er4Si11As
_symmetry_space_group_name_H-M   'P 1'
_cell_length_a   11.40434501
_cell_length_b   11.40434495
_cell_length_c   6.53466300
_cell_angle_alpha   89.58164022
_cell_angle_beta   89.58164022
_cell_angle_gamma   89.83609999
_symmetry_Int_Tables_number   1
_chemical_formula_structural   Nd16Er4Si11As
_chemical_formula_sum   'Nd16 Er4 Si11 As1'
_cell_volume   849.84362659
_cell_formula_units_Z   1
loop_
 _symmetry_equiv_pos_site_id
 _symmetry_equiv_pos_as_xyz
  1  'x, y, z'
loop_
 _atom_site_type_symbol
 _atom_site_label
 _atom_site_symmetry_multiplicity
 _atom_site_fract_x
 _atom_site_fract_y
 _atom_site_fract_z
 _atom_site_occupancy
  Nd  Nd0  1  0.286581  0.090213  0.352857  1
  Nd  Nd1  1  0.288322  0.917902  0.854263  1
  Nd  Nd2  1  0.711413  0.085688  0.851698  1
  Nd  Nd3  1  0.715227  0.909818  0.353306  1
  Nd  Nd4  1  0.587156  0.789545  0.854546  1
  Nd  Nd5  1  0.589539  0.214064  0.351327  1
  Nd  Nd6  1  0.411075  0.787471  0.356114  1
  Nd  Nd7  1  0.414294  0.212351  0.850893  1
  Nd  Nd8  1  0.210455  0.412844  0.645454  1
  Nd  Nd9  1  0.212529  0.588925  0.143886  1
  Nd  Nd10  1  0.785936  0.410461  0.148673  1
  Nd  Nd11  1  0.787649  0.585706  0.649107  1
  Nd  Nd12  1  0.909787  0.713419  0.147143  1
  Nd  Nd13  1  0.914312  0.288587  0.648302  1
  Nd  Nd14  1  0.082098  0.711678  0.645737  1
  Nd  Nd15  1  0.090182  0.284773  0.146694  1
  Er  Er16  1  0.001913  0.000597  0.500399  1
  Er  Er17  1  0.999403  0.998087  0.999601  1
  Er  Er18  1  0.500906  0.499451  0.999824  1
  Er  Er19  1  0.500549  0.499094  0.500176  1
  Si  Si20  1  0.848711  0.151289  0.250000  1
  Si  Si21  1  0.846508  0.847272  0.749629  1
  Si  Si22  1  0.152728  0.153492  0.750371  1
  Si  Si23  1  0.153437  0.846563  0.250000  1
  Si  Si24  1  0.653320  0.346680  0.750000  1
  Si  Si25  1  0.650306  0.651271  0.249323  1
  Si  Si26  1  0.348729  0.349694  0.250677  1
  Si  Si27  1  0.500313  0.999566  0.108585  1
  Si  Si28  1  0.500295  0.999862  0.587058  1
  Si  Si29  1  0.000138  0.499705  0.912942  1
  Si  Si30  1  0.000434  0.499687  0.391415  1
  As  As31  1  0.345755  0.654245  0.750000  1
