# generated using pymatgen
data_Sm3Al12RuRh3
_symmetry_space_group_name_H-M   'P 1'
_cell_length_a   8.88586800
_cell_length_b   8.88586763
_cell_length_c   9.57514000
_cell_angle_alpha   90.00000000
_cell_angle_beta   90.00000000
_cell_angle_gamma   120.00000136
_symmetry_Int_Tables_number   1
_chemical_formula_structural   Sm3Al12RuRh3
_chemical_formula_sum   'Sm6 Al24 Ru2 Rh6'
_cell_volume   654.74992207
_cell_formula_units_Z   2
loop_
 _symmetry_equiv_pos_site_id
 _symmetry_equiv_pos_as_xyz
  1  'x, y, z'
loop_
 _atom_site_type_symbol
 _atom_site_label
 _atom_site_symmetry_multiplicity
 _atom_site_fract_x
 _atom_site_fract_y
 _atom_site_fract_z
 _atom_site_occupancy
  Sm  Sm0  1  0.190859  0.381718  0.250000  1
  Sm  Sm1  1  0.809141  0.618282  0.750000  1
  Sm  Sm2  1  0.618282  0.809141  0.250000  1
  Sm  Sm3  1  0.381718  0.190859  0.750000  1
  Sm  Sm4  1  0.190859  0.809141  0.250000  1
  Sm  Sm5  1  0.809141  0.190859  0.750000  1
  Al  Al6  1  0.333333  0.666667  0.025901  1
  Al  Al7  1  0.666667  0.333333  0.974099  1
  Al  Al8  1  0.666667  0.333333  0.525901  1
  Al  Al9  1  0.333333  0.666667  0.474099  1
  Al  Al10  1  0.162959  0.325920  0.575558  1
  Al  Al11  1  0.837041  0.674080  0.424442  1
  Al  Al12  1  0.674080  0.837041  0.575558  1
  Al  Al13  1  0.837041  0.674080  0.075558  1
  Al  Al14  1  0.325920  0.162959  0.424442  1
  Al  Al15  1  0.162959  0.325920  0.924442  1
  Al  Al16  1  0.162959  0.837041  0.575558  1
  Al  Al17  1  0.325920  0.162959  0.075558  1
  Al  Al18  1  0.837041  0.162959  0.424442  1
  Al  Al19  1  0.674080  0.837041  0.924442  1
  Al  Al20  1  0.837041  0.162959  0.075558  1
  Al  Al21  1  0.162959  0.837041  0.924442  1
  Al  Al22  1  0.562341  0.124681  0.250000  1
  Al  Al23  1  0.437659  0.875319  0.750000  1
  Al  Al24  1  0.875319  0.437659  0.250000  1
  Al  Al25  1  0.124681  0.562341  0.750000  1
  Al  Al26  1  0.562341  0.437659  0.250000  1
  Al  Al27  1  0.437659  0.562341  0.750000  1
  Al  Al28  1  0.000000  0.000000  0.250000  1
  Al  Al29  1  0.000000  0.000000  0.750000  1
  Ru  Ru30  1  0.000000  0.000000  0.000000  1
  Ru  Ru31  1  0.000000  0.000000  0.500000  1
  Rh  Rh32  1  0.500000  0.000000  0.000000  1
  Rh  Rh33  1  0.000000  0.500000  0.000000  1
  Rh  Rh34  1  0.500000  0.000000  0.500000  1
  Rh  Rh35  1  0.500000  0.500000  0.000000  1
  Rh  Rh36  1  0.000000  0.500000  0.500000  1
  Rh  Rh37  1  0.500000  0.500000  0.500000  1
