# generated using pymatgen
data_TmZr11(Si3Ru)4
_symmetry_space_group_name_H-M   'P 1'
_cell_length_a   3.95885900
_cell_length_b   10.37272278
_cell_length_c   11.86921107
_cell_angle_alpha   90.12750633
_cell_angle_beta   90.00000000
_cell_angle_gamma   90.00000000
_symmetry_Int_Tables_number   1
_chemical_formula_structural   TmZr11(Si3Ru)4
_chemical_formula_sum   'Tm1 Zr11 Si12 Ru4'
_cell_volume   487.39782041
_cell_formula_units_Z   1
loop_
 _symmetry_equiv_pos_site_id
 _symmetry_equiv_pos_as_xyz
  1  'x, y, z'
loop_
 _atom_site_type_symbol
 _atom_site_label
 _atom_site_symmetry_multiplicity
 _atom_site_fract_x
 _atom_site_fract_y
 _atom_site_fract_z
 _atom_site_occupancy
  Tm  Tm0  1  0.750000  0.157908  0.698308  1
  Zr  Zr1  1  0.250000  0.874836  0.022272  1
  Zr  Zr2  1  0.250000  0.625623  0.521004  1
  Zr  Zr3  1  0.750000  0.123369  0.981291  1
  Zr  Zr4  1  0.750000  0.377413  0.477171  1
  Zr  Zr5  1  0.250000  0.922622  0.595639  1
  Zr  Zr6  1  0.250000  0.575445  0.097993  1
  Zr  Zr7  1  0.750000  0.074514  0.399314  1
  Zr  Zr8  1  0.750000  0.424287  0.904352  1
  Zr  Zr9  1  0.250000  0.657947  0.800791  1
  Zr  Zr10  1  0.250000  0.841487  0.300517  1
  Zr  Zr11  1  0.750000  0.342555  0.199230  1
  Si  Si12  1  0.250000  0.012013  0.827731  1
  Si  Si13  1  0.250000  0.486729  0.325451  1
  Si  Si14  1  0.750000  0.984558  0.174338  1
  Si  Si15  1  0.750000  0.513896  0.674248  1
  Si  Si16  1  0.250000  0.252050  0.844624  1
  Si  Si17  1  0.250000  0.250697  0.339872  1
  Si  Si18  1  0.750000  0.749030  0.158825  1
  Si  Si19  1  0.750000  0.750923  0.659105  1
  Si  Si20  1  0.250000  0.196503  0.538923  1
  Si  Si21  1  0.250000  0.305664  0.045053  1
  Si  Si22  1  0.750000  0.806041  0.455729  1
  Si  Si23  1  0.750000  0.694620  0.956443  1
  Ru  Ru24  1  0.250000  0.387660  0.679825  1
  Ru  Ru25  1  0.250000  0.112949  0.179527  1
  Ru  Ru26  1  0.750000  0.613278  0.320031  1
  Ru  Ru27  1  0.750000  0.885385  0.822395  1
