# generated using pymatgen
data_Fe6Si(Mo2W)2
_symmetry_space_group_name_H-M   'P 1'
_cell_length_a   9.03449978
_cell_length_b   9.03450029
_cell_length_c   9.03449993
_cell_angle_alpha   30.62046136
_cell_angle_beta   30.62045932
_cell_angle_gamma   30.62046282
_symmetry_Int_Tables_number   1
_chemical_formula_structural   Fe6Si(Mo2W)2
_chemical_formula_sum   'Fe6 Si1 Mo4 W2'
_cell_volume   169.61842972
_cell_formula_units_Z   1
loop_
 _symmetry_equiv_pos_site_id
 _symmetry_equiv_pos_as_xyz
  1  'x, y, z'
loop_
 _atom_site_type_symbol
 _atom_site_label
 _atom_site_symmetry_multiplicity
 _atom_site_fract_x
 _atom_site_fract_y
 _atom_site_fract_z
 _atom_site_occupancy
  Fe  Fe0  1  0.587858  0.091311  0.091311  1
  Fe  Fe1  1  0.091311  0.091311  0.587858  1
  Fe  Fe2  1  0.091311  0.587858  0.091311  1
  Fe  Fe3  1  0.908689  0.412142  0.908689  1
  Fe  Fe4  1  0.412142  0.908689  0.908689  1
  Fe  Fe5  1  0.908689  0.908689  0.412142  1
  Si  Si6  1  0.000000  0.000000  0.000000  1
  Mo  Mo7  1  0.168214  0.168214  0.168214  1
  Mo  Mo8  1  0.831786  0.831786  0.831786  1
  Mo  Mo9  1  0.348888  0.348888  0.348888  1
  Mo  Mo10  1  0.651112  0.651112  0.651112  1
  W  W11  1  0.450218  0.450218  0.450218  1
  W  W12  1  0.549782  0.549782  0.549782  1
