# generated using pymatgen
data_K4Rb2TaVSe8
_symmetry_space_group_name_H-M   'P 1'
_cell_length_a   9.91616265
_cell_length_b   10.04647788
_cell_length_c   11.05835400
_cell_angle_alpha   90.00000000
_cell_angle_beta   90.00000000
_cell_angle_gamma   89.99761262
_symmetry_Int_Tables_number   1
_chemical_formula_structural   K4Rb2TaVSe8
_chemical_formula_sum   'K8 Rb4 Ta2 V2 Se16'
_cell_volume   1101.66096755
_cell_formula_units_Z   2
loop_
 _symmetry_equiv_pos_site_id
 _symmetry_equiv_pos_as_xyz
  1  'x, y, z'
loop_
 _atom_site_type_symbol
 _atom_site_label
 _atom_site_symmetry_multiplicity
 _atom_site_fract_x
 _atom_site_fract_y
 _atom_site_fract_z
 _atom_site_occupancy
  K  K0  1  0.055875  0.798698  0.951759  1
  K  K1  1  0.559362  0.708774  0.549326  1
  K  K2  1  0.440638  0.291226  0.049326  1
  K  K3  1  0.944125  0.201302  0.451759  1
  K  K4  1  0.944125  0.201302  0.048241  1
  K  K5  1  0.440638  0.291226  0.450674  1
  K  K6  1  0.559362  0.708774  0.950674  1
  K  K7  1  0.055875  0.798698  0.548241  1
  Rb  Rb8  1  0.636489  0.915888  0.250000  1
  Rb  Rb9  1  0.140324  0.586560  0.250000  1
  Rb  Rb10  1  0.859676  0.413440  0.750000  1
  Rb  Rb11  1  0.363511  0.084112  0.750000  1
  Ta  Ta12  1  0.716032  0.487329  0.250000  1
  Ta  Ta13  1  0.283968  0.512671  0.750000  1
  V  V14  1  0.785175  0.981180  0.750000  1
  V  V15  1  0.214825  0.018820  0.250000  1
  Se  Se16  1  0.329402  0.956889  0.078547  1
  Se  Se17  1  0.835710  0.553312  0.429879  1
  Se  Se18  1  0.164290  0.446688  0.929879  1
  Se  Se19  1  0.670598  0.043111  0.578547  1
  Se  Se20  1  0.003059  0.923567  0.250000  1
  Se  Se21  1  0.492194  0.583450  0.250000  1
  Se  Se22  1  0.507806  0.416550  0.750000  1
  Se  Se23  1  0.996941  0.076433  0.750000  1
  Se  Se24  1  0.670598  0.043111  0.921453  1
  Se  Se25  1  0.329402  0.956889  0.421453  1
  Se  Se26  1  0.835710  0.553312  0.070121  1
  Se  Se27  1  0.164290  0.446688  0.570121  1
  Se  Se28  1  0.808543  0.753664  0.750000  1
  Se  Se29  1  0.307650  0.752106  0.750000  1
  Se  Se30  1  0.692350  0.247894  0.250000  1
  Se  Se31  1  0.191457  0.246336  0.250000  1
