# generated using pymatgen
data_Li3Nd6Sm2Si12Rh
_symmetry_space_group_name_H-M   'P 1'
_cell_length_a   8.28177700
_cell_length_b   8.28177652
_cell_length_c   8.35868600
_cell_angle_alpha   90.00000000
_cell_angle_beta   90.00000000
_cell_angle_gamma   119.99999794
_symmetry_Int_Tables_number   1
_chemical_formula_structural   Li3Nd6Sm2Si12Rh
_chemical_formula_sum   'Li3 Nd6 Sm2 Si12 Rh1'
_cell_volume   496.49592776
_cell_formula_units_Z   1
loop_
 _symmetry_equiv_pos_site_id
 _symmetry_equiv_pos_as_xyz
  1  'x, y, z'
loop_
 _atom_site_type_symbol
 _atom_site_label
 _atom_site_symmetry_multiplicity
 _atom_site_fract_x
 _atom_site_fract_y
 _atom_site_fract_z
 _atom_site_occupancy
  Li  Li0  1  0.333333  0.666667  0.492857  1
  Li  Li1  1  0.666667  0.333333  0.508263  1
  Li  Li2  1  0.666667  0.333333  0.993335  1
  Nd  Nd3  1  0.499284  0.500716  0.247596  1
  Nd  Nd4  1  0.499284  0.998569  0.247596  1
  Nd  Nd5  1  0.001431  0.500716  0.247596  1
  Nd  Nd6  1  0.496170  0.503830  0.752322  1
  Nd  Nd7  1  0.496170  0.992340  0.752322  1
  Nd  Nd8  1  0.007660  0.503830  0.752322  1
  Sm  Sm9  1  0.000000  0.000000  0.251095  1
  Sm  Sm10  1  0.000000  0.000000  0.749278  1
  Si  Si11  1  0.165321  0.834679  0.500589  1
  Si  Si12  1  0.165321  0.330642  0.500589  1
  Si  Si13  1  0.669358  0.834679  0.500589  1
  Si  Si14  1  0.834204  0.165796  0.499458  1
  Si  Si15  1  0.834204  0.668408  0.499458  1
  Si  Si16  1  0.331592  0.165796  0.499458  1
  Si  Si17  1  0.836140  0.163860  0.999402  1
  Si  Si18  1  0.836140  0.672280  0.999402  1
  Si  Si19  1  0.327720  0.163860  0.999402  1
  Si  Si20  1  0.167840  0.832160  0.001505  1
  Si  Si21  1  0.167840  0.335680  0.001505  1
  Si  Si22  1  0.664320  0.832160  0.001505  1
  Rh  Rh23  1  0.333333  0.666667  0.002557  1
