# generated using pymatgen
data_SrCdGeS4
_symmetry_space_group_name_H-M   'P 1'
_cell_length_a   6.31606700
_cell_length_b   10.34530800
_cell_length_c   10.71943300
_cell_angle_alpha   90.00000000
_cell_angle_beta   90.00000000
_cell_angle_gamma   90.00000000
_symmetry_Int_Tables_number   1
_chemical_formula_structural   SrCdGeS4
_chemical_formula_sum   'Sr4 Cd4 Ge4 S16'
_cell_volume   700.42553001
_cell_formula_units_Z   4
loop_
 _symmetry_equiv_pos_site_id
 _symmetry_equiv_pos_as_xyz
  1  'x, y, z'
loop_
 _atom_site_type_symbol
 _atom_site_label
 _atom_site_symmetry_multiplicity
 _atom_site_fract_x
 _atom_site_fract_y
 _atom_site_fract_z
 _atom_site_occupancy
  Sr  Sr0  1  0.050768  0.000000  0.500000  1
  Sr  Sr1  1  0.550768  0.500000  0.000000  1
  Sr  Sr2  1  0.053422  0.000000  0.000000  1
  Sr  Sr3  1  0.553422  0.500000  0.500000  1
  Cd  Cd4  1  0.494383  0.166264  0.252207  1
  Cd  Cd5  1  0.494383  0.833736  0.747793  1
  Cd  Cd6  1  0.994383  0.333736  0.752207  1
  Cd  Cd7  1  0.994383  0.666264  0.247793  1
  Ge  Ge8  1  0.042028  0.285491  0.249700  1
  Ge  Ge9  1  0.042028  0.714509  0.750300  1
  Ge  Ge10  1  0.542028  0.214509  0.749700  1
  Ge  Ge11  1  0.542028  0.785491  0.250300  1
  S  S12  1  0.254818  0.272096  0.081981  1
  S  S13  1  0.254818  0.727904  0.918019  1
  S  S14  1  0.754818  0.227904  0.581981  1
  S  S15  1  0.754818  0.772096  0.418019  1
  S  S16  1  0.252088  0.273516  0.418912  1
  S  S17  1  0.252088  0.726484  0.581088  1
  S  S18  1  0.752088  0.226484  0.918912  1
  S  S19  1  0.752088  0.773516  0.081088  1
  S  S20  1  0.866227  0.095598  0.249798  1
  S  S21  1  0.866227  0.904402  0.750202  1
  S  S22  1  0.366227  0.404402  0.749798  1
  S  S23  1  0.366227  0.595598  0.250202  1
  S  S24  1  0.797963  0.437915  0.249038  1
  S  S25  1  0.797963  0.562085  0.750962  1
  S  S26  1  0.297963  0.062085  0.749038  1
  S  S27  1  0.297963  0.937915  0.250962  1
