# generated using pymatgen
data_CsLaGeS4
_symmetry_space_group_name_H-M   'P 1'
_cell_length_a   6.96255500
_cell_length_b   6.72972635
_cell_length_c   19.23559135
_cell_angle_alpha   71.15421565
_cell_angle_beta   90.00000000
_cell_angle_gamma   90.00000000
_symmetry_Int_Tables_number   1
_chemical_formula_structural   CsLaGeS4
_chemical_formula_sum   'Cs4 La4 Ge4 S16'
_cell_volume   852.98695412
_cell_formula_units_Z   4
loop_
 _symmetry_equiv_pos_site_id
 _symmetry_equiv_pos_as_xyz
  1  'x, y, z'
loop_
 _atom_site_type_symbol
 _atom_site_label
 _atom_site_symmetry_multiplicity
 _atom_site_fract_x
 _atom_site_fract_y
 _atom_site_fract_z
 _atom_site_occupancy
  Cs  Cs0  1  0.751248  0.714935  0.034279  1
  Cs  Cs1  1  0.248752  0.285065  0.965721  1
  Cs  Cs2  1  0.748752  0.714935  0.534279  1
  Cs  Cs3  1  0.251248  0.285065  0.465721  1
  La  La4  1  0.235347  0.230475  0.226549  1
  La  La5  1  0.735347  0.769525  0.273451  1
  La  La6  1  0.764653  0.769525  0.773451  1
  La  La7  1  0.264653  0.230475  0.726549  1
  Ge  Ge8  1  0.731576  0.209855  0.835695  1
  Ge  Ge9  1  0.768424  0.209855  0.335695  1
  Ge  Ge10  1  0.231576  0.790145  0.664305  1
  Ge  Ge11  1  0.268424  0.790145  0.164305  1
  S  S12  1  0.503995  0.029277  0.143034  1
  S  S13  1  0.758274  0.405469  0.408290  1
  S  S14  1  0.996793  0.012753  0.846798  1
  S  S15  1  0.827867  0.416827  0.220532  1
  S  S16  1  0.996005  0.029277  0.643034  1
  S  S17  1  0.258274  0.594531  0.091710  1
  S  S18  1  0.741726  0.405469  0.908290  1
  S  S19  1  0.327867  0.583173  0.279468  1
  S  S20  1  0.241726  0.594531  0.591710  1
  S  S21  1  0.496005  0.970723  0.856966  1
  S  S22  1  0.672133  0.416827  0.720532  1
  S  S23  1  0.172133  0.583173  0.779468  1
  S  S24  1  0.003995  0.970723  0.356966  1
  S  S25  1  0.003207  0.987247  0.153202  1
  S  S26  1  0.503207  0.012753  0.346798  1
  S  S27  1  0.496793  0.987247  0.653202  1
