# generated using pymatgen
data_La8TbYb11Si16
_symmetry_space_group_name_H-M   'P 1'
_cell_length_a   7.95585066
_cell_length_b   7.95251156
_cell_length_c   14.75477509
_cell_angle_alpha   89.89098790
_cell_angle_beta   90.04399721
_cell_angle_gamma   90.01856826
_symmetry_Int_Tables_number   1
_chemical_formula_structural   La8TbYb11Si16
_chemical_formula_sum   'La8 Tb1 Yb11 Si16'
_cell_volume   933.51776828
_cell_formula_units_Z   1
loop_
 _symmetry_equiv_pos_site_id
 _symmetry_equiv_pos_as_xyz
  1  'x, y, z'
loop_
 _atom_site_type_symbol
 _atom_site_label
 _atom_site_symmetry_multiplicity
 _atom_site_fract_x
 _atom_site_fract_y
 _atom_site_fract_z
 _atom_site_occupancy
  La  La0  1  0.986982  0.624446  0.047329  1
  La  La1  1  0.011561  0.374803  0.546620  1
  La  La2  1  0.625083  0.990571  0.952627  1
  La  La3  1  0.126143  0.510786  0.797020  1
  La  La4  1  0.875619  0.488911  0.297551  1
  La  La5  1  0.511900  0.126184  0.203587  1
  La  La6  1  0.489228  0.872511  0.702805  1
  La  La7  1  0.375743  0.010586  0.452394  1
  Tb  Tb8  1  0.128426  0.994610  0.875377  1
  Yb  Yb9  1  0.370711  0.492141  0.374802  1
  Yb  Yb10  1  0.870387  0.008162  0.375051  1
  Yb  Yb11  1  0.992375  0.128714  0.124837  1
  Yb  Yb12  1  0.008801  0.869886  0.625322  1
  Yb  Yb13  1  0.630940  0.508293  0.874943  1
  Yb  Yb14  1  0.490422  0.369590  0.625746  1
  Yb  Yb15  1  0.507561  0.630266  0.124018  1
  Yb  Yb16  1  0.687455  0.687620  0.500396  1
  Yb  Yb17  1  0.809896  0.189588  0.748654  1
  Yb  Yb18  1  0.186886  0.813051  0.249553  1
  Yb  Yb19  1  0.315143  0.316210  0.000973  1
  Si  Si20  1  0.079923  0.708054  0.442039  1
  Si  Si21  1  0.922877  0.284591  0.941033  1
  Si  Si22  1  0.707935  0.079361  0.558159  1
  Si  Si23  1  0.209354  0.419746  0.191731  1
  Si  Si24  1  0.792234  0.581014  0.693130  1
  Si  Si25  1  0.416852  0.205123  0.810096  1
  Si  Si26  1  0.579044  0.792221  0.307427  1
  Si  Si27  1  0.287631  0.921847  0.055129  1
  Si  Si28  1  0.842463  0.795941  0.809387  1
  Si  Si29  1  0.165630  0.204919  0.306867  1
  Si  Si30  1  0.793610  0.834816  0.192370  1
  Si  Si31  1  0.294958  0.664222  0.557090  1
  Si  Si32  1  0.706281  0.334447  0.055739  1
  Si  Si33  1  0.665685  0.295621  0.443684  1
  Si  Si34  1  0.331790  0.708681  0.940084  1
  Si  Si35  1  0.202472  0.162468  0.696429  1
