# generated using pymatgen
data_Cu2SN6
_symmetry_space_group_name_H-M   'P 1'
_cell_length_a   4.09936996
_cell_length_b   7.41616873
_cell_length_c   7.84612306
_cell_angle_alpha   91.90365854
_cell_angle_beta   78.09311851
_cell_angle_gamma   102.92189265
_symmetry_Int_Tables_number   1
_chemical_formula_structural   Cu2SN6
_chemical_formula_sum   'Cu2 S1 N6'
_cell_volume   227.47097825
_cell_formula_units_Z   1
loop_
 _symmetry_equiv_pos_site_id
 _symmetry_equiv_pos_as_xyz
  1  'x, y, z'
loop_
 _atom_site_type_symbol
 _atom_site_label
 _atom_site_symmetry_multiplicity
 _atom_site_fract_x
 _atom_site_fract_y
 _atom_site_fract_z
 _atom_site_occupancy
  Cu  Cu0  1  0.200176  0.850478  0.844591  1
  Cu  Cu1  1  0.588683  0.622001  0.875282  1
  S  S2  1  0.041680  0.579033  0.948009  1
  N  N3  1  0.633446  0.638804  0.452021  1
  N  N4  1  0.048439  0.134033  0.302250  1
  N  N5  1  0.513584  0.221185  0.697163  1
  N  N6  1  0.460427  0.542391  0.380571  1
  N  N7  1  0.245190  0.049624  0.267985  1
  N  N8  1  0.378057  0.081572  0.756395  1
