# generated using pymatgen
data_Tb3LuSc2CoTe2
_symmetry_space_group_name_H-M   'P 1'
_cell_length_a   3.93762400
_cell_length_b   8.14117799
_cell_length_c   8.14117826
_cell_angle_alpha   120.69846118
_cell_angle_beta   90.00000000
_cell_angle_gamma   90.00000000
_symmetry_Int_Tables_number   1
_chemical_formula_structural   Tb3LuSc2CoTe2
_chemical_formula_sum   'Tb3 Lu1 Sc2 Co1 Te2'
_cell_volume   224.40861525
_cell_formula_units_Z   1
loop_
 _symmetry_equiv_pos_site_id
 _symmetry_equiv_pos_as_xyz
  1  'x, y, z'
loop_
 _atom_site_type_symbol
 _atom_site_label
 _atom_site_symmetry_multiplicity
 _atom_site_fract_x
 _atom_site_fract_y
 _atom_site_fract_z
 _atom_site_occupancy
  Tb  Tb0  1  0.000000  0.384115  0.384115  1
  Tb  Tb1  1  0.000000  0.000500  0.601322  1
  Tb  Tb2  1  0.000000  0.601322  0.000500  1
  Lu  Lu3  1  0.500000  0.772043  0.772043  1
  Sc  Sc4  1  0.500000  0.992633  0.223346  1
  Sc  Sc5  1  0.500000  0.223346  0.992633  1
  Co  Co6  1  0.000000  0.031898  0.031898  1
  Te  Te7  1  0.500000  0.664638  0.329503  1
  Te  Te8  1  0.500000  0.329503  0.664638  1
