# generated using pymatgen
data_Nb3In(PO4)6
_symmetry_space_group_name_H-M   'P 1'
_cell_length_a   8.83246311
_cell_length_b   8.82822785
_cell_length_c   9.13917854
_cell_angle_alpha   90.11400753
_cell_angle_beta   118.78173183
_cell_angle_gamma   120.00333067
_symmetry_Int_Tables_number   1
_chemical_formula_structural   Nb3In(PO4)6
_chemical_formula_sum   'Nb3 In1 P6 O24'
_cell_volume   512.48272993
_cell_formula_units_Z   1
loop_
 _symmetry_equiv_pos_site_id
 _symmetry_equiv_pos_as_xyz
  1  'x, y, z'
loop_
 _atom_site_type_symbol
 _atom_site_label
 _atom_site_symmetry_multiplicity
 _atom_site_fract_x
 _atom_site_fract_y
 _atom_site_fract_z
 _atom_site_occupancy
  Nb  Nb0  1  0.785351  0.641384  0.427469  1
  Nb  Nb1  1  0.212202  0.357074  0.568449  1
  Nb  Nb2  1  0.784238  0.140888  0.925695  1
  In  In3  1  0.214827  0.859458  0.073815  1
  P  P4  1  0.992868  0.962656  0.247475  1
  P  P5  1  0.284619  0.530893  0.249867  1
  P  P6  1  0.284017  0.752212  0.748756  1
  P  P7  1  0.718193  0.252903  0.251327  1
  P  P8  1  0.718946  0.467314  0.750159  1
  P  P9  1  0.001514  0.033913  0.752807  1
  O  O10  1  0.304764  0.707209  0.231373  1
  O  O11  1  0.854240  0.989531  0.077880  1
  O  O12  1  0.858207  0.856025  0.593964  1
  O  O13  1  0.840769  0.798369  0.281887  1
  O  O14  1  0.138746  0.927645  0.239779  1
  O  O15  1  0.484583  0.544907  0.285896  1
  O  O16  1  0.092976  0.732466  0.583298  1
  O  O17  1  0.889831  0.633042  0.912992  1
  O  O18  1  0.283081  0.767270  0.911657  1
  O  O19  1  0.487675  0.924430  0.775425  1
  O  O20  1  0.734614  0.493212  0.588869  1
  O  O21  1  0.732333  0.436498  0.277788  1
  O  O22  1  0.287420  0.581881  0.710613  1
  O  O23  1  0.274680  0.496634  0.411900  1
  O  O24  1  0.528528  0.096027  0.239632  1
  O  O25  1  0.724168  0.222286  0.086872  1
  O  O26  1  0.088762  0.358171  0.085573  1
  O  O27  1  0.919434  0.288142  0.416300  1
  O  O28  1  0.502027  0.421002  0.701707  1
  O  O29  1  0.853847  0.065696  0.775315  1
  O  O30  1  0.127819  0.201951  0.706010  1
  O  O31  1  0.121838  0.136280  0.405422  1
  O  O32  1  0.155340  0.029734  0.921362  1
  O  O33  1  0.717543  0.292895  0.782664  1
