# generated using pymatgen
data_DyY6Er13Pb16
_symmetry_space_group_name_H-M   'P 1'
_cell_length_a   8.18066341
_cell_length_b   8.25210845
_cell_length_c   15.57821106
_cell_angle_alpha   90.01044741
_cell_angle_beta   90.03842680
_cell_angle_gamma   89.97955216
_symmetry_Int_Tables_number   1
_chemical_formula_structural   DyY6Er13Pb16
_chemical_formula_sum   'Dy1 Y6 Er13 Pb16'
_cell_volume   1051.64921531
_cell_formula_units_Z   1
loop_
 _symmetry_equiv_pos_site_id
 _symmetry_equiv_pos_as_xyz
  1  'x, y, z'
loop_
 _atom_site_type_symbol
 _atom_site_label
 _atom_site_symmetry_multiplicity
 _atom_site_fract_x
 _atom_site_fract_y
 _atom_site_fract_z
 _atom_site_occupancy
  Dy  Dy0  1  0.036537  0.176706  0.899989  1
  Y  Y1  1  0.036482  0.176700  0.600052  1
  Y  Y2  1  0.463508  0.676642  0.400000  1
  Y  Y3  1  0.963393  0.823415  0.100019  1
  Y  Y4  1  0.463431  0.676584  0.099961  1
  Y  Y5  1  0.963496  0.823359  0.399997  1
  Y  Y6  1  0.536477  0.323395  0.599943  1
  Er  Er7  1  0.376450  0.841406  0.878959  1
  Er  Er8  1  0.876409  0.658633  0.621087  1
  Er  Er9  1  0.623562  0.158666  0.378958  1
  Er  Er10  1  0.123385  0.341213  0.120983  1
  Er  Er11  1  0.623396  0.158795  0.120866  1
  Er  Er12  1  0.123567  0.341307  0.378950  1
  Er  Er13  1  0.376460  0.841376  0.621108  1
  Er  Er14  1  0.876378  0.658558  0.878953  1
  Er  Er15  1  0.536822  0.323578  0.899854  1
  Er  Er16  1  0.208392  0.504491  0.750133  1
  Er  Er17  1  0.708179  0.995446  0.750115  1
  Er  Er18  1  0.791755  0.495328  0.249960  1
  Er  Er19  1  0.291773  0.004672  0.249956  1
  Pb  Pb20  1  0.281692  0.033428  0.042888  1
  Pb  Pb21  1  0.781830  0.466533  0.457087  1
  Pb  Pb22  1  0.718178  0.966542  0.542923  1
  Pb  Pb23  1  0.218907  0.532857  0.956970  1
  Pb  Pb24  1  0.718007  0.966990  0.957007  1
  Pb  Pb25  1  0.218164  0.533499  0.542911  1
  Pb  Pb26  1  0.281850  0.033484  0.457113  1
  Pb  Pb27  1  0.781437  0.466162  0.042554  1
  Pb  Pb28  1  0.571105  0.626865  0.750052  1
  Pb  Pb29  1  0.071139  0.872938  0.750062  1
  Pb  Pb30  1  0.428866  0.372874  0.249974  1
  Pb  Pb31  1  0.928849  0.127176  0.250022  1
  Pb  Pb32  1  0.347864  0.153828  0.750428  1
  Pb  Pb33  1  0.847339  0.346588  0.750174  1
  Pb  Pb34  1  0.652465  0.846646  0.249986  1
  Pb  Pb35  1  0.152457  0.653320  0.250005  1
