# generated using pymatgen
data_DyZrCr2(Co4P3)2
_symmetry_space_group_name_H-M   'P 1'
_cell_length_a   3.63483600
_cell_length_b   10.23690300
_cell_length_c   11.69604200
_cell_angle_alpha   90.00000000
_cell_angle_beta   90.00000000
_cell_angle_gamma   90.00000000
_symmetry_Int_Tables_number   1
_chemical_formula_structural   DyZrCr2(Co4P3)2
_chemical_formula_sum   'Dy2 Zr2 Cr4 Co16 P12'
_cell_volume   435.20344851
_cell_formula_units_Z   2
loop_
 _symmetry_equiv_pos_site_id
 _symmetry_equiv_pos_as_xyz
  1  'x, y, z'
loop_
 _atom_site_type_symbol
 _atom_site_label
 _atom_site_symmetry_multiplicity
 _atom_site_fract_x
 _atom_site_fract_y
 _atom_site_fract_z
 _atom_site_occupancy
  Dy  Dy0  1  0.750000  0.417221  0.295889  1
  Dy  Dy1  1  0.750000  0.082779  0.795889  1
  Zr  Zr2  1  0.250000  0.583257  0.703679  1
  Zr  Zr3  1  0.250000  0.916743  0.203679  1
  Cr  Cr4  1  0.250000  0.711418  0.988516  1
  Cr  Cr5  1  0.250000  0.788582  0.488516  1
  Cr  Cr6  1  0.750000  0.289431  0.012317  1
  Cr  Cr7  1  0.750000  0.210569  0.512317  1
  Co  Co8  1  0.250000  0.408547  0.491778  1
  Co  Co9  1  0.250000  0.091453  0.991778  1
  Co  Co10  1  0.750000  0.594782  0.513505  1
  Co  Co11  1  0.750000  0.905218  0.013505  1
  Co  Co12  1  0.250000  0.220300  0.178842  1
  Co  Co13  1  0.250000  0.279700  0.678842  1
  Co  Co14  1  0.750000  0.777505  0.821619  1
  Co  Co15  1  0.750000  0.722495  0.321619  1
  Co  Co16  1  0.250000  0.883114  0.698514  1
  Co  Co17  1  0.250000  0.616886  0.198514  1
  Co  Co18  1  0.750000  0.110765  0.299469  1
  Co  Co19  1  0.750000  0.389235  0.799469  1
  Co  Co20  1  0.250000  0.468513  0.930514  1
  Co  Co21  1  0.250000  0.031487  0.430514  1
  Co  Co22  1  0.750000  0.535248  0.065893  1
  Co  Co23  1  0.750000  0.964752  0.565893  1
  P  P24  1  0.250000  0.418255  0.112115  1
  P  P25  1  0.250000  0.081745  0.612115  1
  P  P26  1  0.750000  0.582828  0.884485  1
  P  P27  1  0.750000  0.917172  0.384485  1
  P  P28  1  0.250000  0.268940  0.870538  1
  P  P29  1  0.250000  0.231060  0.370538  1
  P  P30  1  0.750000  0.733273  0.131323  1
  P  P31  1  0.750000  0.766727  0.631323  1
  P  P32  1  0.250000  0.600712  0.391726  1
  P  P33  1  0.250000  0.899288  0.891726  1
  P  P34  1  0.750000  0.401524  0.609280  1
  P  P35  1  0.750000  0.098476  0.109280  1
