# generated using pymatgen
data_Ce8RhS17
_symmetry_space_group_name_H-M   'P 1'
_cell_length_a   7.94403609
_cell_length_b   7.94403613
_cell_length_c   10.54123725
_cell_angle_alpha   80.85314585
_cell_angle_beta   80.85314530
_cell_angle_gamma   64.96181252
_symmetry_Int_Tables_number   1
_chemical_formula_structural   Ce8RhS17
_chemical_formula_sum   'Ce8 Rh1 S17'
_cell_volume   591.92033987
_cell_formula_units_Z   1
loop_
 _symmetry_equiv_pos_site_id
 _symmetry_equiv_pos_as_xyz
  1  'x, y, z'
loop_
 _atom_site_type_symbol
 _atom_site_label
 _atom_site_symmetry_multiplicity
 _atom_site_fract_x
 _atom_site_fract_y
 _atom_site_fract_z
 _atom_site_occupancy
  Ce  Ce0  1  0.814455  0.302485  0.295349  1
  Ce  Ce1  1  0.302485  0.814455  0.295349  1
  Ce  Ce2  1  0.185545  0.697515  0.704651  1
  Ce  Ce3  1  0.697515  0.185545  0.704651  1
  Ce  Ce4  1  0.206206  0.206206  0.545470  1
  Ce  Ce5  1  0.793794  0.793794  0.454530  1
  Ce  Ce6  1  0.680835  0.680835  0.976545  1
  Ce  Ce7  1  0.319165  0.319165  0.023455  1
  Rh  Rh8  1  0.000000  0.000000  0.000000  1
  S  S9  1  0.823121  0.429857  0.532237  1
  S  S10  1  0.429857  0.823121  0.532237  1
  S  S11  1  0.176879  0.570143  0.467763  1
  S  S12  1  0.570143  0.176879  0.467763  1
  S  S13  1  0.946378  0.318174  0.026559  1
  S  S14  1  0.318174  0.946378  0.026559  1
  S  S15  1  0.053622  0.681826  0.973441  1
  S  S16  1  0.681826  0.053622  0.973441  1
  S  S17  1  0.208608  0.208608  0.279349  1
  S  S18  1  0.791392  0.791392  0.720651  1
  S  S19  1  0.056183  0.056183  0.774057  1
  S  S20  1  0.943817  0.943817  0.225943  1
  S  S21  1  0.302954  0.302954  0.758194  1
  S  S22  1  0.697046  0.697046  0.241806  1
  S  S23  1  0.520431  0.520431  0.832217  1
  S  S24  1  0.479569  0.479569  0.167783  1
  S  S25  1  0.000000  0.000000  0.500000  1
