# generated using pymatgen
data_Tb3Ce2Sn3Ge
_symmetry_space_group_name_H-M   'P 1'
_cell_length_a   9.47644200
_cell_length_b   9.47644156
_cell_length_c   6.32646500
_cell_angle_alpha   90.00000000
_cell_angle_beta   90.00000000
_cell_angle_gamma   120.00000154
_symmetry_Int_Tables_number   1
_chemical_formula_structural   Tb3Ce2Sn3Ge
_chemical_formula_sum   'Tb6 Ce4 Sn6 Ge2'
_cell_volume   492.01951915
_cell_formula_units_Z   2
loop_
 _symmetry_equiv_pos_site_id
 _symmetry_equiv_pos_as_xyz
  1  'x, y, z'
loop_
 _atom_site_type_symbol
 _atom_site_label
 _atom_site_symmetry_multiplicity
 _atom_site_fract_x
 _atom_site_fract_y
 _atom_site_fract_z
 _atom_site_occupancy
  Tb  Tb0  1  0.255971  0.000000  0.750000  1
  Tb  Tb1  1  0.744029  0.000000  0.250000  1
  Tb  Tb2  1  0.000000  0.255971  0.750000  1
  Tb  Tb3  1  0.000000  0.744029  0.250000  1
  Tb  Tb4  1  0.744029  0.744029  0.750000  1
  Tb  Tb5  1  0.255971  0.255971  0.250000  1
  Ce  Ce6  1  0.333333  0.666667  0.500000  1
  Ce  Ce7  1  0.666667  0.333333  0.500000  1
  Ce  Ce8  1  0.666667  0.333333  0.000000  1
  Ce  Ce9  1  0.333333  0.666667  0.000000  1
  Sn  Sn10  1  0.615693  0.000000  0.750000  1
  Sn  Sn11  1  0.384307  0.000000  0.250000  1
  Sn  Sn12  1  0.000000  0.615693  0.750000  1
  Sn  Sn13  1  0.000000  0.384307  0.250000  1
  Sn  Sn14  1  0.384307  0.384307  0.750000  1
  Sn  Sn15  1  0.615693  0.615693  0.250000  1
  Ge  Ge16  1  0.000000  0.000000  0.500000  1
  Ge  Ge17  1  0.000000  0.000000  0.000000  1
