# generated using pymatgen
data_Y2Er2MoOs7
_symmetry_space_group_name_H-M   'P 1'
_cell_length_a   5.29319763
_cell_length_b   5.29319685
_cell_length_c   8.88135300
_cell_angle_alpha   89.99793516
_cell_angle_beta   90.00206268
_cell_angle_gamma   118.14372844
_symmetry_Int_Tables_number   1
_chemical_formula_structural   Y2Er2MoOs7
_chemical_formula_sum   'Y2 Er2 Mo1 Os7'
_cell_volume   219.41645389
_cell_formula_units_Z   1
loop_
 _symmetry_equiv_pos_site_id
 _symmetry_equiv_pos_as_xyz
  1  'x, y, z'
loop_
 _atom_site_type_symbol
 _atom_site_label
 _atom_site_symmetry_multiplicity
 _atom_site_fract_x
 _atom_site_fract_y
 _atom_site_fract_z
 _atom_site_occupancy
  Y  Y0  1  0.329810  0.670190  0.437335  1
  Y  Y1  1  0.666027  0.333973  0.566427  1
  Er  Er2  1  0.666092  0.333908  0.934311  1
  Er  Er3  1  0.329623  0.670377  0.061816  1
  Mo  Mo4  1  0.833526  0.166474  0.248987  1
  Os  Os5  1  0.993406  0.006594  0.501984  1
  Os  Os6  1  0.993209  0.006791  0.998052  1
  Os  Os7  1  0.825848  0.652287  0.248318  1
  Os  Os8  1  0.347713  0.174152  0.248318  1
  Os  Os9  1  0.179239  0.820761  0.751624  1
  Os  Os10  1  0.172090  0.336578  0.751414  1
  Os  Os11  1  0.663422  0.827910  0.751414  1
