# generated using pymatgen
data_Li3Nd4ZnPt4
_symmetry_space_group_name_H-M   'P 1'
_cell_length_a   4.11999100
_cell_length_b   7.22644570
_cell_length_c   8.56646848
_cell_angle_alpha   89.85155299
_cell_angle_beta   90.00000000
_cell_angle_gamma   90.00000000
_symmetry_Int_Tables_number   1
_chemical_formula_structural   Li3Nd4ZnPt4
_chemical_formula_sum   'Li3 Nd4 Zn1 Pt4'
_cell_volume   255.04767835
_cell_formula_units_Z   1
loop_
 _symmetry_equiv_pos_site_id
 _symmetry_equiv_pos_as_xyz
  1  'x, y, z'
loop_
 _atom_site_type_symbol
 _atom_site_label
 _atom_site_symmetry_multiplicity
 _atom_site_fract_x
 _atom_site_fract_y
 _atom_site_fract_z
 _atom_site_occupancy
  Li  Li0  1  0.250000  0.629312  0.559456  1
  Li  Li1  1  0.250000  0.125653  0.944020  1
  Li  Li2  1  0.750000  0.371861  0.441695  1
  Nd  Nd3  1  0.250000  0.041621  0.312108  1
  Nd  Nd4  1  0.250000  0.548207  0.184210  1
  Nd  Nd5  1  0.750000  0.954652  0.688271  1
  Nd  Nd6  1  0.750000  0.455754  0.814017  1
  Zn  Zn7  1  0.750000  0.872176  0.059239  1
  Pt  Pt8  1  0.250000  0.248485  0.617855  1
  Pt  Pt9  1  0.250000  0.753529  0.884133  1
  Pt  Pt10  1  0.750000  0.751410  0.378468  1
  Pt  Pt11  1  0.750000  0.247341  0.116528  1
