# generated using pymatgen
data_Tb2TmLuCdPt
_symmetry_space_group_name_H-M   'P 1'
_cell_length_a   9.62047735
_cell_length_b   9.62047672
_cell_length_c   9.64397500
_cell_angle_alpha   59.91917233
_cell_angle_beta   59.91917450
_cell_angle_gamma   60.16164170
_symmetry_Int_Tables_number   1
_chemical_formula_structural   Tb2TmLuCdPt
_chemical_formula_sum   'Tb8 Tm4 Lu4 Cd4 Pt4'
_cell_volume   631.14487671
_cell_formula_units_Z   4
loop_
 _symmetry_equiv_pos_site_id
 _symmetry_equiv_pos_as_xyz
  1  'x, y, z'
loop_
 _atom_site_type_symbol
 _atom_site_label
 _atom_site_symmetry_multiplicity
 _atom_site_fract_x
 _atom_site_fract_y
 _atom_site_fract_z
 _atom_site_occupancy
  Tb  Tb0  1  0.187786  0.187786  0.812214  1
  Tb  Tb1  1  0.812214  0.812214  0.187786  1
  Tb  Tb2  1  0.936280  0.563720  0.563720  1
  Tb  Tb3  1  0.563720  0.936280  0.936280  1
  Tb  Tb4  1  0.563720  0.936280  0.563720  1
  Tb  Tb5  1  0.936280  0.563720  0.936280  1
  Tb  Tb6  1  0.563369  0.563369  0.936631  1
  Tb  Tb7  1  0.936631  0.936631  0.563369  1
  Tm  Tm8  1  0.351759  0.351759  0.350644  1
  Tm  Tm9  1  0.351759  0.351759  0.945838  1
  Tm  Tm10  1  0.350644  0.945838  0.351759  1
  Tm  Tm11  1  0.945838  0.350644  0.351759  1
  Lu  Lu12  1  0.810430  0.189570  0.189570  1
  Lu  Lu13  1  0.189570  0.810430  0.810430  1
  Lu  Lu14  1  0.189570  0.810430  0.189570  1
  Lu  Lu15  1  0.810430  0.189570  0.810430  1
  Cd  Cd16  1  0.580718  0.580718  0.582064  1
  Cd  Cd17  1  0.580718  0.580718  0.256500  1
  Cd  Cd18  1  0.582064  0.256500  0.580718  1
  Cd  Cd19  1  0.256500  0.582064  0.580718  1
  Pt  Pt20  1  0.141503  0.141503  0.146108  1
  Pt  Pt21  1  0.141503  0.141503  0.570889  1
  Pt  Pt22  1  0.146108  0.570889  0.141503  1
  Pt  Pt23  1  0.570889  0.146108  0.141503  1
