# generated using pymatgen
data_Ti8Al15Pt6W
_symmetry_space_group_name_H-M   'P 1'
_cell_length_a   8.72346408
_cell_length_b   8.72346584
_cell_length_c   8.72346465
_cell_angle_alpha   120.05561045
_cell_angle_beta   119.74393825
_cell_angle_gamma   90.17389821
_symmetry_Int_Tables_number   1
_chemical_formula_structural   Ti8Al15Pt6W
_chemical_formula_sum   'Ti8 Al15 Pt6 W1'
_cell_volume   470.11411317
_cell_formula_units_Z   1
loop_
 _symmetry_equiv_pos_site_id
 _symmetry_equiv_pos_as_xyz
  1  'x, y, z'
loop_
 _atom_site_type_symbol
 _atom_site_label
 _atom_site_symmetry_multiplicity
 _atom_site_fract_x
 _atom_site_fract_y
 _atom_site_fract_z
 _atom_site_occupancy
  Ti  Ti0  1  0.788414  0.289117  0.074857  1
  Ti  Ti1  1  0.214260  0.289117  0.500704  1
  Ti  Ti2  1  0.211698  0.711698  0.500000  1
  Ti  Ti3  1  0.214260  0.713557  0.925143  1
  Ti  Ti4  1  0.788414  0.713557  0.499296  1
  Ti  Ti5  1  0.784731  0.284731  0.500000  1
  Ti  Ti6  1  0.381392  0.121147  0.739755  1
  Ti  Ti7  1  0.381392  0.641639  0.260245  1
  Al  Al8  1  0.998294  0.498294  0.500000  1
  Al  Al9  1  0.155075  0.347281  0.192205  1
  Al  Al10  1  0.155075  0.962870  0.807795  1
  Al  Al11  1  0.154753  0.344724  0.810029  1
  Al  Al12  1  0.534694  0.344724  0.189971  1
  Al  Al13  1  0.845501  0.652944  0.807443  1
  Al  Al14  1  0.845501  0.038058  0.192557  1
  Al  Al15  1  0.844528  0.654418  0.190109  1
  Al  Al16  1  0.464309  0.654418  0.809891  1
  Al  Al17  1  0.379087  0.121405  0.257683  1
  Al  Al18  1  0.863724  0.121405  0.742317  1
  Al  Al19  1  0.620300  0.878628  0.258329  1
  Al  Al20  1  0.620300  0.361971  0.741671  1
  Al  Al21  1  0.621141  0.879255  0.741887  1
  Al  Al22  1  0.137367  0.879255  0.258113  1
  Pt  Pt23  1  0.998451  0.998873  0.499076  1
  Pt  Pt24  1  0.499798  0.998873  0.000422  1
  Pt  Pt25  1  0.499926  0.499926  0.000000  1
  Pt  Pt26  1  0.499798  0.499375  0.500924  1
  Pt  Pt27  1  0.998451  0.499375  0.999578  1
  Pt  Pt28  1  0.000292  0.000292  0.000000  1
  W  W29  1  0.499069  0.999069  0.500000  1
