# generated using pymatgen
data_P2Pd3Ru
_symmetry_space_group_name_H-M   'P 1'
_cell_length_a   3.78209200
_cell_length_b   6.41500041
_cell_length_c   7.12397225
_cell_angle_alpha   88.99884755
_cell_angle_beta   90.00000000
_cell_angle_gamma   90.00000000
_symmetry_Int_Tables_number   1
_chemical_formula_structural   P2Pd3Ru
_chemical_formula_sum   'P4 Pd6 Ru2'
_cell_volume   172.81629640
_cell_formula_units_Z   2
loop_
 _symmetry_equiv_pos_site_id
 _symmetry_equiv_pos_as_xyz
  1  'x, y, z'
loop_
 _atom_site_type_symbol
 _atom_site_label
 _atom_site_symmetry_multiplicity
 _atom_site_fract_x
 _atom_site_fract_y
 _atom_site_fract_z
 _atom_site_occupancy
  P  P0  1  0.250000  0.744551  0.630253  1
  P  P1  1  0.750000  0.255449  0.369747  1
  P  P2  1  0.250000  0.226822  0.894223  1
  P  P3  1  0.750000  0.773178  0.105777  1
  Pd  Pd4  1  0.750000  0.032127  0.647354  1
  Pd  Pd5  1  0.250000  0.967873  0.352646  1
  Pd  Pd6  1  0.750000  0.537992  0.837935  1
  Pd  Pd7  1  0.250000  0.462008  0.162065  1
  Pd  Pd8  1  0.250000  0.362364  0.584692  1
  Pd  Pd9  1  0.750000  0.637636  0.415308  1
  Ru  Ru10  1  0.250000  0.858493  0.929584  1
  Ru  Ru11  1  0.750000  0.141507  0.070416  1
