# generated using pymatgen
data_TbPuPa4(Ni3Bi4)2
_symmetry_space_group_name_H-M   'P 1'
_cell_length_a   8.34375020
_cell_length_b   8.34375042
_cell_length_c   8.34374964
_cell_angle_alpha   109.80227721
_cell_angle_beta   109.30594400
_cell_angle_gamma   109.30595521
_symmetry_Int_Tables_number   1
_chemical_formula_structural   TbPuPa4(Ni3Bi4)2
_chemical_formula_sum   'Tb1 Pu1 Pa4 Ni6 Bi8'
_cell_volume   447.14775648
_cell_formula_units_Z   1
loop_
 _symmetry_equiv_pos_site_id
 _symmetry_equiv_pos_as_xyz
  1  'x, y, z'
loop_
 _atom_site_type_symbol
 _atom_site_label
 _atom_site_symmetry_multiplicity
 _atom_site_fract_x
 _atom_site_fract_y
 _atom_site_fract_z
 _atom_site_occupancy
  Tb  Tb0  1  0.250000  0.125000  0.875000  1
  Pu  Pu1  1  0.750000  0.375000  0.625000  1
  Pa  Pa2  1  0.127539  0.877849  0.250383  1
  Pa  Pa3  1  0.372461  0.622843  0.750310  1
  Pa  Pa4  1  0.872533  0.249690  0.122151  1
  Pa  Pa5  1  0.627467  0.749617  0.377157  1
  Ni  Ni6  1  0.628603  0.380310  0.247072  1
  Ni  Ni7  1  0.871397  0.118469  0.751707  1
  Ni  Ni8  1  0.366762  0.248293  0.619690  1
  Ni  Ni9  1  0.133238  0.752928  0.881531  1
  Ni  Ni10  1  0.250000  0.625000  0.375000  1
  Ni  Ni11  1  0.750000  0.875000  0.125000  1
  Bi  Bi12  1  0.333369  0.332568  0.331400  1
  Bi  Bi13  1  0.166631  0.498030  0.999200  1
  Bi  Bi14  1  0.998039  0.167092  0.501480  1
  Bi  Bi15  1  0.834388  0.830949  0.832908  1
  Bi  Bi16  1  0.501961  0.003439  0.169051  1
  Bi  Bi17  1  0.665612  0.498520  0.996561  1
  Bi  Bi18  1  0.498829  0.000800  0.667432  1
  Bi  Bi19  1  0.001171  0.668600  0.501970  1
