# generated using pymatgen
data_Ti4GaN3
_symmetry_space_group_name_H-M   'P 1'
_cell_length_a   3.01122300
_cell_length_b   3.01122172
_cell_length_c   23.15375600
_cell_angle_alpha   90.00000000
_cell_angle_beta   90.00000000
_cell_angle_gamma   119.99998113
_symmetry_Int_Tables_number   1
_chemical_formula_structural   Ti4GaN3
_chemical_formula_sum   'Ti8 Ga2 N6'
_cell_volume   181.81839492
_cell_formula_units_Z   2
loop_
 _symmetry_equiv_pos_site_id
 _symmetry_equiv_pos_as_xyz
  1  'x, y, z'
loop_
 _atom_site_type_symbol
 _atom_site_label
 _atom_site_symmetry_multiplicity
 _atom_site_fract_x
 _atom_site_fract_y
 _atom_site_fract_z
 _atom_site_occupancy
  Ti  Ti0  1  0.000000  0.000000  0.343965  1
  Ti  Ti1  1  0.000000  0.000000  0.656035  1
  Ti  Ti2  1  0.000000  0.000000  0.843965  1
  Ti  Ti3  1  0.000000  0.000000  0.156035  1
  Ti  Ti4  1  0.333333  0.666667  0.445396  1
  Ti  Ti5  1  0.666667  0.333333  0.554604  1
  Ti  Ti6  1  0.666667  0.333333  0.945396  1
  Ti  Ti7  1  0.333333  0.666667  0.054604  1
  Ga  Ga8  1  0.333333  0.666667  0.250000  1
  Ga  Ga9  1  0.666667  0.333333  0.750000  1
  N  N10  1  0.000000  0.000000  0.500000  1
  N  N11  1  0.000000  0.000000  0.000000  1
  N  N12  1  0.666667  0.333333  0.392925  1
  N  N13  1  0.333333  0.666667  0.607075  1
  N  N14  1  0.333333  0.666667  0.892925  1
  N  N15  1  0.666667  0.333333  0.107075  1
