# generated using pymatgen
data_BaU2F9
_symmetry_space_group_name_H-M   'P 1'
_cell_length_a   7.16035586
_cell_length_b   7.15271879
_cell_length_c   8.94525609
_cell_angle_alpha   78.90488615
_cell_angle_beta   79.04385815
_cell_angle_gamma   60.46938895
_symmetry_Int_Tables_number   1
_chemical_formula_structural   BaU2F9
_chemical_formula_sum   'Ba2 U4 F18'
_cell_volume   388.73436937
_cell_formula_units_Z   2
loop_
 _symmetry_equiv_pos_site_id
 _symmetry_equiv_pos_as_xyz
  1  'x, y, z'
loop_
 _atom_site_type_symbol
 _atom_site_label
 _atom_site_symmetry_multiplicity
 _atom_site_fract_x
 _atom_site_fract_y
 _atom_site_fract_z
 _atom_site_occupancy
  Ba  Ba0  1  0.589182  0.354008  0.400627  1
  Ba  Ba1  1  0.353705  0.589476  0.900699  1
  U  U2  1  0.898101  0.706576  0.311528  1
  U  U3  1  0.290422  0.093091  0.192212  1
  U  U4  1  0.092965  0.290542  0.692209  1
  U  U5  1  0.706496  0.898114  0.811750  1
  F  F6  1  0.079480  0.917608  0.251568  1
  F  F7  1  0.917540  0.079017  0.751774  1
  F  F8  1  0.929728  0.383617  0.234930  1
  F  F9  1  0.622463  0.062179  0.255563  1
  F  F10  1  0.062257  0.622812  0.755393  1
  F  F11  1  0.383882  0.929761  0.734951  1
  F  F12  1  0.166864  0.527850  0.478661  1
  F  F13  1  0.477452  0.816675  0.027202  1
  F  F14  1  0.816859  0.477093  0.527128  1
  F  F15  1  0.527688  0.167123  0.978893  1
  F  F16  1  0.904162  0.772500  0.036480  1
  F  F17  1  0.220239  0.135813  0.453091  1
  F  F18  1  0.136173  0.220242  0.953243  1
  F  F19  1  0.772566  0.904490  0.536720  1
  F  F20  1  0.537246  0.749950  0.319566  1
  F  F21  1  0.263955  0.456704  0.189220  1
  F  F22  1  0.457044  0.263979  0.689208  1
  F  F23  1  0.750131  0.537381  0.819779  1
