# generated using pymatgen
data_Ho8Ti8NbSi16Tc3
_symmetry_space_group_name_H-M   'P 1'
_cell_length_a   6.96938771
_cell_length_b   6.96938858
_cell_length_c   12.80903703
_cell_angle_alpha   90.08737929
_cell_angle_beta   89.91261892
_cell_angle_gamma   90.05026600
_symmetry_Int_Tables_number   1
_chemical_formula_structural   Ho8Ti8NbSi16Tc3
_chemical_formula_sum   'Ho8 Ti8 Nb1 Si16 Tc3'
_cell_volume   622.16361507
_cell_formula_units_Z   1
loop_
 _symmetry_equiv_pos_site_id
 _symmetry_equiv_pos_as_xyz
  1  'x, y, z'
loop_
 _atom_site_type_symbol
 _atom_site_label
 _atom_site_symmetry_multiplicity
 _atom_site_fract_x
 _atom_site_fract_y
 _atom_site_fract_z
 _atom_site_occupancy
  Ho  Ho0  1  0.340699  0.001408  0.467629  1
  Ho  Ho1  1  0.498472  0.841921  0.719607  1
  Ho  Ho2  1  0.500087  0.158832  0.218031  1
  Ho  Ho3  1  0.841921  0.498472  0.280393  1
  Ho  Ho4  1  0.158832  0.500087  0.781969  1
  Ho  Ho5  1  0.658821  0.999534  0.968654  1
  Ho  Ho6  1  0.001408  0.340699  0.532371  1
  Ho  Ho7  1  0.999534  0.658821  0.031346  1
  Ti  Ti8  1  0.152255  0.005391  0.876908  1
  Ti  Ti9  1  0.494005  0.653133  0.124657  1
  Ti  Ti10  1  0.505175  0.349095  0.627259  1
  Ti  Ti11  1  0.653133  0.494005  0.875343  1
  Ti  Ti12  1  0.349095  0.505175  0.372741  1
  Ti  Ti13  1  0.846807  0.992341  0.376080  1
  Ti  Ti14  1  0.005391  0.152255  0.123092  1
  Ti  Ti15  1  0.992341  0.846807  0.623920  1
  Nb  Nb16  1  0.673482  0.673482  0.500000  1
  Si  Si17  1  0.199975  0.129567  0.684167  1
  Si  Si18  1  0.370121  0.700489  0.933087  1
  Si  Si19  1  0.631672  0.296055  0.434089  1
  Si  Si20  1  0.700489  0.370121  0.066913  1
  Si  Si21  1  0.296055  0.631672  0.565911  1
  Si  Si22  1  0.799118  0.870184  0.183311  1
  Si  Si23  1  0.129567  0.199975  0.315833  1
  Si  Si24  1  0.870184  0.799118  0.816689  1
  Si  Si25  1  0.290811  0.952143  0.066564  1
  Si  Si26  1  0.546090  0.791715  0.314067  1
  Si  Si27  1  0.451970  0.210382  0.816824  1
  Si  Si28  1  0.791715  0.546090  0.685933  1
  Si  Si29  1  0.210382  0.451970  0.183176  1
  Si  Si30  1  0.707710  0.050198  0.567510  1
  Si  Si31  1  0.952143  0.290811  0.933436  1
  Si  Si32  1  0.050198  0.707710  0.432490  1
  Tc  Tc33  1  0.328109  0.328109  0.000000  1
  Tc  Tc34  1  0.173807  0.828426  0.248476  1
  Tc  Tc35  1  0.828426  0.173807  0.751524  1
