# generated using pymatgen
data_Ba4Er2Co2O9
_symmetry_space_group_name_H-M   'P 1'
_cell_length_a   9.09664563
_cell_length_b   9.07456617
_cell_length_c   6.18951285
_cell_angle_alpha   70.27749601
_cell_angle_beta   69.89318092
_cell_angle_gamma   39.82931092
_symmetry_Int_Tables_number   1
_chemical_formula_structural   Ba4Er2Co2O9
_chemical_formula_sum   'Ba4 Er2 Co2 O9'
_cell_volume   305.00777451
_cell_formula_units_Z   1
loop_
 _symmetry_equiv_pos_site_id
 _symmetry_equiv_pos_as_xyz
  1  'x, y, z'
loop_
 _atom_site_type_symbol
 _atom_site_label
 _atom_site_symmetry_multiplicity
 _atom_site_fract_x
 _atom_site_fract_y
 _atom_site_fract_z
 _atom_site_occupancy
  Ba  Ba0  1  0.882429  0.378543  0.117571  1
  Ba  Ba1  1  0.378543  0.882429  0.621457  1
  Ba  Ba2  1  0.621457  0.117571  0.378543  1
  Ba  Ba3  1  0.117571  0.621457  0.882429  1
  Er  Er4  1  0.500000  0.000000  0.000000  1
  Er  Er5  1  0.000000  0.500000  0.500000  1
  Co  Co6  1  0.723179  0.276821  0.723179  1
  Co  Co7  1  0.276821  0.723179  0.276821  1
  O  O8  1  0.903661  0.309680  0.690320  1
  O  O9  1  0.309680  0.903661  0.096339  1
  O  O10  1  0.690320  0.096339  0.903661  1
  O  O11  1  0.096339  0.690320  0.309680  1
  O  O12  1  0.729937  0.729937  0.270063  1
  O  O13  1  0.270063  0.270063  0.729937  1
  O  O14  1  0.250000  0.250000  0.250000  1
  O  O15  1  0.750000  0.750000  0.750000  1
  O  O16  1  0.500000  0.500000  0.500000  1
