# generated using pymatgen
data_Ac20Si15Tc
_symmetry_space_group_name_H-M   'P 1'
_cell_length_a   8.31006667
_cell_length_b   8.28772774
_cell_length_c   16.28917527
_cell_angle_alpha   90.25161484
_cell_angle_beta   89.92936089
_cell_angle_gamma   89.99734440
_symmetry_Int_Tables_number   1
_chemical_formula_structural   Ac20Si15Tc
_chemical_formula_sum   'Ac20 Si15 Tc1'
_cell_volume   1121.84940468
_cell_formula_units_Z   1
loop_
 _symmetry_equiv_pos_site_id
 _symmetry_equiv_pos_as_xyz
  1  'x, y, z'
loop_
 _atom_site_type_symbol
 _atom_site_label
 _atom_site_symmetry_multiplicity
 _atom_site_fract_x
 _atom_site_fract_y
 _atom_site_fract_z
 _atom_site_occupancy
  Ac  Ac0  1  0.306209  0.304262  0.997808  1
  Ac  Ac1  1  0.191875  0.810511  0.251052  1
  Ac  Ac2  1  0.828514  0.193466  0.749408  1
  Ac  Ac3  1  0.695927  0.684057  0.504435  1
  Ac  Ac4  1  0.372722  0.015427  0.450535  1
  Ac  Ac5  1  0.480037  0.884960  0.696186  1
  Ac  Ac6  1  0.514462  0.122163  0.198150  1
  Ac  Ac7  1  0.878236  0.485024  0.300364  1
  Ac  Ac8  1  0.129700  0.505734  0.796724  1
  Ac  Ac9  1  0.623352  0.985060  0.945567  1
  Ac  Ac10  1  0.010225  0.380417  0.554279  1
  Ac  Ac11  1  0.985135  0.626275  0.050158  1
  Ac  Ac12  1  0.129611  0.974151  0.872432  1
  Ac  Ac13  1  0.525123  0.625470  0.127205  1
  Ac  Ac14  1  0.465945  0.363120  0.630319  1
  Ac  Ac15  1  0.626243  0.522302  0.874044  1
  Ac  Ac16  1  0.378407  0.478076  0.372071  1
  Ac  Ac17  1  0.873482  0.025573  0.378217  1
  Ac  Ac18  1  0.975423  0.125177  0.123603  1
  Ac  Ac19  1  0.029358  0.883861  0.624908  1
  Si  Si20  1  0.332357  0.695326  0.958226  1
  Si  Si21  1  0.663080  0.297772  0.458940  1
  Si  Si22  1  0.698074  0.329891  0.042513  1
  Si  Si23  1  0.303499  0.670342  0.539899  1
  Si  Si24  1  0.803990  0.829505  0.211358  1
  Si  Si25  1  0.170939  0.197349  0.291175  1
  Si  Si26  1  0.828401  0.800653  0.792688  1
  Si  Si27  1  0.289932  0.917402  0.058381  1
  Si  Si28  1  0.582732  0.789718  0.311691  1
  Si  Si29  1  0.413556  0.212241  0.811398  1
  Si  Si30  1  0.781551  0.587117  0.691981  1
  Si  Si31  1  0.208913  0.419770  0.190305  1
  Si  Si32  1  0.703145  0.078320  0.559029  1
  Si  Si33  1  0.919105  0.289236  0.941738  1
  Si  Si34  1  0.083208  0.715151  0.441060  1
  Tc  Tc35  1  0.197528  0.175119  0.702153  1
