# generated using pymatgen
data_Dy3Sc7(Si5Ir2)4
_symmetry_space_group_name_H-M   'P 1'
_cell_length_a   12.46224090
_cell_length_b   12.46224693
_cell_length_c   4.14121900
_cell_angle_alpha   90.00000000
_cell_angle_beta   90.00000000
_cell_angle_gamma   89.93882041
_symmetry_Int_Tables_number   1
_chemical_formula_structural   Dy3Sc7(Si5Ir2)4
_chemical_formula_sum   'Dy3 Sc7 Si20 Ir8'
_cell_volume   643.16209982
_cell_formula_units_Z   1
loop_
 _symmetry_equiv_pos_site_id
 _symmetry_equiv_pos_as_xyz
  1  'x, y, z'
loop_
 _atom_site_type_symbol
 _atom_site_label
 _atom_site_symmetry_multiplicity
 _atom_site_fract_x
 _atom_site_fract_y
 _atom_site_fract_z
 _atom_site_occupancy
  Dy  Dy0  1  0.615816  0.115815  0.500000  1
  Dy  Dy1  1  0.884032  0.616122  0.500000  1
  Dy  Dy2  1  0.116122  0.384032  0.500000  1
  Sc  Sc3  1  0.500018  0.500250  0.000000  1
  Sc  Sc4  1  0.000251  0.000018  0.000000  1
  Sc  Sc5  1  0.672646  0.826429  0.500000  1
  Sc  Sc6  1  0.326429  0.172646  0.500000  1
  Sc  Sc7  1  0.174445  0.674445  0.500000  1
  Sc  Sc8  1  0.826414  0.326415  0.500000  1
  Sc  Sc9  1  0.383697  0.883695  0.500000  1
  Si  Si10  1  0.565865  0.932346  0.000000  1
  Si  Si11  1  0.432346  0.065864  0.000000  1
  Si  Si12  1  0.067647  0.567647  0.000000  1
  Si  Si13  1  0.932749  0.432750  0.000000  1
  Si  Si14  1  0.698465  0.666603  0.000000  1
  Si  Si15  1  0.301001  0.333590  0.000000  1
  Si  Si16  1  0.200404  0.834300  0.000000  1
  Si  Si17  1  0.800947  0.166140  0.000000  1
  Si  Si18  1  0.334300  0.700405  0.000000  1
  Si  Si19  1  0.666140  0.300947  0.000000  1
  Si  Si20  1  0.166603  0.198466  0.000000  1
  Si  Si21  1  0.833589  0.801001  0.000000  1
  Si  Si22  1  0.505563  0.652066  0.500000  1
  Si  Si23  1  0.492902  0.349059  0.500000  1
  Si  Si24  1  0.006882  0.849343  0.500000  1
  Si  Si25  1  0.993198  0.150696  0.500000  1
  Si  Si26  1  0.349343  0.506881  0.500000  1
  Si  Si27  1  0.650696  0.493198  0.500000  1
  Si  Si28  1  0.152066  0.005562  0.500000  1
  Si  Si29  1  0.849059  0.992902  0.500000  1
  Ir  Ir30  1  0.518394  0.746200  0.000000  1
  Ir  Ir31  1  0.480314  0.254626  0.000000  1
  Ir  Ir32  1  0.020021  0.755788  0.000000  1
  Ir  Ir33  1  0.980597  0.244420  0.000000  1
  Ir  Ir34  1  0.255788  0.520022  0.000000  1
  Ir  Ir35  1  0.744420  0.480597  0.000000  1
  Ir  Ir36  1  0.246201  0.018395  0.000000  1
  Ir  Ir37  1  0.754626  0.980314  0.000000  1
