# generated using pymatgen
data_Zr8Ti11ReGe16
_symmetry_space_group_name_H-M   'P 1'
_cell_length_a   6.78059800
_cell_length_b   6.91011400
_cell_length_c   13.15900600
_cell_angle_alpha   90.00000000
_cell_angle_beta   90.00000000
_cell_angle_gamma   89.99799165
_symmetry_Int_Tables_number   1
_chemical_formula_structural   Zr8Ti11ReGe16
_chemical_formula_sum   'Zr8 Ti11 Re1 Ge16'
_cell_volume   616.56134625
_cell_formula_units_Z   1
loop_
 _symmetry_equiv_pos_site_id
 _symmetry_equiv_pos_as_xyz
  1  'x, y, z'
loop_
 _atom_site_type_symbol
 _atom_site_label
 _atom_site_symmetry_multiplicity
 _atom_site_fract_x
 _atom_site_fract_y
 _atom_site_fract_z
 _atom_site_occupancy
  Zr  Zr0  1  0.490533  0.673955  0.093178  1
  Zr  Zr1  1  0.989796  0.827757  0.405732  1
  Zr  Zr2  1  0.506925  0.325171  0.592792  1
  Zr  Zr3  1  0.007997  0.174299  0.907001  1
  Zr  Zr4  1  0.506925  0.325171  0.907208  1
  Zr  Zr5  1  0.007997  0.174299  0.592999  1
  Zr  Zr6  1  0.490533  0.673955  0.406822  1
  Zr  Zr7  1  0.989796  0.827757  0.094268  1
  Ti  Ti8  1  0.832810  0.491816  0.250000  1
  Ti  Ti9  1  0.667789  0.994525  0.750000  1
  Ti  Ti10  1  0.167721  0.505343  0.750000  1
  Ti  Ti11  1  0.659374  0.164617  0.125582  1
  Ti  Ti12  1  0.162001  0.334062  0.374676  1
  Ti  Ti13  1  0.339921  0.833322  0.625240  1
  Ti  Ti14  1  0.840219  0.665898  0.874528  1
  Ti  Ti15  1  0.339921  0.833322  0.874760  1
  Ti  Ti16  1  0.840219  0.665898  0.625472  1
  Ti  Ti17  1  0.659374  0.164617  0.374418  1
  Ti  Ti18  1  0.162001  0.334062  0.125324  1
  Re  Re19  1  0.334675  0.009883  0.250000  1
  Ge  Ge20  1  0.692891  0.853794  0.250000  1
  Ge  Ge21  1  0.191533  0.644049  0.250000  1
  Ge  Ge22  1  0.307195  0.143280  0.750000  1
  Ge  Ge23  1  0.807546  0.356192  0.750000  1
  Ge  Ge24  1  0.680704  0.957775  0.959402  1
  Ge  Ge25  1  0.180486  0.541736  0.540753  1
  Ge  Ge26  1  0.318786  0.042057  0.459283  1
  Ge  Ge27  1  0.819733  0.459010  0.040960  1
  Ge  Ge28  1  0.318786  0.042057  0.040717  1
  Ge  Ge29  1  0.819733  0.459010  0.459040  1
  Ge  Ge30  1  0.680704  0.957775  0.540598  1
  Ge  Ge31  1  0.180486  0.541736  0.959247  1
  Ge  Ge32  1  0.464261  0.379476  0.250000  1
  Ge  Ge33  1  0.964150  0.122775  0.250000  1
  Ge  Ge34  1  0.537928  0.622342  0.750000  1
  Ge  Ge35  1  0.038549  0.877207  0.750000  1
