# generated using pymatgen
data_Th14CoRe5
_symmetry_space_group_name_H-M   'P 1'
_cell_length_a   9.98588753
_cell_length_b   9.98588908
_cell_length_c   6.30445101
_cell_angle_alpha   90.37091504
_cell_angle_beta   89.62908492
_cell_angle_gamma   119.51457352
_symmetry_Int_Tables_number   1
_chemical_formula_structural   Th14CoRe5
_chemical_formula_sum   'Th14 Co1 Re5'
_cell_volume   547.06980812
_cell_formula_units_Z   1
loop_
 _symmetry_equiv_pos_site_id
 _symmetry_equiv_pos_as_xyz
  1  'x, y, z'
loop_
 _atom_site_type_symbol
 _atom_site_label
 _atom_site_symmetry_multiplicity
 _atom_site_fract_x
 _atom_site_fract_y
 _atom_site_fract_z
 _atom_site_occupancy
  Th  Th0  1  0.331241  0.668759  0.023974  1
  Th  Th1  1  0.666900  0.333100  0.524421  1
  Th  Th2  1  0.127512  0.872488  0.247520  1
  Th  Th3  1  0.253327  0.123375  0.757233  1
  Th  Th4  1  0.876625  0.746673  0.757233  1
  Th  Th5  1  0.127147  0.252801  0.258983  1
  Th  Th6  1  0.747199  0.872853  0.258983  1
  Th  Th7  1  0.874563  0.125437  0.758554  1
  Th  Th8  1  0.538135  0.461865  0.044449  1
  Th  Th9  1  0.077998  0.546235  0.548887  1
  Th  Th10  1  0.453765  0.922002  0.548887  1
  Th  Th11  1  0.542902  0.078518  0.046703  1
  Th  Th12  1  0.921482  0.457098  0.046703  1
  Th  Th13  1  0.461242  0.538758  0.548944  1
  Co  Co14  1  0.186093  0.813907  0.792970  1
  Re  Re15  1  0.815032  0.184968  0.299867  1
  Re  Re16  1  0.625373  0.815815  0.799816  1
  Re  Re17  1  0.184185  0.374627  0.799816  1
  Re  Re18  1  0.819319  0.630040  0.298029  1
  Re  Re19  1  0.369960  0.180681  0.298029  1
