# generated using pymatgen
data_Hf3ZrTa2(B2Ru5)2
_symmetry_space_group_name_H-M   'P 1'
_cell_length_a   9.47927635
_cell_length_b   9.47927635
_cell_length_c   3.10799600
_cell_angle_alpha   90.00000000
_cell_angle_beta   90.00000000
_cell_angle_gamma   90.08070377
_symmetry_Int_Tables_number   1
_chemical_formula_structural   Hf3ZrTa2(B2Ru5)2
_chemical_formula_sum   'Hf3 Zr1 Ta2 B4 Ru10'
_cell_volume   279.27392540
_cell_formula_units_Z   1
loop_
 _symmetry_equiv_pos_site_id
 _symmetry_equiv_pos_as_xyz
  1  'x, y, z'
loop_
 _atom_site_type_symbol
 _atom_site_label
 _atom_site_symmetry_multiplicity
 _atom_site_fract_x
 _atom_site_fract_y
 _atom_site_fract_z
 _atom_site_occupancy
  Hf  Hf0  1  0.176205  0.323795  0.000000  1
  Hf  Hf1  1  0.324134  0.824240  0.000000  1
  Hf  Hf2  1  0.675760  0.175866  0.000000  1
  Zr  Zr3  1  0.824235  0.675765  0.000000  1
  Ta  Ta4  1  0.499503  0.499816  0.000000  1
  Ta  Ta5  1  0.000184  0.000497  0.000000  1
  B  B6  1  0.620888  0.879112  0.000000  1
  B  B7  1  0.378764  0.121236  0.000000  1
  B  B8  1  0.121518  0.621317  0.000000  1
  B  B9  1  0.878683  0.378482  0.000000  1
  Ru  Ru10  1  0.569423  0.718669  0.500000  1
  Ru  Ru11  1  0.429325  0.281694  0.500000  1
  Ru  Ru12  1  0.071646  0.781974  0.500000  1
  Ru  Ru13  1  0.929368  0.218073  0.500000  1
  Ru  Ru14  1  0.281927  0.570632  0.500000  1
  Ru  Ru15  1  0.718026  0.428354  0.500000  1
  Ru  Ru16  1  0.218306  0.070675  0.500000  1
  Ru  Ru17  1  0.781331  0.930577  0.500000  1
  Ru  Ru18  1  0.499742  0.000258  0.500000  1
  Ru  Ru19  1  0.001034  0.498966  0.500000  1
