# generated using pymatgen
data_Ga3Cu3Pd5Pt
_symmetry_space_group_name_H-M   'P 1'
_cell_length_a   4.04287000
_cell_length_b   6.94306200
_cell_length_c   12.13230400
_cell_angle_alpha   90.00000000
_cell_angle_beta   90.00042510
_cell_angle_gamma   90.00000000
_symmetry_Int_Tables_number   1
_chemical_formula_structural   Ga3Cu3Pd5Pt
_chemical_formula_sum   'Ga6 Cu6 Pd10 Pt2'
_cell_volume   340.55252447
_cell_formula_units_Z   2
loop_
 _symmetry_equiv_pos_site_id
 _symmetry_equiv_pos_as_xyz
  1  'x, y, z'
loop_
 _atom_site_type_symbol
 _atom_site_label
 _atom_site_symmetry_multiplicity
 _atom_site_fract_x
 _atom_site_fract_y
 _atom_site_fract_z
 _atom_site_occupancy
  Ga  Ga0  1  0.000000  0.500000  0.999816  1
  Ga  Ga1  1  0.500112  0.000000  0.166736  1
  Ga  Ga2  1  0.000113  0.500000  0.333326  1
  Ga  Ga3  1  0.500003  0.000000  0.499939  1
  Ga  Ga4  1  0.999892  0.500000  0.666857  1
  Ga  Ga5  1  0.499890  0.000000  0.833326  1
  Cu  Cu6  1  0.000000  0.000000  0.999984  1
  Cu  Cu7  1  0.500124  0.500000  0.166813  1
  Cu  Cu8  1  0.000120  0.000000  0.333341  1
  Cu  Cu9  1  0.500004  0.500000  0.499846  1
  Cu  Cu10  1  0.999879  0.000000  0.666679  1
  Cu  Cu11  1  0.499881  0.500000  0.833340  1
  Pd  Pd12  1  0.499999  0.249997  0.000755  1
  Pd  Pd13  1  0.499999  0.750004  0.000755  1
  Pd  Pd14  1  0.000086  0.250018  0.166646  1
  Pd  Pd15  1  0.000086  0.749983  0.166646  1
  Pd  Pd16  1  0.500088  0.249866  0.333334  1
  Pd  Pd17  1  0.500088  0.750134  0.333334  1
  Pd  Pd18  1  0.000001  0.250037  0.500019  1
  Pd  Pd19  1  0.000001  0.749963  0.500019  1
  Pd  Pd20  1  0.499907  0.250017  0.665909  1
  Pd  Pd21  1  0.499907  0.749983  0.665909  1
  Pt  Pt22  1  0.999907  0.250214  0.833335  1
  Pt  Pt23  1  0.999907  0.749787  0.833335  1
