# generated using pymatgen
data_Tb5YbTmNiI12
_symmetry_space_group_name_H-M   'P 1'
_cell_length_a   9.76623320
_cell_length_b   9.77052418
_cell_length_c   9.76295715
_cell_angle_alpha   106.83901955
_cell_angle_beta   106.73297035
_cell_angle_gamma   106.92206146
_symmetry_Int_Tables_number   1
_chemical_formula_structural   Tb5YbTmNiI12
_chemical_formula_sum   'Tb5 Yb1 Tm1 Ni1 I12'
_cell_volume   779.37988742
_cell_formula_units_Z   1
loop_
 _symmetry_equiv_pos_site_id
 _symmetry_equiv_pos_as_xyz
  1  'x, y, z'
loop_
 _atom_site_type_symbol
 _atom_site_label
 _atom_site_symmetry_multiplicity
 _atom_site_fract_x
 _atom_site_fract_y
 _atom_site_fract_z
 _atom_site_occupancy
  Tb  Tb0  1  0.705278  0.903691  0.975922  1
  Tb  Tb1  1  0.975469  0.705581  0.903054  1
  Tb  Tb2  1  0.095636  0.023975  0.294060  1
  Tb  Tb3  1  0.293559  0.096013  0.023301  1
  Tb  Tb4  1  0.023811  0.293728  0.094894  1
  Yb  Yb5  1  0.500166  0.500159  0.499984  1
  Tm  Tm6  1  0.905845  0.975826  0.712047  1
  Ni  Ni7  1  0.999360  0.999627  0.000294  1
  I  I8  1  0.926346  0.318286  0.774392  1
  I  I9  1  0.777477  0.927506  0.323605  1
  I  I10  1  0.322226  0.776773  0.926955  1
  I  I11  1  0.073117  0.678052  0.222568  1
  I  I12  1  0.218708  0.071806  0.677199  1
  I  I13  1  0.678082  0.223535  0.073218  1
  I  I14  1  0.546572  0.849933  0.620058  1
  I  I15  1  0.620114  0.541683  0.847667  1
  I  I16  1  0.848538  0.623835  0.542352  1
  I  I17  1  0.457708  0.152139  0.379117  1
  I  I18  1  0.380105  0.458161  0.152158  1
  I  I19  1  0.151883  0.379692  0.457155  1
