# generated using pymatgen
data_Gd3NiCl4
_symmetry_space_group_name_H-M   'P 1'
_cell_length_a   8.77910092
_cell_length_b   4.07044195
_cell_length_c   10.10895613
_cell_angle_alpha   106.55573529
_cell_angle_beta   109.84531190
_cell_angle_gamma   105.01872633
_symmetry_Int_Tables_number   1
_chemical_formula_structural   Gd3NiCl4
_chemical_formula_sum   'Gd3 Ni1 Cl4'
_cell_volume   299.25804564
_cell_formula_units_Z   1
loop_
 _symmetry_equiv_pos_site_id
 _symmetry_equiv_pos_as_xyz
  1  'x, y, z'
loop_
 _atom_site_type_symbol
 _atom_site_label
 _atom_site_symmetry_multiplicity
 _atom_site_fract_x
 _atom_site_fract_y
 _atom_site_fract_z
 _atom_site_occupancy
  Gd  Gd0  1  0.315995  0.911145  0.592366  1
  Gd  Gd1  1  0.938130  0.783924  0.715343  1
  Gd  Gd2  1  0.399898  0.723514  0.959609  1
  Ni  Ni3  1  0.122125  0.343995  0.647574  1
  Cl  Cl4  1  0.943631  0.405911  0.873727  1
  Cl  Cl5  1  0.576794  0.493541  0.561177  1
  Cl  Cl6  1  0.573222  0.278219  0.904886  1
  Cl  Cl7  1  0.371238  0.318539  0.116582  1
