# generated using pymatgen
data_Lu5Zr5Pb6
_symmetry_space_group_name_H-M   'P 1'
_cell_length_a   8.81226249
_cell_length_b   8.81226279
_cell_length_c   6.05475000
_cell_angle_alpha   90.00000000
_cell_angle_beta   90.00000000
_cell_angle_gamma   119.96186706
_symmetry_Int_Tables_number   1
_chemical_formula_structural   Lu5Zr5Pb6
_chemical_formula_sum   'Lu5 Zr5 Pb6'
_cell_volume   407.35069621
_cell_formula_units_Z   1
loop_
 _symmetry_equiv_pos_site_id
 _symmetry_equiv_pos_as_xyz
  1  'x, y, z'
loop_
 _atom_site_type_symbol
 _atom_site_label
 _atom_site_symmetry_multiplicity
 _atom_site_fract_x
 _atom_site_fract_y
 _atom_site_fract_z
 _atom_site_occupancy
  Lu  Lu0  1  0.758067  0.758067  0.250000  1
  Lu  Lu1  1  0.001077  0.238475  0.250000  1
  Lu  Lu2  1  0.764078  0.001836  0.750000  1
  Lu  Lu3  1  0.238475  0.001077  0.250000  1
  Lu  Lu4  1  0.001836  0.764078  0.750000  1
  Zr  Zr5  1  0.333050  0.664061  0.500145  1
  Zr  Zr6  1  0.664061  0.333050  0.500145  1
  Zr  Zr7  1  0.333050  0.664061  0.999855  1
  Zr  Zr8  1  0.243738  0.243738  0.750000  1
  Zr  Zr9  1  0.664061  0.333050  0.999855  1
  Pb  Pb10  1  0.603313  0.603313  0.750000  1
  Pb  Pb11  1  0.394155  0.001295  0.750000  1
  Pb  Pb12  1  0.604555  0.000558  0.250000  1
  Pb  Pb13  1  0.001295  0.394155  0.750000  1
  Pb  Pb14  1  0.394632  0.394632  0.250000  1
  Pb  Pb15  1  0.000558  0.604555  0.250000  1
