# generated using pymatgen
data_LiHo16Cd3Ir4
_symmetry_space_group_name_H-M   'P 1'
_cell_length_a   9.60798202
_cell_length_b   9.60791657
_cell_length_c   9.60769775
_cell_angle_alpha   59.96303544
_cell_angle_beta   59.96459981
_cell_angle_gamma   59.96678806
_symmetry_Int_Tables_number   1
_chemical_formula_structural   LiHo16Cd3Ir4
_chemical_formula_sum   'Li1 Ho16 Cd3 Ir4'
_cell_volume   626.64128146
_cell_formula_units_Z   1
loop_
 _symmetry_equiv_pos_site_id
 _symmetry_equiv_pos_as_xyz
  1  'x, y, z'
loop_
 _atom_site_type_symbol
 _atom_site_label
 _atom_site_symmetry_multiplicity
 _atom_site_fract_x
 _atom_site_fract_y
 _atom_site_fract_z
 _atom_site_occupancy
  Li  Li0  1  0.824266  0.824271  0.824277  1
  Ho  Ho1  1  0.599251  0.599246  0.599252  1
  Ho  Ho2  1  0.597809  0.597810  0.204872  1
  Ho  Ho3  1  0.597825  0.204854  0.597833  1
  Ho  Ho4  1  0.204866  0.597826  0.597821  1
  Ho  Ho5  1  0.060489  0.440019  0.440016  1
  Ho  Ho6  1  0.437592  0.062549  0.062541  1
  Ho  Ho7  1  0.440036  0.060485  0.440010  1
  Ho  Ho8  1  0.062532  0.437597  0.062545  1
  Ho  Ho9  1  0.440012  0.440015  0.060500  1
  Ho  Ho10  1  0.062544  0.062552  0.437582  1
  Ho  Ho11  1  0.189008  0.812146  0.812169  1
  Ho  Ho12  1  0.812513  0.186921  0.186900  1
  Ho  Ho13  1  0.812188  0.188988  0.812159  1
  Ho  Ho14  1  0.186894  0.812529  0.186897  1
  Ho  Ho15  1  0.812168  0.812168  0.188986  1
  Ho  Ho16  1  0.186882  0.186899  0.812522  1
  Cd  Cd17  1  0.831931  0.831932  0.508358  1
  Cd  Cd18  1  0.831935  0.508349  0.831928  1
  Cd  Cd19  1  0.508355  0.831939  0.831931  1
  Ir  Ir20  1  0.391808  0.391782  0.391806  1
  Ir  Ir21  1  0.392234  0.392265  0.824606  1
  Ir  Ir22  1  0.392245  0.824619  0.392244  1
  Ir  Ir23  1  0.824619  0.392241  0.392245  1
