# generated using pymatgen
data_Sr2Yb7Pd6
_symmetry_space_group_name_H-M   'P 1'
_cell_length_a   7.67739383
_cell_length_b   7.67691076
_cell_length_c   7.71147515
_cell_angle_alpha   70.93695045
_cell_angle_beta   71.28958589
_cell_angle_gamma   71.09105968
_symmetry_Int_Tables_number   1
_chemical_formula_structural   Sr2Yb7Pd6
_chemical_formula_sum   'Sr2 Yb7 Pd6'
_cell_volume   394.47994436
_cell_formula_units_Z   1
loop_
 _symmetry_equiv_pos_site_id
 _symmetry_equiv_pos_as_xyz
  1  'x, y, z'
loop_
 _atom_site_type_symbol
 _atom_site_label
 _atom_site_symmetry_multiplicity
 _atom_site_fract_x
 _atom_site_fract_y
 _atom_site_fract_z
 _atom_site_occupancy
  Sr  Sr0  1  0.101819  0.341679  0.839956  1
  Sr  Sr1  1  0.660586  0.157397  0.899299  1
  Yb  Yb2  1  0.341538  0.823740  0.109252  1
  Yb  Yb3  1  0.894729  0.656824  0.176627  1
  Yb  Yb4  1  0.299916  0.301531  0.300842  1
  Yb  Yb5  1  0.826372  0.103697  0.349735  1
  Yb  Yb6  1  0.501254  0.500298  0.498252  1
  Yb  Yb7  1  0.176252  0.891165  0.649758  1
  Yb  Yb8  1  0.698875  0.699242  0.699351  1
  Pd  Pd9  1  0.650810  0.466906  0.099029  1
  Pd  Pd10  1  0.542001  0.904387  0.345942  1
  Pd  Pd11  1  0.088077  0.663807  0.449953  1
  Pd  Pd12  1  0.911747  0.350304  0.524226  1
  Pd  Pd13  1  0.460947  0.082638  0.644165  1
  Pd  Pd14  1  0.345072  0.556379  0.913610  1
