# generated using pymatgen
data_HfCd(SbPt)2
_symmetry_space_group_name_H-M   'P 1'
_cell_length_a   6.43049749
_cell_length_b   6.43049701
_cell_length_c   7.92122967
_cell_angle_alpha   66.05228622
_cell_angle_beta   66.05228783
_cell_angle_gamma   90.00000012
_symmetry_Int_Tables_number   1
_chemical_formula_structural   HfCd(SbPt)2
_chemical_formula_sum   'Hf2 Cd2 Sb4 Pt4'
_cell_volume   268.21096403
_cell_formula_units_Z   2
loop_
 _symmetry_equiv_pos_site_id
 _symmetry_equiv_pos_as_xyz
  1  'x, y, z'
loop_
 _atom_site_type_symbol
 _atom_site_label
 _atom_site_symmetry_multiplicity
 _atom_site_fract_x
 _atom_site_fract_y
 _atom_site_fract_z
 _atom_site_occupancy
  Hf  Hf0  1  0.499999  0.499999  0.000000  1
  Hf  Hf1  1  0.750000  0.250000  0.500001  1
  Cd  Cd2  1  0.000000  0.000000  0.000000  1
  Cd  Cd3  1  0.250000  0.750000  0.500001  1
  Sb  Sb4  1  0.495391  0.995392  0.009218  1
  Sb  Sb5  1  0.754610  0.754610  0.490779  1
  Sb  Sb6  1  0.245390  0.245390  0.509221  1
  Sb  Sb7  1  0.004610  0.504610  0.990780  1
  Pt  Pt8  1  0.625001  0.602749  0.249999  1
  Pt  Pt9  1  0.125000  0.147250  0.250000  1
  Pt  Pt10  1  0.397250  0.875001  0.750000  1
  Pt  Pt11  1  0.852748  0.375000  0.750001  1
