# generated using pymatgen
data_Ho7Sn22Ru6Pb
_symmetry_space_group_name_H-M   'P 1'
_cell_length_a   9.84167800
_cell_length_b   9.84167649
_cell_length_c   10.08938700
_cell_angle_alpha   90.00000000
_cell_angle_beta   90.00000000
_cell_angle_gamma   119.99999835
_symmetry_Int_Tables_number   1
_chemical_formula_structural   Ho7Sn22Ru6Pb
_chemical_formula_sum   'Ho7 Sn22 Ru6 Pb1'
_cell_volume   846.31815317
_cell_formula_units_Z   1
loop_
 _symmetry_equiv_pos_site_id
 _symmetry_equiv_pos_as_xyz
  1  'x, y, z'
loop_
 _atom_site_type_symbol
 _atom_site_label
 _atom_site_symmetry_multiplicity
 _atom_site_fract_x
 _atom_site_fract_y
 _atom_site_fract_z
 _atom_site_occupancy
  Ho  Ho0  1  0.000000  0.000000  0.000000  1
  Ho  Ho1  1  0.515581  0.484419  0.696893  1
  Ho  Ho2  1  0.515581  0.031162  0.696893  1
  Ho  Ho3  1  0.968838  0.484419  0.696893  1
  Ho  Ho4  1  0.031162  0.515581  0.303107  1
  Ho  Ho5  1  0.484419  0.968838  0.303107  1
  Ho  Ho6  1  0.484419  0.515581  0.303107  1
  Sn  Sn7  1  0.666667  0.333333  0.178054  1
  Sn  Sn8  1  0.666667  0.333333  0.871990  1
  Sn  Sn9  1  0.333333  0.666667  0.128010  1
  Sn  Sn10  1  0.349065  0.349065  0.000000  1
  Sn  Sn11  1  0.000000  0.650935  0.000000  1
  Sn  Sn12  1  0.650935  0.000000  0.000000  1
  Sn  Sn13  1  0.650935  0.650935  0.000000  1
  Sn  Sn14  1  0.333333  0.666667  0.821946  1
  Sn  Sn15  1  0.439943  0.219973  0.462428  1
  Sn  Sn16  1  0.219973  0.780027  0.537572  1
  Sn  Sn17  1  0.219973  0.439943  0.537572  1
  Sn  Sn18  1  0.560057  0.780027  0.537572  1
  Sn  Sn19  1  0.119185  0.880815  0.272028  1
  Sn  Sn20  1  0.780027  0.560057  0.462428  1
  Sn  Sn21  1  0.780027  0.219973  0.462428  1
  Sn  Sn22  1  0.349065  0.000000  0.000000  1
  Sn  Sn23  1  0.119185  0.238368  0.272028  1
  Sn  Sn24  1  0.761632  0.880815  0.272028  1
  Sn  Sn25  1  0.238368  0.119185  0.727972  1
  Sn  Sn26  1  0.880815  0.761632  0.727972  1
  Sn  Sn27  1  0.880815  0.119185  0.727972  1
  Sn  Sn28  1  0.000000  0.349065  0.000000  1
  Ru  Ru29  1  0.169920  0.830080  0.797546  1
  Ru  Ru30  1  0.169920  0.339839  0.797546  1
  Ru  Ru31  1  0.660161  0.830080  0.797546  1
  Ru  Ru32  1  0.339839  0.169920  0.202454  1
  Ru  Ru33  1  0.830080  0.660161  0.202454  1
  Ru  Ru34  1  0.830080  0.169920  0.202454  1
  Pb  Pb35  1  0.000000  0.000000  0.500000  1
