# generated using pymatgen
data_Ho8Er4Co4BiIr
_symmetry_space_group_name_H-M   'P 1'
_cell_length_a   8.26999653
_cell_length_b   8.26999477
_cell_length_c   8.26999468
_cell_angle_alpha   110.71149357
_cell_angle_beta   111.11222097
_cell_angle_gamma   106.62710957
_symmetry_Int_Tables_number   1
_chemical_formula_structural   Ho8Er4Co4BiIr
_chemical_formula_sum   'Ho8 Er4 Co4 Bi1 Ir1'
_cell_volume   434.60028152
_cell_formula_units_Z   1
loop_
 _symmetry_equiv_pos_site_id
 _symmetry_equiv_pos_as_xyz
  1  'x, y, z'
loop_
 _atom_site_type_symbol
 _atom_site_label
 _atom_site_symmetry_multiplicity
 _atom_site_fract_x
 _atom_site_fract_y
 _atom_site_fract_z
 _atom_site_occupancy
  Ho  Ho0  1  0.284646  0.182406  0.467051  1
  Ho  Ho1  1  0.715354  0.817594  0.532949  1
  Ho  Ho2  1  0.284646  0.817594  0.102239  1
  Ho  Ho3  1  0.715354  0.182406  0.897761  1
  Ho  Ho4  1  0.620521  0.311804  0.308716  1
  Ho  Ho5  1  0.379479  0.688196  0.691284  1
  Ho  Ho6  1  0.003089  0.311804  0.691284  1
  Ho  Ho7  1  0.996911  0.688196  0.308716  1
  Er  Er8  1  0.212382  0.410080  0.197697  1
  Er  Er9  1  0.787618  0.589920  0.802303  1
  Er  Er10  1  0.212382  0.014685  0.802303  1
  Er  Er11  1  0.787618  0.985315  0.197697  1
  Co  Co12  1  0.000000  0.375933  0.375933  1
  Co  Co13  1  0.000000  0.624067  0.624067  1
  Co  Co14  1  0.389076  0.889076  0.500000  1
  Co  Co15  1  0.610924  0.110924  0.500000  1
  Bi  Bi16  1  0.500000  0.500000  0.000000  1
  Ir  Ir17  1  0.000000  0.000000  0.000000  1
