# generated using pymatgen
data_Cs2RhO4
_symmetry_space_group_name_H-M   'P 1'
_cell_length_a   6.60175200
_cell_length_b   8.72551400
_cell_length_c   11.64643800
_cell_angle_alpha   90.00000000
_cell_angle_beta   90.00000000
_cell_angle_gamma   90.00000000
_symmetry_Int_Tables_number   1
_chemical_formula_structural   Cs2RhO4
_chemical_formula_sum   'Cs8 Rh4 O16'
_cell_volume   670.87768187
_cell_formula_units_Z   4
loop_
 _symmetry_equiv_pos_site_id
 _symmetry_equiv_pos_as_xyz
  1  'x, y, z'
loop_
 _atom_site_type_symbol
 _atom_site_label
 _atom_site_symmetry_multiplicity
 _atom_site_fract_x
 _atom_site_fract_y
 _atom_site_fract_z
 _atom_site_occupancy
  Cs  Cs0  1  0.250000  0.997986  0.296620  1
  Cs  Cs1  1  0.750000  0.002014  0.703380  1
  Cs  Cs2  1  0.250000  0.497986  0.203380  1
  Cs  Cs3  1  0.750000  0.502014  0.796620  1
  Cs  Cs4  1  0.250000  0.173730  0.919952  1
  Cs  Cs5  1  0.750000  0.826270  0.080048  1
  Cs  Cs6  1  0.250000  0.673730  0.580048  1
  Cs  Cs7  1  0.750000  0.326270  0.419952  1
  Rh  Rh8  1  0.250000  0.225036  0.582789  1
  Rh  Rh9  1  0.750000  0.774964  0.417211  1
  Rh  Rh10  1  0.250000  0.725036  0.917211  1
  Rh  Rh11  1  0.750000  0.274964  0.082789  1
  O  O12  1  0.750000  0.690167  0.561069  1
  O  O13  1  0.250000  0.309833  0.438931  1
  O  O14  1  0.250000  0.809833  0.061069  1
  O  O15  1  0.750000  0.190167  0.938931  1
  O  O16  1  0.525775  0.705715  0.342280  1
  O  O17  1  0.025775  0.294285  0.657720  1
  O  O18  1  0.974225  0.205715  0.157720  1
  O  O19  1  0.474225  0.794285  0.842280  1
  O  O20  1  0.474225  0.294285  0.657720  1
  O  O21  1  0.974225  0.705715  0.342280  1
  O  O22  1  0.025775  0.794285  0.842280  1
  O  O23  1  0.525775  0.205715  0.157720  1
  O  O24  1  0.750000  0.481567  0.072036  1
  O  O25  1  0.250000  0.518433  0.927964  1
  O  O26  1  0.250000  0.018433  0.572036  1
  O  O27  1  0.750000  0.981567  0.427964  1
