# generated using pymatgen
data_YbDy3(SiPt2)4
_symmetry_space_group_name_H-M   'P 1'
_cell_length_a   5.53144021
_cell_length_b   6.96763200
_cell_length_c   7.33707126
_cell_angle_alpha   90.00000000
_cell_angle_beta   90.03077505
_cell_angle_gamma   90.00000000
_symmetry_Int_Tables_number   1
_chemical_formula_structural   YbDy3(SiPt2)4
_chemical_formula_sum   'Yb1 Dy3 Si4 Pt8'
_cell_volume   282.77831440
_cell_formula_units_Z   1
loop_
 _symmetry_equiv_pos_site_id
 _symmetry_equiv_pos_as_xyz
  1  'x, y, z'
loop_
 _atom_site_type_symbol
 _atom_site_label
 _atom_site_symmetry_multiplicity
 _atom_site_fract_x
 _atom_site_fract_y
 _atom_site_fract_z
 _atom_site_occupancy
  Yb  Yb0  1  0.866351  0.250000  0.522755  1
  Dy  Dy1  1  0.132785  0.750000  0.475590  1
  Dy  Dy2  1  0.366541  0.750000  0.976196  1
  Dy  Dy3  1  0.634305  0.250000  0.025068  1
  Si  Si4  1  0.133092  0.250000  0.876327  1
  Si  Si5  1  0.367727  0.250000  0.380729  1
  Si  Si6  1  0.632301  0.750000  0.621301  1
  Si  Si7  1  0.867220  0.750000  0.121877  1
  Pt  Pt8  1  0.098841  0.051273  0.179123  1
  Pt  Pt9  1  0.098841  0.448727  0.179123  1
  Pt  Pt10  1  0.404294  0.050443  0.678490  1
  Pt  Pt11  1  0.404294  0.449557  0.678490  1
  Pt  Pt12  1  0.593429  0.550789  0.319356  1
  Pt  Pt13  1  0.593429  0.949211  0.319356  1
  Pt  Pt14  1  0.903274  0.551566  0.823110  1
  Pt  Pt15  1  0.903274  0.948434  0.823110  1
