# generated using pymatgen
data_Y20Cd3Ru2Au3
_symmetry_space_group_name_H-M   'P 1'
_cell_length_a   9.63785600
_cell_length_b   9.63785502
_cell_length_c   9.63785500
_cell_angle_alpha   90.00000000
_cell_angle_beta   90.00000000
_cell_angle_gamma   120.00000337
_symmetry_Int_Tables_number   1
_chemical_formula_structural   Y20Cd3Ru2Au3
_chemical_formula_sum   'Y20 Cd3 Ru2 Au3'
_cell_volume   775.30364754
_cell_formula_units_Z   1
loop_
 _symmetry_equiv_pos_site_id
 _symmetry_equiv_pos_as_xyz
  1  'x, y, z'
loop_
 _atom_site_type_symbol
 _atom_site_label
 _atom_site_symmetry_multiplicity
 _atom_site_fract_x
 _atom_site_fract_y
 _atom_site_fract_z
 _atom_site_occupancy
  Y  Y0  1  0.000000  0.000000  0.462028  1
  Y  Y1  1  0.000000  0.000000  0.037972  1
  Y  Y2  1  0.209122  0.790878  0.439784  1
  Y  Y3  1  0.209122  0.418245  0.439784  1
  Y  Y4  1  0.581755  0.790878  0.439784  1
  Y  Y5  1  0.791614  0.208386  0.558362  1
  Y  Y6  1  0.791614  0.583226  0.558362  1
  Y  Y7  1  0.416774  0.208386  0.558362  1
  Y  Y8  1  0.791614  0.208386  0.941638  1
  Y  Y9  1  0.791614  0.583226  0.941638  1
  Y  Y10  1  0.416774  0.208386  0.941638  1
  Y  Y11  1  0.209122  0.790878  0.060216  1
  Y  Y12  1  0.209122  0.418245  0.060216  1
  Y  Y13  1  0.581755  0.790878  0.060216  1
  Y  Y14  1  0.541028  0.458972  0.250000  1
  Y  Y15  1  0.541028  0.082055  0.250000  1
  Y  Y16  1  0.917945  0.458972  0.250000  1
  Y  Y17  1  0.459011  0.540989  0.750000  1
  Y  Y18  1  0.459011  0.918023  0.750000  1
  Y  Y19  1  0.081977  0.540989  0.750000  1
  Cd  Cd20  1  0.110007  0.889993  0.750000  1
  Cd  Cd21  1  0.110007  0.220013  0.750000  1
  Cd  Cd22  1  0.779987  0.889993  0.750000  1
  Ru  Ru23  1  0.333333  0.666667  0.250000  1
  Ru  Ru24  1  0.666667  0.333333  0.750000  1
  Au  Au25  1  0.869849  0.130151  0.250000  1
  Au  Au26  1  0.869849  0.739698  0.250000  1
  Au  Au27  1  0.260302  0.130151  0.250000  1
