# generated using pymatgen
data_Pr4Ho(ThSe4)3
_symmetry_space_group_name_H-M   'P 1'
_cell_length_a   4.20070500
_cell_length_b   11.11068864
_cell_length_c   11.44222800
_cell_angle_alpha   90.31286044
_cell_angle_beta   90.00000000
_cell_angle_gamma   90.00000000
_symmetry_Int_Tables_number   1
_chemical_formula_structural   Pr4Ho(ThSe4)3
_chemical_formula_sum   'Pr4 Ho1 Th3 Se12'
_cell_volume   534.03200298
_cell_formula_units_Z   1
loop_
 _symmetry_equiv_pos_site_id
 _symmetry_equiv_pos_as_xyz
  1  'x, y, z'
loop_
 _atom_site_type_symbol
 _atom_site_label
 _atom_site_symmetry_multiplicity
 _atom_site_fract_x
 _atom_site_fract_y
 _atom_site_fract_z
 _atom_site_occupancy
  Pr  Pr0  1  0.750000  0.500664  0.698682  1
  Pr  Pr1  1  0.750000  0.000278  0.192981  1
  Pr  Pr2  1  0.250000  0.503750  0.305964  1
  Pr  Pr3  1  0.250000  0.992312  0.805977  1
  Ho  Ho4  1  0.750000  0.689112  0.012227  1
  Th  Th5  1  0.250000  0.188587  0.486546  1
  Th  Th6  1  0.250000  0.312857  0.986273  1
  Th  Th7  1  0.750000  0.811488  0.513463  1
  Se  Se8  1  0.250000  0.295572  0.727831  1
  Se  Se9  1  0.250000  0.205288  0.226889  1
  Se  Se10  1  0.750000  0.706287  0.270179  1
  Se  Se11  1  0.750000  0.792120  0.771580  1
  Se  Se12  1  0.750000  0.056655  0.619804  1
  Se  Se13  1  0.750000  0.449441  0.117407  1
  Se  Se14  1  0.250000  0.943905  0.379698  1
  Se  Se15  1  0.250000  0.558335  0.886426  1
  Se  Se16  1  0.250000  0.627094  0.546837  1
  Se  Se17  1  0.250000  0.865870  0.043551  1
  Se  Se18  1  0.750000  0.373700  0.454153  1
  Se  Se19  1  0.750000  0.126686  0.953535  1
