# generated using pymatgen
data_Dy7ErSc12Si15P
_symmetry_space_group_name_H-M   'P 1'
_cell_length_a   7.08949328
_cell_length_b   7.37050082
_cell_length_c   13.96927207
_cell_angle_alpha   89.98035194
_cell_angle_beta   89.99839180
_cell_angle_gamma   90.13838768
_symmetry_Int_Tables_number   1
_chemical_formula_structural   Dy7ErSc12Si15P
_chemical_formula_sum   'Dy7 Er1 Sc12 Si15 P1'
_cell_volume   729.93582143
_cell_formula_units_Z   1
loop_
 _symmetry_equiv_pos_site_id
 _symmetry_equiv_pos_as_xyz
  1  'x, y, z'
loop_
 _atom_site_type_symbol
 _atom_site_label
 _atom_site_symmetry_multiplicity
 _atom_site_fract_x
 _atom_site_fract_y
 _atom_site_fract_z
 _atom_site_occupancy
  Dy  Dy0  1  0.010449  0.175078  0.096737  1
  Dy  Dy1  1  0.990865  0.826760  0.900168  1
  Dy  Dy2  1  0.489514  0.675513  0.903830  1
  Dy  Dy3  1  0.990906  0.826715  0.599464  1
  Dy  Dy4  1  0.511503  0.324338  0.096365  1
  Dy  Dy5  1  0.010696  0.175053  0.403567  1
  Dy  Dy6  1  0.511421  0.324394  0.403975  1
  Er  Er7  1  0.489512  0.676166  0.596656  1
  Sc  Sc8  1  0.159794  0.502437  0.749836  1
  Sc  Sc9  1  0.838822  0.497423  0.250044  1
  Sc  Sc10  1  0.339263  0.002430  0.250075  1
  Sc  Sc11  1  0.662118  0.998853  0.749789  1
  Sc  Sc12  1  0.327140  0.173220  0.627351  1
  Sc  Sc13  1  0.668064  0.823359  0.375463  1
  Sc  Sc14  1  0.168431  0.676768  0.375245  1
  Sc  Sc15  1  0.668346  0.823817  0.124699  1
  Sc  Sc16  1  0.832464  0.323015  0.626343  1
  Sc  Sc17  1  0.327141  0.172968  0.872373  1
  Sc  Sc18  1  0.832304  0.322950  0.873294  1
  Sc  Sc19  1  0.168304  0.676940  0.124858  1
  Si  Si20  1  0.965308  0.883332  0.250139  1
  Si  Si21  1  0.466315  0.615505  0.250038  1
  Si  Si22  1  0.531160  0.383189  0.749730  1
  Si  Si23  1  0.296285  0.863443  0.749622  1
  Si  Si24  1  0.714339  0.125893  0.250114  1
  Si  Si25  1  0.214670  0.373640  0.250103  1
  Si  Si26  1  0.786386  0.628346  0.749553  1
  Si  Si27  1  0.158449  0.464236  0.540177  1
  Si  Si28  1  0.842340  0.535912  0.461573  1
  Si  Si29  1  0.340833  0.964349  0.461124  1
  Si  Si30  1  0.842563  0.535933  0.038446  1
  Si  Si31  1  0.658763  0.035797  0.540588  1
  Si  Si32  1  0.157005  0.463582  0.959954  1
  Si  Si33  1  0.659223  0.036733  0.959657  1
  Si  Si34  1  0.340649  0.965232  0.039179  1
  P  P35  1  0.028656  0.126685  0.749874  1
