# generated using pymatgen
data_YHo2TcB7
_symmetry_space_group_name_H-M   'P 1'
_cell_length_a   8.06261942
_cell_length_b   8.06261911
_cell_length_c   9.35098800
_cell_angle_alpha   90.00000000
_cell_angle_beta   90.00000000
_cell_angle_gamma   154.68331576
_symmetry_Int_Tables_number   1
_chemical_formula_structural   YHo2TcB7
_chemical_formula_sum   'Y2 Ho4 Tc2 B14'
_cell_volume   259.93750107
_cell_formula_units_Z   2
loop_
 _symmetry_equiv_pos_site_id
 _symmetry_equiv_pos_as_xyz
  1  'x, y, z'
loop_
 _atom_site_type_symbol
 _atom_site_label
 _atom_site_symmetry_multiplicity
 _atom_site_fract_x
 _atom_site_fract_y
 _atom_site_fract_z
 _atom_site_occupancy
  Y  Y0  1  0.242652  0.757348  0.250000  1
  Y  Y1  1  0.757348  0.242652  0.750000  1
  Ho  Ho2  1  0.895174  0.104826  0.059503  1
  Ho  Ho3  1  0.104826  0.895174  0.559503  1
  Ho  Ho4  1  0.104826  0.895174  0.940497  1
  Ho  Ho5  1  0.895174  0.104826  0.440497  1
  Tc  Tc6  1  0.052569  0.947431  0.250000  1
  Tc  Tc7  1  0.947430  0.052569  0.750000  1
  B  B8  1  0.456687  0.543313  0.250000  1
  B  B9  1  0.543313  0.456687  0.750000  1
  B  B10  1  0.727048  0.272952  0.033139  1
  B  B11  1  0.272952  0.727048  0.533139  1
  B  B12  1  0.272952  0.727048  0.966861  1
  B  B13  1  0.727048  0.272952  0.466861  1
  B  B14  1  0.631679  0.368321  0.349203  1
  B  B15  1  0.368321  0.631679  0.849203  1
  B  B16  1  0.368321  0.631679  0.650797  1
  B  B17  1  0.631679  0.368321  0.150797  1
  B  B18  1  0.520560  0.479440  0.404612  1
  B  B19  1  0.479440  0.520560  0.904612  1
  B  B20  1  0.479440  0.520560  0.595388  1
  B  B21  1  0.520560  0.479440  0.095388  1
