# generated using pymatgen
data_Sm2AsPd14
_symmetry_space_group_name_H-M   'P 1'
_cell_length_a   9.00517200
_cell_length_b   9.00517200
_cell_length_c   7.16993300
_cell_angle_alpha   90.00000000
_cell_angle_beta   90.00000000
_cell_angle_gamma   90.00000000
_symmetry_Int_Tables_number   1
_chemical_formula_structural   Sm2AsPd14
_chemical_formula_sum   'Sm4 As2 Pd28'
_cell_volume   581.43225688
_cell_formula_units_Z   2
loop_
 _symmetry_equiv_pos_site_id
 _symmetry_equiv_pos_as_xyz
  1  'x, y, z'
loop_
 _atom_site_type_symbol
 _atom_site_label
 _atom_site_symmetry_multiplicity
 _atom_site_fract_x
 _atom_site_fract_y
 _atom_site_fract_z
 _atom_site_occupancy
  Sm  Sm0  1  0.500000  0.000000  0.934384  1
  Sm  Sm1  1  0.000000  0.500000  0.065616  1
  Sm  Sm2  1  0.000000  0.000000  0.500000  1
  Sm  Sm3  1  0.500000  0.500000  0.500000  1
  As  As4  1  0.500000  0.000000  0.447974  1
  As  As5  1  0.000000  0.500000  0.552026  1
  Pd  Pd6  1  0.331525  0.831525  0.620722  1
  Pd  Pd7  1  0.331525  0.168475  0.620722  1
  Pd  Pd8  1  0.668475  0.831525  0.620722  1
  Pd  Pd9  1  0.668475  0.168475  0.620722  1
  Pd  Pd10  1  0.168475  0.668475  0.379278  1
  Pd  Pd11  1  0.168475  0.331525  0.379278  1
  Pd  Pd12  1  0.831525  0.668475  0.379278  1
  Pd  Pd13  1  0.831525  0.331525  0.379278  1
  Pd  Pd14  1  0.500000  0.766298  0.252867  1
  Pd  Pd15  1  0.500000  0.233702  0.252867  1
  Pd  Pd16  1  0.266298  0.000000  0.252867  1
  Pd  Pd17  1  0.733702  0.000000  0.252867  1
  Pd  Pd18  1  0.000000  0.733702  0.747133  1
  Pd  Pd19  1  0.000000  0.266298  0.747133  1
  Pd  Pd20  1  0.233702  0.500000  0.747133  1
  Pd  Pd21  1  0.766298  0.500000  0.747133  1
  Pd  Pd22  1  0.500000  0.348858  0.855490  1
  Pd  Pd23  1  0.500000  0.651142  0.855490  1
  Pd  Pd24  1  0.848858  0.000000  0.855490  1
  Pd  Pd25  1  0.151142  0.000000  0.855490  1
  Pd  Pd26  1  0.000000  0.151142  0.144510  1
  Pd  Pd27  1  0.000000  0.848858  0.144510  1
  Pd  Pd28  1  0.651142  0.500000  0.144510  1
  Pd  Pd29  1  0.348858  0.500000  0.144510  1
  Pd  Pd30  1  0.250000  0.750000  0.000000  1
  Pd  Pd31  1  0.250000  0.250000  0.000000  1
  Pd  Pd32  1  0.750000  0.750000  0.000000  1
  Pd  Pd33  1  0.750000  0.250000  0.000000  1
