# generated using pymatgen
data_Rb20Hf3SnP12
_symmetry_space_group_name_H-M   'P 1'
_cell_length_a   8.51281597
_cell_length_b   9.19848011
_cell_length_c   17.88245200
_cell_angle_alpha   59.80333660
_cell_angle_beta   89.92665737
_cell_angle_gamma   89.96625645
_symmetry_Int_Tables_number   1
_chemical_formula_structural   Rb20Hf3SnP12
_chemical_formula_sum   'Rb20 Hf3 Sn1 P12'
_cell_volume   1210.27092500
_cell_formula_units_Z   1
loop_
 _symmetry_equiv_pos_site_id
 _symmetry_equiv_pos_as_xyz
  1  'x, y, z'
loop_
 _atom_site_type_symbol
 _atom_site_label
 _atom_site_symmetry_multiplicity
 _atom_site_fract_x
 _atom_site_fract_y
 _atom_site_fract_z
 _atom_site_occupancy
  Rb  Rb0  1  0.172267  0.845201  0.738218  1
  Rb  Rb1  1  0.673980  0.155643  0.761016  1
  Rb  Rb2  1  0.827808  0.161482  0.257539  1
  Rb  Rb3  1  0.327147  0.838158  0.241074  1
  Rb  Rb4  1  0.166140  0.164382  0.421049  1
  Rb  Rb5  1  0.669507  0.841767  0.080496  1
  Rb  Rb6  1  0.832341  0.836146  0.580761  1
  Rb  Rb7  1  0.334344  0.161307  0.917247  1
  Rb  Rb8  1  0.008399  0.082439  0.092821  1
  Rb  Rb9  1  0.509775  0.922195  0.407229  1
  Rb  Rb10  1  0.992917  0.916367  0.910038  1
  Rb  Rb11  1  0.494182  0.079341  0.592820  1
  Rb  Rb12  1  0.511712  0.266305  0.076807  1
  Rb  Rb13  1  0.016873  0.737999  0.419877  1
  Rb  Rb14  1  0.476720  0.734798  0.921466  1
  Rb  Rb15  1  0.980785  0.262906  0.580031  1
  Rb  Rb16  1  0.982012  0.546790  0.254036  1
  Rb  Rb17  1  0.481364  0.452795  0.240575  1
  Rb  Rb18  1  0.014744  0.452739  0.742895  1
  Rb  Rb19  1  0.519118  0.547844  0.758152  1
  Hf  Hf20  1  0.371908  0.494236  0.579640  1
  Hf  Hf21  1  0.874722  0.506061  0.922859  1
  Hf  Hf22  1  0.628608  0.506031  0.420214  1
  Sn  Sn23  1  0.129158  0.491537  0.079841  1
  P  P24  1  0.327849  0.485861  0.439317  1
  P  P25  1  0.818674  0.516375  0.062243  1
  P  P26  1  0.672697  0.513838  0.561073  1
  P  P27  1  0.177455  0.482275  0.936027  1
  P  P28  1  0.209319  0.214875  0.217045  1
  P  P29  1  0.707700  0.775331  0.285963  1
  P  P30  1  0.794386  0.774015  0.787835  1
  P  P31  1  0.293153  0.224540  0.714053  1
  P  P32  1  0.248622  0.754083  0.076257  1
  P  P33  1  0.749253  0.251240  0.423362  1
  P  P34  1  0.753106  0.253627  0.924074  1
  P  P35  1  0.251252  0.749469  0.576044  1
