# generated using pymatgen
data_Nd2Zn6Si2Ge
_symmetry_space_group_name_H-M   'P 1'
_cell_length_a   7.60275250
_cell_length_b   7.61343601
_cell_length_c   4.08279400
_cell_angle_alpha   90.00000000
_cell_angle_beta   90.00000000
_cell_angle_gamma   120.04649824
_symmetry_Int_Tables_number   1
_chemical_formula_structural   Nd2Zn6Si2Ge
_chemical_formula_sum   'Nd2 Zn6 Si2 Ge1'
_cell_volume   204.56718845
_cell_formula_units_Z   1
loop_
 _symmetry_equiv_pos_site_id
 _symmetry_equiv_pos_as_xyz
  1  'x, y, z'
loop_
 _atom_site_type_symbol
 _atom_site_label
 _atom_site_symmetry_multiplicity
 _atom_site_fract_x
 _atom_site_fract_y
 _atom_site_fract_z
 _atom_site_occupancy
  Nd  Nd0  1  0.664805  0.333042  0.000000  1
  Nd  Nd1  1  0.335195  0.668239  0.000000  1
  Zn  Zn2  1  0.703460  0.995721  0.500000  1
  Zn  Zn3  1  0.000000  0.714601  0.500000  1
  Zn  Zn4  1  0.192454  0.999049  0.000000  1
  Zn  Zn5  1  0.807546  0.806595  0.000000  1
  Zn  Zn6  1  0.296540  0.292261  0.500000  1
  Zn  Zn7  1  0.000000  0.187915  0.000000  1
  Si  Si8  1  0.378516  0.999816  0.500000  1
  Si  Si9  1  0.621484  0.621300  0.500000  1
  Ge  Ge10  1  0.000000  0.381462  0.500000  1
