# generated using pymatgen
data_Ho4MgZr3Pt4
_symmetry_space_group_name_H-M   'P 1'
_cell_length_a   4.64313300
_cell_length_b   7.01727365
_cell_length_c   8.31004727
_cell_angle_alpha   87.13257103
_cell_angle_beta   90.00000000
_cell_angle_gamma   90.00000000
_symmetry_Int_Tables_number   1
_chemical_formula_structural   Ho4MgZr3Pt4
_chemical_formula_sum   'Ho4 Mg1 Zr3 Pt4'
_cell_volume   270.42007865
_cell_formula_units_Z   1
loop_
 _symmetry_equiv_pos_site_id
 _symmetry_equiv_pos_as_xyz
  1  'x, y, z'
loop_
 _atom_site_type_symbol
 _atom_site_label
 _atom_site_symmetry_multiplicity
 _atom_site_fract_x
 _atom_site_fract_y
 _atom_site_fract_z
 _atom_site_occupancy
  Ho  Ho0  1  0.250000  0.971145  0.329855  1
  Ho  Ho1  1  0.250000  0.484644  0.181501  1
  Ho  Ho2  1  0.750000  0.011030  0.670722  1
  Ho  Ho3  1  0.750000  0.524465  0.811355  1
  Mg  Mg4  1  0.750000  0.647981  0.423196  1
  Zr  Zr5  1  0.250000  0.862047  0.926533  1
  Zr  Zr6  1  0.250000  0.353663  0.568774  1
  Zr  Zr7  1  0.750000  0.148497  0.079758  1
  Pt  Pt8  1  0.250000  0.240774  0.903779  1
  Pt  Pt9  1  0.250000  0.735451  0.617246  1
  Pt  Pt10  1  0.750000  0.765111  0.090977  1
  Pt  Pt11  1  0.750000  0.255194  0.396305  1
