# generated using pymatgen
data_Y5Er(CdHg2)6
_symmetry_space_group_name_H-M   'P 1'
_cell_length_a   5.11497910
_cell_length_b   7.12517000
_cell_length_c   15.61741231
_cell_angle_alpha   90.00000000
_cell_angle_beta   90.02299461
_cell_angle_gamma   90.00000000
_symmetry_Int_Tables_number   1
_chemical_formula_structural   Y5Er(CdHg2)6
_chemical_formula_sum   'Y5 Er1 Cd6 Hg12'
_cell_volume   569.17803985
_cell_formula_units_Z   1
loop_
 _symmetry_equiv_pos_site_id
 _symmetry_equiv_pos_as_xyz
  1  'x, y, z'
loop_
 _atom_site_type_symbol
 _atom_site_label
 _atom_site_symmetry_multiplicity
 _atom_site_fract_x
 _atom_site_fract_y
 _atom_site_fract_z
 _atom_site_occupancy
  Y  Y0  1  0.499905  0.500000  0.166334  1
  Y  Y1  1  0.999908  0.000000  0.333691  1
  Y  Y2  1  0.500000  0.500000  0.500000  1
  Y  Y3  1  0.000092  0.000000  0.666308  1
  Y  Y4  1  0.500095  0.500000  0.833666  1
  Er  Er5  1  0.000000  0.000000  0.000000  1
  Cd  Cd6  1  0.000000  0.500000  0.000000  1
  Cd  Cd7  1  0.499891  0.000000  0.167293  1
  Cd  Cd8  1  0.999932  0.500000  0.332792  1
  Cd  Cd9  1  0.500000  0.000000  0.500000  1
  Cd  Cd10  1  0.000068  0.500000  0.667208  1
  Cd  Cd11  1  0.500109  0.000000  0.832707  1
  Hg  Hg12  1  0.500000  0.248821  0.000000  1
  Hg  Hg13  1  0.500000  0.751178  0.000000  1
  Hg  Hg14  1  0.999884  0.247161  0.165120  1
  Hg  Hg15  1  0.999884  0.752840  0.165120  1
  Hg  Hg16  1  0.499898  0.250912  0.333425  1
  Hg  Hg17  1  0.499898  0.749089  0.333425  1
  Hg  Hg18  1  0.000000  0.248336  0.500000  1
  Hg  Hg19  1  0.000000  0.751665  0.500000  1
  Hg  Hg20  1  0.500102  0.250912  0.666575  1
  Hg  Hg21  1  0.500102  0.749089  0.666575  1
  Hg  Hg22  1  0.000116  0.247161  0.834880  1
  Hg  Hg23  1  0.000116  0.752840  0.834880  1
