# generated using pymatgen
data_Gd3Er(ZrPt)4
_symmetry_space_group_name_H-M   'P 1'
_cell_length_a   4.68469500
_cell_length_b   7.04278561
_cell_length_c   8.22540600
_cell_angle_alpha   89.94201909
_cell_angle_beta   90.00000000
_cell_angle_gamma   90.00000000
_symmetry_Int_Tables_number   1
_chemical_formula_structural   Gd3Er(ZrPt)4
_chemical_formula_sum   'Gd3 Er1 Zr4 Pt4'
_cell_volume   271.38316951
_cell_formula_units_Z   1
loop_
 _symmetry_equiv_pos_site_id
 _symmetry_equiv_pos_as_xyz
  1  'x, y, z'
loop_
 _atom_site_type_symbol
 _atom_site_label
 _atom_site_symmetry_multiplicity
 _atom_site_fract_x
 _atom_site_fract_y
 _atom_site_fract_z
 _atom_site_occupancy
  Gd  Gd0  1  0.250000  0.014257  0.320192  1
  Gd  Gd1  1  0.250000  0.513877  0.179132  1
  Gd  Gd2  1  0.750000  0.985897  0.680427  1
  Er  Er3  1  0.750000  0.484824  0.820701  1
  Zr  Zr4  1  0.250000  0.648987  0.581513  1
  Zr  Zr5  1  0.250000  0.150249  0.919484  1
  Zr  Zr6  1  0.750000  0.350746  0.420439  1
  Zr  Zr7  1  0.750000  0.849983  0.079717  1
  Pt  Pt8  1  0.250000  0.272612  0.595030  1
  Pt  Pt9  1  0.250000  0.769268  0.905819  1
  Pt  Pt10  1  0.750000  0.728746  0.406593  1
  Pt  Pt11  1  0.750000  0.230553  0.090954  1
