# generated using pymatgen
data_V3SiIr4
_symmetry_space_group_name_H-M   'P 1'
_cell_length_a   6.63361676
_cell_length_b   6.63361684
_cell_length_c   2.80833800
_cell_angle_alpha   90.00000000
_cell_angle_beta   90.00000000
_cell_angle_gamma   117.68127568
_symmetry_Int_Tables_number   1
_chemical_formula_structural   V3SiIr4
_chemical_formula_sum   'V3 Si1 Ir4'
_cell_volume   109.43620198
_cell_formula_units_Z   1
loop_
 _symmetry_equiv_pos_site_id
 _symmetry_equiv_pos_as_xyz
  1  'x, y, z'
loop_
 _atom_site_type_symbol
 _atom_site_label
 _atom_site_symmetry_multiplicity
 _atom_site_fract_x
 _atom_site_fract_y
 _atom_site_fract_z
 _atom_site_occupancy
  V  V0  1  0.220588  0.779412  0.500000  1
  V  V1  1  0.000000  0.000000  0.500000  1
  V  V2  1  0.779412  0.220588  0.500000  1
  Si  Si3  1  0.500000  0.500000  0.500000  1
  Ir  Ir4  1  0.844235  0.593618  0.000000  1
  Ir  Ir5  1  0.406382  0.155765  0.000000  1
  Ir  Ir6  1  0.155765  0.406382  0.000000  1
  Ir  Ir7  1  0.593618  0.844235  0.000000  1
