# generated using pymatgen
data_Zr4Nb4Si3P
_symmetry_space_group_name_H-M   'P 1'
_cell_length_a   3.63582800
_cell_length_b   7.01341185
_cell_length_c   8.46864387
_cell_angle_alpha   90.28132453
_cell_angle_beta   90.00000000
_cell_angle_gamma   90.00000000
_symmetry_Int_Tables_number   1
_chemical_formula_structural   Zr4Nb4Si3P
_chemical_formula_sum   'Zr4 Nb4 Si3 P1'
_cell_volume   215.94408241
_cell_formula_units_Z   1
loop_
 _symmetry_equiv_pos_site_id
 _symmetry_equiv_pos_as_xyz
  1  'x, y, z'
loop_
 _atom_site_type_symbol
 _atom_site_label
 _atom_site_symmetry_multiplicity
 _atom_site_fract_x
 _atom_site_fract_y
 _atom_site_fract_z
 _atom_site_occupancy
  Zr  Zr0  1  0.250000  0.543151  0.833903  1
  Zr  Zr1  1  0.750000  0.961694  0.333563  1
  Zr  Zr2  1  0.250000  0.040775  0.667480  1
  Zr  Zr3  1  0.750000  0.456710  0.169503  1
  Nb  Nb4  1  0.250000  0.134419  0.061266  1
  Nb  Nb5  1  0.750000  0.868704  0.940670  1
  Nb  Nb6  1  0.250000  0.631514  0.439822  1
  Nb  Nb7  1  0.750000  0.363201  0.555691  1
  Si  Si8  1  0.750000  0.741437  0.640342  1
  Si  Si9  1  0.250000  0.756108  0.141031  1
  Si  Si10  1  0.750000  0.245179  0.858550  1
  P  P11  1  0.250000  0.257107  0.358177  1
