# generated using pymatgen
data_LuTa2B2Ru5
_symmetry_space_group_name_H-M   'P 1'
_cell_length_a   9.50948180
_cell_length_b   9.50948242
_cell_length_c   3.08749600
_cell_angle_alpha   90.00000000
_cell_angle_beta   90.00000000
_cell_angle_gamma   89.64752384
_symmetry_Int_Tables_number   1
_chemical_formula_structural   LuTa2B2Ru5
_chemical_formula_sum   'Lu2 Ta4 B4 Ru10'
_cell_volume   279.19775180
_cell_formula_units_Z   2
loop_
 _symmetry_equiv_pos_site_id
 _symmetry_equiv_pos_as_xyz
  1  'x, y, z'
loop_
 _atom_site_type_symbol
 _atom_site_label
 _atom_site_symmetry_multiplicity
 _atom_site_fract_x
 _atom_site_fract_y
 _atom_site_fract_z
 _atom_site_occupancy
  Lu  Lu0  1  0.175836  0.175836  0.000000  1
  Lu  Lu1  1  0.824164  0.824164  0.000000  1
  Ta  Ta2  1  0.500000  0.000000  0.000000  1
  Ta  Ta3  1  0.000000  0.500000  0.000000  1
  Ta  Ta4  1  0.676534  0.323466  0.000000  1
  Ta  Ta5  1  0.323466  0.676534  0.000000  1
  B  B6  1  0.378657  0.378657  0.000000  1
  B  B7  1  0.621343  0.621343  0.000000  1
  B  B8  1  0.879432  0.120568  0.000000  1
  B  B9  1  0.120568  0.879432  0.000000  1
  Ru  Ru10  1  0.500000  0.500000  0.500000  1
  Ru  Ru11  1  0.000000  0.000000  0.500000  1
  Ru  Ru12  1  0.439359  0.222537  0.500000  1
  Ru  Ru13  1  0.560641  0.777463  0.500000  1
  Ru  Ru14  1  0.919821  0.284996  0.500000  1
  Ru  Ru15  1  0.080179  0.715004  0.500000  1
  Ru  Ru16  1  0.715004  0.080179  0.500000  1
  Ru  Ru17  1  0.284996  0.919821  0.500000  1
  Ru  Ru18  1  0.777463  0.560641  0.500000  1
  Ru  Ru19  1  0.222537  0.439359  0.500000  1
