# generated using pymatgen
data_Yb2Pr8Sn5Sb3
_symmetry_space_group_name_H-M   'P 1'
_cell_length_a   8.39707500
_cell_length_b   8.46378906
_cell_length_c   16.28565500
_cell_angle_alpha   90.12781539
_cell_angle_beta   90.00000000
_cell_angle_gamma   90.00000000
_symmetry_Int_Tables_number   1
_chemical_formula_structural   Yb2Pr8Sn5Sb3
_chemical_formula_sum   'Yb4 Pr16 Sn10 Sb6'
_cell_volume   1157.43607128
_cell_formula_units_Z   2
loop_
 _symmetry_equiv_pos_site_id
 _symmetry_equiv_pos_as_xyz
  1  'x, y, z'
loop_
 _atom_site_type_symbol
 _atom_site_label
 _atom_site_symmetry_multiplicity
 _atom_site_fract_x
 _atom_site_fract_y
 _atom_site_fract_z
 _atom_site_occupancy
  Yb  Yb0  1  0.777982  0.498338  0.750047  1
  Yb  Yb1  1  0.277982  0.001662  0.749953  1
  Yb  Yb2  1  0.221008  0.502347  0.251405  1
  Yb  Yb3  1  0.721008  0.997653  0.248595  1
  Pr  Pr4  1  0.607024  0.163296  0.616663  1
  Pr  Pr5  1  0.107024  0.336704  0.883337  1
  Pr  Pr6  1  0.394155  0.837959  0.117049  1
  Pr  Pr7  1  0.894155  0.662041  0.382951  1
  Pr  Pr8  1  0.391862  0.835632  0.383562  1
  Pr  Pr9  1  0.891862  0.664368  0.116438  1
  Pr  Pr10  1  0.609203  0.162675  0.882020  1
  Pr  Pr11  1  0.109203  0.337325  0.617980  1
  Pr  Pr12  1  0.451621  0.673297  0.607727  1
  Pr  Pr13  1  0.951621  0.826703  0.892273  1
  Pr  Pr14  1  0.545645  0.322220  0.107587  1
  Pr  Pr15  1  0.045645  0.177780  0.392413  1
  Pr  Pr16  1  0.543996  0.326244  0.392894  1
  Pr  Pr17  1  0.043996  0.173756  0.107106  1
  Pr  Pr18  1  0.457704  0.680784  0.893526  1
  Pr  Pr19  1  0.957704  0.819216  0.606474  1
  Sn  Sn20  1  0.730344  0.976118  0.042992  1
  Sn  Sn21  1  0.230344  0.523882  0.457008  1
  Sn  Sn22  1  0.408007  0.380229  0.751363  1
  Sn  Sn23  1  0.908007  0.119771  0.748637  1
  Sn  Sn24  1  0.592395  0.620274  0.249974  1
  Sn  Sn25  1  0.092395  0.879726  0.250026  1
  Sn  Sn26  1  0.656835  0.863131  0.748953  1
  Sn  Sn27  1  0.156835  0.636869  0.751047  1
  Sn  Sn28  1  0.342391  0.136312  0.250180  1
  Sn  Sn29  1  0.842391  0.363688  0.249820  1
  Sb  Sb30  1  0.732761  0.978273  0.455402  1
  Sb  Sb31  1  0.232761  0.521727  0.044598  1
  Sb  Sb32  1  0.268635  0.023321  0.955250  1
  Sb  Sb33  1  0.768635  0.476679  0.544750  1
  Sb  Sb34  1  0.268433  0.021567  0.545676  1
  Sb  Sb35  1  0.768433  0.478433  0.954324  1
