# generated using pymatgen
data_GdErPd2F14
_symmetry_space_group_name_H-M   'P 1'
_cell_length_a   5.47871000
_cell_length_b   8.75171520
_cell_length_c   11.83213800
_cell_angle_alpha   62.63503934
_cell_angle_beta   90.00000000
_cell_angle_gamma   90.00000000
_symmetry_Int_Tables_number   1
_chemical_formula_structural   GdErPd2F14
_chemical_formula_sum   'Gd2 Er2 Pd4 F28'
_cell_volume   503.84267619
_cell_formula_units_Z   2
loop_
 _symmetry_equiv_pos_site_id
 _symmetry_equiv_pos_as_xyz
  1  'x, y, z'
loop_
 _atom_site_type_symbol
 _atom_site_label
 _atom_site_symmetry_multiplicity
 _atom_site_fract_x
 _atom_site_fract_y
 _atom_site_fract_z
 _atom_site_occupancy
  Gd  Gd0  1  0.761867  0.811013  0.765074  1
  Gd  Gd1  1  0.261867  0.188987  0.734926  1
  Er  Er2  1  0.237500  0.185539  0.235866  1
  Er  Er3  1  0.737500  0.814461  0.264134  1
  Pd  Pd4  1  0.757282  0.269432  0.961056  1
  Pd  Pd5  1  0.257282  0.730568  0.538944  1
  Pd  Pd6  1  0.241218  0.725259  0.046637  1
  Pd  Pd7  1  0.741218  0.274741  0.453363  1
  F  F8  1  0.429057  0.699630  0.917447  1
  F  F9  1  0.929057  0.300370  0.582553  1
  F  F10  1  0.565407  0.297478  0.088057  1
  F  F11  1  0.065407  0.702522  0.411943  1
  F  F12  1  0.436623  0.281054  0.535295  1
  F  F13  1  0.936623  0.718946  0.964705  1
  F  F14  1  0.564015  0.724313  0.457457  1
  F  F15  1  0.064015  0.275687  0.042543  1
  F  F16  1  0.778486  0.517027  0.860942  1
  F  F17  1  0.278486  0.482973  0.639058  1
  F  F18  1  0.223168  0.476148  0.144218  1
  F  F19  1  0.723168  0.523852  0.355782  1
  F  F20  1  0.752653  0.020250  0.051556  1
  F  F21  1  0.252653  0.979750  0.448444  1
  F  F22  1  0.246178  0.973981  0.954510  1
  F  F23  1  0.746178  0.026019  0.545490  1
  F  F24  1  0.959391  0.722050  0.629802  1
  F  F25  1  0.459391  0.277950  0.870198  1
  F  F26  1  0.039660  0.277921  0.363700  1
  F  F27  1  0.539660  0.722079  0.136300  1
  F  F28  1  0.057160  0.744463  0.180037  1
  F  F29  1  0.557160  0.255537  0.319963  1
  F  F30  1  0.937491  0.253942  0.825345  1
  F  F31  1  0.437491  0.746058  0.674655  1
  F  F32  1  0.410967  0.968393  0.231961  1
  F  F33  1  0.910967  0.031607  0.268039  1
  F  F34  1  0.601877  0.037464  0.770554  1
  F  F35  1  0.101877  0.962536  0.729446  1
