# generated using pymatgen
data_Cs6ErBiBr12
_symmetry_space_group_name_H-M   'P 1'
_cell_length_a   10.05177208
_cell_length_b   10.05042008
_cell_length_c   8.35698700
_cell_angle_alpha   90.00000000
_cell_angle_beta   90.00000000
_cell_angle_gamma   90.01483257
_symmetry_Int_Tables_number   1
_chemical_formula_structural   Cs6ErBiBr12
_chemical_formula_sum   'Cs6 Er1 Bi1 Br12'
_cell_volume   844.26067262
_cell_formula_units_Z   1
loop_
 _symmetry_equiv_pos_site_id
 _symmetry_equiv_pos_as_xyz
  1  'x, y, z'
loop_
 _atom_site_type_symbol
 _atom_site_label
 _atom_site_symmetry_multiplicity
 _atom_site_fract_x
 _atom_site_fract_y
 _atom_site_fract_z
 _atom_site_occupancy
  Cs  Cs0  1  0.000000  0.000000  0.500000  1
  Cs  Cs1  1  0.000000  0.000000  0.000000  1
  Cs  Cs2  1  0.233875  0.584130  0.500000  1
  Cs  Cs3  1  0.766125  0.415870  0.500000  1
  Cs  Cs4  1  0.415979  0.235894  0.000000  1
  Cs  Cs5  1  0.584021  0.764106  0.000000  1
  Er  Er6  1  0.000000  0.500000  0.000000  1
  Bi  Bi7  1  0.500000  0.000000  0.500000  1
  Br  Br8  1  0.695957  0.059688  0.745460  1
  Br  Br9  1  0.304043  0.940312  0.745460  1
  Br  Br10  1  0.943133  0.689688  0.237517  1
  Br  Br11  1  0.056867  0.310312  0.237517  1
  Br  Br12  1  0.304043  0.940312  0.254540  1
  Br  Br13  1  0.695957  0.059688  0.254540  1
  Br  Br14  1  0.056867  0.310312  0.762483  1
  Br  Br15  1  0.943133  0.689688  0.762483  1
  Br  Br16  1  0.572432  0.722433  0.500000  1
  Br  Br17  1  0.427568  0.277567  0.500000  1
  Br  Br18  1  0.268003  0.570339  0.000000  1
  Br  Br19  1  0.731997  0.429661  0.000000  1
