# generated using pymatgen
data_HoEr11OsRh3
_symmetry_space_group_name_H-M   'P 1'
_cell_length_a   6.32464012
_cell_length_b   7.21529141
_cell_length_c   9.13730900
_cell_angle_alpha   90.00000000
_cell_angle_beta   90.00000000
_cell_angle_gamma   90.12556198
_symmetry_Int_Tables_number   1
_chemical_formula_structural   HoEr11OsRh3
_chemical_formula_sum   'Ho1 Er11 Os1 Rh3'
_cell_volume   416.97206770
_cell_formula_units_Z   1
loop_
 _symmetry_equiv_pos_site_id
 _symmetry_equiv_pos_as_xyz
  1  'x, y, z'
loop_
 _atom_site_type_symbol
 _atom_site_label
 _atom_site_symmetry_multiplicity
 _atom_site_fract_x
 _atom_site_fract_y
 _atom_site_fract_z
 _atom_site_occupancy
  Ho  Ho0  1  0.872639  0.536028  0.250000  1
  Er  Er1  1  0.332984  0.677211  0.058507  1
  Er  Er2  1  0.171097  0.178148  0.437370  1
  Er  Er3  1  0.671464  0.323589  0.563895  1
  Er  Er4  1  0.825388  0.820007  0.935481  1
  Er  Er5  1  0.671464  0.323589  0.936105  1
  Er  Er6  1  0.825388  0.820007  0.564519  1
  Er  Er7  1  0.332984  0.677211  0.441493  1
  Er  Er8  1  0.171097  0.178148  0.062630  1
  Er  Er9  1  0.629862  0.034925  0.250000  1
  Er  Er10  1  0.127631  0.465631  0.750000  1
  Er  Er11  1  0.372074  0.965543  0.750000  1
  Os  Os12  1  0.538557  0.615386  0.750000  1
  Rh  Rh13  1  0.045892  0.885601  0.250000  1
  Rh  Rh14  1  0.454968  0.383833  0.250000  1
  Rh  Rh15  1  0.956515  0.115142  0.750000  1
