# generated using pymatgen
data_Y6Al7Au16
_symmetry_space_group_name_H-M   'P 1'
_cell_length_a   9.27900300
_cell_length_b   9.27900425
_cell_length_c   9.27900300
_cell_angle_alpha   119.99999912
_cell_angle_beta   90.00000000
_cell_angle_gamma   119.99999912
_symmetry_Int_Tables_number   1
_chemical_formula_structural   Y6Al7Au16
_chemical_formula_sum   'Y6 Al7 Au16'
_cell_volume   564.92268875
_cell_formula_units_Z   1
loop_
 _symmetry_equiv_pos_site_id
 _symmetry_equiv_pos_as_xyz
  1  'x, y, z'
loop_
 _atom_site_type_symbol
 _atom_site_label
 _atom_site_symmetry_multiplicity
 _atom_site_fract_x
 _atom_site_fract_y
 _atom_site_fract_z
 _atom_site_occupancy
  Y  Y0  1  0.286493  0.000000  0.286493  1
  Y  Y1  1  0.286493  0.572985  0.286493  1
  Y  Y2  1  0.713508  0.000000  0.286493  1
  Y  Y3  1  0.713507  0.000000  0.713507  1
  Y  Y4  1  0.286493  0.000000  0.713508  1
  Y  Y5  1  0.713508  0.427014  0.713508  1
  Al  Al6  1  0.000000  0.000000  0.000000  1
  Al  Al7  1  0.500000  0.000000  0.000000  1
  Al  Al8  1  0.000000  0.500000  0.000000  1
  Al  Al9  1  0.500000  0.500000  0.000000  1
  Al  Al10  1  0.000000  0.000000  0.500000  1
  Al  Al11  1  0.000000  0.500000  0.500000  1
  Al  Al12  1  0.500000  0.500000  0.500000  1
  Au  Au13  1  0.659763  0.319524  0.979286  1
  Au  Au14  1  0.882075  0.764150  0.117926  1
  Au  Au15  1  0.353777  0.235851  0.117926  1
  Au  Au16  1  0.882075  0.235851  0.117926  1
  Au  Au17  1  0.659763  0.319524  0.340238  1
  Au  Au18  1  0.659763  0.680477  0.340238  1
  Au  Au19  1  0.020715  0.680477  0.340238  1
  Au  Au20  1  0.117926  0.235851  0.353777  1
  Au  Au21  1  0.882075  0.764150  0.646224  1
  Au  Au22  1  0.979286  0.319524  0.659763  1
  Au  Au23  1  0.340238  0.319524  0.659763  1
  Au  Au24  1  0.340238  0.680477  0.659763  1
  Au  Au25  1  0.117926  0.235851  0.882075  1
  Au  Au26  1  0.117926  0.764150  0.882075  1
  Au  Au27  1  0.646224  0.764150  0.882075  1
  Au  Au28  1  0.340238  0.680477  0.020715  1
