# generated using pymatgen
data_Dy2HoIn3IrRh2
_symmetry_space_group_name_H-M   'P 1'
_cell_length_a   7.57374803
_cell_length_b   7.56992532
_cell_length_c   3.88963300
_cell_angle_alpha   90.00000000
_cell_angle_beta   90.00000000
_cell_angle_gamma   120.00640584
_symmetry_Int_Tables_number   1
_chemical_formula_structural   Dy2HoIn3IrRh2
_chemical_formula_sum   'Dy2 Ho1 In3 Ir1 Rh2'
_cell_volume   193.11395943
_cell_formula_units_Z   1
loop_
 _symmetry_equiv_pos_site_id
 _symmetry_equiv_pos_as_xyz
  1  'x, y, z'
loop_
 _atom_site_type_symbol
 _atom_site_label
 _atom_site_symmetry_multiplicity
 _atom_site_fract_x
 _atom_site_fract_y
 _atom_site_fract_z
 _atom_site_occupancy
  Dy  Dy0  1  0.003683  0.410682  0.500000  1
  Dy  Dy1  1  0.589352  0.592955  0.500000  1
  Ho  Ho2  1  0.406808  0.996295  0.500000  1
  In  In3  1  0.258473  0.257160  0.000000  1
  In  In4  1  0.999146  0.741762  0.000000  1
  In  In5  1  0.742488  0.001072  0.000000  1
  Ir  Ir6  1  0.333421  0.667043  0.000000  1
  Rh  Rh7  1  0.000176  0.999998  0.500000  1
  Rh  Rh8  1  0.666452  0.333035  0.000000  1
