# generated using pymatgen
data_Sc8TiTc11Ge16
_symmetry_space_group_name_H-M   'P 1'
_cell_length_a   6.76105165
_cell_length_b   6.85864741
_cell_length_c   12.67242373
_cell_angle_alpha   89.79836134
_cell_angle_beta   89.93482756
_cell_angle_gamma   89.23122232
_symmetry_Int_Tables_number   1
_chemical_formula_structural   Sc8TiTc11Ge16
_chemical_formula_sum   'Sc8 Ti1 Tc11 Ge16'
_cell_volume   587.58455812
_cell_formula_units_Z   1
loop_
 _symmetry_equiv_pos_site_id
 _symmetry_equiv_pos_as_xyz
  1  'x, y, z'
loop_
 _atom_site_type_symbol
 _atom_site_label
 _atom_site_symmetry_multiplicity
 _atom_site_fract_x
 _atom_site_fract_y
 _atom_site_fract_z
 _atom_site_occupancy
  Sc  Sc0  1  0.487117  0.676586  0.587651  1
  Sc  Sc1  1  0.984020  0.817995  0.911328  1
  Sc  Sc2  1  0.517832  0.322266  0.087587  1
  Sc  Sc3  1  0.015944  0.174828  0.410382  1
  Sc  Sc4  1  0.514177  0.334779  0.408685  1
  Sc  Sc5  1  0.013996  0.162123  0.091343  1
  Sc  Sc6  1  0.489987  0.668665  0.909920  1
  Sc  Sc7  1  0.985656  0.833270  0.592137  1
  Ti  Ti8  1  0.171242  0.346025  0.627917  1
  Tc  Tc9  1  0.672376  0.148959  0.619743  1
  Tc  Tc10  1  0.205758  0.369058  0.882583  1
  Tc  Tc11  1  0.307162  0.860950  0.126024  1
  Tc  Tc12  1  0.802571  0.638479  0.371639  1
  Tc  Tc13  1  0.332239  0.852497  0.369913  1
  Tc  Tc14  1  0.829043  0.641883  0.126244  1
  Tc  Tc15  1  0.658699  0.144123  0.878875  1
  Tc  Tc16  1  0.839542  0.512667  0.750256  1
  Tc  Tc17  1  0.325713  0.996465  0.748813  1
  Tc  Tc18  1  0.171016  0.490017  0.250896  1
  Tc  Tc19  1  0.672137  0.008814  0.247644  1
  Ge  Ge20  1  0.677183  0.953533  0.449535  1
  Ge  Ge21  1  0.176682  0.549031  0.051983  1
  Ge  Ge22  1  0.315280  0.044206  0.950685  1
  Ge  Ge23  1  0.828069  0.453067  0.547143  1
  Ge  Ge24  1  0.326863  0.046231  0.543571  1
  Ge  Ge25  1  0.840726  0.440696  0.950083  1
  Ge  Ge26  1  0.665227  0.943883  0.049020  1
  Ge  Ge27  1  0.169990  0.553677  0.452100  1
  Ge  Ge28  1  0.485594  0.372813  0.745364  1
  Ge  Ge29  1  0.972336  0.140497  0.764891  1
  Ge  Ge30  1  0.518468  0.633188  0.240758  1
  Ge  Ge31  1  0.019095  0.860485  0.258806  1
  Ge  Ge32  1  0.685014  0.854632  0.748922  1
  Ge  Ge33  1  0.193700  0.655416  0.748230  1
  Ge  Ge34  1  0.314743  0.153927  0.250234  1
  Ge  Ge35  1  0.814807  0.344265  0.249097  1
