# generated using pymatgen
data_Th3Mg3Sn2Os
_symmetry_space_group_name_H-M   'P 1'
_cell_length_a   7.35054100
_cell_length_b   7.35054054
_cell_length_c   4.75677300
_cell_angle_alpha   90.00000000
_cell_angle_beta   90.00000000
_cell_angle_gamma   119.99999755
_symmetry_Int_Tables_number   1
_chemical_formula_structural   Th3Mg3Sn2Os
_chemical_formula_sum   'Th3 Mg3 Sn2 Os1'
_cell_volume   222.57770031
_cell_formula_units_Z   1
loop_
 _symmetry_equiv_pos_site_id
 _symmetry_equiv_pos_as_xyz
  1  'x, y, z'
loop_
 _atom_site_type_symbol
 _atom_site_label
 _atom_site_symmetry_multiplicity
 _atom_site_fract_x
 _atom_site_fract_y
 _atom_site_fract_z
 _atom_site_occupancy
  Th  Th0  1  0.383409  0.383409  0.500000  1
  Th  Th1  1  0.616591  0.000000  0.500000  1
  Th  Th2  1  0.000000  0.616591  0.500000  1
  Mg  Mg3  1  0.771858  0.771858  0.000000  1
  Mg  Mg4  1  0.228142  0.000000  0.000000  1
  Mg  Mg5  1  0.000000  0.228142  0.000000  1
  Sn  Sn6  1  0.666667  0.333333  0.000000  1
  Sn  Sn7  1  0.333333  0.666667  0.000000  1
  Os  Os8  1  0.000000  0.000000  0.500000  1
