# generated using pymatgen
data_Nd5As2BrO10
_symmetry_space_group_name_H-M   'P 1'
_cell_length_a   5.74513595
_cell_length_b   6.89056710
_cell_length_c   8.96441700
_cell_angle_alpha   68.83981090
_cell_angle_beta   71.31351013
_cell_angle_gamma   65.36073569
_symmetry_Int_Tables_number   1
_chemical_formula_structural   Nd5As2BrO10
_chemical_formula_sum   'Nd5 As2 Br1 O10'
_cell_volume   294.71213078
_cell_formula_units_Z   1
loop_
 _symmetry_equiv_pos_site_id
 _symmetry_equiv_pos_as_xyz
  1  'x, y, z'
loop_
 _atom_site_type_symbol
 _atom_site_label
 _atom_site_symmetry_multiplicity
 _atom_site_fract_x
 _atom_site_fract_y
 _atom_site_fract_z
 _atom_site_occupancy
  Nd  Nd0  1  0.500092  0.708429  0.291509  1
  Nd  Nd1  1  0.255066  0.364320  0.125819  1
  Nd  Nd2  1  0.000000  0.000000  0.000000  1
  Nd  Nd3  1  0.744934  0.635680  0.874181  1
  Nd  Nd4  1  0.499908  0.291571  0.708491  1
  As  As5  1  0.215054  0.961592  0.607992  1
  As  As6  1  0.784946  0.038408  0.392008  1
  Br  Br7  1  0.000000  0.500000  0.500000  1
  O  O8  1  0.867045  0.674702  0.084588  1
  O  O9  1  0.906003  0.962840  0.754227  1
  O  O10  1  0.360957  0.678594  0.599481  1
  O  O11  1  0.639043  0.321406  0.400519  1
  O  O12  1  0.373674  0.674729  0.084590  1
  O  O13  1  0.626326  0.325271  0.915410  1
  O  O14  1  0.376860  0.962879  0.754135  1
  O  O15  1  0.132955  0.325298  0.915412  1
  O  O16  1  0.623140  0.037121  0.245865  1
  O  O17  1  0.093997  0.037160  0.245773  1
