# generated using pymatgen
data_LaPr11(SiI3)4
_symmetry_space_group_name_H-M   'P 1'
_cell_length_a   10.90605335
_cell_length_b   10.90605429
_cell_length_c   10.93436909
_cell_angle_alpha   109.47416583
_cell_angle_beta   109.47416696
_cell_angle_gamma   109.40116764
_symmetry_Int_Tables_number   1
_chemical_formula_structural   LaPr11(SiI3)4
_chemical_formula_sum   'La1 Pr11 Si4 I12'
_cell_volume   1001.95992354
_cell_formula_units_Z   1
loop_
 _symmetry_equiv_pos_site_id
 _symmetry_equiv_pos_as_xyz
  1  'x, y, z'
loop_
 _atom_site_type_symbol
 _atom_site_label
 _atom_site_symmetry_multiplicity
 _atom_site_fract_x
 _atom_site_fract_y
 _atom_site_fract_z
 _atom_site_occupancy
  La  La0  1  0.234759  0.265241  0.750000  1
  Pr  Pr1  1  0.465478  0.483108  0.233813  1
  Pr  Pr2  1  0.748723  0.232371  0.266244  1
  Pr  Pr3  1  0.748793  0.016959  0.481780  1
  Pr  Pr4  1  0.232389  0.465201  0.481595  1
  Pr  Pr5  1  0.267629  0.751277  0.233756  1
  Pr  Pr6  1  0.034799  0.267611  0.018405  1
  Pr  Pr7  1  0.016892  0.034522  0.266187  1
  Pr  Pr8  1  0.483041  0.751207  0.018220  1
  Pr  Pr9  1  0.482771  0.232833  0.464886  1
  Pr  Pr10  1  0.017264  0.482736  0.750000  1
  Pr  Pr11  1  0.267167  0.017229  0.035114  1
  Si  Si12  1  0.249988  0.250012  0.250000  1
  Si  Si13  1  0.499894  0.000106  0.250000  1
  Si  Si14  1  0.999777  0.249917  0.499624  1
  Si  Si15  1  0.250083  0.500223  0.000376  1
  I  I16  1  0.250022  0.757758  0.742452  1
  I  I17  1  0.517101  0.509846  0.757559  1
  I  I18  1  0.984742  0.742338  0.992458  1
  I  I19  1  0.742242  0.249978  0.757548  1
  I  I20  1  0.990154  0.982899  0.742441  1
  I  I21  1  0.249726  0.990879  0.506160  1
  I  I22  1  0.757662  0.515258  0.507542  1
  I  I23  1  0.509121  0.250274  0.993840  1
  I  I24  1  0.757559  0.742441  0.250000  1
  I  I25  1  0.742276  0.992358  0.984664  1
  I  I26  1  0.992307  0.507693  0.250000  1
  I  I27  1  0.507642  0.757724  0.515336  1
