# generated using pymatgen
data_BaFeAg(Sb6Os)2
_symmetry_space_group_name_H-M   'P 1'
_cell_length_a   8.23207110
_cell_length_b   8.27395517
_cell_length_c   8.18432860
_cell_angle_alpha   109.28321540
_cell_angle_beta   109.34903436
_cell_angle_gamma   109.79960544
_symmetry_Int_Tables_number   1
_chemical_formula_structural   BaFeAg(Sb6Os)2
_chemical_formula_sum   'Ba1 Fe1 Ag1 Sb12 Os2'
_cell_volume   429.02050069
_cell_formula_units_Z   1
loop_
 _symmetry_equiv_pos_site_id
 _symmetry_equiv_pos_as_xyz
  1  'x, y, z'
loop_
 _atom_site_type_symbol
 _atom_site_label
 _atom_site_symmetry_multiplicity
 _atom_site_fract_x
 _atom_site_fract_y
 _atom_site_fract_z
 _atom_site_occupancy
  Ba  Ba0  1  0.000000  0.000000  0.000000  1
  Fe  Fe1  1  0.000000  0.500000  0.000000  1
  Ag  Ag2  1  0.000000  0.000000  0.500000  1
  Sb  Sb3  1  0.360008  0.195960  0.856722  1
  Sb  Sb4  1  0.639992  0.804040  0.143278  1
  Sb  Sb5  1  0.668938  0.502496  0.843595  1
  Sb  Sb6  1  0.331062  0.497504  0.156405  1
  Sb  Sb7  1  0.188571  0.825561  0.327813  1
  Sb  Sb8  1  0.811429  0.174439  0.672187  1
  Sb  Sb9  1  0.500940  0.841576  0.658964  1
  Sb  Sb10  1  0.499060  0.158424  0.341036  1
  Sb  Sb11  1  0.843749  0.341726  0.174441  1
  Sb  Sb12  1  0.156251  0.658274  0.825559  1
  Sb  Sb13  1  0.836945  0.640237  0.496486  1
  Sb  Sb14  1  0.163055  0.359763  0.503514  1
  Os  Os15  1  0.500000  0.000000  0.000000  1
  Os  Os16  1  0.500000  0.500000  0.500000  1
