# generated using pymatgen
data_Tb2SmCBr5
_symmetry_space_group_name_H-M   'P 1'
_cell_length_a   7.42433246
_cell_length_b   8.95674952
_cell_length_c   9.09488397
_cell_angle_alpha   107.12677877
_cell_angle_beta   96.25819334
_cell_angle_gamma   104.72313247
_symmetry_Int_Tables_number   1
_chemical_formula_structural   Tb2SmCBr5
_chemical_formula_sum   'Tb4 Sm2 C2 Br10'
_cell_volume   547.82334316
_cell_formula_units_Z   2
loop_
 _symmetry_equiv_pos_site_id
 _symmetry_equiv_pos_as_xyz
  1  'x, y, z'
loop_
 _atom_site_type_symbol
 _atom_site_label
 _atom_site_symmetry_multiplicity
 _atom_site_fract_x
 _atom_site_fract_y
 _atom_site_fract_z
 _atom_site_occupancy
  Tb  Tb0  1  0.028748  0.727713  0.919634  1
  Tb  Tb1  1  0.971252  0.272287  0.080366  1
  Tb  Tb2  1  0.616887  0.857637  0.809914  1
  Tb  Tb3  1  0.383113  0.142363  0.190086  1
  Sm  Sm4  1  0.886138  0.955200  0.230515  1
  Sm  Sm5  1  0.113862  0.044800  0.769485  1
  C  C6  1  0.906040  0.968278  0.955465  1
  C  C7  1  0.093960  0.031722  0.044535  1
  Br  Br8  1  0.748407  0.915642  0.541216  1
  Br  Br9  1  0.251593  0.084358  0.458784  1
  Br  Br10  1  0.455178  0.815355  0.086306  1
  Br  Br11  1  0.544822  0.184645  0.913694  1
  Br  Br12  1  0.805721  0.265642  0.349262  1
  Br  Br13  1  0.194279  0.734358  0.650738  1
  Br  Br14  1  0.912092  0.625505  0.171537  1
  Br  Br15  1  0.087908  0.374495  0.828463  1
  Br  Br16  1  0.662090  0.546192  0.726854  1
  Br  Br17  1  0.337910  0.453808  0.273146  1
