# generated using pymatgen
data_HoEr3Tm6(In2Ni)4
_symmetry_space_group_name_H-M   'P 1'
_cell_length_a   3.56944600
_cell_length_b   7.96218130
_cell_length_c   17.82962601
_cell_angle_alpha   89.95790377
_cell_angle_beta   90.00000000
_cell_angle_gamma   90.00000000
_symmetry_Int_Tables_number   1
_chemical_formula_structural   HoEr3Tm6(In2Ni)4
_chemical_formula_sum   'Ho1 Er3 Tm6 In8 Ni4'
_cell_volume   506.72810732
_cell_formula_units_Z   1
loop_
 _symmetry_equiv_pos_site_id
 _symmetry_equiv_pos_as_xyz
  1  'x, y, z'
loop_
 _atom_site_type_symbol
 _atom_site_label
 _atom_site_symmetry_multiplicity
 _atom_site_fract_x
 _atom_site_fract_y
 _atom_site_fract_z
 _atom_site_occupancy
  Ho  Ho0  1  0.000000  0.500000  0.500000  1
  Er  Er1  1  0.000000  0.000000  0.000000  1
  Er  Er2  1  0.000000  0.745928  0.277887  1
  Er  Er3  1  0.000000  0.254072  0.722113  1
  Tm  Tm4  1  0.000000  0.753910  0.777919  1
  Tm  Tm5  1  0.000000  0.246090  0.222081  1
  Tm  Tm6  1  0.000000  0.616650  0.088593  1
  Tm  Tm7  1  0.000000  0.383350  0.911407  1
  Tm  Tm8  1  0.000000  0.883091  0.588604  1
  Tm  Tm9  1  0.000000  0.116909  0.411396  1
  In  In10  1  0.500000  0.704908  0.930932  1
  In  In11  1  0.500000  0.295092  0.069068  1
  In  In12  1  0.500000  0.795447  0.431109  1
  In  In13  1  0.500000  0.204553  0.568891  1
  In  In14  1  0.500000  0.574167  0.652031  1
  In  In15  1  0.500000  0.425833  0.347969  1
  In  In16  1  0.500000  0.926819  0.151805  1
  In  In17  1  0.500000  0.073181  0.848195  1
  Ni  Ni18  1  0.500000  0.523749  0.195162  1
  Ni  Ni19  1  0.500000  0.476251  0.804838  1
  Ni  Ni20  1  0.500000  0.974134  0.695445  1
  Ni  Ni21  1  0.500000  0.025866  0.304555  1
