# generated using pymatgen
data_Dy4MgIrPt2
_symmetry_space_group_name_H-M   'P 1'
_cell_length_a   10.87117200
_cell_length_b   10.87117200
_cell_length_c   6.24000100
_cell_angle_alpha   90.00000000
_cell_angle_beta   90.00000000
_cell_angle_gamma   90.00000000
_symmetry_Int_Tables_number   1
_chemical_formula_structural   Dy4MgIrPt2
_chemical_formula_sum   'Dy16 Mg4 Ir4 Pt8'
_cell_volume   737.45817346
_cell_formula_units_Z   4
loop_
 _symmetry_equiv_pos_site_id
 _symmetry_equiv_pos_as_xyz
  1  'x, y, z'
loop_
 _atom_site_type_symbol
 _atom_site_label
 _atom_site_symmetry_multiplicity
 _atom_site_fract_x
 _atom_site_fract_y
 _atom_site_fract_z
 _atom_site_occupancy
  Dy  Dy0  1  0.289042  0.086391  0.376933  1
  Dy  Dy1  1  0.289042  0.913609  0.876933  1
  Dy  Dy2  1  0.710958  0.086391  0.876933  1
  Dy  Dy3  1  0.710958  0.913609  0.376933  1
  Dy  Dy4  1  0.586391  0.789042  0.876933  1
  Dy  Dy5  1  0.586391  0.210958  0.376933  1
  Dy  Dy6  1  0.413609  0.789042  0.376933  1
  Dy  Dy7  1  0.413609  0.210958  0.876933  1
  Dy  Dy8  1  0.210958  0.413609  0.623067  1
  Dy  Dy9  1  0.210958  0.586391  0.123067  1
  Dy  Dy10  1  0.789042  0.413609  0.123067  1
  Dy  Dy11  1  0.789042  0.586391  0.623067  1
  Dy  Dy12  1  0.913609  0.710958  0.123067  1
  Dy  Dy13  1  0.913609  0.289042  0.623067  1
  Dy  Dy14  1  0.086391  0.710958  0.623067  1
  Dy  Dy15  1  0.086391  0.289042  0.123067  1
  Mg  Mg16  1  0.000000  0.000000  0.500000  1
  Mg  Mg17  1  0.000000  0.000000  0.000000  1
  Mg  Mg18  1  0.500000  0.500000  0.000000  1
  Mg  Mg19  1  0.500000  0.500000  0.500000  1
  Ir  Ir20  1  0.500000  0.000000  0.118396  1
  Ir  Ir21  1  0.500000  0.000000  0.618396  1
  Ir  Ir22  1  0.000000  0.500000  0.881604  1
  Ir  Ir23  1  0.000000  0.500000  0.381604  1
  Pt  Pt24  1  0.848825  0.151175  0.250000  1
  Pt  Pt25  1  0.848825  0.848825  0.750000  1
  Pt  Pt26  1  0.151175  0.151175  0.750000  1
  Pt  Pt27  1  0.151175  0.848825  0.250000  1
  Pt  Pt28  1  0.651175  0.348825  0.750000  1
  Pt  Pt29  1  0.651175  0.651175  0.250000  1
  Pt  Pt30  1  0.348825  0.348825  0.250000  1
  Pt  Pt31  1  0.348825  0.651175  0.750000  1
