# generated using pymatgen
data_Cd2FeBiO6
_symmetry_space_group_name_H-M   'P 1'
_cell_length_a   5.54369627
_cell_length_b   5.54369475
_cell_length_c   6.02766062
_cell_angle_alpha   62.62227917
_cell_angle_beta   117.37773132
_cell_angle_gamma   120.00000522
_symmetry_Int_Tables_number   1
_chemical_formula_structural   Cd2FeBiO6
_chemical_formula_sum   'Cd2 Fe1 Bi1 O6'
_cell_volume   135.94209828
_cell_formula_units_Z   1
loop_
 _symmetry_equiv_pos_site_id
 _symmetry_equiv_pos_as_xyz
  1  'x, y, z'
loop_
 _atom_site_type_symbol
 _atom_site_label
 _atom_site_symmetry_multiplicity
 _atom_site_fract_x
 _atom_site_fract_y
 _atom_site_fract_z
 _atom_site_occupancy
  Cd  Cd0  1  0.865516  0.134484  0.596547  1
  Cd  Cd1  1  0.135716  0.864284  0.407149  1
  Fe  Fe2  1  0.652840  0.347160  0.958518  1
  Bi  Bi3  1  0.346322  0.653678  0.038968  1
  O  O4  1  0.465518  0.278372  0.230016  1
  O  O5  1  0.042870  0.534482  0.230016  1
  O  O6  1  0.721628  0.957130  0.230016  1
  O  O7  1  0.540304  0.702974  0.769590  1
  O  O8  1  0.932261  0.459696  0.769590  1
  O  O9  1  0.297026  0.067739  0.769590  1
