# generated using pymatgen
data_Sr3TbHgPb11
_symmetry_space_group_name_H-M   'P 1'
_cell_length_a   10.02780500
_cell_length_b   7.04905771
_cell_length_c   7.03459307
_cell_angle_alpha   88.86005131
_cell_angle_beta   90.00000000
_cell_angle_gamma   90.00000000
_symmetry_Int_Tables_number   1
_chemical_formula_structural   Sr3TbHgPb11
_chemical_formula_sum   'Sr3 Tb1 Hg1 Pb11'
_cell_volume   497.15288482
_cell_formula_units_Z   1
loop_
 _symmetry_equiv_pos_site_id
 _symmetry_equiv_pos_as_xyz
  1  'x, y, z'
loop_
 _atom_site_type_symbol
 _atom_site_label
 _atom_site_symmetry_multiplicity
 _atom_site_fract_x
 _atom_site_fract_y
 _atom_site_fract_z
 _atom_site_occupancy
  Sr  Sr0  1  0.250000  0.497012  0.505161  1
  Sr  Sr1  1  0.750000  0.995713  0.000756  1
  Sr  Sr2  1  0.750000  0.509099  0.498175  1
  Tb  Tb3  1  0.250000  0.008628  0.002595  1
  Hg  Hg4  1  0.750000  0.492361  0.996887  1
  Pb  Pb5  1  0.001483  0.237088  0.745056  1
  Pb  Pb6  1  0.499582  0.251853  0.244478  1
  Pb  Pb7  1  0.494746  0.754812  0.245223  1
  Pb  Pb8  1  0.002158  0.748143  0.760040  1
  Pb  Pb9  1  0.005254  0.754812  0.245223  1
  Pb  Pb10  1  0.497842  0.748143  0.760040  1
  Pb  Pb11  1  0.498517  0.237088  0.745056  1
  Pb  Pb12  1  0.000418  0.251853  0.244478  1
  Pb  Pb13  1  0.250000  0.996557  0.502445  1
  Pb  Pb14  1  0.250000  0.510083  0.005080  1
  Pb  Pb15  1  0.750000  0.006754  0.499306  1
