# generated using pymatgen
data_DyPa(Al5Cu6)2
_symmetry_space_group_name_H-M   'P 1'
_cell_length_a   10.31934494
_cell_length_b   8.18318062
_cell_length_c   7.81910325
_cell_angle_alpha   80.27623131
_cell_angle_beta   51.40745904
_cell_angle_gamma   48.31629546
_symmetry_Int_Tables_number   1
_chemical_formula_structural   DyPa(Al5Cu6)2
_chemical_formula_sum   'Dy1 Pa1 Al10 Cu12'
_cell_volume   349.54674730
_cell_formula_units_Z   1
loop_
 _symmetry_equiv_pos_site_id
 _symmetry_equiv_pos_as_xyz
  1  'x, y, z'
loop_
 _atom_site_type_symbol
 _atom_site_label
 _atom_site_symmetry_multiplicity
 _atom_site_fract_x
 _atom_site_fract_y
 _atom_site_fract_z
 _atom_site_occupancy
  Dy  Dy0  1  0.250000  0.250000  0.250000  1
  Pa  Pa1  1  0.000000  0.000000  0.000000  1
  Al  Al2  1  0.500000  0.500000  0.500000  1
  Al  Al3  1  0.750000  0.750000  0.750000  1
  Al  Al4  1  0.754774  0.071548  0.835732  1
  Al  Al5  1  0.835732  0.337948  0.754774  1
  Al  Al6  1  0.071548  0.754774  0.337948  1
  Al  Al7  1  0.337948  0.835732  0.071548  1
  Al  Al8  1  0.495458  0.178965  0.414294  1
  Al  Al9  1  0.414294  0.911281  0.495458  1
  Al  Al10  1  0.178965  0.495458  0.911281  1
  Al  Al11  1  0.911281  0.414294  0.178965  1
  Cu  Cu12  1  0.625753  0.123820  0.624736  1
  Cu  Cu13  1  0.624736  0.625691  0.625753  1
  Cu  Cu14  1  0.123820  0.625753  0.625691  1
  Cu  Cu15  1  0.625691  0.624736  0.123820  1
  Cu  Cu16  1  0.491930  0.434374  0.183149  1
  Cu  Cu17  1  0.183149  0.890547  0.491930  1
  Cu  Cu18  1  0.434374  0.491930  0.890547  1
  Cu  Cu19  1  0.890547  0.183149  0.434374  1
  Cu  Cu20  1  0.758257  0.815673  0.067408  1
  Cu  Cu21  1  0.067408  0.358663  0.758257  1
  Cu  Cu22  1  0.815673  0.758257  0.358663  1
  Cu  Cu23  1  0.358663  0.067408  0.815673  1
