# generated using pymatgen
data_LaLu4Bi3
_symmetry_space_group_name_H-M   'P 1'
_cell_length_a   8.28433801
_cell_length_b   9.44460500
_cell_length_c   12.10010601
_cell_angle_alpha   89.99761028
_cell_angle_beta   90.00448531
_cell_angle_gamma   90.00155809
_symmetry_Int_Tables_number   1
_chemical_formula_structural   LaLu4Bi3
_chemical_formula_sum   'La4 Lu16 Bi12'
_cell_volume   946.74012281
_cell_formula_units_Z   4
loop_
 _symmetry_equiv_pos_site_id
 _symmetry_equiv_pos_as_xyz
  1  'x, y, z'
loop_
 _atom_site_type_symbol
 _atom_site_label
 _atom_site_symmetry_multiplicity
 _atom_site_fract_x
 _atom_site_fract_y
 _atom_site_fract_z
 _atom_site_occupancy
  La  La0  1  0.680524  0.749910  0.780990  1
  La  La1  1  0.819422  0.250048  0.280935  1
  La  La2  1  0.180547  0.750254  0.718952  1
  La  La3  1  0.319379  0.250046  0.219031  1
  Lu  Lu4  1  0.188625  0.932128  0.436097  1
  Lu  Lu5  1  0.311389  0.067947  0.936049  1
  Lu  Lu6  1  0.688597  0.567882  0.063971  1
  Lu  Lu7  1  0.811154  0.432092  0.563790  1
  Lu  Lu8  1  0.811394  0.067837  0.563803  1
  Lu  Lu9  1  0.688799  0.932082  0.064008  1
  Lu  Lu10  1  0.311436  0.432034  0.935988  1
  Lu  Lu11  1  0.188758  0.567791  0.436219  1
  Lu  Lu12  1  0.518346  0.750085  0.510345  1
  Lu  Lu13  1  0.981625  0.249958  0.010339  1
  Lu  Lu14  1  0.018370  0.750051  0.989727  1
  Lu  Lu15  1  0.481584  0.249940  0.489749  1
  Lu  Lu16  1  0.851283  0.749906  0.279086  1
  Lu  Lu17  1  0.648610  0.249998  0.778950  1
  Lu  Lu18  1  0.351344  0.750005  0.221012  1
  Lu  Lu19  1  0.148535  0.250003  0.720933  1
  Bi  Bi20  1  0.065384  0.511079  0.170081  1
  Bi  Bi21  1  0.434491  0.488876  0.670045  1
  Bi  Bi22  1  0.565431  0.988870  0.329943  1
  Bi  Bi23  1  0.934553  0.011080  0.829963  1
  Bi  Bi24  1  0.934760  0.488943  0.829893  1
  Bi  Bi25  1  0.565418  0.511140  0.329983  1
  Bi  Bi26  1  0.434741  0.011160  0.670082  1
  Bi  Bi27  1  0.065428  0.988890  0.170068  1
  Bi  Bi28  1  0.897936  0.749968  0.532896  1
  Bi  Bi29  1  0.602130  0.250007  0.032795  1
  Bi  Bi30  1  0.397954  0.749996  0.967193  1
  Bi  Bi31  1  0.102044  0.249997  0.467081  1
