# generated using pymatgen
data_Dy7Ho2Tm3Ga20
_symmetry_space_group_name_H-M   'P 1'
_cell_length_a   6.08824502
_cell_length_b   9.60065702
_cell_length_c   11.54707501
_cell_angle_alpha   90.00264163
_cell_angle_beta   89.99457950
_cell_angle_gamma   89.99239491
_symmetry_Int_Tables_number   1
_chemical_formula_structural   Dy7Ho2Tm3Ga20
_chemical_formula_sum   'Dy7 Ho2 Tm3 Ga20'
_cell_volume   674.93983089
_cell_formula_units_Z   1
loop_
 _symmetry_equiv_pos_site_id
 _symmetry_equiv_pos_as_xyz
  1  'x, y, z'
loop_
 _atom_site_type_symbol
 _atom_site_label
 _atom_site_symmetry_multiplicity
 _atom_site_fract_x
 _atom_site_fract_y
 _atom_site_fract_z
 _atom_site_occupancy
  Dy  Dy0  1  0.890895  0.509695  0.351614  1
  Dy  Dy1  1  0.609036  0.990489  0.851211  1
  Dy  Dy2  1  0.109231  0.010048  0.648452  1
  Dy  Dy3  1  0.390531  0.490124  0.148287  1
  Dy  Dy4  1  0.109192  0.489960  0.648545  1
  Dy  Dy5  1  0.390527  0.009890  0.148435  1
  Dy  Dy6  1  0.890922  0.990350  0.351626  1
  Ho  Ho7  1  0.848734  0.749927  0.074447  1
  Ho  Ho8  1  0.608945  0.509497  0.851192  1
  Tm  Tm9  1  0.651386  0.749984  0.574284  1
  Tm  Tm10  1  0.151542  0.249995  0.925501  1
  Tm  Tm11  1  0.348727  0.250015  0.425607  1
  Ga  Ga12  1  0.875348  0.053614  0.089924  1
  Ga  Ga13  1  0.624374  0.447186  0.590022  1
  Ga  Ga14  1  0.124718  0.552442  0.909815  1
  Ga  Ga15  1  0.375679  0.947348  0.410376  1
  Ga  Ga16  1  0.124401  0.947415  0.909872  1
  Ga  Ga17  1  0.375665  0.552641  0.410373  1
  Ga  Ga18  1  0.875359  0.446417  0.089843  1
  Ga  Ga19  1  0.624369  0.052911  0.589741  1
  Ga  Ga20  1  0.172484  0.750002  0.251937  1
  Ga  Ga21  1  0.329204  0.749806  0.751379  1
  Ga  Ga22  1  0.828749  0.250261  0.748624  1
  Ga  Ga23  1  0.671053  0.250031  0.248422  1
  Ga  Ga24  1  0.372078  0.749914  0.004169  1
  Ga  Ga25  1  0.126914  0.750001  0.504947  1
  Ga  Ga26  1  0.626167  0.250280  0.995048  1
  Ga  Ga27  1  0.873279  0.250037  0.495423  1
  Ga  Ga28  1  0.602262  0.750010  0.300263  1
  Ga  Ga29  1  0.897648  0.749669  0.798877  1
  Ga  Ga30  1  0.398014  0.250032  0.700836  1
  Ga  Ga31  1  0.102569  0.250007  0.200909  1
