# generated using pymatgen
data_KRbLi6Si24(SnO15)4
_symmetry_space_group_name_H-M   'P 1'
_cell_length_a   10.15712100
_cell_length_b   10.15712178
_cell_length_c   14.51307200
_cell_angle_alpha   90.00000000
_cell_angle_beta   90.00000000
_cell_angle_gamma   119.99999422
_symmetry_Int_Tables_number   1
_chemical_formula_structural   KRbLi6Si24(SnO15)4
_chemical_formula_sum   'K1 Rb1 Li6 Si24 Sn4 O60'
_cell_volume   1296.67546168
_cell_formula_units_Z   1
loop_
 _symmetry_equiv_pos_site_id
 _symmetry_equiv_pos_as_xyz
  1  'x, y, z'
loop_
 _atom_site_type_symbol
 _atom_site_label
 _atom_site_symmetry_multiplicity
 _atom_site_fract_x
 _atom_site_fract_y
 _atom_site_fract_z
 _atom_site_occupancy
  K  K0  1  0.000000  0.000000  0.750000  1
  Rb  Rb1  1  0.000000  0.000000  0.250000  1
  Li  Li2  1  0.500000  0.500000  0.250000  1
  Li  Li3  1  0.500000  0.000000  0.750000  1
  Li  Li4  1  0.000000  0.500000  0.750000  1
  Li  Li5  1  0.500000  0.500000  0.750000  1
  Li  Li6  1  0.500000  0.000000  0.250000  1
  Li  Li7  1  0.000000  0.500000  0.250000  1
  Si  Si8  1  0.762119  0.118289  0.891254  1
  Si  Si9  1  0.881711  0.643829  0.891254  1
  Si  Si10  1  0.356171  0.237881  0.891254  1
  Si  Si11  1  0.643829  0.762119  0.891254  1
  Si  Si12  1  0.237881  0.356171  0.608746  1
  Si  Si13  1  0.237881  0.881711  0.891254  1
  Si  Si14  1  0.118289  0.356171  0.891254  1
  Si  Si15  1  0.881711  0.237881  0.608746  1
  Si  Si16  1  0.356171  0.118289  0.608746  1
  Si  Si17  1  0.643829  0.881711  0.608746  1
  Si  Si18  1  0.118289  0.762119  0.608746  1
  Si  Si19  1  0.762119  0.643829  0.608746  1
  Si  Si20  1  0.237940  0.881682  0.108693  1
  Si  Si21  1  0.118318  0.356258  0.108693  1
  Si  Si22  1  0.643742  0.762060  0.108693  1
  Si  Si23  1  0.237940  0.356258  0.391307  1
  Si  Si24  1  0.762060  0.643742  0.391307  1
  Si  Si25  1  0.762060  0.118318  0.108693  1
  Si  Si26  1  0.881682  0.643742  0.108693  1
  Si  Si27  1  0.118318  0.762060  0.391307  1
  Si  Si28  1  0.643742  0.881682  0.391307  1
  Si  Si29  1  0.356258  0.118318  0.391307  1
  Si  Si30  1  0.881682  0.237940  0.391307  1
  Si  Si31  1  0.356258  0.237940  0.108693  1
  Sn  Sn32  1  0.333333  0.666667  0.250000  1
  Sn  Sn33  1  0.666667  0.333333  0.250000  1
  Sn  Sn34  1  0.666667  0.333333  0.750000  1
  Sn  Sn35  1  0.333333  0.666667  0.750000  1
  O  O36  1  0.222530  0.278966  0.132547  1
  O  O37  1  0.157480  0.656231  0.672873  1
  O  O38  1  0.157480  0.501249  0.827127  1
  O  O39  1  0.498751  0.842520  0.672873  1
  O  O40  1  0.501249  0.157480  0.672873  1
  O  O41  1  0.656231  0.498751  0.672873  1
  O  O42  1  0.343769  0.501249  0.672873  1
  O  O43  1  0.656231  0.157480  0.827127  1
  O  O44  1  0.501249  0.343769  0.827127  1
  O  O45  1  0.498751  0.656231  0.827127  1
  O  O46  1  0.343769  0.842520  0.827127  1
  O  O47  1  0.842520  0.498751  0.827127  1
  O  O48  1  0.157480  0.656236  0.327119  1
  O  O49  1  0.343764  0.501243  0.327119  1
  O  O50  1  0.498757  0.842520  0.327119  1
  O  O51  1  0.501243  0.157480  0.327119  1
  O  O52  1  0.842520  0.498757  0.172881  1
  O  O53  1  0.842520  0.343764  0.327119  1
  O  O54  1  0.656236  0.498757  0.327119  1
  O  O55  1  0.343764  0.842520  0.172881  1
  O  O56  1  0.498757  0.656236  0.172881  1
  O  O57  1  0.501243  0.343764  0.172881  1
  O  O58  1  0.656236  0.157480  0.172881  1
  O  O59  1  0.056355  0.278574  0.632722  1
  O  O60  1  0.777781  0.056355  0.632722  1
  O  O61  1  0.943645  0.721426  0.632722  1
  O  O62  1  0.278574  0.222219  0.632722  1
  O  O63  1  0.721426  0.777781  0.632722  1
  O  O64  1  0.222219  0.278574  0.867278  1
  O  O65  1  0.222219  0.943645  0.632722  1
  O  O66  1  0.133308  0.400554  0.999982  1
  O  O67  1  0.732754  0.133308  0.999982  1
  O  O68  1  0.400554  0.267246  0.999982  1
  O  O69  1  0.599446  0.732754  0.999982  1
  O  O70  1  0.267246  0.866692  0.999982  1
  O  O71  1  0.732754  0.599446  0.500018  1
  O  O72  1  0.866692  0.267246  0.500018  1
  O  O73  1  0.866692  0.599446  0.999982  1
  O  O74  1  0.400554  0.133308  0.500018  1
  O  O75  1  0.599446  0.866692  0.500018  1
  O  O76  1  0.267246  0.400554  0.500018  1
  O  O77  1  0.133308  0.732754  0.500018  1
  O  O78  1  0.842520  0.343769  0.672873  1
  O  O79  1  0.943564  0.222530  0.132547  1
  O  O80  1  0.278966  0.056436  0.132547  1
  O  O81  1  0.721034  0.943564  0.132547  1
  O  O82  1  0.056436  0.777470  0.132547  1
  O  O83  1  0.943564  0.721034  0.367453  1
  O  O84  1  0.777470  0.056436  0.367453  1
  O  O85  1  0.777470  0.721034  0.132547  1
  O  O86  1  0.278966  0.222530  0.367453  1
  O  O87  1  0.721034  0.777470  0.367453  1
  O  O88  1  0.056436  0.278966  0.367453  1
  O  O89  1  0.222530  0.943564  0.367453  1
  O  O90  1  0.777781  0.721426  0.867278  1
  O  O91  1  0.056355  0.777781  0.867278  1
  O  O92  1  0.721426  0.943645  0.867278  1
  O  O93  1  0.278574  0.056355  0.867278  1
  O  O94  1  0.943645  0.222219  0.867278  1
  O  O95  1  0.157480  0.501243  0.172881  1
