# generated using pymatgen
data_Rb3TcO4
_symmetry_space_group_name_H-M   'P 1'
_cell_length_a   6.66892400
_cell_length_b   8.88445900
_cell_length_c   12.30227100
_cell_angle_alpha   90.00000000
_cell_angle_beta   90.00000000
_cell_angle_gamma   90.00000000
_symmetry_Int_Tables_number   1
_chemical_formula_structural   Rb3TcO4
_chemical_formula_sum   'Rb12 Tc4 O16'
_cell_volume   728.90687304
_cell_formula_units_Z   4
loop_
 _symmetry_equiv_pos_site_id
 _symmetry_equiv_pos_as_xyz
  1  'x, y, z'
loop_
 _atom_site_type_symbol
 _atom_site_label
 _atom_site_symmetry_multiplicity
 _atom_site_fract_x
 _atom_site_fract_y
 _atom_site_fract_z
 _atom_site_occupancy
  Rb  Rb0  1  0.143271  0.250000  0.072146  1
  Rb  Rb1  1  0.696031  0.489808  0.145181  1
  Rb  Rb2  1  0.856729  0.750000  0.927854  1
  Rb  Rb3  1  0.196031  0.510192  0.354819  1
  Rb  Rb4  1  0.696031  0.010192  0.145181  1
  Rb  Rb5  1  0.196031  0.989808  0.354819  1
  Rb  Rb6  1  0.643271  0.750000  0.427854  1
  Rb  Rb7  1  0.303969  0.989808  0.854819  1
  Rb  Rb8  1  0.303969  0.510192  0.854819  1
  Rb  Rb9  1  0.803969  0.010192  0.645181  1
  Rb  Rb10  1  0.803969  0.489808  0.645181  1
  Rb  Rb11  1  0.356729  0.250000  0.572146  1
  Tc  Tc12  1  0.773358  0.250000  0.386236  1
  Tc  Tc13  1  0.273358  0.750000  0.113764  1
  Tc  Tc14  1  0.226642  0.750000  0.613764  1
  Tc  Tc15  1  0.726642  0.250000  0.886236  1
  O  O16  1  0.382975  0.578613  0.610707  1
  O  O17  1  0.428202  0.750000  0.240190  1
  O  O18  1  0.882975  0.421387  0.889293  1
  O  O19  1  0.117025  0.921387  0.110707  1
  O  O20  1  0.882975  0.078613  0.889293  1
  O  O21  1  0.540025  0.250000  0.999633  1
  O  O22  1  0.040025  0.750000  0.500367  1
  O  O23  1  0.959975  0.250000  0.499633  1
  O  O24  1  0.617025  0.078613  0.389293  1
  O  O25  1  0.382975  0.921387  0.610707  1
  O  O26  1  0.459975  0.750000  0.000367  1
  O  O27  1  0.617025  0.421387  0.389293  1
  O  O28  1  0.071798  0.750000  0.740190  1
  O  O29  1  0.928202  0.250000  0.259810  1
  O  O30  1  0.571798  0.250000  0.759810  1
  O  O31  1  0.117025  0.578613  0.110707  1
