# generated using pymatgen
data_CsScNiF6
_symmetry_space_group_name_H-M   'P 1'
_cell_length_a   7.57961841
_cell_length_b   7.57961720
_cell_length_c   7.57961853
_cell_angle_alpha   120.82604104
_cell_angle_beta   118.96560636
_cell_angle_gamma   90.18805884
_symmetry_Int_Tables_number   1
_chemical_formula_structural   CsScNiF6
_chemical_formula_sum   'Cs2 Sc2 Ni2 F12'
_cell_volume   308.29409306
_cell_formula_units_Z   2
loop_
 _symmetry_equiv_pos_site_id
 _symmetry_equiv_pos_as_xyz
  1  'x, y, z'
loop_
 _atom_site_type_symbol
 _atom_site_label
 _atom_site_symmetry_multiplicity
 _atom_site_fract_x
 _atom_site_fract_y
 _atom_site_fract_z
 _atom_site_occupancy
  Cs  Cs0  1  0.362020  0.612020  0.750000  1
  Cs  Cs1  1  0.637980  0.387980  0.250000  1
  Sc  Sc2  1  0.000000  0.000000  0.000000  1
  Sc  Sc3  1  0.500000  0.000000  0.500000  1
  Ni  Ni4  1  0.000000  0.000000  0.500000  1
  Ni  Ni5  1  0.000000  0.500000  0.000000  1
  F  F6  1  0.320105  0.070105  0.250000  1
  F  F7  1  0.932857  0.682857  0.250000  1
  F  F8  1  0.318676  0.682174  0.247011  1
  F  F9  1  0.935163  0.071665  0.252989  1
  F  F10  1  0.318676  0.071665  0.636502  1
  F  F11  1  0.935163  0.682174  0.863498  1
  F  F12  1  0.679895  0.929895  0.750000  1
  F  F13  1  0.067143  0.317143  0.750000  1
  F  F14  1  0.681324  0.317826  0.752989  1
  F  F15  1  0.064837  0.928335  0.747011  1
  F  F16  1  0.681324  0.928335  0.363498  1
  F  F17  1  0.064837  0.317826  0.136502  1
