# generated using pymatgen
data_Y2B6IrRh8
_symmetry_space_group_name_H-M   'P 1'
_cell_length_a   5.61585634
_cell_length_b   5.60375819
_cell_length_c   8.58385200
_cell_angle_alpha   90.00000000
_cell_angle_beta   90.00000000
_cell_angle_gamma   119.92875482
_symmetry_Int_Tables_number   1
_chemical_formula_structural   Y2B6IrRh8
_chemical_formula_sum   'Y2 B6 Ir1 Rh8'
_cell_volume   234.10978559
_cell_formula_units_Z   1
loop_
 _symmetry_equiv_pos_site_id
 _symmetry_equiv_pos_as_xyz
  1  'x, y, z'
loop_
 _atom_site_type_symbol
 _atom_site_label
 _atom_site_symmetry_multiplicity
 _atom_site_fract_x
 _atom_site_fract_y
 _atom_site_fract_z
 _atom_site_occupancy
  Y  Y0  1  0.000000  0.000000  0.705731  1
  Y  Y1  1  0.000000  0.000000  0.294269  1
  B  B2  1  0.666865  0.333432  0.000000  1
  B  B3  1  0.333135  0.666568  0.000000  1
  B  B4  1  0.667667  0.333833  0.667826  1
  B  B5  1  0.332333  0.666167  0.667826  1
  B  B6  1  0.332333  0.666167  0.332174  1
  B  B7  1  0.667667  0.333833  0.332174  1
  Ir  Ir8  1  0.000000  0.500000  0.500000  1
  Rh  Rh9  1  0.500000  0.500000  0.835802  1
  Rh  Rh10  1  0.500000  0.000000  0.835802  1
  Rh  Rh11  1  0.000000  0.500000  0.836299  1
  Rh  Rh12  1  0.500000  0.500000  0.164198  1
  Rh  Rh13  1  0.500000  0.000000  0.164198  1
  Rh  Rh14  1  0.000000  0.500000  0.163701  1
  Rh  Rh15  1  0.500000  0.500000  0.500000  1
  Rh  Rh16  1  0.500000  0.000000  0.500000  1
