# generated using pymatgen
data_CsMo2Cl9
_symmetry_space_group_name_H-M   'P 1'
_cell_length_a   6.72193200
_cell_length_b   9.55726884
_cell_length_c   12.44484000
_cell_angle_alpha   62.94610827
_cell_angle_beta   90.00000000
_cell_angle_gamma   90.00000000
_symmetry_Int_Tables_number   1
_chemical_formula_structural   CsMo2Cl9
_chemical_formula_sum   'Cs2 Mo4 Cl18'
_cell_volume   712.01597831
_cell_formula_units_Z   2
loop_
 _symmetry_equiv_pos_site_id
 _symmetry_equiv_pos_as_xyz
  1  'x, y, z'
loop_
 _atom_site_type_symbol
 _atom_site_label
 _atom_site_symmetry_multiplicity
 _atom_site_fract_x
 _atom_site_fract_y
 _atom_site_fract_z
 _atom_site_occupancy
  Cs  Cs0  1  0.588724  0.500000  0.750000  1
  Cs  Cs1  1  0.411276  0.500000  0.250000  1
  Mo  Mo2  1  0.254898  0.858203  0.843616  1
  Mo  Mo3  1  0.745102  0.141797  0.156384  1
  Mo  Mo4  1  0.254898  0.141797  0.656384  1
  Mo  Mo5  1  0.745102  0.858203  0.343616  1
  Cl  Cl6  1  0.110748  0.801504  0.028333  1
  Cl  Cl7  1  0.889252  0.198496  0.971667  1
  Cl  Cl8  1  0.110748  0.198496  0.471667  1
  Cl  Cl9  1  0.889252  0.801504  0.528333  1
  Cl  Cl10  1  0.117374  0.636171  0.839715  1
  Cl  Cl11  1  0.882626  0.363829  0.160285  1
  Cl  Cl12  1  0.117374  0.363829  0.660285  1
  Cl  Cl13  1  0.882626  0.636171  0.339715  1
  Cl  Cl14  1  0.948399  0.000000  0.750000  1
  Cl  Cl15  1  0.051601  0.000000  0.250000  1
  Cl  Cl16  1  0.415611  0.086344  0.850086  1
  Cl  Cl17  1  0.584389  0.913656  0.149914  1
  Cl  Cl18  1  0.415611  0.913656  0.649914  1
  Cl  Cl19  1  0.584389  0.086344  0.350086  1
  Cl  Cl20  1  0.545496  0.718191  0.936436  1
  Cl  Cl21  1  0.454504  0.281809  0.063564  1
  Cl  Cl22  1  0.545496  0.281809  0.563564  1
  Cl  Cl23  1  0.454504  0.718191  0.436436  1
