# generated using pymatgen
data_K3CeB24
_symmetry_space_group_name_H-M   'P 1'
_cell_length_a   4.21821300
_cell_length_b   4.21821300
_cell_length_c   16.92519900
_cell_angle_alpha   90.00000000
_cell_angle_beta   90.00000000
_cell_angle_gamma   90.00000000
_symmetry_Int_Tables_number   1
_chemical_formula_structural   K3CeB24
_chemical_formula_sum   'K3 Ce1 B24'
_cell_volume   301.15549733
_cell_formula_units_Z   1
loop_
 _symmetry_equiv_pos_site_id
 _symmetry_equiv_pos_as_xyz
  1  'x, y, z'
loop_
 _atom_site_type_symbol
 _atom_site_label
 _atom_site_symmetry_multiplicity
 _atom_site_fract_x
 _atom_site_fract_y
 _atom_site_fract_z
 _atom_site_occupancy
  K  K0  1  0.000000  0.000000  0.250889  1
  K  K1  1  0.000000  0.000000  0.500000  1
  K  K2  1  0.000000  0.000000  0.749111  1
  Ce  Ce3  1  0.000000  0.000000  0.000000  1
  B  B4  1  0.202175  0.500000  0.121867  1
  B  B5  1  0.199136  0.500000  0.374012  1
  B  B6  1  0.199136  0.500000  0.625988  1
  B  B7  1  0.202175  0.500000  0.878133  1
  B  B8  1  0.500000  0.500000  0.197724  1
  B  B9  1  0.500000  0.500000  0.449789  1
  B  B10  1  0.500000  0.500000  0.700854  1
  B  B11  1  0.500000  0.500000  0.951098  1
  B  B12  1  0.500000  0.202175  0.121867  1
  B  B13  1  0.500000  0.199136  0.374012  1
  B  B14  1  0.500000  0.199136  0.625988  1
  B  B15  1  0.500000  0.202175  0.878133  1
  B  B16  1  0.500000  0.500000  0.048902  1
  B  B17  1  0.500000  0.500000  0.299146  1
  B  B18  1  0.500000  0.500000  0.550211  1
  B  B19  1  0.500000  0.500000  0.802276  1
  B  B20  1  0.500000  0.797825  0.121867  1
  B  B21  1  0.500000  0.800864  0.374012  1
  B  B22  1  0.500000  0.800864  0.625988  1
  B  B23  1  0.500000  0.797825  0.878133  1
  B  B24  1  0.797825  0.500000  0.121867  1
  B  B25  1  0.800864  0.500000  0.374012  1
  B  B26  1  0.800864  0.500000  0.625988  1
  B  B27  1  0.797825  0.500000  0.878133  1
