# generated using pymatgen
data_AlBr37
_symmetry_space_group_name_H-M   'P 1'
_cell_length_a   14.20848141
_cell_length_b   15.29732181
_cell_length_c   14.42416200
_cell_angle_alpha   103.00376457
_cell_angle_beta   48.80056783
_cell_angle_gamma   81.50743146
_symmetry_Int_Tables_number   1
_chemical_formula_structural   AlBr37
_chemical_formula_sum   'Al1 Br37'
_cell_volume   2102.91272627
_cell_formula_units_Z   1
loop_
 _symmetry_equiv_pos_site_id
 _symmetry_equiv_pos_as_xyz
  1  'x, y, z'
loop_
 _atom_site_type_symbol
 _atom_site_label
 _atom_site_symmetry_multiplicity
 _atom_site_fract_x
 _atom_site_fract_y
 _atom_site_fract_z
 _atom_site_occupancy
  Al  Al0  1  0.500000  0.000000  0.000000  1
  Br  Br1  1  0.788417  0.300217  0.135258  1
  Br  Br2  1  0.211583  0.699783  0.864742  1
  Br  Br3  1  0.742088  0.083830  0.363547  1
  Br  Br4  1  0.257912  0.916170  0.636453  1
  Br  Br5  1  0.120393  0.351327  0.169017  1
  Br  Br6  1  0.879607  0.648673  0.830983  1
  Br  Br7  1  0.863056  0.530714  0.247523  1
  Br  Br8  1  0.136944  0.469286  0.752477  1
  Br  Br9  1  0.683475  0.275499  0.523666  1
  Br  Br10  1  0.316525  0.724501  0.476334  1
  Br  Br11  1  0.031013  0.141506  0.506809  1
  Br  Br12  1  0.968987  0.858494  0.493191  1
  Br  Br13  1  0.976550  0.010346  0.285982  1
  Br  Br14  1  0.023450  0.989654  0.714018  1
  Br  Br15  1  0.940701  0.336881  0.611983  1
  Br  Br16  1  0.059299  0.663119  0.388017  1
  Br  Br17  1  0.579841  0.429382  0.233309  1
  Br  Br18  1  0.420159  0.570618  0.766691  1
  Br  Br19  1  0.170664  0.481510  0.285294  1
  Br  Br20  1  0.829336  0.518490  0.714706  1
  Br  Br21  1  0.000000  0.500000  0.000000  1
  Br  Br22  1  0.557994  0.969613  0.128995  1
  Br  Br23  1  0.442006  0.030387  0.871005  1
  Br  Br24  1  0.291778  0.058557  0.315636  1
  Br  Br25  1  0.708222  0.941443  0.684364  1
  Br  Br26  1  0.529055  0.131414  0.413908  1
  Br  Br27  1  0.470945  0.868586  0.586092  1
  Br  Br28  1  0.097546  0.219307  0.067265  1
  Br  Br29  1  0.902454  0.780693  0.932735  1
  Br  Br30  1  0.663541  0.692148  0.403659  1
  Br  Br31  1  0.336459  0.307852  0.596341  1
  Br  Br32  1  0.900762  0.146149  0.921559  1
  Br  Br33  1  0.099238  0.853851  0.078441  1
  Br  Br34  1  0.505933  0.152223  0.042845  1
  Br  Br35  1  0.494067  0.847777  0.957155  1
  Br  Br36  1  0.649802  0.429749  0.651336  1
  Br  Br37  1  0.350198  0.570251  0.348664  1
