# generated using pymatgen
data_Ce2NdAl9Si3Os4
_symmetry_space_group_name_H-M   'P 1'
_cell_length_a   8.77392800
_cell_length_b   8.74841543
_cell_length_c   9.51219200
_cell_angle_alpha   90.00000000
_cell_angle_beta   90.00000000
_cell_angle_gamma   120.02502191
_symmetry_Int_Tables_number   1
_chemical_formula_structural   Ce2NdAl9Si3Os4
_chemical_formula_sum   'Ce4 Nd2 Al18 Si6 Os8'
_cell_volume   632.15728390
_cell_formula_units_Z   2
loop_
 _symmetry_equiv_pos_site_id
 _symmetry_equiv_pos_as_xyz
  1  'x, y, z'
loop_
 _atom_site_type_symbol
 _atom_site_label
 _atom_site_symmetry_multiplicity
 _atom_site_fract_x
 _atom_site_fract_y
 _atom_site_fract_z
 _atom_site_occupancy
  Ce  Ce0  1  0.191911  0.383311  0.250000  1
  Ce  Ce1  1  0.808089  0.616689  0.750000  1
  Ce  Ce2  1  0.613717  0.808357  0.250000  1
  Ce  Ce3  1  0.386283  0.191643  0.750000  1
  Nd  Nd4  1  0.194439  0.809234  0.250000  1
  Nd  Nd5  1  0.805561  0.190766  0.750000  1
  Al  Al6  1  0.164666  0.328712  0.577312  1
  Al  Al7  1  0.835334  0.671288  0.422688  1
  Al  Al8  1  0.671865  0.835113  0.575285  1
  Al  Al9  1  0.835334  0.671288  0.077312  1
  Al  Al10  1  0.328135  0.164887  0.424715  1
  Al  Al11  1  0.164666  0.328712  0.922688  1
  Al  Al12  1  0.162970  0.835512  0.577342  1
  Al  Al13  1  0.328135  0.164887  0.075285  1
  Al  Al14  1  0.837030  0.164488  0.422658  1
  Al  Al15  1  0.671865  0.835113  0.924715  1
  Al  Al16  1  0.837030  0.164488  0.077342  1
  Al  Al17  1  0.162970  0.835512  0.922658  1
  Al  Al18  1  0.870656  0.431380  0.250000  1
  Al  Al19  1  0.129344  0.568620  0.750000  1
  Al  Al20  1  0.561448  0.431575  0.250000  1
  Al  Al21  1  0.438552  0.568425  0.750000  1
  Al  Al22  1  0.997819  0.999711  0.250000  1
  Al  Al23  1  0.002181  0.000289  0.750000  1
  Si  Si24  1  0.331540  0.664214  0.034734  1
  Si  Si25  1  0.668460  0.335786  0.965266  1
  Si  Si26  1  0.668460  0.335786  0.534734  1
  Si  Si27  1  0.331540  0.664214  0.465266  1
  Si  Si28  1  0.564318  0.127143  0.250000  1
  Si  Si29  1  0.435682  0.872857  0.750000  1
  Os  Os30  1  0.500000  0.000000  0.000000  1
  Os  Os31  1  0.000000  0.500000  0.000000  1
  Os  Os32  1  0.500000  0.000000  0.500000  1
  Os  Os33  1  0.500000  0.500000  0.000000  1
  Os  Os34  1  0.000000  0.500000  0.500000  1
  Os  Os35  1  0.500000  0.500000  0.500000  1
  Os  Os36  1  0.000000  0.000000  0.000000  1
  Os  Os37  1  0.000000  0.000000  0.500000  1
