# generated using pymatgen
data_La3Co(As3Rh4)2
_symmetry_space_group_name_H-M   'P 1'
_cell_length_a   4.03865600
_cell_length_b   11.62565200
_cell_length_c   13.51168000
_cell_angle_alpha   90.00000000
_cell_angle_beta   90.00000000
_cell_angle_gamma   90.00000000
_symmetry_Int_Tables_number   1
_chemical_formula_structural   La3Co(As3Rh4)2
_chemical_formula_sum   'La6 Co2 As12 Rh16'
_cell_volume   634.40052372
_cell_formula_units_Z   2
loop_
 _symmetry_equiv_pos_site_id
 _symmetry_equiv_pos_as_xyz
  1  'x, y, z'
loop_
 _atom_site_type_symbol
 _atom_site_label
 _atom_site_symmetry_multiplicity
 _atom_site_fract_x
 _atom_site_fract_y
 _atom_site_fract_z
 _atom_site_occupancy
  La  La0  1  0.000000  0.500000  0.520549  1
  La  La1  1  0.500000  0.000000  0.479451  1
  La  La2  1  0.500000  0.815683  0.202234  1
  La  La3  1  0.500000  0.184317  0.202234  1
  La  La4  1  0.000000  0.684317  0.797766  1
  La  La5  1  0.000000  0.315683  0.797766  1
  Co  Co6  1  0.000000  0.500000  0.983001  1
  Co  Co7  1  0.500000  0.000000  0.016999  1
  As  As8  1  0.500000  0.500000  0.885688  1
  As  As9  1  0.000000  0.000000  0.114312  1
  As  As10  1  0.500000  0.500000  0.346564  1
  As  As11  1  0.000000  0.000000  0.653436  1
  As  As12  1  0.500000  0.312839  0.617817  1
  As  As13  1  0.500000  0.687161  0.617817  1
  As  As14  1  0.000000  0.187161  0.382183  1
  As  As15  1  0.000000  0.812839  0.382183  1
  As  As16  1  0.500000  0.854621  0.895401  1
  As  As17  1  0.500000  0.145379  0.895401  1
  As  As18  1  0.000000  0.645379  0.104599  1
  As  As19  1  0.000000  0.354621  0.104599  1
  Rh  Rh20  1  0.500000  0.500000  0.164989  1
  Rh  Rh21  1  0.000000  0.000000  0.835011  1
  Rh  Rh22  1  0.500000  0.500000  0.703971  1
  Rh  Rh23  1  0.000000  0.000000  0.296029  1
  Rh  Rh24  1  0.500000  0.335986  0.996733  1
  Rh  Rh25  1  0.500000  0.664014  0.996733  1
  Rh  Rh26  1  0.000000  0.164014  0.003267  1
  Rh  Rh27  1  0.000000  0.835986  0.003267  1
  Rh  Rh28  1  0.500000  0.295031  0.430410  1
  Rh  Rh29  1  0.500000  0.704969  0.430410  1
  Rh  Rh30  1  0.000000  0.204969  0.569590  1
  Rh  Rh31  1  0.000000  0.795031  0.569590  1
  Rh  Rh32  1  0.500000  0.876867  0.710054  1
  Rh  Rh33  1  0.500000  0.123133  0.710054  1
  Rh  Rh34  1  0.000000  0.623133  0.289946  1
  Rh  Rh35  1  0.000000  0.376867  0.289946  1
