# generated using pymatgen
data_Ba2Li4ThSb4
_symmetry_space_group_name_H-M   'P 1'
_cell_length_a   9.20457432
_cell_length_b   9.20457439
_cell_length_c   9.20457455
_cell_angle_alpha   150.34936504
_cell_angle_beta   126.48722829
_cell_angle_gamma   62.37377123
_symmetry_Int_Tables_number   1
_chemical_formula_structural   Ba2Li4ThSb4
_chemical_formula_sum   'Ba2 Li4 Th1 Sb4'
_cell_volume   307.40456698
_cell_formula_units_Z   1
loop_
 _symmetry_equiv_pos_site_id
 _symmetry_equiv_pos_as_xyz
  1  'x, y, z'
loop_
 _atom_site_type_symbol
 _atom_site_label
 _atom_site_symmetry_multiplicity
 _atom_site_fract_x
 _atom_site_fract_y
 _atom_site_fract_z
 _atom_site_occupancy
  Ba  Ba0  1  0.620572  0.120572  0.500000  1
  Ba  Ba1  1  0.379428  0.879428  0.500000  1
  Li  Li2  1  0.993871  0.673257  0.320614  1
  Li  Li3  1  0.006129  0.326743  0.679386  1
  Li  Li4  1  0.647357  0.326743  0.320614  1
  Li  Li5  1  0.352643  0.673257  0.679386  1
  Th  Th6  1  0.000000  0.000000  0.000000  1
  Sb  Sb7  1  0.790290  0.790290  0.000000  1
  Sb  Sb8  1  0.209710  0.209710  0.000000  1
  Sb  Sb9  1  0.741199  0.500000  0.241199  1
  Sb  Sb10  1  0.258801  0.500000  0.758801  1
