# generated using pymatgen
data_NaDy3Hg4
_symmetry_space_group_name_H-M   'P 1'
_cell_length_a   6.39695560
_cell_length_b   6.39695529
_cell_length_c   5.23976600
_cell_angle_alpha   90.00000000
_cell_angle_beta   90.00000000
_cell_angle_gamma   71.20889367
_symmetry_Int_Tables_number   1
_chemical_formula_structural   NaDy3Hg4
_chemical_formula_sum   'Na1 Dy3 Hg4'
_cell_volume   202.98810406
_cell_formula_units_Z   1
loop_
 _symmetry_equiv_pos_site_id
 _symmetry_equiv_pos_as_xyz
  1  'x, y, z'
loop_
 _atom_site_type_symbol
 _atom_site_label
 _atom_site_symmetry_multiplicity
 _atom_site_fract_x
 _atom_site_fract_y
 _atom_site_fract_z
 _atom_site_occupancy
  Na  Na0  1  0.871252  0.871252  0.249998  1
  Dy  Dy1  1  0.640050  0.640050  0.749999  1
  Dy  Dy2  1  0.373267  0.373267  0.249998  1
  Dy  Dy3  1  0.117027  0.117027  0.749999  1
  Hg  Hg4  1  0.871374  0.366922  0.249998  1
  Hg  Hg5  1  0.145925  0.614185  0.749999  1
  Hg  Hg6  1  0.614185  0.145925  0.749999  1
  Hg  Hg7  1  0.366922  0.871374  0.249998  1
