# generated using pymatgen
data_Tb3ErTc4F28
_symmetry_space_group_name_H-M   'P 1'
_cell_length_a   5.61068242
_cell_length_b   8.93074459
_cell_length_c   12.04907469
_cell_angle_alpha   62.57125293
_cell_angle_beta   89.97096962
_cell_angle_gamma   90.00253593
_symmetry_Int_Tables_number   1
_chemical_formula_structural   Tb3ErTc4F28
_chemical_formula_sum   'Tb3 Er1 Tc4 F28'
_cell_volume   535.87885991
_cell_formula_units_Z   1
loop_
 _symmetry_equiv_pos_site_id
 _symmetry_equiv_pos_as_xyz
  1  'x, y, z'
loop_
 _atom_site_type_symbol
 _atom_site_label
 _atom_site_symmetry_multiplicity
 _atom_site_fract_x
 _atom_site_fract_y
 _atom_site_fract_z
 _atom_site_occupancy
  Tb  Tb0  1  0.759514  0.812853  0.764680  1
  Tb  Tb1  1  0.259317  0.186738  0.735167  1
  Tb  Tb2  1  0.241116  0.185346  0.235262  1
  Er  Er3  1  0.740198  0.813107  0.264656  1
  Tc  Tc4  1  0.757278  0.271737  0.957644  1
  Tc  Tc5  1  0.258158  0.727030  0.541615  1
  Tc  Tc6  1  0.241284  0.727203  0.044774  1
  Tc  Tc7  1  0.742189  0.274842  0.455992  1
  F  F8  1  0.445738  0.707615  0.920333  1
  F  F9  1  0.945092  0.293510  0.581221  1
  F  F10  1  0.554872  0.292553  0.082215  1
  F  F11  1  0.053389  0.707299  0.417424  1
  F  F12  1  0.449569  0.279013  0.545396  1
  F  F13  1  0.950657  0.722096  0.954360  1
  F  F14  1  0.551073  0.722873  0.451600  1
  F  F15  1  0.050410  0.277241  0.046230  1
  F  F16  1  0.772326  0.518923  0.860313  1
  F  F17  1  0.273867  0.480319  0.639410  1
  F  F18  1  0.226829  0.480215  0.141197  1
  F  F19  1  0.728612  0.522397  0.358815  1
  F  F20  1  0.755695  0.025574  0.053914  1
  F  F21  1  0.256276  0.973266  0.446575  1
  F  F22  1  0.242836  0.973219  0.948013  1
  F  F23  1  0.743643  0.028651  0.552103  1
  F  F24  1  0.977232  0.728578  0.638384  1
  F  F25  1  0.475116  0.270861  0.861647  1
  F  F26  1  0.023579  0.271118  0.360374  1
  F  F27  1  0.521374  0.729971  0.141998  1
  F  F28  1  0.039680  0.747236  0.172076  1
  F  F29  1  0.544844  0.255050  0.327863  1
  F  F30  1  0.953997  0.253149  0.828732  1
  F  F31  1  0.456339  0.746075  0.670112  1
  F  F32  1  0.422775  0.969534  0.232522  1
  F  F33  1  0.917993  0.025241  0.267630  1
  F  F34  1  0.583412  0.029533  0.768152  1
  F  F35  1  0.083718  0.970028  0.731598  1
