# generated using pymatgen
data_Zr6Zn9Cu14As
_symmetry_space_group_name_H-M   'P 1'
_cell_length_a   8.51865420
_cell_length_b   8.51865423
_cell_length_c   8.51865400
_cell_angle_alpha   60.00000089
_cell_angle_beta   60.00000077
_cell_angle_gamma   59.99999839
_symmetry_Int_Tables_number   1
_chemical_formula_structural   Zr6Zn9Cu14As
_chemical_formula_sum   'Zr6 Zn9 Cu14 As1'
_cell_volume   437.11726572
_cell_formula_units_Z   1
loop_
 _symmetry_equiv_pos_site_id
 _symmetry_equiv_pos_as_xyz
  1  'x, y, z'
loop_
 _atom_site_type_symbol
 _atom_site_label
 _atom_site_symmetry_multiplicity
 _atom_site_fract_x
 _atom_site_fract_y
 _atom_site_fract_z
 _atom_site_occupancy
  Zr  Zr0  1  0.723331  0.276669  0.276669  1
  Zr  Zr1  1  0.276669  0.723331  0.723331  1
  Zr  Zr2  1  0.276669  0.723331  0.276669  1
  Zr  Zr3  1  0.723331  0.276669  0.723331  1
  Zr  Zr4  1  0.276669  0.276669  0.723331  1
  Zr  Zr5  1  0.723331  0.723331  0.276669  1
  Zn  Zn6  1  0.333075  0.333075  0.333075  1
  Zn  Zn7  1  0.666925  0.666925  0.666925  1
  Zn  Zn8  1  0.333075  0.333075  0.000777  1
  Zn  Zn9  1  0.333075  0.000777  0.333075  1
  Zn  Zn10  1  0.666925  0.666925  0.999223  1
  Zn  Zn11  1  0.666925  0.999223  0.666925  1
  Zn  Zn12  1  0.000777  0.333075  0.333075  1
  Zn  Zn13  1  0.999223  0.666925  0.666925  1
  Zn  Zn14  1  0.000000  0.000000  0.000000  1
  Cu  Cu15  1  0.122171  0.122171  0.122171  1
  Cu  Cu16  1  0.877829  0.877829  0.877829  1
  Cu  Cu17  1  0.122171  0.122171  0.633488  1
  Cu  Cu18  1  0.122171  0.633488  0.122171  1
  Cu  Cu19  1  0.877829  0.877829  0.366512  1
  Cu  Cu20  1  0.877829  0.366512  0.877829  1
  Cu  Cu21  1  0.633488  0.122171  0.122171  1
  Cu  Cu22  1  0.366512  0.877829  0.877829  1
  Cu  Cu23  1  0.500000  0.000000  0.000000  1
  Cu  Cu24  1  0.000000  0.500000  0.500000  1
  Cu  Cu25  1  0.000000  0.500000  0.000000  1
  Cu  Cu26  1  0.500000  0.000000  0.500000  1
  Cu  Cu27  1  0.000000  0.000000  0.500000  1
  Cu  Cu28  1  0.500000  0.500000  0.000000  1
  As  As29  1  0.500000  0.500000  0.500000  1
