# generated using pymatgen
data_Sc12Tl(RuI8)2
_symmetry_space_group_name_H-M   'P 1'
_cell_length_a   9.19169853
_cell_length_b   12.15857858
_cell_length_c   12.78594100
_cell_angle_alpha   116.83888459
_cell_angle_beta   101.09981657
_cell_angle_gamma   100.50757615
_symmetry_Int_Tables_number   1
_chemical_formula_structural   Sc12Tl(RuI8)2
_chemical_formula_sum   'Sc12 Tl1 Ru2 I16'
_cell_volume   1190.51497024
_cell_formula_units_Z   1
loop_
 _symmetry_equiv_pos_site_id
 _symmetry_equiv_pos_as_xyz
  1  'x, y, z'
loop_
 _atom_site_type_symbol
 _atom_site_label
 _atom_site_symmetry_multiplicity
 _atom_site_fract_x
 _atom_site_fract_y
 _atom_site_fract_z
 _atom_site_occupancy
  Sc  Sc0  1  0.106137  0.265426  0.356300  1
  Sc  Sc1  1  0.893863  0.734574  0.643700  1
  Sc  Sc2  1  0.759928  0.536958  0.325631  1
  Sc  Sc3  1  0.240072  0.463042  0.674369  1
  Sc  Sc4  1  0.296599  0.735028  0.643552  1
  Sc  Sc5  1  0.703401  0.264972  0.356448  1
  Sc  Sc6  1  0.164201  0.537048  0.325667  1
  Sc  Sc7  1  0.835799  0.462952  0.674333  1
  Sc  Sc8  1  0.411538  0.367952  0.288006  1
  Sc  Sc9  1  0.588462  0.632048  0.711994  1
  Sc  Sc10  1  0.461540  0.319341  0.520173  1
  Sc  Sc11  1  0.538460  0.680659  0.479827  1
  Tl  Tl12  1  0.000000  0.500000  0.500000  1
  Ru  Ru13  1  0.339598  0.500130  0.499790  1
  Ru  Ru14  1  0.660403  0.499870  0.500210  1
  I  I15  1  0.391087  0.735940  0.879523  1
  I  I16  1  0.608913  0.264060  0.120477  1
  I  I17  1  0.182893  0.952610  0.775815  1
  I  I18  1  0.817107  0.047390  0.224185  1
  I  I19  1  0.339299  0.100876  0.255423  1
  I  I20  1  0.660701  0.899124  0.744577  1
  I  I21  1  0.561729  0.437474  0.796346  1
  I  I22  1  0.438271  0.562526  0.203654  1
  I  I23  1  0.303144  0.823847  0.461894  1
  I  I24  1  0.696856  0.176153  0.538106  1
  I  I25  1  0.166032  0.176032  0.536626  1
  I  I26  1  0.833968  0.823968  0.463374  1
  I  I27  1  0.927442  0.573140  0.166100  1
  I  I28  1  0.072558  0.426860  0.833900  1
  I  I29  1  0.924964  0.735006  0.879586  1
  I  I30  1  0.075036  0.264994  0.120414  1
