# generated using pymatgen
data_Er16Cd4Pd3Ru
_symmetry_space_group_name_H-M   'P 1'
_cell_length_a   9.61118925
_cell_length_b   9.61118879
_cell_length_c   9.61118924
_cell_angle_alpha   59.49968259
_cell_angle_beta   59.49968456
_cell_angle_gamma   59.49968340
_symmetry_Int_Tables_number   1
_chemical_formula_structural   Er16Cd4Pd3Ru
_chemical_formula_sum   'Er16 Cd4 Pd3 Ru1'
_cell_volume   620.64947425
_cell_formula_units_Z   1
loop_
 _symmetry_equiv_pos_site_id
 _symmetry_equiv_pos_as_xyz
  1  'x, y, z'
loop_
 _atom_site_type_symbol
 _atom_site_label
 _atom_site_symmetry_multiplicity
 _atom_site_fract_x
 _atom_site_fract_y
 _atom_site_fract_z
 _atom_site_occupancy
  Er  Er0  1  0.353390  0.353390  0.353390  1
  Er  Er1  1  0.350576  0.350576  0.943555  1
  Er  Er2  1  0.350576  0.943555  0.350576  1
  Er  Er3  1  0.943555  0.350576  0.350576  1
  Er  Er4  1  0.816886  0.187842  0.187842  1
  Er  Er5  1  0.188402  0.811174  0.811174  1
  Er  Er6  1  0.187842  0.816886  0.187842  1
  Er  Er7  1  0.811174  0.188402  0.811174  1
  Er  Er8  1  0.187842  0.187842  0.816886  1
  Er  Er9  1  0.811174  0.811174  0.188402  1
  Er  Er10  1  0.934196  0.566201  0.566201  1
  Er  Er11  1  0.561165  0.935646  0.935646  1
  Er  Er12  1  0.566201  0.934196  0.566201  1
  Er  Er13  1  0.935646  0.561165  0.935646  1
  Er  Er14  1  0.566201  0.566201  0.934196  1
  Er  Er15  1  0.935646  0.935646  0.561165  1
  Cd  Cd16  1  0.581295  0.581295  0.581295  1
  Cd  Cd17  1  0.581734  0.581734  0.253638  1
  Cd  Cd18  1  0.581734  0.253638  0.581734  1
  Cd  Cd19  1  0.253638  0.581734  0.581734  1
  Pd  Pd20  1  0.144366  0.144366  0.568001  1
  Pd  Pd21  1  0.144366  0.568001  0.144366  1
  Pd  Pd22  1  0.568001  0.144366  0.144366  1
  Ru  Ru23  1  0.144391  0.144391  0.144391  1
