# generated using pymatgen
data_Dy5Er5(SiHg)4
_symmetry_space_group_name_H-M   'P 1'
_cell_length_a   8.77310367
_cell_length_b   8.72401195
_cell_length_c   7.52634218
_cell_angle_alpha   90.00060326
_cell_angle_beta   90.08112981
_cell_angle_gamma   129.22684166
_symmetry_Int_Tables_number   1
_chemical_formula_structural   Dy5Er5(SiHg)4
_chemical_formula_sum   'Dy5 Er5 Si4 Hg4'
_cell_volume   446.22851534
_cell_formula_units_Z   1
loop_
 _symmetry_equiv_pos_site_id
 _symmetry_equiv_pos_as_xyz
  1  'x, y, z'
loop_
 _atom_site_type_symbol
 _atom_site_label
 _atom_site_symmetry_multiplicity
 _atom_site_fract_x
 _atom_site_fract_y
 _atom_site_fract_z
 _atom_site_occupancy
  Dy  Dy0  1  0.054847  0.311207  0.324078  1
  Dy  Dy1  1  0.945276  0.689290  0.675742  1
  Dy  Dy2  1  0.444803  0.189181  0.823831  1
  Dy  Dy3  1  0.808512  0.553516  0.176348  1
  Dy  Dy4  1  0.554923  0.810609  0.176159  1
  Er  Er5  1  0.193004  0.446849  0.824608  1
  Er  Er6  1  0.692970  0.946588  0.675096  1
  Er  Er7  1  0.306659  0.052863  0.324935  1
  Er  Er8  1  0.999594  0.000275  0.000042  1
  Er  Er9  1  0.499269  0.500094  0.500117  1
  Si  Si10  1  0.379939  0.379729  0.122589  1
  Si  Si11  1  0.619179  0.619880  0.876959  1
  Si  Si12  1  0.119180  0.120060  0.622570  1
  Si  Si13  1  0.880815  0.881086  0.378051  1
  Hg  Hg14  1  0.785328  0.218467  0.996659  1
  Hg  Hg15  1  0.216326  0.781357  0.000993  1
  Hg  Hg16  1  0.713826  0.278882  0.498997  1
  Hg  Hg17  1  0.285551  0.720068  0.502226  1
