# generated using pymatgen
data_Dy4Ho8Co4BiOs
_symmetry_space_group_name_H-M   'P 1'
_cell_length_a   8.31080564
_cell_length_b   8.31080382
_cell_length_c   8.31080587
_cell_angle_alpha   111.36071126
_cell_angle_beta   110.35436686
_cell_angle_gamma   106.73445370
_symmetry_Int_Tables_number   1
_chemical_formula_structural   Dy4Ho8Co4BiOs
_chemical_formula_sum   'Dy4 Ho8 Co4 Bi1 Os1'
_cell_volume   441.09567189
_cell_formula_units_Z   1
loop_
 _symmetry_equiv_pos_site_id
 _symmetry_equiv_pos_as_xyz
  1  'x, y, z'
loop_
 _atom_site_type_symbol
 _atom_site_label
 _atom_site_symmetry_multiplicity
 _atom_site_fract_x
 _atom_site_fract_y
 _atom_site_fract_z
 _atom_site_occupancy
  Dy  Dy0  1  0.819055  0.717738  0.536799  1
  Dy  Dy1  1  0.180945  0.282262  0.463201  1
  Dy  Dy2  1  0.180940  0.717738  0.898683  1
  Dy  Dy3  1  0.819060  0.282262  0.101317  1
  Ho  Ho4  1  0.687648  0.378439  0.690792  1
  Ho  Ho5  1  0.312352  0.621561  0.309208  1
  Ho  Ho6  1  0.687655  0.996851  0.309196  1
  Ho  Ho7  1  0.312345  0.003149  0.690804  1
  Ho  Ho8  1  0.590328  0.786665  0.803677  1
  Ho  Ho9  1  0.409672  0.213335  0.196323  1
  Ho  Ho10  1  0.982988  0.786665  0.196337  1
  Ho  Ho11  1  0.017012  0.213335  0.803663  1
  Co  Co12  1  0.624337  0.000000  0.624337  1
  Co  Co13  1  0.375663  0.000000  0.375663  1
  Co  Co14  1  0.111032  0.611036  0.500003  1
  Co  Co15  1  0.888968  0.388964  0.499997  1
  Bi  Bi16  1  0.500000  0.500000  0.000000  1
  Os  Os17  1  0.000000  0.000000  0.000000  1
