# generated using pymatgen
data_TmTh3(Ni2Sn)2
_symmetry_space_group_name_H-M   'P 1'
_cell_length_a   7.52529225
_cell_length_b   7.52529225
_cell_length_c   3.71819900
_cell_angle_alpha   90.00000000
_cell_angle_beta   90.00000000
_cell_angle_gamma   90.83178028
_symmetry_Int_Tables_number   1
_chemical_formula_structural   TmTh3(Ni2Sn)2
_chemical_formula_sum   'Tm1 Th3 Ni4 Sn2'
_cell_volume   210.53950853
_cell_formula_units_Z   1
loop_
 _symmetry_equiv_pos_site_id
 _symmetry_equiv_pos_as_xyz
  1  'x, y, z'
loop_
 _atom_site_type_symbol
 _atom_site_label
 _atom_site_symmetry_multiplicity
 _atom_site_fract_x
 _atom_site_fract_y
 _atom_site_fract_z
 _atom_site_occupancy
  Tm  Tm0  1  0.825960  0.674040  0.500000  1
  Th  Th1  1  0.675857  0.175448  0.500000  1
  Th  Th2  1  0.324552  0.824143  0.500000  1
  Th  Th3  1  0.172313  0.327687  0.500000  1
  Ni  Ni4  1  0.878132  0.376005  0.000000  1
  Ni  Ni5  1  0.123995  0.621868  0.000000  1
  Ni  Ni6  1  0.375373  0.124627  0.000000  1
  Ni  Ni7  1  0.620202  0.879798  0.000000  1
  Sn  Sn8  1  0.511081  0.507465  0.000000  1
  Sn  Sn9  1  0.992535  0.988919  0.000000  1
