# generated using pymatgen
data_Hf16TaFePt6
_symmetry_space_group_name_H-M   'P 1'
_cell_length_a   8.83739732
_cell_length_b   8.83739894
_cell_length_c   8.83739800
_cell_angle_alpha   59.54539972
_cell_angle_beta   59.54540106
_cell_angle_gamma   59.54539761
_symmetry_Int_Tables_number   1
_chemical_formula_structural   Hf16TaFePt6
_chemical_formula_sum   'Hf16 Ta1 Fe1 Pt6'
_cell_volume   482.99878433
_cell_formula_units_Z   1
loop_
 _symmetry_equiv_pos_site_id
 _symmetry_equiv_pos_as_xyz
  1  'x, y, z'
loop_
 _atom_site_type_symbol
 _atom_site_label
 _atom_site_symmetry_multiplicity
 _atom_site_fract_x
 _atom_site_fract_y
 _atom_site_fract_z
 _atom_site_occupancy
  Hf  Hf0  1  0.127051  0.127051  0.127051  1
  Hf  Hf1  1  0.676701  0.101536  0.101536  1
  Hf  Hf2  1  0.101536  0.676701  0.101536  1
  Hf  Hf3  1  0.101536  0.101536  0.676701  1
  Hf  Hf4  1  0.683339  0.310850  0.683339  1
  Hf  Hf5  1  0.952292  0.550833  0.550833  1
  Hf  Hf6  1  0.569125  0.939753  0.939753  1
  Hf  Hf7  1  0.939753  0.569125  0.939753  1
  Hf  Hf8  1  0.550833  0.550833  0.952292  1
  Hf  Hf9  1  0.939753  0.939753  0.569125  1
  Hf  Hf10  1  0.683339  0.683339  0.310850  1
  Hf  Hf11  1  0.310850  0.683339  0.683339  1
  Hf  Hf12  1  0.673608  0.313161  0.313161  1
  Hf  Hf13  1  0.313161  0.313161  0.673608  1
  Hf  Hf14  1  0.550833  0.952292  0.550833  1
  Hf  Hf15  1  0.313161  0.673608  0.313161  1
  Ta  Ta16  1  0.329645  0.329645  0.329645  1
  Fe  Fe17  1  0.891595  0.891595  0.891595  1
  Pt  Pt18  1  0.304034  0.906979  0.906979  1
  Pt  Pt19  1  0.906979  0.304034  0.906979  1
  Pt  Pt20  1  0.906979  0.906979  0.304034  1
  Pt  Pt21  1  0.348826  0.976245  0.348826  1
  Pt  Pt22  1  0.348826  0.348826  0.976245  1
  Pt  Pt23  1  0.976245  0.348826  0.348826  1
