# generated using pymatgen
data_Li2Sn2AsPt2
_symmetry_space_group_name_H-M   'P 1'
_cell_length_a   4.32039600
_cell_length_b   4.32039663
_cell_length_c   16.17744000
_cell_angle_alpha   90.00000000
_cell_angle_beta   90.00000000
_cell_angle_gamma   119.99997983
_symmetry_Int_Tables_number   1
_chemical_formula_structural   Li2Sn2AsPt2
_chemical_formula_sum   'Li4 Sn4 As2 Pt4'
_cell_volume   261.50963353
_cell_formula_units_Z   2
loop_
 _symmetry_equiv_pos_site_id
 _symmetry_equiv_pos_as_xyz
  1  'x, y, z'
loop_
 _atom_site_type_symbol
 _atom_site_label
 _atom_site_symmetry_multiplicity
 _atom_site_fract_x
 _atom_site_fract_y
 _atom_site_fract_z
 _atom_site_occupancy
  Li  Li0  1  0.000000  0.000000  0.167748  1
  Li  Li1  1  0.000000  0.000000  0.832252  1
  Li  Li2  1  0.000000  0.000000  0.667748  1
  Li  Li3  1  0.000000  0.000000  0.332252  1
  Sn  Sn4  1  0.333333  0.666667  0.069802  1
  Sn  Sn5  1  0.666667  0.333333  0.930198  1
  Sn  Sn6  1  0.666667  0.333333  0.569802  1
  Sn  Sn7  1  0.333333  0.666667  0.430198  1
  As  As8  1  0.333333  0.666667  0.750000  1
  As  As9  1  0.666667  0.333333  0.250000  1
  Pt  Pt10  1  0.000000  0.000000  0.000000  1
  Pt  Pt11  1  0.000000  0.000000  0.500000  1
  Pt  Pt12  1  0.333333  0.666667  0.250000  1
  Pt  Pt13  1  0.666667  0.333333  0.750000  1
