# generated using pymatgen
data_NdTe28
_symmetry_space_group_name_H-M   'P 1'
_cell_length_a   11.97726272
_cell_length_b   10.80100058
_cell_length_c   12.50182900
_cell_angle_alpha   115.09544145
_cell_angle_beta   122.68138890
_cell_angle_gamma   88.59922231
_symmetry_Int_Tables_number   1
_chemical_formula_structural   NdTe28
_chemical_formula_sum   'Nd1 Te28'
_cell_volume   1187.54562912
_cell_formula_units_Z   1
loop_
 _symmetry_equiv_pos_site_id
 _symmetry_equiv_pos_as_xyz
  1  'x, y, z'
loop_
 _atom_site_type_symbol
 _atom_site_label
 _atom_site_symmetry_multiplicity
 _atom_site_fract_x
 _atom_site_fract_y
 _atom_site_fract_z
 _atom_site_occupancy
  Nd  Nd0  1  0.500000  0.000000  0.000000  1
  Te  Te1  1  0.228611  0.102355  0.420127  1
  Te  Te2  1  0.594598  0.157145  0.427130  1
  Te  Te3  1  0.277306  0.267209  0.887115  1
  Te  Te4  1  0.916895  0.305143  0.890981  1
  Te  Te5  1  0.208279  0.552109  0.724724  1
  Te  Te6  1  0.804927  0.528278  0.637682  1
  Te  Te7  1  0.405402  0.842855  0.572870  1
  Te  Te8  1  0.771389  0.897645  0.579873  1
  Te  Te9  1  0.083105  0.694857  0.109019  1
  Te  Te10  1  0.722694  0.732791  0.112885  1
  Te  Te11  1  0.195073  0.471722  0.362318  1
  Te  Te12  1  0.791721  0.447891  0.275276  1
  Te  Te13  1  0.760336  0.076210  0.841723  1
  Te  Te14  1  0.221685  0.977839  0.716096  1
  Te  Te15  1  0.811223  0.680065  0.898474  1
  Te  Te16  1  0.373413  0.757848  0.027184  1
  Te  Te17  1  0.515190  0.277918  0.245046  1
  Te  Te18  1  0.039943  0.277977  0.357427  1
  Te  Te19  1  0.778315  0.022161  0.283904  1
  Te  Te20  1  0.239664  0.923790  0.158277  1
  Te  Te21  1  0.626587  0.242152  0.972816  1
  Te  Te22  1  0.188777  0.319935  0.101526  1
  Te  Te23  1  0.960057  0.722023  0.642573  1
  Te  Te24  1  0.484810  0.722082  0.754954  1
  Te  Te25  1  0.047243  0.376446  0.737451  1
  Te  Te26  1  0.487664  0.289868  0.584229  1
  Te  Te27  1  0.512336  0.710132  0.415771  1
  Te  Te28  1  0.952757  0.623554  0.262549  1
