# generated using pymatgen
data_Yb3SmRu3PtO14
_symmetry_space_group_name_H-M   'P 1'
_cell_length_a   7.28574901
_cell_length_b   7.23078246
_cell_length_c   7.28092313
_cell_angle_alpha   59.75530317
_cell_angle_beta   59.97807038
_cell_angle_gamma   59.74821916
_symmetry_Int_Tables_number   1
_chemical_formula_structural   Yb3SmRu3PtO14
_chemical_formula_sum   'Yb3 Sm1 Ru3 Pt1 O14'
_cell_volume   270.15916384
_cell_formula_units_Z   1
loop_
 _symmetry_equiv_pos_site_id
 _symmetry_equiv_pos_as_xyz
  1  'x, y, z'
loop_
 _atom_site_type_symbol
 _atom_site_label
 _atom_site_symmetry_multiplicity
 _atom_site_fract_x
 _atom_site_fract_y
 _atom_site_fract_z
 _atom_site_occupancy
  Yb  Yb0  1  0.625000  0.625000  0.625000  1
  Yb  Yb1  1  0.125000  0.625000  0.625000  1
  Yb  Yb2  1  0.625000  0.125000  0.625000  1
  Sm  Sm3  1  0.625000  0.625000  0.125000  1
  Ru  Ru4  1  0.125000  0.125000  0.125000  1
  Ru  Ru5  1  0.625000  0.125000  0.125000  1
  Ru  Ru6  1  0.125000  0.125000  0.625000  1
  Pt  Pt7  1  0.125000  0.625000  0.125000  1
  O  O8  1  0.500515  0.498721  0.500249  1
  O  O9  1  0.749485  0.751279  0.749751  1
  O  O10  1  0.052440  0.063782  0.441487  1
  O  O11  1  0.789660  0.795008  0.208920  1
  O  O12  1  0.442292  0.063782  0.441487  1
  O  O13  1  0.447764  0.059802  0.044670  1
  O  O14  1  0.043707  0.452517  0.460071  1
  O  O15  1  0.043586  0.454992  0.041080  1
  O  O16  1  0.460340  0.454992  0.041080  1
  O  O17  1  0.206293  0.797483  0.789929  1
  O  O18  1  0.802236  0.190198  0.205330  1
  O  O19  1  0.197560  0.186218  0.808513  1
  O  O20  1  0.206414  0.795008  0.208920  1
  O  O21  1  0.807708  0.186218  0.808513  1
