# generated using pymatgen
data_RbBa4Fe7Co3P10
_symmetry_space_group_name_H-M   'P 1'
_cell_length_a   8.73593500
_cell_length_b   8.73167877
_cell_length_c   8.73382751
_cell_angle_alpha   121.90457286
_cell_angle_beta   121.90656520
_cell_angle_gamma   86.74636421
_symmetry_Int_Tables_number   1
_chemical_formula_structural   RbBa4Fe7Co3P10
_chemical_formula_sum   'Rb1 Ba4 Fe7 Co3 P10'
_cell_volume   456.64278086
_cell_formula_units_Z   1
loop_
 _symmetry_equiv_pos_site_id
 _symmetry_equiv_pos_as_xyz
  1  'x, y, z'
loop_
 _atom_site_type_symbol
 _atom_site_label
 _atom_site_symmetry_multiplicity
 _atom_site_fract_x
 _atom_site_fract_y
 _atom_site_fract_z
 _atom_site_occupancy
  Rb  Rb0  1  0.000245  0.000074  0.000262  1
  Ba  Ba1  1  0.391904  0.802445  0.194631  1
  Ba  Ba2  1  0.802542  0.607948  0.410665  1
  Ba  Ba3  1  0.197417  0.392036  0.589521  1
  Ba  Ba4  1  0.608189  0.197597  0.805377  1
  Fe  Fe5  1  0.151182  0.050900  0.700993  1
  Fe  Fe6  1  0.549115  0.849172  0.898994  1
  Fe  Fe7  1  0.650243  0.548480  0.699180  1
  Fe  Fe8  1  0.050286  0.351423  0.900911  1
  Fe  Fe9  1  0.451406  0.152003  0.102726  1
  Fe  Fe10  1  0.849390  0.949506  0.299781  1
  Fe  Fe11  1  0.248865  0.748687  0.497553  1
  Co  Co12  1  0.948881  0.649948  0.099491  1
  Co  Co13  1  0.350031  0.450169  0.299691  1
  Co  Co14  1  0.750624  0.249866  0.500549  1
  P  P15  1  0.938975  0.537922  0.799576  1
  P  P16  1  0.338791  0.337784  0.997753  1
  P  P17  1  0.737309  0.137139  0.197583  1
  P  P18  1  0.140124  0.940848  0.403847  1
  P  P19  1  0.538250  0.739794  0.601234  1
  P  P20  1  0.658462  0.661624  0.998732  1
  P  P21  1  0.060790  0.462187  0.200254  1
  P  P22  1  0.462081  0.261332  0.401007  1
  P  P23  1  0.863032  0.060259  0.600189  1
  P  P24  1  0.261864  0.860856  0.799501  1
