# generated using pymatgen
data_VCd(GaCl4)4
_symmetry_space_group_name_H-M   'P 1'
_cell_length_a   9.94983445
_cell_length_b   9.94983495
_cell_length_c   11.99703359
_cell_angle_alpha   55.11772346
_cell_angle_beta   55.11772060
_cell_angle_gamma   49.96292555
_symmetry_Int_Tables_number   1
_chemical_formula_structural   VCd(GaCl4)4
_chemical_formula_sum   'V1 Cd1 Ga4 Cl16'
_cell_volume   705.50661986
_cell_formula_units_Z   1
loop_
 _symmetry_equiv_pos_site_id
 _symmetry_equiv_pos_as_xyz
  1  'x, y, z'
loop_
 _atom_site_type_symbol
 _atom_site_label
 _atom_site_symmetry_multiplicity
 _atom_site_fract_x
 _atom_site_fract_y
 _atom_site_fract_z
 _atom_site_occupancy
  V  V0  1  0.002685  0.997315  0.250000  1
  Cd  Cd1  1  0.004875  0.995125  0.750000  1
  Ga  Ga2  1  0.670581  0.161430  0.037049  1
  Ga  Ga3  1  0.330376  0.839969  0.970551  1
  Ga  Ga4  1  0.838570  0.329419  0.462951  1
  Ga  Ga5  1  0.160031  0.669624  0.529449  1
  Cl  Cl6  1  0.877549  0.832241  0.508060  1
  Cl  Cl7  1  0.122986  0.180922  0.475672  1
  Cl  Cl8  1  0.693901  0.616783  0.440879  1
  Cl  Cl9  1  0.616957  0.694535  0.950394  1
  Cl  Cl10  1  0.819078  0.877014  0.024328  1
  Cl  Cl11  1  0.860070  0.299767  0.280651  1
  Cl  Cl12  1  0.150298  0.724709  0.181818  1
  Cl  Cl13  1  0.275291  0.849702  0.318182  1
  Cl  Cl14  1  0.149358  0.678812  0.716262  1
  Cl  Cl15  1  0.305465  0.383043  0.549606  1
  Cl  Cl16  1  0.700233  0.139930  0.219349  1
  Cl  Cl17  1  0.167759  0.122451  0.991940  1
  Cl  Cl18  1  0.383217  0.306099  0.059121  1
  Cl  Cl19  1  0.321188  0.850642  0.783738  1
  Cl  Cl20  1  0.711030  0.161494  0.673030  1
  Cl  Cl21  1  0.838506  0.288970  0.826970  1
