# generated using pymatgen
data_Y2UO6
_symmetry_space_group_name_H-M   'P 1'
_cell_length_a   6.51623610
_cell_length_b   6.51623478
_cell_length_c   6.66736675
_cell_angle_alpha   80.62493487
_cell_angle_beta   80.62493796
_cell_angle_gamma   120.59094099
_symmetry_Int_Tables_number   1
_chemical_formula_structural   Y2UO6
_chemical_formula_sum   'Y4 U2 O12'
_cell_volume   230.15895507
_cell_formula_units_Z   2
loop_
 _symmetry_equiv_pos_site_id
 _symmetry_equiv_pos_as_xyz
  1  'x, y, z'
loop_
 _atom_site_type_symbol
 _atom_site_label
 _atom_site_symmetry_multiplicity
 _atom_site_fract_x
 _atom_site_fract_y
 _atom_site_fract_z
 _atom_site_occupancy
  Y  Y0  1  0.915093  0.084907  0.750000  1
  Y  Y1  1  0.249894  0.750106  0.750000  1
  Y  Y2  1  0.084907  0.915093  0.250000  1
  Y  Y3  1  0.750106  0.249894  0.250000  1
  U  U4  1  0.585527  0.414473  0.750000  1
  U  U5  1  0.414473  0.585527  0.250000  1
  O  O6  1  0.932854  0.770029  0.628711  1
  O  O7  1  0.627244  0.142010  0.625712  1
  O  O8  1  0.689158  0.534763  0.380047  1
  O  O9  1  0.465237  0.310842  0.119953  1
  O  O10  1  0.310842  0.465237  0.619953  1
  O  O11  1  0.142010  0.627244  0.125712  1
  O  O12  1  0.372756  0.857990  0.374288  1
  O  O13  1  0.229971  0.067146  0.871289  1
  O  O14  1  0.067146  0.229971  0.371289  1
  O  O15  1  0.770029  0.932854  0.128711  1
  O  O16  1  0.857990  0.372756  0.874288  1
  O  O17  1  0.534763  0.689158  0.880047  1
