# generated using pymatgen
data_DyYSI2
_symmetry_space_group_name_H-M   'P 1'
_cell_length_a   11.46914466
_cell_length_b   11.46914436
_cell_length_c   11.46914421
_cell_angle_alpha   20.58031770
_cell_angle_beta   20.58032095
_cell_angle_gamma   20.58031950
_symmetry_Int_Tables_number   1
_chemical_formula_structural   DyYSI2
_chemical_formula_sum   'Dy1 Y1 S1 I2'
_cell_volume   163.18005245
_cell_formula_units_Z   1
loop_
 _symmetry_equiv_pos_site_id
 _symmetry_equiv_pos_as_xyz
  1  'x, y, z'
loop_
 _atom_site_type_symbol
 _atom_site_label
 _atom_site_symmetry_multiplicity
 _atom_site_fract_x
 _atom_site_fract_y
 _atom_site_fract_z
 _atom_site_occupancy
  Dy  Dy0  1  0.874356  0.874356  0.874356  1
  Y  Y1  1  0.125620  0.125620  0.125620  1
  S  S2  1  0.500164  0.500164  0.500164  1
  I  I3  1  0.268618  0.268618  0.268618  1
  I  I4  1  0.731242  0.731242  0.731242  1
