# generated using pymatgen
data_Y4Co17(TcP4)3
_symmetry_space_group_name_H-M   'P 1'
_cell_length_a   3.69207000
_cell_length_b   10.34675604
_cell_length_c   11.78787939
_cell_angle_alpha   89.97877983
_cell_angle_beta   90.00000000
_cell_angle_gamma   90.00000000
_symmetry_Int_Tables_number   1
_chemical_formula_structural   Y4Co17(TcP4)3
_chemical_formula_sum   'Y4 Co17 Tc3 P12'
_cell_volume   450.30813168
_cell_formula_units_Z   1
loop_
 _symmetry_equiv_pos_site_id
 _symmetry_equiv_pos_as_xyz
  1  'x, y, z'
loop_
 _atom_site_type_symbol
 _atom_site_label
 _atom_site_symmetry_multiplicity
 _atom_site_fract_x
 _atom_site_fract_y
 _atom_site_fract_z
 _atom_site_occupancy
  Y  Y0  1  0.250000  0.582082  0.702345  1
  Y  Y1  1  0.250000  0.915264  0.204620  1
  Y  Y2  1  0.750000  0.414642  0.296159  1
  Y  Y3  1  0.750000  0.084000  0.795284  1
  Co  Co4  1  0.750000  0.215327  0.509883  1
  Co  Co5  1  0.250000  0.405646  0.488556  1
  Co  Co6  1  0.250000  0.093098  0.989060  1
  Co  Co7  1  0.750000  0.592535  0.510149  1
  Co  Co8  1  0.750000  0.907089  0.010905  1
  Co  Co9  1  0.250000  0.220360  0.176945  1
  Co  Co10  1  0.250000  0.277658  0.675695  1
  Co  Co11  1  0.750000  0.778243  0.822893  1
  Co  Co12  1  0.750000  0.721657  0.323584  1
  Co  Co13  1  0.250000  0.886135  0.700999  1
  Co  Co14  1  0.250000  0.613773  0.202211  1
  Co  Co15  1  0.750000  0.116244  0.301568  1
  Co  Co16  1  0.750000  0.385450  0.797864  1
  Co  Co17  1  0.250000  0.464565  0.932231  1
  Co  Co18  1  0.250000  0.035646  0.432396  1
  Co  Co19  1  0.750000  0.535812  0.068449  1
  Co  Co20  1  0.750000  0.967092  0.568189  1
  Tc  Tc21  1  0.250000  0.711001  0.989326  1
  Tc  Tc22  1  0.250000  0.789665  0.489469  1
  Tc  Tc23  1  0.750000  0.288992  0.010828  1
  P  P24  1  0.250000  0.419506  0.113700  1
  P  P25  1  0.250000  0.081748  0.611733  1
  P  P26  1  0.750000  0.579178  0.886290  1
  P  P27  1  0.750000  0.921030  0.387247  1
  P  P28  1  0.250000  0.270288  0.864886  1
  P  P29  1  0.250000  0.229887  0.368992  1
  P  P30  1  0.750000  0.729892  0.134553  1
  P  P31  1  0.750000  0.771099  0.633258  1
  P  P32  1  0.250000  0.596216  0.391660  1
  P  P33  1  0.250000  0.903377  0.890737  1
  P  P34  1  0.750000  0.398206  0.606796  1
  P  P35  1  0.750000  0.097597  0.110543  1
