# generated using pymatgen
data_Yb13(ErSb4)3
_symmetry_space_group_name_H-M   'P 1'
_cell_length_a   9.41065690
_cell_length_b   9.41065674
_cell_length_c   9.41065700
_cell_angle_alpha   90.27816761
_cell_angle_beta   90.27816151
_cell_angle_gamma   89.72183074
_symmetry_Int_Tables_number   1
_chemical_formula_structural   Yb13(ErSb4)3
_chemical_formula_sum   'Yb13 Er3 Sb12'
_cell_volume   833.38275965
_cell_formula_units_Z   1
loop_
 _symmetry_equiv_pos_site_id
 _symmetry_equiv_pos_as_xyz
  1  'x, y, z'
loop_
 _atom_site_type_symbol
 _atom_site_label
 _atom_site_symmetry_multiplicity
 _atom_site_fract_x
 _atom_site_fract_y
 _atom_site_fract_z
 _atom_site_occupancy
  Yb  Yb0  1  0.825337  0.325337  0.174663  1
  Yb  Yb1  1  0.931791  0.926274  0.931225  1
  Yb  Yb2  1  0.827112  0.673796  0.325748  1
  Yb  Yb3  1  0.176793  0.822393  0.322234  1
  Yb  Yb4  1  0.173796  0.174252  0.172888  1
  Yb  Yb5  1  0.324925  0.824925  0.675075  1
  Yb  Yb6  1  0.068775  0.431791  0.573726  1
  Yb  Yb7  1  0.322393  0.177766  0.823207  1
  Yb  Yb8  1  0.674252  0.327112  0.826204  1
  Yb  Yb9  1  0.677766  0.676793  0.677607  1
  Yb  Yb10  1  0.568558  0.068558  0.431442  1
  Yb  Yb11  1  0.426274  0.568775  0.068209  1
  Yb  Yb12  1  0.073256  0.573256  0.926744  1
  Er  Er13  1  0.929577  0.072618  0.572623  1
  Er  Er14  1  0.427377  0.429577  0.427382  1
  Er  Er15  1  0.572618  0.927377  0.070423  1
  Sb  Sb16  1  0.745382  0.368448  0.499839  1
  Sb  Sb17  1  0.868448  0.000161  0.254618  1
  Sb  Sb18  1  0.998984  0.758978  0.625421  1
  Sb  Sb19  1  0.244625  0.129348  0.498929  1
  Sb  Sb20  1  0.131610  0.497906  0.251687  1
  Sb  Sb21  1  0.997906  0.248313  0.868390  1
  Sb  Sb22  1  0.258978  0.874579  0.001016  1
  Sb  Sb23  1  0.374579  0.498984  0.741022  1
  Sb  Sb24  1  0.500161  0.245382  0.131552  1
  Sb  Sb25  1  0.748313  0.631610  0.002094  1
  Sb  Sb26  1  0.629348  0.001071  0.755375  1
  Sb  Sb27  1  0.501071  0.744625  0.370652  1
