# generated using pymatgen
data_Pa2InPt2
_symmetry_space_group_name_H-M   'P 1'
_cell_length_a   7.86443500
_cell_length_b   7.86443500
_cell_length_c   3.65773800
_cell_angle_alpha   90.00000000
_cell_angle_beta   90.00000000
_cell_angle_gamma   90.00000000
_symmetry_Int_Tables_number   1
_chemical_formula_structural   Pa2InPt2
_chemical_formula_sum   'Pa4 In2 Pt4'
_cell_volume   226.22867340
_cell_formula_units_Z   2
loop_
 _symmetry_equiv_pos_site_id
 _symmetry_equiv_pos_as_xyz
  1  'x, y, z'
loop_
 _atom_site_type_symbol
 _atom_site_label
 _atom_site_symmetry_multiplicity
 _atom_site_fract_x
 _atom_site_fract_y
 _atom_site_fract_z
 _atom_site_occupancy
  Pa  Pa0  1  0.673617  0.173617  0.500000  1
  Pa  Pa1  1  0.173617  0.326383  0.500000  1
  Pa  Pa2  1  0.326383  0.826383  0.500000  1
  Pa  Pa3  1  0.826383  0.673617  0.500000  1
  In  In4  1  0.000000  0.000000  0.000000  1
  In  In5  1  0.500000  0.500000  0.000000  1
  Pt  Pt6  1  0.870616  0.370616  0.000000  1
  Pt  Pt7  1  0.629384  0.870616  0.000000  1
  Pt  Pt8  1  0.129384  0.629384  0.000000  1
  Pt  Pt9  1  0.370616  0.129384  0.000000  1
