# generated using pymatgen
data_CsSe27
_symmetry_space_group_name_H-M   'P 1'
_cell_length_a   14.80487903
_cell_length_b   14.80487940
_cell_length_c   14.80487767
_cell_angle_alpha   117.77020748
_cell_angle_beta   117.77020627
_cell_angle_gamma   117.77021292
_symmetry_Int_Tables_number   1
_chemical_formula_structural   CsSe27
_chemical_formula_sum   'Cs1 Se27'
_cell_volume   1241.79325285
_cell_formula_units_Z   1
loop_
 _symmetry_equiv_pos_site_id
 _symmetry_equiv_pos_as_xyz
  1  'x, y, z'
loop_
 _atom_site_type_symbol
 _atom_site_label
 _atom_site_symmetry_multiplicity
 _atom_site_fract_x
 _atom_site_fract_y
 _atom_site_fract_z
 _atom_site_occupancy
  Cs  Cs0  1  0.579530  0.579530  0.579530  1
  Se  Se1  1  0.810125  0.543459  0.543459  1
  Se  Se2  1  0.543459  0.543459  0.810125  1
  Se  Se3  1  0.543459  0.810125  0.543459  1
  Se  Se4  1  0.261727  0.411165  0.644137  1
  Se  Se5  1  0.305749  0.938694  0.305749  1
  Se  Se6  1  0.305749  0.305749  0.938694  1
  Se  Se7  1  0.938694  0.305749  0.305749  1
  Se  Se8  1  0.099719  0.743134  0.250834  1
  Se  Se9  1  0.250834  0.099719  0.743134  1
  Se  Se10  1  0.743134  0.250834  0.099719  1
  Se  Se11  1  0.743134  0.099719  0.250834  1
  Se  Se12  1  0.250834  0.743134  0.099719  1
  Se  Se13  1  0.099719  0.250834  0.743134  1
  Se  Se14  1  0.316535  0.870699  0.529368  1
  Se  Se15  1  0.529368  0.316535  0.870699  1
  Se  Se16  1  0.870699  0.529368  0.316535  1
  Se  Se17  1  0.870699  0.316535  0.529368  1
  Se  Se18  1  0.529368  0.870699  0.316535  1
  Se  Se19  1  0.316535  0.529368  0.870699  1
  Se  Se20  1  0.261727  0.644137  0.411165  1
  Se  Se21  1  0.411165  0.261727  0.644137  1
  Se  Se22  1  0.644137  0.411165  0.261727  1
  Se  Se23  1  0.644137  0.261727  0.411165  1
  Se  Se24  1  0.411165  0.644137  0.261727  1
  Se  Se25  1  0.016096  0.113897  0.113897  1
  Se  Se26  1  0.113897  0.113897  0.016096  1
  Se  Se27  1  0.113897  0.016096  0.113897  1
