# generated using pymatgen
data_Yb2Ho3Ir2
_symmetry_space_group_name_H-M   'P 1'
_cell_length_a   6.49813550
_cell_length_b   7.24518447
_cell_length_c   8.45746899
_cell_angle_alpha   97.05568886
_cell_angle_beta   112.59194268
_cell_angle_gamma   90.00000311
_symmetry_Int_Tables_number   1
_chemical_formula_structural   Yb2Ho3Ir2
_chemical_formula_sum   'Yb4 Ho6 Ir4'
_cell_volume   364.35657280
_cell_formula_units_Z   2
loop_
 _symmetry_equiv_pos_site_id
 _symmetry_equiv_pos_as_xyz
  1  'x, y, z'
loop_
 _atom_site_type_symbol
 _atom_site_label
 _atom_site_symmetry_multiplicity
 _atom_site_fract_x
 _atom_site_fract_y
 _atom_site_fract_z
 _atom_site_occupancy
  Yb  Yb0  1  0.973343  0.921064  0.182689  1
  Yb  Yb1  1  0.790654  0.578936  0.817311  1
  Yb  Yb2  1  0.026657  0.078936  0.817311  1
  Yb  Yb3  1  0.209346  0.421064  0.182689  1
  Ho  Ho4  1  0.651106  0.818008  0.439989  1
  Ho  Ho5  1  0.211116  0.681992  0.560011  1
  Ho  Ho6  1  0.348894  0.181992  0.560011  1
  Ho  Ho7  1  0.788884  0.318008  0.439989  1
  Ho  Ho8  1  0.431037  0.750000  0.000000  1
  Ho  Ho9  1  0.568963  0.250000  0.000000  1
  Ir  Ir10  1  0.815776  0.572098  0.226203  1
  Ir  Ir11  1  0.589573  0.927902  0.773797  1
  Ir  Ir12  1  0.184224  0.427902  0.773797  1
  Ir  Ir13  1  0.410427  0.072098  0.226203  1
