# generated using pymatgen
data_Tb19Sc(Cd3Ru)2
_symmetry_space_group_name_H-M   'P 1'
_cell_length_a   9.59314100
_cell_length_b   9.59314055
_cell_length_c   9.86215300
_cell_angle_alpha   90.00000000
_cell_angle_beta   90.00000000
_cell_angle_gamma   120.00000500
_symmetry_Int_Tables_number   1
_chemical_formula_structural   Tb19Sc(Cd3Ru)2
_chemical_formula_sum   'Tb19 Sc1 Cd6 Ru2'
_cell_volume   786.00259675
_cell_formula_units_Z   1
loop_
 _symmetry_equiv_pos_site_id
 _symmetry_equiv_pos_as_xyz
  1  'x, y, z'
loop_
 _atom_site_type_symbol
 _atom_site_label
 _atom_site_symmetry_multiplicity
 _atom_site_fract_x
 _atom_site_fract_y
 _atom_site_fract_z
 _atom_site_occupancy
  Tb  Tb0  1  0.000000  0.000000  0.000000  1
  Tb  Tb1  1  0.208368  0.791632  0.440117  1
  Tb  Tb2  1  0.208368  0.416738  0.440117  1
  Tb  Tb3  1  0.583262  0.791632  0.440117  1
  Tb  Tb4  1  0.791632  0.208368  0.559883  1
  Tb  Tb5  1  0.791632  0.583262  0.559883  1
  Tb  Tb6  1  0.416738  0.208368  0.559883  1
  Tb  Tb7  1  0.789904  0.210096  0.940536  1
  Tb  Tb8  1  0.789904  0.579806  0.940536  1
  Tb  Tb9  1  0.420194  0.210096  0.940536  1
  Tb  Tb10  1  0.210096  0.789904  0.059464  1
  Tb  Tb11  1  0.210096  0.420194  0.059464  1
  Tb  Tb12  1  0.579806  0.789904  0.059464  1
  Tb  Tb13  1  0.541179  0.458821  0.250271  1
  Tb  Tb14  1  0.541179  0.082359  0.250271  1
  Tb  Tb15  1  0.917641  0.458821  0.250271  1
  Tb  Tb16  1  0.458821  0.541179  0.749729  1
  Tb  Tb17  1  0.458821  0.917641  0.749729  1
  Tb  Tb18  1  0.082359  0.541179  0.749729  1
  Sc  Sc19  1  0.000000  0.000000  0.500000  1
  Cd  Cd20  1  0.887592  0.112408  0.254807  1
  Cd  Cd21  1  0.887592  0.775186  0.254807  1
  Cd  Cd22  1  0.224814  0.112408  0.254807  1
  Cd  Cd23  1  0.112408  0.887592  0.745193  1
  Cd  Cd24  1  0.112408  0.224814  0.745193  1
  Cd  Cd25  1  0.775186  0.887592  0.745193  1
  Ru  Ru26  1  0.333333  0.666667  0.250113  1
  Ru  Ru27  1  0.666667  0.333333  0.749887  1
