# generated using pymatgen
data_Nd4Si2GePd27
_symmetry_space_group_name_H-M   'P 1'
_cell_length_a   8.97667701
_cell_length_b   8.97667701
_cell_length_c   7.17224325
_cell_angle_alpha   90.44301149
_cell_angle_beta   90.44301149
_cell_angle_gamma   88.60916943
_symmetry_Int_Tables_number   1
_chemical_formula_structural   Nd4Si2GePd27
_chemical_formula_sum   'Nd4 Si2 Ge1 Pd27'
_cell_volume   577.74060477
_cell_formula_units_Z   1
loop_
 _symmetry_equiv_pos_site_id
 _symmetry_equiv_pos_as_xyz
  1  'x, y, z'
loop_
 _atom_site_type_symbol
 _atom_site_label
 _atom_site_symmetry_multiplicity
 _atom_site_fract_x
 _atom_site_fract_y
 _atom_site_fract_z
 _atom_site_occupancy
  Nd  Nd0  1  0.511051  0.011051  0.932039  1
  Nd  Nd1  1  0.988949  0.488949  0.067961  1
  Nd  Nd2  1  0.002741  0.997259  0.500000  1
  Nd  Nd3  1  0.497259  0.502741  0.500000  1
  Si  Si4  1  0.503993  0.003993  0.445106  1
  Si  Si5  1  0.996007  0.496007  0.554894  1
  Ge  Ge6  1  0.250000  0.750000  0.000000  1
  Pd  Pd7  1  0.339396  0.839396  0.601042  1
  Pd  Pd8  1  0.332562  0.166368  0.619213  1
  Pd  Pd9  1  0.666368  0.832562  0.619213  1
  Pd  Pd10  1  0.666598  0.166598  0.613549  1
  Pd  Pd11  1  0.160604  0.660604  0.398958  1
  Pd  Pd12  1  0.167438  0.333632  0.380787  1
  Pd  Pd13  1  0.833632  0.667438  0.380787  1
  Pd  Pd14  1  0.833402  0.333402  0.386451  1
  Pd  Pd15  1  0.501295  0.772974  0.253762  1
  Pd  Pd16  1  0.496017  0.233056  0.257258  1
  Pd  Pd17  1  0.272974  0.001295  0.253762  1
  Pd  Pd18  1  0.733056  0.996017  0.257258  1
  Pd  Pd19  1  0.998705  0.727026  0.746238  1
  Pd  Pd20  1  0.003983  0.266944  0.742742  1
  Pd  Pd21  1  0.227026  0.498705  0.746238  1
  Pd  Pd22  1  0.766944  0.503983  0.742742  1
  Pd  Pd23  1  0.498285  0.355106  0.855328  1
  Pd  Pd24  1  0.487997  0.665997  0.864922  1
  Pd  Pd25  1  0.855106  0.998285  0.855328  1
  Pd  Pd26  1  0.165997  0.987997  0.864922  1
  Pd  Pd27  1  0.001715  0.144894  0.144672  1
  Pd  Pd28  1  0.012003  0.834003  0.135078  1
  Pd  Pd29  1  0.644894  0.501715  0.144672  1
  Pd  Pd30  1  0.334003  0.512003  0.135078  1
  Pd  Pd31  1  0.250000  0.250000  0.000000  1
  Pd  Pd32  1  0.750000  0.750000  0.000000  1
  Pd  Pd33  1  0.750000  0.250000  0.000000  1
