# generated using pymatgen
data_Dy10Ho2Co4BiOs
_symmetry_space_group_name_H-M   'P 1'
_cell_length_a   8.32565977
_cell_length_b   8.32508596
_cell_length_c   8.32509325
_cell_angle_alpha   111.42021325
_cell_angle_beta   110.35175484
_cell_angle_gamma   106.67716878
_symmetry_Int_Tables_number   1
_chemical_formula_structural   Dy10Ho2Co4BiOs
_chemical_formula_sum   'Dy10 Ho2 Co4 Bi1 Os1'
_cell_volume   443.37942250
_cell_formula_units_Z   1
loop_
 _symmetry_equiv_pos_site_id
 _symmetry_equiv_pos_as_xyz
  1  'x, y, z'
loop_
 _atom_site_type_symbol
 _atom_site_label
 _atom_site_symmetry_multiplicity
 _atom_site_fract_x
 _atom_site_fract_y
 _atom_site_fract_z
 _atom_site_occupancy
  Dy  Dy0  1  0.819327  0.717585  0.536849  1
  Dy  Dy1  1  0.180673  0.282415  0.463151  1
  Dy  Dy2  1  0.180669  0.717517  0.898257  1
  Dy  Dy3  1  0.819331  0.282483  0.101743  1
  Dy  Dy4  1  0.687871  0.378821  0.691052  1
  Dy  Dy5  1  0.312129  0.621179  0.308948  1
  Dy  Dy6  1  0.687881  0.996819  0.309041  1
  Dy  Dy7  1  0.312119  0.003181  0.690959  1
  Dy  Dy8  1  0.590391  0.786741  0.803665  1
  Dy  Dy9  1  0.409609  0.213259  0.196335  1
  Ho  Ho10  1  0.983118  0.786755  0.196374  1
  Ho  Ho11  1  0.016882  0.213245  0.803626  1
  Co  Co12  1  0.624380  0.000053  0.624327  1
  Co  Co13  1  0.375620  0.999947  0.375673  1
  Co  Co14  1  0.110829  0.610869  0.499969  1
  Co  Co15  1  0.889171  0.389131  0.500031  1
  Bi  Bi16  1  0.500000  0.500000  0.000000  1
  Os  Os17  1  0.000000  0.000000  0.000000  1
