# generated using pymatgen
data_Tm3ThCd2Cu3Pd
_symmetry_space_group_name_H-M   'P 1'
_cell_length_a   3.72640500
_cell_length_b   7.59379217
_cell_length_c   7.59379221
_cell_angle_alpha   90.93574694
_cell_angle_beta   90.00000000
_cell_angle_gamma   90.00000000
_symmetry_Int_Tables_number   1
_chemical_formula_structural   Tm3ThCd2Cu3Pd
_chemical_formula_sum   'Tm3 Th1 Cd2 Cu3 Pd1'
_cell_volume   214.85702003
_cell_formula_units_Z   1
loop_
 _symmetry_equiv_pos_site_id
 _symmetry_equiv_pos_as_xyz
  1  'x, y, z'
loop_
 _atom_site_type_symbol
 _atom_site_label
 _atom_site_symmetry_multiplicity
 _atom_site_fract_x
 _atom_site_fract_y
 _atom_site_fract_z
 _atom_site_occupancy
  Tm  Tm0  1  0.500000  0.826541  0.326541  1
  Tm  Tm1  1  0.500000  0.329896  0.175351  1
  Tm  Tm2  1  0.500000  0.675351  0.829896  1
  Th  Th3  1  0.500000  0.170717  0.670717  1
  Cd  Cd4  1  0.000000  0.993956  0.007988  1
  Cd  Cd5  1  0.000000  0.507988  0.493956  1
  Cu  Cu6  1  0.000000  0.624812  0.124812  1
  Cu  Cu7  1  0.000000  0.874022  0.618789  1
  Cu  Cu8  1  0.000000  0.118789  0.374022  1
  Pd  Pd9  1  0.000000  0.377926  0.877926  1
