# generated using pymatgen
data_Hf18TiRe7N6
_symmetry_space_group_name_H-M   'P 1'
_cell_length_a   8.51179300
_cell_length_b   8.51179414
_cell_length_c   8.45662100
_cell_angle_alpha   90.00000000
_cell_angle_beta   90.00000000
_cell_angle_gamma   119.99999945
_symmetry_Int_Tables_number   1
_chemical_formula_structural   Hf18TiRe7N6
_chemical_formula_sum   'Hf18 Ti1 Re7 N6'
_cell_volume   530.60295761
_cell_formula_units_Z   1
loop_
 _symmetry_equiv_pos_site_id
 _symmetry_equiv_pos_as_xyz
  1  'x, y, z'
loop_
 _atom_site_type_symbol
 _atom_site_label
 _atom_site_symmetry_multiplicity
 _atom_site_fract_x
 _atom_site_fract_y
 _atom_site_fract_z
 _atom_site_occupancy
  Hf  Hf0  1  0.454335  0.908670  0.249066  1
  Hf  Hf1  1  0.545665  0.091330  0.750934  1
  Hf  Hf2  1  0.091330  0.545665  0.249066  1
  Hf  Hf3  1  0.908670  0.454335  0.750934  1
  Hf  Hf4  1  0.454335  0.545665  0.249066  1
  Hf  Hf5  1  0.545665  0.454335  0.750934  1
  Hf  Hf6  1  0.204417  0.408835  0.558288  1
  Hf  Hf7  1  0.795583  0.591165  0.441712  1
  Hf  Hf8  1  0.591165  0.795583  0.558288  1
  Hf  Hf9  1  0.796522  0.593043  0.057297  1
  Hf  Hf10  1  0.408835  0.204417  0.441712  1
  Hf  Hf11  1  0.203478  0.406957  0.942703  1
  Hf  Hf12  1  0.204417  0.795583  0.558288  1
  Hf  Hf13  1  0.406957  0.203478  0.057297  1
  Hf  Hf14  1  0.795583  0.204417  0.441712  1
  Hf  Hf15  1  0.593043  0.796522  0.942703  1
  Hf  Hf16  1  0.796522  0.203478  0.057297  1
  Hf  Hf17  1  0.203478  0.796522  0.942703  1
  Ti  Ti18  1  0.000000  0.000000  0.000000  1
  Re  Re19  1  0.109112  0.218223  0.250538  1
  Re  Re20  1  0.890888  0.781777  0.749462  1
  Re  Re21  1  0.781777  0.890888  0.250538  1
  Re  Re22  1  0.218223  0.109112  0.749462  1
  Re  Re23  1  0.109112  0.890888  0.250538  1
  Re  Re24  1  0.890888  0.109112  0.749462  1
  Re  Re25  1  0.000000  0.000000  0.500000  1
  N  N26  1  0.500000  0.000000  0.000000  1
  N  N27  1  0.000000  0.500000  0.000000  1
  N  N28  1  0.500000  0.000000  0.500000  1
  N  N29  1  0.500000  0.500000  0.000000  1
  N  N30  1  0.000000  0.500000  0.500000  1
  N  N31  1  0.500000  0.500000  0.500000  1
