# generated using pymatgen
data_K4Cd5
_symmetry_space_group_name_H-M   'P 1'
_cell_length_a   6.41212300
_cell_length_b   6.41212239
_cell_length_c   19.25952100
_cell_angle_alpha   90.00000000
_cell_angle_beta   90.00000000
_cell_angle_gamma   119.99999796
_symmetry_Int_Tables_number   1
_chemical_formula_structural   K4Cd5
_chemical_formula_sum   'K8 Cd10'
_cell_volume   685.77203394
_cell_formula_units_Z   2
loop_
 _symmetry_equiv_pos_site_id
 _symmetry_equiv_pos_as_xyz
  1  'x, y, z'
loop_
 _atom_site_type_symbol
 _atom_site_label
 _atom_site_symmetry_multiplicity
 _atom_site_fract_x
 _atom_site_fract_y
 _atom_site_fract_z
 _atom_site_occupancy
  K  K0  1  0.333334  0.666667  0.064163  1
  K  K1  1  0.000000  0.000000  0.141680  1
  K  K2  1  0.000000  0.000000  0.358320  1
  K  K3  1  0.333334  0.666667  0.435837  1
  K  K4  1  0.666666  0.333334  0.564163  1
  K  K5  1  0.000000  0.000000  0.641680  1
  K  K6  1  0.000000  0.000000  0.858320  1
  K  K7  1  0.666666  0.333334  0.935837  1
  Cd  Cd8  1  0.666666  0.333334  0.127396  1
  Cd  Cd9  1  0.017324  0.508663  0.250000  1
  Cd  Cd10  1  0.491338  0.508663  0.250000  1
  Cd  Cd11  1  0.491337  0.982674  0.250000  1
  Cd  Cd12  1  0.666666  0.333334  0.372604  1
  Cd  Cd13  1  0.333334  0.666667  0.627397  1
  Cd  Cd14  1  0.508662  0.017325  0.750000  1
  Cd  Cd15  1  0.508663  0.491338  0.750000  1
  Cd  Cd16  1  0.982675  0.491338  0.750000  1
  Cd  Cd17  1  0.333334  0.666667  0.872603  1
