# generated using pymatgen
data_SmSc2U(ReB6)2
_symmetry_space_group_name_H-M   'P 1'
_cell_length_a   3.61761000
_cell_length_b   9.00326911
_cell_length_c   11.38954178
_cell_angle_alpha   89.79729673
_cell_angle_beta   90.00000000
_cell_angle_gamma   90.00000000
_symmetry_Int_Tables_number   1
_chemical_formula_structural   SmSc2U(ReB6)2
_chemical_formula_sum   'Sm2 Sc4 U2 Re4 B24'
_cell_volume   370.95865779
_cell_formula_units_Z   2
loop_
 _symmetry_equiv_pos_site_id
 _symmetry_equiv_pos_as_xyz
  1  'x, y, z'
loop_
 _atom_site_type_symbol
 _atom_site_label
 _atom_site_symmetry_multiplicity
 _atom_site_fract_x
 _atom_site_fract_y
 _atom_site_fract_z
 _atom_site_occupancy
  Sm  Sm0  1  0.000000  0.321229  0.414025  1
  Sm  Sm1  1  0.000000  0.678771  0.585975  1
  Sc  Sc2  1  0.000000  0.944812  0.372985  1
  Sc  Sc3  1  0.000000  0.055188  0.627015  1
  Sc  Sc4  1  0.000000  0.445991  0.125963  1
  Sc  Sc5  1  0.000000  0.554009  0.874037  1
  U  U6  1  0.000000  0.821184  0.085526  1
  U  U7  1  0.000000  0.178816  0.914474  1
  Re  Re8  1  0.000000  0.644358  0.313798  1
  Re  Re9  1  0.000000  0.355642  0.686202  1
  Re  Re10  1  0.000000  0.137059  0.176226  1
  Re  Re11  1  0.000000  0.862941  0.823774  1
  B  B12  1  0.500000  0.555435  0.430471  1
  B  B13  1  0.500000  0.444565  0.569529  1
  B  B14  1  0.500000  0.053864  0.065517  1
  B  B15  1  0.500000  0.946136  0.934483  1
  B  B16  1  0.500000  0.753994  0.416860  1
  B  B17  1  0.500000  0.246006  0.583140  1
  B  B18  1  0.500000  0.252913  0.079629  1
  B  B19  1  0.500000  0.747087  0.920371  1
  B  B20  1  0.500000  0.795679  0.262934  1
  B  B21  1  0.500000  0.204321  0.737066  1
  B  B22  1  0.500000  0.293871  0.233077  1
  B  B23  1  0.500000  0.706129  0.766923  1
  B  B24  1  0.500000  0.631519  0.181040  1
  B  B25  1  0.500000  0.368481  0.818960  1
  B  B26  1  0.500000  0.128249  0.315484  1
  B  B27  1  0.500000  0.871751  0.684516  1
  B  B28  1  0.500000  0.981122  0.212965  1
  B  B29  1  0.500000  0.018878  0.787035  1
  B  B30  1  0.500000  0.482333  0.283880  1
  B  B31  1  0.500000  0.517667  0.716120  1
  B  B32  1  0.500000  0.601524  0.027183  1
  B  B33  1  0.500000  0.398476  0.972817  1
  B  B34  1  0.500000  0.096322  0.473478  1
  B  B35  1  0.500000  0.903678  0.526522  1
