# generated using pymatgen
data_Nd14IrPd5
_symmetry_space_group_name_H-M   'P 1'
_cell_length_a   6.48341465
_cell_length_b   10.19869462
_cell_length_c   10.19869457
_cell_angle_alpha   120.01914524
_cell_angle_beta   89.84794134
_cell_angle_gamma   90.15205531
_symmetry_Int_Tables_number   1
_chemical_formula_structural   Nd14IrPd5
_chemical_formula_sum   'Nd14 Ir1 Pd5'
_cell_volume   583.89902227
_cell_formula_units_Z   1
loop_
 _symmetry_equiv_pos_site_id
 _symmetry_equiv_pos_as_xyz
  1  'x, y, z'
loop_
 _atom_site_type_symbol
 _atom_site_label
 _atom_site_symmetry_multiplicity
 _atom_site_fract_x
 _atom_site_fract_y
 _atom_site_fract_z
 _atom_site_occupancy
  Nd  Nd0  1  0.452212  0.333476  0.666524  1
  Nd  Nd1  1  0.960193  0.668854  0.331146  1
  Nd  Nd2  1  0.239410  0.126906  0.873094  1
  Nd  Nd3  1  0.239763  0.749298  0.880139  1
  Nd  Nd4  1  0.239763  0.119861  0.250702  1
  Nd  Nd5  1  0.749872  0.872236  0.127764  1
  Nd  Nd6  1  0.742450  0.253157  0.126264  1
  Nd  Nd7  1  0.742450  0.873736  0.746843  1
  Nd  Nd8  1  0.447651  0.537913  0.462087  1
  Nd  Nd9  1  0.443162  0.920630  0.456545  1
  Nd  Nd10  1  0.443162  0.543455  0.079370  1
  Nd  Nd11  1  0.947819  0.461856  0.538144  1
  Nd  Nd12  1  0.945006  0.076307  0.536660  1
  Nd  Nd13  1  0.945006  0.463340  0.923693  1
  Ir  Ir14  1  0.188877  0.811053  0.188947  1
  Pd  Pd15  1  0.191743  0.376199  0.189098  1
  Pd  Pd16  1  0.191743  0.810902  0.623801  1
  Pd  Pd17  1  0.691977  0.189104  0.810896  1
  Pd  Pd18  1  0.691871  0.622201  0.810483  1
  Pd  Pd19  1  0.691871  0.189517  0.377799  1
