# generated using pymatgen
data_TiCo4Si3GeMo3
_symmetry_space_group_name_H-M   'P 1'
_cell_length_a   3.62917600
_cell_length_b   6.09816526
_cell_length_c   6.97203927
_cell_angle_alpha   90.58197190
_cell_angle_beta   90.00000000
_cell_angle_gamma   90.00000000
_symmetry_Int_Tables_number   1
_chemical_formula_structural   TiCo4Si3GeMo3
_chemical_formula_sum   'Ti1 Co4 Si3 Ge1 Mo3'
_cell_volume   154.29243770
_cell_formula_units_Z   1
loop_
 _symmetry_equiv_pos_site_id
 _symmetry_equiv_pos_as_xyz
  1  'x, y, z'
loop_
 _atom_site_type_symbol
 _atom_site_label
 _atom_site_symmetry_multiplicity
 _atom_site_fract_x
 _atom_site_fract_y
 _atom_site_fract_z
 _atom_site_occupancy
  Ti  Ti0  1  0.750000  0.979002  0.182884  1
  Co  Co1  1  0.250000  0.643585  0.067537  1
  Co  Co2  1  0.750000  0.351548  0.941424  1
  Co  Co3  1  0.250000  0.140675  0.436007  1
  Co  Co4  1  0.750000  0.857430  0.552370  1
  Si  Si5  1  0.250000  0.768078  0.378874  1
  Si  Si6  1  0.750000  0.226474  0.621135  1
  Si  Si7  1  0.250000  0.274516  0.122114  1
  Ge  Ge8  1  0.750000  0.731080  0.876146  1
  Mo  Mo9  1  0.250000  0.032441  0.822299  1
  Mo  Mo10  1  0.750000  0.473037  0.327855  1
  Mo  Mo11  1  0.250000  0.522133  0.671353  1
