# generated using pymatgen
data_Ti12Co6Re5Mo
_symmetry_space_group_name_H-M   'P 1'
_cell_length_a   4.31266500
_cell_length_b   6.10615300
_cell_length_c   12.98602800
_cell_angle_alpha   90.00000000
_cell_angle_beta   89.99963757
_cell_angle_gamma   90.00000000
_symmetry_Int_Tables_number   1
_chemical_formula_structural   Ti12Co6Re5Mo
_chemical_formula_sum   'Ti12 Co6 Re5 Mo1'
_cell_volume   341.97136451
_cell_formula_units_Z   1
loop_
 _symmetry_equiv_pos_site_id
 _symmetry_equiv_pos_as_xyz
  1  'x, y, z'
loop_
 _atom_site_type_symbol
 _atom_site_label
 _atom_site_symmetry_multiplicity
 _atom_site_fract_x
 _atom_site_fract_y
 _atom_site_fract_z
 _atom_site_occupancy
  Ti  Ti0  1  0.499999  0.248754  0.000000  1
  Ti  Ti1  1  0.499999  0.751246  0.000000  1
  Ti  Ti2  1  0.000081  0.251038  0.166567  1
  Ti  Ti3  1  0.000081  0.748961  0.166567  1
  Ti  Ti4  1  0.499936  0.249428  0.333168  1
  Ti  Ti5  1  0.499936  0.750573  0.333168  1
  Ti  Ti6  1  0.000000  0.250747  0.500000  1
  Ti  Ti7  1  0.000000  0.749253  0.500000  1
  Ti  Ti8  1  0.500065  0.249428  0.666832  1
  Ti  Ti9  1  0.500065  0.750573  0.666832  1
  Ti  Ti10  1  0.999919  0.251038  0.833433  1
  Ti  Ti11  1  0.999919  0.748961  0.833433  1
  Co  Co12  1  0.000000  0.000000  0.000000  1
  Co  Co13  1  0.500035  0.500000  0.168359  1
  Co  Co14  1  0.999985  0.000000  0.333625  1
  Co  Co15  1  0.499999  0.500000  0.500000  1
  Co  Co16  1  0.000016  0.000000  0.666375  1
  Co  Co17  1  0.499966  0.500000  0.831641  1
  Re  Re18  1  0.500092  0.000000  0.167038  1
  Re  Re19  1  0.999904  0.500000  0.333857  1
  Re  Re20  1  0.499999  0.000000  0.500000  1
  Re  Re21  1  0.000096  0.500000  0.666143  1
  Re  Re22  1  0.499910  0.000000  0.832962  1
  Mo  Mo23  1  0.000000  0.500000  0.000000  1
