# generated using pymatgen
data_Lu8CdIn(SnAu4)2
_symmetry_space_group_name_H-M   'P 1'
_cell_length_a   7.91291000
_cell_length_b   7.91291000
_cell_length_c   7.19191100
_cell_angle_alpha   90.00000000
_cell_angle_beta   90.00000000
_cell_angle_gamma   90.00000000
_symmetry_Int_Tables_number   1
_chemical_formula_structural   Lu8CdIn(SnAu4)2
_chemical_formula_sum   'Lu8 Cd1 In1 Sn2 Au8'
_cell_volume   450.31535579
_cell_formula_units_Z   1
loop_
 _symmetry_equiv_pos_site_id
 _symmetry_equiv_pos_as_xyz
  1  'x, y, z'
loop_
 _atom_site_type_symbol
 _atom_site_label
 _atom_site_symmetry_multiplicity
 _atom_site_fract_x
 _atom_site_fract_y
 _atom_site_fract_z
 _atom_site_occupancy
  Lu  Lu0  1  0.843103  0.156085  0.500273  1
  Lu  Lu1  1  0.156897  0.843915  0.500273  1
  Lu  Lu2  1  0.343915  0.343103  0.999727  1
  Lu  Lu3  1  0.656085  0.656897  0.999727  1
  Lu  Lu4  1  0.681501  0.682552  0.500254  1
  Lu  Lu5  1  0.318499  0.317448  0.500254  1
  Lu  Lu6  1  0.182553  0.818499  0.999746  1
  Lu  Lu7  1  0.817448  0.181502  0.999746  1
  Cd  Cd8  1  0.500000  0.000000  0.750000  1
  In  In9  1  0.000000  0.500000  0.250000  1
  Sn  Sn10  1  0.500000  0.000000  0.250000  1
  Sn  Sn11  1  0.000000  0.500000  0.750000  1
  Au  Au12  1  0.629882  0.371973  0.275032  1
  Au  Au13  1  0.370118  0.628027  0.275032  1
  Au  Au14  1  0.130914  0.127416  0.774789  1
  Au  Au15  1  0.869086  0.872584  0.774789  1
  Au  Au16  1  0.372584  0.630914  0.725211  1
  Au  Au17  1  0.627416  0.369086  0.725211  1
  Au  Au18  1  0.871973  0.870118  0.224968  1
  Au  Au19  1  0.128027  0.129882  0.224968  1
