# generated using pymatgen
data_K5(HgAu)3
_symmetry_space_group_name_H-M   'P 1'
_cell_length_a   17.47829749
_cell_length_b   17.47829581
_cell_length_c   5.04069500
_cell_angle_alpha   90.00000000
_cell_angle_beta   90.00000000
_cell_angle_gamma   165.05119244
_symmetry_Int_Tables_number   1
_chemical_formula_structural   K5(HgAu)3
_chemical_formula_sum   'K5 Hg3 Au3'
_cell_volume   397.22275057
_cell_formula_units_Z   1
loop_
 _symmetry_equiv_pos_site_id
 _symmetry_equiv_pos_as_xyz
  1  'x, y, z'
loop_
 _atom_site_type_symbol
 _atom_site_label
 _atom_site_symmetry_multiplicity
 _atom_site_fract_x
 _atom_site_fract_y
 _atom_site_fract_z
 _atom_site_occupancy
  K  K0  1  0.998799  0.001201  0.000000  1
  K  K1  1  0.614520  0.385480  0.000000  1
  K  K2  1  0.385088  0.614912  0.000000  1
  K  K3  1  0.803472  0.196527  0.500000  1
  K  K4  1  0.194717  0.805282  0.500000  1
  Hg  Hg5  1  0.726043  0.273957  0.000000  1
  Hg  Hg6  1  0.908182  0.091818  0.500000  1
  Hg  Hg7  1  0.542705  0.457294  0.500000  1
  Au  Au8  1  0.274842  0.725158  0.000000  1
  Au  Au9  1  0.457745  0.542254  0.500000  1
  Au  Au10  1  0.093886  0.906114  0.500000  1
