# generated using pymatgen
data_PuUB6Ru
_symmetry_space_group_name_H-M   'P 1'
_cell_length_a   3.59101500
_cell_length_b   9.38655900
_cell_length_c   11.46973800
_cell_angle_alpha   90.00000000
_cell_angle_beta   90.00000000
_cell_angle_gamma   90.00000000
_symmetry_Int_Tables_number   1
_chemical_formula_structural   PuUB6Ru
_chemical_formula_sum   'Pu4 U4 B24 Ru4'
_cell_volume   386.61360339
_cell_formula_units_Z   4
loop_
 _symmetry_equiv_pos_site_id
 _symmetry_equiv_pos_as_xyz
  1  'x, y, z'
loop_
 _atom_site_type_symbol
 _atom_site_label
 _atom_site_symmetry_multiplicity
 _atom_site_fract_x
 _atom_site_fract_y
 _atom_site_fract_z
 _atom_site_occupancy
  Pu  Pu0  1  0.000000  0.337670  0.407516  1
  Pu  Pu1  1  0.000000  0.662330  0.592484  1
  Pu  Pu2  1  0.000000  0.837670  0.092484  1
  Pu  Pu3  1  0.000000  0.162330  0.907516  1
  U  U4  1  0.000000  0.957027  0.397432  1
  U  U5  1  0.000000  0.042973  0.602568  1
  U  U6  1  0.000000  0.457027  0.102568  1
  U  U7  1  0.000000  0.542973  0.897432  1
  B  B8  1  0.500000  0.552138  0.431073  1
  B  B9  1  0.500000  0.447862  0.568927  1
  B  B10  1  0.500000  0.052138  0.068927  1
  B  B11  1  0.500000  0.947862  0.931073  1
  B  B12  1  0.500000  0.742272  0.423369  1
  B  B13  1  0.500000  0.257728  0.576631  1
  B  B14  1  0.500000  0.242272  0.076631  1
  B  B15  1  0.500000  0.757728  0.923369  1
  B  B16  1  0.500000  0.803407  0.274297  1
  B  B17  1  0.500000  0.196593  0.725703  1
  B  B18  1  0.500000  0.303407  0.225703  1
  B  B19  1  0.500000  0.696593  0.774297  1
  B  B20  1  0.500000  0.645711  0.188784  1
  B  B21  1  0.500000  0.354289  0.811216  1
  B  B22  1  0.500000  0.145711  0.311216  1
  B  B23  1  0.500000  0.854289  0.688784  1
  B  B24  1  0.500000  0.989095  0.219376  1
  B  B25  1  0.500000  0.010905  0.780624  1
  B  B26  1  0.500000  0.489095  0.280624  1
  B  B27  1  0.500000  0.510905  0.719376  1
  B  B28  1  0.500000  0.643398  0.039812  1
  B  B29  1  0.500000  0.356602  0.960188  1
  B  B30  1  0.500000  0.143398  0.460188  1
  B  B31  1  0.500000  0.856602  0.539812  1
  Ru  Ru32  1  0.000000  0.646878  0.319057  1
  Ru  Ru33  1  0.000000  0.353122  0.680943  1
  Ru  Ru34  1  0.000000  0.146878  0.180943  1
  Ru  Ru35  1  0.000000  0.853122  0.819057  1
