# generated using pymatgen
data_U4Ge2PtRh5
_symmetry_space_group_name_H-M   'P 1'
_cell_length_a   5.57683000
_cell_length_b   5.55363320
_cell_length_c   7.88655700
_cell_angle_alpha   90.00000000
_cell_angle_beta   90.00000000
_cell_angle_gamma   120.13825427
_symmetry_Int_Tables_number   1
_chemical_formula_structural   U4Ge2PtRh5
_chemical_formula_sum   'U4 Ge2 Pt1 Rh5'
_cell_volume   211.23990109
_cell_formula_units_Z   1
loop_
 _symmetry_equiv_pos_site_id
 _symmetry_equiv_pos_as_xyz
  1  'x, y, z'
loop_
 _atom_site_type_symbol
 _atom_site_label
 _atom_site_symmetry_multiplicity
 _atom_site_fract_x
 _atom_site_fract_y
 _atom_site_fract_z
 _atom_site_occupancy
  U  U0  1  0.664864  0.329727  0.572484  1
  U  U1  1  0.336191  0.672382  0.419944  1
  U  U2  1  0.336191  0.672382  0.080056  1
  U  U3  1  0.664864  0.329727  0.927516  1
  Ge  Ge4  1  0.997171  0.994342  0.001598  1
  Ge  Ge5  1  0.997171  0.994342  0.498402  1
  Pt  Pt6  1  0.172600  0.345198  0.750000  1
  Rh  Rh7  1  0.660663  0.831887  0.750000  1
  Rh  Rh8  1  0.171225  0.831887  0.750000  1
  Rh  Rh9  1  0.828655  0.657311  0.250000  1
  Rh  Rh10  1  0.339291  0.170407  0.250000  1
  Rh  Rh11  1  0.831115  0.170407  0.250000  1
