# generated using pymatgen
data_Ho2Tm10InCo5
_symmetry_space_group_name_H-M   'P 1'
_cell_length_a   8.17681669
_cell_length_b   8.17681756
_cell_length_c   8.17031943
_cell_angle_alpha   111.03349570
_cell_angle_beta   110.76937086
_cell_angle_gamma   106.68120099
_symmetry_Int_Tables_number   1
_chemical_formula_structural   Ho2Tm10InCo5
_chemical_formula_sum   'Ho2 Tm10 In1 Co5'
_cell_volume   419.58841932
_cell_formula_units_Z   1
loop_
 _symmetry_equiv_pos_site_id
 _symmetry_equiv_pos_as_xyz
  1  'x, y, z'
loop_
 _atom_site_type_symbol
 _atom_site_label
 _atom_site_symmetry_multiplicity
 _atom_site_fract_x
 _atom_site_fract_y
 _atom_site_fract_z
 _atom_site_occupancy
  Ho  Ho0  1  0.288636  0.185675  0.474309  1
  Ho  Ho1  1  0.711364  0.814325  0.525691  1
  Tm  Tm2  1  0.288130  0.813995  0.102123  1
  Tm  Tm3  1  0.711870  0.186005  0.897877  1
  Tm  Tm4  1  0.619791  0.313818  0.304829  1
  Tm  Tm5  1  0.380209  0.686182  0.695171  1
  Tm  Tm6  1  0.008988  0.314962  0.695171  1
  Tm  Tm7  1  0.991012  0.685038  0.304829  1
  Tm  Tm8  1  0.211774  0.404558  0.191206  1
  Tm  Tm9  1  0.788226  0.595442  0.808794  1
  Tm  Tm10  1  0.213353  0.020570  0.808794  1
  Tm  Tm11  1  0.786647  0.979430  0.191206  1
  In  In12  1  0.500000  0.500000  0.000000  1
  Co  Co13  1  0.999479  0.376908  0.376387  1
  Co  Co14  1  0.000521  0.623092  0.623613  1
  Co  Co15  1  0.386981  0.886981  0.500000  1
  Co  Co16  1  0.613019  0.113019  0.500000  1
  Co  Co17  1  0.000000  0.000000  0.000000  1
