# generated using pymatgen
data_Li2Yb3InSn3
_symmetry_space_group_name_H-M   'P 1'
_cell_length_a   7.56747675
_cell_length_b   7.56747677
_cell_length_c   4.68671300
_cell_angle_alpha   90.00000000
_cell_angle_beta   90.00000000
_cell_angle_gamma   120.35918479
_symmetry_Int_Tables_number   1
_chemical_formula_structural   Li2Yb3InSn3
_chemical_formula_sum   'Li2 Yb3 In1 Sn3'
_cell_volume   231.58898453
_cell_formula_units_Z   1
loop_
 _symmetry_equiv_pos_site_id
 _symmetry_equiv_pos_as_xyz
  1  'x, y, z'
loop_
 _atom_site_type_symbol
 _atom_site_label
 _atom_site_symmetry_multiplicity
 _atom_site_fract_x
 _atom_site_fract_y
 _atom_site_fract_z
 _atom_site_occupancy
  Li  Li0  1  0.762402  0.002645  0.500000  1
  Li  Li1  1  0.002645  0.762402  0.500000  1
  Yb  Yb2  1  0.432513  0.000346  0.000000  1
  Yb  Yb3  1  0.000346  0.432513  0.000000  1
  Yb  Yb4  1  0.565246  0.565246  0.000000  1
  In  In5  1  0.239619  0.239619  0.500000  1
  Sn  Sn6  1  0.333713  0.672622  0.500000  1
  Sn  Sn7  1  0.672622  0.333713  0.500000  1
  Sn  Sn8  1  0.990895  0.990895  0.000000  1
