# generated using pymatgen
data_K3RbFe2F12
_symmetry_space_group_name_H-M   'P 1'
_cell_length_a   6.10930900
_cell_length_b   8.16664200
_cell_length_c   6.10930900
_cell_angle_alpha   90.00000000
_cell_angle_beta   90.00000000
_cell_angle_gamma   90.00000000
_symmetry_Int_Tables_number   1
_chemical_formula_structural   K3RbFe2F12
_chemical_formula_sum   'K3 Rb1 Fe2 F12'
_cell_volume   304.80894042
_cell_formula_units_Z   1
loop_
 _symmetry_equiv_pos_site_id
 _symmetry_equiv_pos_as_xyz
  1  'x, y, z'
loop_
 _atom_site_type_symbol
 _atom_site_label
 _atom_site_symmetry_multiplicity
 _atom_site_fract_x
 _atom_site_fract_y
 _atom_site_fract_z
 _atom_site_occupancy
  K  K0  1  0.000000  0.750000  0.500000  1
  K  K1  1  0.500000  0.750000  0.000000  1
  K  K2  1  0.000000  0.250000  0.500000  1
  Rb  Rb3  1  0.500000  0.250000  0.000000  1
  Fe  Fe4  1  0.000000  0.996052  0.000000  1
  Fe  Fe5  1  0.500000  0.503948  0.500000  1
  F  F6  1  0.000000  0.217621  0.000000  1
  F  F7  1  0.500000  0.724659  0.500000  1
  F  F8  1  0.278683  0.504217  0.281088  1
  F  F9  1  0.781088  0.995783  0.778683  1
  F  F10  1  0.278683  0.504217  0.718912  1
  F  F11  1  0.781088  0.995783  0.221317  1
  F  F12  1  0.000000  0.775341  0.000000  1
  F  F13  1  0.500000  0.282379  0.500000  1
  F  F14  1  0.721317  0.504217  0.718912  1
  F  F15  1  0.218912  0.995783  0.221317  1
  F  F16  1  0.721317  0.504217  0.281088  1
  F  F17  1  0.218912  0.995783  0.778683  1
