# generated using pymatgen
data_Ce3Al11VTc4
_symmetry_space_group_name_H-M   'P 1'
_cell_length_a   8.93429000
_cell_length_b   8.93428854
_cell_length_c   9.67231300
_cell_angle_alpha   90.00000000
_cell_angle_beta   90.00000000
_cell_angle_gamma   119.99999799
_symmetry_Int_Tables_number   1
_chemical_formula_structural   Ce3Al11VTc4
_chemical_formula_sum   'Ce6 Al22 V2 Tc8'
_cell_volume   668.62252323
_cell_formula_units_Z   2
loop_
 _symmetry_equiv_pos_site_id
 _symmetry_equiv_pos_as_xyz
  1  'x, y, z'
loop_
 _atom_site_type_symbol
 _atom_site_label
 _atom_site_symmetry_multiplicity
 _atom_site_fract_x
 _atom_site_fract_y
 _atom_site_fract_z
 _atom_site_occupancy
  Ce  Ce0  1  0.805095  0.610190  0.754632  1
  Ce  Ce1  1  0.194905  0.805095  0.254632  1
  Ce  Ce2  1  0.610190  0.805095  0.254632  1
  Ce  Ce3  1  0.389810  0.194905  0.754632  1
  Ce  Ce4  1  0.805095  0.194905  0.754632  1
  Ce  Ce5  1  0.194905  0.389810  0.254632  1
  Al  Al6  1  0.666667  0.333333  0.508042  1
  Al  Al7  1  0.333333  0.666667  0.008042  1
  Al  Al8  1  0.159389  0.318778  0.577300  1
  Al  Al9  1  0.681222  0.840611  0.577300  1
  Al  Al10  1  0.159389  0.840611  0.577300  1
  Al  Al11  1  0.840611  0.159389  0.077300  1
  Al  Al12  1  0.838852  0.161148  0.421543  1
  Al  Al13  1  0.840611  0.681222  0.077300  1
  Al  Al14  1  0.318778  0.159389  0.077300  1
  Al  Al15  1  0.677705  0.838852  0.921543  1
  Al  Al16  1  0.161148  0.322295  0.921543  1
  Al  Al17  1  0.838852  0.677705  0.421543  1
  Al  Al18  1  0.000000  0.000000  0.248599  1
  Al  Al19  1  0.000000  0.000000  0.748599  1
  Al  Al20  1  0.561873  0.123747  0.246997  1
  Al  Al21  1  0.438127  0.561873  0.746997  1
  Al  Al22  1  0.123747  0.561873  0.746997  1
  Al  Al23  1  0.876253  0.438127  0.246997  1
  Al  Al24  1  0.561873  0.438127  0.246997  1
  Al  Al25  1  0.438127  0.876253  0.746997  1
  Al  Al26  1  0.161148  0.838852  0.921543  1
  Al  Al27  1  0.322295  0.161148  0.421543  1
  V  V28  1  0.333333  0.666667  0.519063  1
  V  V29  1  0.666667  0.333333  0.019063  1
  Tc  Tc30  1  0.000000  0.000000  0.498609  1
  Tc  Tc31  1  0.000000  0.000000  0.998609  1
  Tc  Tc32  1  0.494414  0.988827  0.491424  1
  Tc  Tc33  1  0.505586  0.494414  0.991424  1
  Tc  Tc34  1  0.988827  0.494414  0.991424  1
  Tc  Tc35  1  0.011173  0.505586  0.491424  1
  Tc  Tc36  1  0.494414  0.505586  0.491424  1
  Tc  Tc37  1  0.505586  0.011173  0.991424  1
