# generated using pymatgen
data_SmHoSi4(PtAu)2
_symmetry_space_group_name_H-M   'P 1'
_cell_length_a   4.26082800
_cell_length_b   4.26082800
_cell_length_c   10.05324800
_cell_angle_alpha   90.00000000
_cell_angle_beta   90.00000000
_cell_angle_gamma   90.00000000
_symmetry_Int_Tables_number   1
_chemical_formula_structural   SmHoSi4(PtAu)2
_chemical_formula_sum   'Sm1 Ho1 Si4 Pt2 Au2'
_cell_volume   182.51325154
_cell_formula_units_Z   1
loop_
 _symmetry_equiv_pos_site_id
 _symmetry_equiv_pos_as_xyz
  1  'x, y, z'
loop_
 _atom_site_type_symbol
 _atom_site_label
 _atom_site_symmetry_multiplicity
 _atom_site_fract_x
 _atom_site_fract_y
 _atom_site_fract_z
 _atom_site_occupancy
  Sm  Sm0  1  0.000000  0.500000  0.743442  1
  Ho  Ho1  1  0.500000  0.000000  0.257061  1
  Si  Si2  1  0.000000  0.500000  0.146411  1
  Si  Si3  1  0.500000  0.500000  0.498498  1
  Si  Si4  1  0.500000  0.000000  0.854134  1
  Si  Si5  1  0.000000  0.000000  0.498498  1
  Pt  Pt6  1  0.500000  0.000000  0.616174  1
  Pt  Pt7  1  0.000000  0.500000  0.381496  1
  Au  Au8  1  0.000000  0.000000  0.002143  1
  Au  Au9  1  0.500000  0.500000  0.002143  1
