# generated using pymatgen
data_Li3Si4Ru5
_symmetry_space_group_name_H-M   'P 1'
_cell_length_a   4.12581900
_cell_length_b   5.05342186
_cell_length_c   7.20666485
_cell_angle_alpha   88.04406048
_cell_angle_beta   90.00000000
_cell_angle_gamma   90.00000000
_symmetry_Int_Tables_number   1
_chemical_formula_structural   Li3Si4Ru5
_chemical_formula_sum   'Li3 Si4 Ru5'
_cell_volume   150.16784354
_cell_formula_units_Z   1
loop_
 _symmetry_equiv_pos_site_id
 _symmetry_equiv_pos_as_xyz
  1  'x, y, z'
loop_
 _atom_site_type_symbol
 _atom_site_label
 _atom_site_symmetry_multiplicity
 _atom_site_fract_x
 _atom_site_fract_y
 _atom_site_fract_z
 _atom_site_occupancy
  Li  Li0  1  0.750000  0.498945  0.748969  1
  Li  Li1  1  0.250000  0.499599  0.250828  1
  Li  Li2  1  0.750000  0.999777  0.749696  1
  Si  Si3  1  0.250000  0.220121  0.934740  1
  Si  Si4  1  0.750000  0.815241  0.094534  1
  Si  Si5  1  0.250000  0.779096  0.565816  1
  Si  Si6  1  0.750000  0.186291  0.405066  1
  Ru  Ru7  1  0.250000  0.000119  0.250334  1
  Ru  Ru8  1  0.250000  0.713575  0.901472  1
  Ru  Ru9  1  0.750000  0.331998  0.079533  1
  Ru  Ru10  1  0.250000  0.286329  0.598905  1
  Ru  Ru11  1  0.750000  0.668908  0.420106  1
