# generated using pymatgen
data_Ba8Cu(Si4Au)3
_symmetry_space_group_name_H-M   'P 1'
_cell_length_a   12.48367018
_cell_length_b   10.91887342
_cell_length_c   8.52581200
_cell_angle_alpha   78.82954416
_cell_angle_beta   59.18650325
_cell_angle_gamma   42.06850456
_symmetry_Int_Tables_number   1
_chemical_formula_structural   Ba8Cu(Si4Au)3
_chemical_formula_sum   'Ba8 Cu1 Si12 Au3'
_cell_volume   632.62582095
_cell_formula_units_Z   1
loop_
 _symmetry_equiv_pos_site_id
 _symmetry_equiv_pos_as_xyz
  1  'x, y, z'
loop_
 _atom_site_type_symbol
 _atom_site_label
 _atom_site_symmetry_multiplicity
 _atom_site_fract_x
 _atom_site_fract_y
 _atom_site_fract_z
 _atom_site_occupancy
  Ba  Ba0  1  0.124189  0.124912  0.375664  1
  Ba  Ba1  1  0.876300  0.876724  0.122737  1
  Ba  Ba2  1  0.123274  0.124509  0.876097  1
  Ba  Ba3  1  0.375279  0.374770  0.124796  1
  Ba  Ba4  1  0.621560  0.623050  0.378069  1
  Ba  Ba5  1  0.377851  0.377041  0.622189  1
  Ba  Ba6  1  0.626485  0.626256  0.874206  1
  Ba  Ba7  1  0.874427  0.873252  0.626064  1
  Cu  Cu8  1  0.832164  0.167775  0.832742  1
  Si  Si9  1  0.335988  0.660543  0.825459  1
  Si  Si10  1  0.171091  0.833037  0.663422  1
  Si  Si11  1  0.825624  0.179585  0.336161  1
  Si  Si12  1  0.664621  0.332183  0.169647  1
  Si  Si13  1  0.914549  0.589392  0.423757  1
  Si  Si14  1  0.070785  0.422551  0.591721  1
  Si  Si15  1  0.423347  0.071017  0.914424  1
  Si  Si16  1  0.913278  0.588259  0.911356  1
  Si  Si17  1  0.664716  0.334210  0.666342  1
  Si  Si18  1  0.337608  0.660995  0.339197  1
  Si  Si19  1  0.588645  0.912767  0.587402  1
  Si  Si20  1  0.590247  0.915127  0.071878  1
  Au  Au21  1  0.082382  0.417498  0.084391  1
  Au  Au22  1  0.167754  0.832392  0.166189  1
  Au  Au23  1  0.417833  0.082154  0.416086  1
