# generated using pymatgen
data_Cs8HfSb4
_symmetry_space_group_name_H-M   'P 1'
_cell_length_a   12.54617092
_cell_length_b   12.54617109
_cell_length_c   12.54617000
_cell_angle_alpha   60.00000287
_cell_angle_beta   60.00000242
_cell_angle_gamma   60.00000054
_symmetry_Int_Tables_number   1
_chemical_formula_structural   Cs8HfSb4
_chemical_formula_sum   'Cs16 Hf2 Sb8'
_cell_volume   1396.42814851
_cell_formula_units_Z   2
loop_
 _symmetry_equiv_pos_site_id
 _symmetry_equiv_pos_as_xyz
  1  'x, y, z'
loop_
 _atom_site_type_symbol
 _atom_site_label
 _atom_site_symmetry_multiplicity
 _atom_site_fract_x
 _atom_site_fract_y
 _atom_site_fract_z
 _atom_site_occupancy
  Cs  Cs0  1  0.625000  0.125000  0.625000  1
  Cs  Cs1  1  0.625000  0.625000  0.125000  1
  Cs  Cs2  1  0.125000  0.625000  0.625000  1
  Cs  Cs3  1  0.625000  0.625000  0.625000  1
  Cs  Cs4  1  0.025493  0.025493  0.474507  1
  Cs  Cs5  1  0.775493  0.224507  0.224507  1
  Cs  Cs6  1  0.224507  0.775493  0.775493  1
  Cs  Cs7  1  0.775493  0.775493  0.224507  1
  Cs  Cs8  1  0.775493  0.224507  0.775493  1
  Cs  Cs9  1  0.224507  0.775493  0.224507  1
  Cs  Cs10  1  0.474507  0.025493  0.474507  1
  Cs  Cs11  1  0.474507  0.025493  0.025493  1
  Cs  Cs12  1  0.025493  0.474507  0.474507  1
  Cs  Cs13  1  0.025493  0.474507  0.025493  1
  Cs  Cs14  1  0.224507  0.224507  0.775493  1
  Cs  Cs15  1  0.474507  0.474507  0.025493  1
  Hf  Hf16  1  0.750000  0.750000  0.750000  1
  Hf  Hf17  1  0.500000  0.500000  0.500000  1
  Sb  Sb18  1  0.405707  0.782879  0.405707  1
  Sb  Sb19  1  0.844293  0.844293  0.467121  1
  Sb  Sb20  1  0.467121  0.844293  0.844293  1
  Sb  Sb21  1  0.844293  0.844293  0.844293  1
  Sb  Sb22  1  0.782879  0.405707  0.405707  1
  Sb  Sb23  1  0.405707  0.405707  0.405707  1
  Sb  Sb24  1  0.405707  0.405707  0.782879  1
  Sb  Sb25  1  0.844293  0.467121  0.844293  1
