# generated using pymatgen
data_Yb8ScTaN8
_symmetry_space_group_name_H-M   'P 1'
_cell_length_a   5.94637904
_cell_length_b   5.95243310
_cell_length_c   9.01405800
_cell_angle_alpha   71.08763555
_cell_angle_beta   81.29870524
_cell_angle_gamma   68.60550277
_symmetry_Int_Tables_number   1
_chemical_formula_structural   Yb8ScTaN8
_chemical_formula_sum   'Yb8 Sc1 Ta1 N8'
_cell_volume   280.83540332
_cell_formula_units_Z   1
loop_
 _symmetry_equiv_pos_site_id
 _symmetry_equiv_pos_as_xyz
  1  'x, y, z'
loop_
 _atom_site_type_symbol
 _atom_site_label
 _atom_site_symmetry_multiplicity
 _atom_site_fract_x
 _atom_site_fract_y
 _atom_site_fract_z
 _atom_site_occupancy
  Yb  Yb0  1  0.237767  0.950542  0.608183  1
  Yb  Yb1  1  0.736940  0.610036  0.189746  1
  Yb  Yb2  1  0.754515  0.246533  0.987338  1
  Yb  Yb3  1  0.261467  0.530603  0.424959  1
  Yb  Yb4  1  0.758378  0.047135  0.408256  1
  Yb  Yb5  1  0.261194  0.388061  0.803882  1
  Yb  Yb6  1  0.730907  0.478641  0.578118  1
  Yb  Yb7  1  0.252160  0.753818  0.009155  1
  Sc  Sc8  1  0.718674  0.845807  0.765566  1
  Ta  Ta9  1  0.283851  0.154419  0.239447  1
  N  N10  1  0.988329  0.694184  0.608972  1
  N  N11  1  0.506680  0.191677  0.611793  1
  N  N12  1  0.021617  0.299085  0.378655  1
  N  N13  1  0.503811  0.618854  0.800393  1
  N  N14  1  0.154724  0.148194  0.056170  1
  N  N15  1  0.485890  0.824189  0.373233  1
  N  N16  1  0.485691  0.368422  0.196088  1
  N  N17  1  0.857406  0.849800  0.960046  1
