# generated using pymatgen
data_Dy2Er2ReB12Rh
_symmetry_space_group_name_H-M   'P 1'
_cell_length_a   3.66808900
_cell_length_b   9.12458223
_cell_length_c   11.52002203
_cell_angle_alpha   90.42221171
_cell_angle_beta   90.00000000
_cell_angle_gamma   90.00000000
_symmetry_Int_Tables_number   1
_chemical_formula_structural   Dy2Er2ReB12Rh
_chemical_formula_sum   'Dy4 Er4 Re2 B24 Rh2'
_cell_volume   385.56213084
_cell_formula_units_Z   2
loop_
 _symmetry_equiv_pos_site_id
 _symmetry_equiv_pos_as_xyz
  1  'x, y, z'
loop_
 _atom_site_type_symbol
 _atom_site_label
 _atom_site_symmetry_multiplicity
 _atom_site_fract_x
 _atom_site_fract_y
 _atom_site_fract_z
 _atom_site_occupancy
  Dy  Dy0  1  0.000000  0.318349  0.410953  1
  Dy  Dy1  1  0.000000  0.681651  0.589047  1
  Dy  Dy2  1  0.000000  0.825842  0.082908  1
  Dy  Dy3  1  0.000000  0.174158  0.917092  1
  Er  Er4  1  0.000000  0.945281  0.371854  1
  Er  Er5  1  0.000000  0.054719  0.628146  1
  Er  Er6  1  0.000000  0.442378  0.126722  1
  Er  Er7  1  0.000000  0.557622  0.873278  1
  Re  Re8  1  0.000000  0.139086  0.179827  1
  Re  Re9  1  0.000000  0.860914  0.820173  1
  B  B10  1  0.500000  0.554542  0.434023  1
  B  B11  1  0.500000  0.445458  0.565977  1
  B  B12  1  0.500000  0.053194  0.067603  1
  B  B13  1  0.500000  0.946806  0.932397  1
  B  B14  1  0.500000  0.749322  0.421112  1
  B  B15  1  0.500000  0.250678  0.578888  1
  B  B16  1  0.500000  0.248807  0.081487  1
  B  B17  1  0.500000  0.751193  0.918513  1
  B  B18  1  0.500000  0.791172  0.265307  1
  B  B19  1  0.500000  0.208828  0.734693  1
  B  B20  1  0.500000  0.292848  0.234688  1
  B  B21  1  0.500000  0.707152  0.765312  1
  B  B22  1  0.500000  0.632071  0.183545  1
  B  B23  1  0.500000  0.367929  0.816455  1
  B  B24  1  0.500000  0.131564  0.314895  1
  B  B25  1  0.500000  0.868436  0.685105  1
  B  B26  1  0.500000  0.982948  0.213233  1
  B  B27  1  0.500000  0.017052  0.786767  1
  B  B28  1  0.500000  0.483502  0.287605  1
  B  B29  1  0.500000  0.516498  0.712395  1
  B  B30  1  0.500000  0.605221  0.029232  1
  B  B31  1  0.500000  0.394779  0.970768  1
  B  B32  1  0.500000  0.106603  0.471257  1
  B  B33  1  0.500000  0.893397  0.528743  1
  Rh  Rh34  1  0.000000  0.638075  0.321075  1
  Rh  Rh35  1  0.000000  0.361925  0.678925  1
