# generated using pymatgen
data_Ho19Tm(Bi2Ir)4
_symmetry_space_group_name_H-M   'P 1'
_cell_length_a   7.97447084
_cell_length_b   8.99480927
_cell_length_c   12.48519014
_cell_angle_alpha   89.98595026
_cell_angle_beta   90.04690631
_cell_angle_gamma   89.97586215
_symmetry_Int_Tables_number   1
_chemical_formula_structural   Ho19Tm(Bi2Ir)4
_chemical_formula_sum   'Ho19 Tm1 Bi8 Ir4'
_cell_volume   895.54785251
_cell_formula_units_Z   1
loop_
 _symmetry_equiv_pos_site_id
 _symmetry_equiv_pos_as_xyz
  1  'x, y, z'
loop_
 _atom_site_type_symbol
 _atom_site_label
 _atom_site_symmetry_multiplicity
 _atom_site_fract_x
 _atom_site_fract_y
 _atom_site_fract_z
 _atom_site_occupancy
  Ho  Ho0  1  0.838959  0.750067  0.793892  1
  Ho  Ho1  1  0.160937  0.249986  0.206026  1
  Ho  Ho2  1  0.339338  0.249868  0.705987  1
  Ho  Ho3  1  0.660889  0.750055  0.294087  1
  Ho  Ho4  1  0.376056  0.750113  0.691098  1
  Ho  Ho5  1  0.624409  0.249768  0.308928  1
  Ho  Ho6  1  0.875673  0.249986  0.808731  1
  Ho  Ho7  1  0.124255  0.750007  0.191232  1
  Ho  Ho8  1  0.946972  0.750267  0.501714  1
  Ho  Ho9  1  0.052418  0.249795  0.498331  1
  Ho  Ho10  1  0.447503  0.249958  0.998362  1
  Ho  Ho11  1  0.552539  0.749999  0.001644  1
  Ho  Ho12  1  0.324401  0.958124  0.434022  1
  Ho  Ho13  1  0.175992  0.958003  0.933815  1
  Ho  Ho14  1  0.324044  0.541773  0.433925  1
  Ho  Ho15  1  0.824020  0.041950  0.066178  1
  Ho  Ho16  1  0.675911  0.458005  0.566145  1
  Ho  Ho17  1  0.824032  0.458041  0.066146  1
  Ho  Ho18  1  0.175994  0.541976  0.933818  1
  Tm  Tm19  1  0.674367  0.041984  0.565845  1
  Bi  Bi20  1  0.566609  0.491486  0.826661  1
  Bi  Bi21  1  0.433414  0.508486  0.173392  1
  Bi  Bi22  1  0.066608  0.508486  0.673337  1
  Bi  Bi23  1  0.433401  0.991531  0.173355  1
  Bi  Bi24  1  0.933440  0.491492  0.326656  1
  Bi  Bi25  1  0.566710  0.008546  0.826509  1
  Bi  Bi26  1  0.933583  0.008537  0.326622  1
  Bi  Bi27  1  0.066129  0.991589  0.673208  1
  Ir  Ir28  1  0.572014  0.750622  0.508888  1
  Ir  Ir29  1  0.429377  0.249511  0.491494  1
  Ir  Ir30  1  0.071533  0.250000  0.991171  1
  Ir  Ir31  1  0.928474  0.749993  0.008781  1
