# generated using pymatgen
data_Rb4Zr6CoBr18
_symmetry_space_group_name_H-M   'P 1'
_cell_length_a   10.73766441
_cell_length_b   10.98235616
_cell_length_c   11.09570859
_cell_angle_alpha   118.39454996
_cell_angle_beta   100.24849753
_cell_angle_gamma   103.84905284
_symmetry_Int_Tables_number   1
_chemical_formula_structural   Rb4Zr6CoBr18
_chemical_formula_sum   'Rb4 Zr6 Co1 Br18'
_cell_volume   1050.36571126
_cell_formula_units_Z   1
loop_
 _symmetry_equiv_pos_site_id
 _symmetry_equiv_pos_as_xyz
  1  'x, y, z'
loop_
 _atom_site_type_symbol
 _atom_site_label
 _atom_site_symmetry_multiplicity
 _atom_site_fract_x
 _atom_site_fract_y
 _atom_site_fract_z
 _atom_site_occupancy
  Rb  Rb0  1  0.655975  0.538122  0.227856  1
  Rb  Rb1  1  0.344025  0.461878  0.772144  1
  Rb  Rb2  1  0.690882  0.227504  0.565648  1
  Rb  Rb3  1  0.309118  0.772496  0.434352  1
  Zr  Zr4  1  0.152481  0.058373  0.233862  1
  Zr  Zr5  1  0.847519  0.941627  0.766138  1
  Zr  Zr6  1  0.860684  0.127670  0.134876  1
  Zr  Zr7  1  0.139316  0.872330  0.865124  1
  Zr  Zr8  1  0.147977  0.242029  0.046609  1
  Zr  Zr9  1  0.852023  0.757971  0.953391  1
  Co  Co10  1  0.000000  0.000000  0.000000  1
  Br  Br11  1  0.007002  0.403269  0.191811  1
  Br  Br12  1  0.992998  0.596731  0.808189  1
  Br  Br13  1  0.327664  0.329079  0.306689  1
  Br  Br14  1  0.672336  0.670921  0.693311  1
  Br  Br15  1  0.319085  0.514678  0.099636  1
  Br  Br16  1  0.680915  0.485322  0.900364  1
  Br  Br17  1  0.004684  0.798759  0.205059  1
  Br  Br18  1  0.995316  0.201241  0.794941  1
  Br  Br19  1  0.706289  0.269665  0.282575  1
  Br  Br20  1  0.293711  0.730335  0.717425  1
  Br  Br21  1  0.314193  0.126794  0.906730  1
  Br  Br22  1  0.685807  0.873206  0.093270  1
  Br  Br23  1  0.014874  0.200965  0.403609  1
  Br  Br24  1  0.985126  0.799035  0.596391  1
  Br  Br25  1  0.316287  0.925122  0.108781  1
  Br  Br26  1  0.683713  0.074878  0.891219  1
  Br  Br27  1  0.330497  0.120040  0.494480  1
  Br  Br28  1  0.669503  0.879960  0.505520  1
