# generated using pymatgen
data_Sc12Co3Si12Ru
_symmetry_space_group_name_H-M   'P 1'
_cell_length_a   3.99463600
_cell_length_b   10.04900123
_cell_length_c   11.61965222
_cell_angle_alpha   89.77764008
_cell_angle_beta   90.00000000
_cell_angle_gamma   90.00000000
_symmetry_Int_Tables_number   1
_chemical_formula_structural   Sc12Co3Si12Ru
_chemical_formula_sum   'Sc12 Co3 Si12 Ru1'
_cell_volume   466.43375289
_cell_formula_units_Z   1
loop_
 _symmetry_equiv_pos_site_id
 _symmetry_equiv_pos_as_xyz
  1  'x, y, z'
loop_
 _atom_site_type_symbol
 _atom_site_label
 _atom_site_symmetry_multiplicity
 _atom_site_fract_x
 _atom_site_fract_y
 _atom_site_fract_z
 _atom_site_occupancy
  Sc  Sc0  1  0.250000  0.880387  0.023164  1
  Sc  Sc1  1  0.250000  0.617461  0.523185  1
  Sc  Sc2  1  0.750000  0.122771  0.977637  1
  Sc  Sc3  1  0.750000  0.379489  0.474591  1
  Sc  Sc4  1  0.250000  0.919100  0.602137  1
  Sc  Sc5  1  0.250000  0.579509  0.100869  1
  Sc  Sc6  1  0.750000  0.079576  0.400106  1
  Sc  Sc7  1  0.750000  0.420986  0.902414  1
  Sc  Sc8  1  0.250000  0.651326  0.799331  1
  Sc  Sc9  1  0.250000  0.842412  0.300322  1
  Sc  Sc10  1  0.750000  0.341954  0.200051  1
  Sc  Sc11  1  0.750000  0.166094  0.699605  1
  Co  Co12  1  0.250000  0.388386  0.675040  1
  Co  Co13  1  0.250000  0.111168  0.177575  1
  Co  Co14  1  0.750000  0.609856  0.322933  1
  Si  Si15  1  0.250000  0.015769  0.820784  1
  Si  Si16  1  0.250000  0.493746  0.320871  1
  Si  Si17  1  0.750000  0.994297  0.179393  1
  Si  Si18  1  0.750000  0.502120  0.678300  1
  Si  Si19  1  0.250000  0.257362  0.838643  1
  Si  Si20  1  0.250000  0.247355  0.337242  1
  Si  Si21  1  0.750000  0.747727  0.163210  1
  Si  Si22  1  0.750000  0.746381  0.658564  1
  Si  Si23  1  0.250000  0.198203  0.545093  1
  Si  Si24  1  0.250000  0.301301  0.046969  1
  Si  Si25  1  0.750000  0.799026  0.453174  1
  Si  Si26  1  0.750000  0.695961  0.956528  1
  Ru  Ru27  1  0.750000  0.890272  0.822270  1
