# generated using pymatgen
data_Lu3UGe3P3Ru7
_symmetry_space_group_name_H-M   'P 1'
_cell_length_a   7.05902361
_cell_length_b   7.05902401
_cell_length_c   7.11353752
_cell_angle_alpha   109.47712929
_cell_angle_beta   109.47712426
_cell_angle_gamma   109.16704025
_symmetry_Int_Tables_number   1
_chemical_formula_structural   Lu3UGe3P3Ru7
_chemical_formula_sum   'Lu3 U1 Ge3 P3 Ru7'
_cell_volume   273.84640083
_cell_formula_units_Z   1
loop_
 _symmetry_equiv_pos_site_id
 _symmetry_equiv_pos_as_xyz
  1  'x, y, z'
loop_
 _atom_site_type_symbol
 _atom_site_label
 _atom_site_symmetry_multiplicity
 _atom_site_fract_x
 _atom_site_fract_y
 _atom_site_fract_z
 _atom_site_occupancy
  Lu  Lu0  1  0.998468  0.998468  0.463907  1
  Lu  Lu1  1  0.999169  0.515647  0.003067  1
  Lu  Lu2  1  0.515647  0.999169  0.003067  1
  U  U3  1  0.489310  0.489310  0.490890  1
  Ge  Ge4  1  0.294748  0.294748  0.985408  1
  Ge  Ge5  1  0.704972  0.005623  0.695738  1
  Ge  Ge6  1  0.005623  0.704972  0.695738  1
  P  P7  1  0.670378  0.670378  0.998491  1
  P  P8  1  0.328295  0.996281  0.324204  1
  P  P9  1  0.996281  0.328295  0.324204  1
  Ru  Ru10  1  0.745757  0.256641  0.497794  1
  Ru  Ru11  1  0.742529  0.498679  0.251664  1
  Ru  Ru12  1  0.500027  0.252837  0.742034  1
  Ru  Ru13  1  0.252837  0.500027  0.742034  1
  Ru  Ru14  1  0.256641  0.745757  0.497794  1
  Ru  Ru15  1  0.498679  0.742529  0.251664  1
  Ru  Ru16  1  0.000637  0.000637  0.032303  1
