# generated using pymatgen
data_RbCr2PbF9
_symmetry_space_group_name_H-M   'P 1'
_cell_length_a   5.53211400
_cell_length_b   10.01560800
_cell_length_c   14.23263800
_cell_angle_alpha   90.00000000
_cell_angle_beta   90.00000000
_cell_angle_gamma   90.00000000
_symmetry_Int_Tables_number   1
_chemical_formula_structural   RbCr2PbF9
_chemical_formula_sum   'Rb4 Cr8 Pb4 F36'
_cell_volume   788.59467984
_cell_formula_units_Z   4
loop_
 _symmetry_equiv_pos_site_id
 _symmetry_equiv_pos_as_xyz
  1  'x, y, z'
loop_
 _atom_site_type_symbol
 _atom_site_label
 _atom_site_symmetry_multiplicity
 _atom_site_fract_x
 _atom_site_fract_y
 _atom_site_fract_z
 _atom_site_occupancy
  Rb  Rb0  1  0.250000  0.729515  0.300756  1
  Rb  Rb1  1  0.250000  0.229515  0.199244  1
  Rb  Rb2  1  0.750000  0.770485  0.800756  1
  Rb  Rb3  1  0.750000  0.270485  0.699244  1
  Cr  Cr4  1  0.250000  0.066536  0.845025  1
  Cr  Cr5  1  0.250000  0.566536  0.654975  1
  Cr  Cr6  1  0.750000  0.231354  0.992087  1
  Cr  Cr7  1  0.750000  0.731354  0.507913  1
  Cr  Cr8  1  0.250000  0.768646  0.007913  1
  Cr  Cr9  1  0.750000  0.933464  0.154975  1
  Cr  Cr10  1  0.250000  0.268646  0.492087  1
  Cr  Cr11  1  0.750000  0.433464  0.345025  1
  Pb  Pb12  1  0.250000  0.447953  0.889020  1
  Pb  Pb13  1  0.250000  0.947953  0.610980  1
  Pb  Pb14  1  0.750000  0.552047  0.110980  1
  Pb  Pb15  1  0.750000  0.052047  0.389020  1
  F  F16  1  0.001327  0.616866  0.562768  1
  F  F17  1  0.250000  0.381303  0.606542  1
  F  F18  1  0.498673  0.116866  0.937232  1
  F  F19  1  0.484341  0.516536  0.748482  1
  F  F20  1  0.984341  0.983464  0.248482  1
  F  F21  1  0.010199  0.652392  0.952172  1
  F  F22  1  0.001327  0.116866  0.937232  1
  F  F23  1  0.250000  0.150567  0.387170  1
  F  F24  1  0.501327  0.383134  0.437232  1
  F  F25  1  0.750000  0.255332  0.295245  1
  F  F26  1  0.989801  0.847608  0.452172  1
  F  F27  1  0.250000  0.244668  0.795245  1
  F  F28  1  0.750000  0.755332  0.204755  1
  F  F29  1  0.489801  0.652392  0.952172  1
  F  F30  1  0.510199  0.347608  0.047828  1
  F  F31  1  0.998673  0.883134  0.062768  1
  F  F32  1  0.510199  0.847608  0.452172  1
  F  F33  1  0.501327  0.883134  0.062768  1
  F  F34  1  0.515659  0.483464  0.251518  1
  F  F35  1  0.750000  0.349433  0.887170  1
  F  F36  1  0.750000  0.118697  0.106542  1
  F  F37  1  0.515659  0.983464  0.248482  1
  F  F38  1  0.010199  0.152392  0.547828  1
  F  F39  1  0.015659  0.516536  0.748482  1
  F  F40  1  0.250000  0.881303  0.893458  1
  F  F41  1  0.989801  0.347608  0.047828  1
  F  F42  1  0.998673  0.383134  0.437232  1
  F  F43  1  0.489801  0.152392  0.547828  1
  F  F44  1  0.250000  0.650567  0.112830  1
  F  F45  1  0.750000  0.849433  0.612830  1
  F  F46  1  0.250000  0.744668  0.704755  1
  F  F47  1  0.750000  0.618697  0.393458  1
  F  F48  1  0.484341  0.016535  0.751518  1
  F  F49  1  0.498673  0.616866  0.562768  1
  F  F50  1  0.015659  0.016535  0.751518  1
  F  F51  1  0.984341  0.483464  0.251518  1
