# generated using pymatgen
data_Dy5As12Ir6Ru13
_symmetry_space_group_name_H-M   'P 1'
_cell_length_a   13.04769416
_cell_length_b   13.01592102
_cell_length_c   4.05292600
_cell_angle_alpha   90.00000000
_cell_angle_beta   90.00000000
_cell_angle_gamma   119.90550462
_symmetry_Int_Tables_number   1
_chemical_formula_structural   Dy5As12Ir6Ru13
_chemical_formula_sum   'Dy5 As12 Ir6 Ru13'
_cell_volume   596.65148546
_cell_formula_units_Z   1
loop_
 _symmetry_equiv_pos_site_id
 _symmetry_equiv_pos_as_xyz
  1  'x, y, z'
loop_
 _atom_site_type_symbol
 _atom_site_label
 _atom_site_symmetry_multiplicity
 _atom_site_fract_x
 _atom_site_fract_y
 _atom_site_fract_z
 _atom_site_occupancy
  Dy  Dy0  1  0.666578  0.333350  0.000000  1
  Dy  Dy1  1  0.333421  0.666852  0.000000  1
  Dy  Dy2  1  0.812757  0.001142  0.500000  1
  Dy  Dy3  1  0.186657  0.188522  0.500000  1
  Dy  Dy4  1  0.000643  0.812568  0.500000  1
  As  As5  1  0.630896  0.002415  0.000000  1
  As  As6  1  0.371026  0.370265  0.000000  1
  As  As7  1  0.999690  0.628544  0.000000  1
  As  As8  1  0.685147  0.515912  0.500000  1
  As  As9  1  0.830483  0.312248  0.500000  1
  As  As10  1  0.317035  0.833504  0.500000  1
  As  As11  1  0.516542  0.683274  0.500000  1
  As  As12  1  0.180145  0.000508  0.000000  1
  As  As13  1  0.818649  0.819252  0.000000  1
  As  As14  1  0.996322  0.181364  0.000000  1
  As  As15  1  0.483665  0.166843  0.500000  1
  As  As16  1  0.167926  0.484557  0.500000  1
  Ir  Ir17  1  0.624448  0.806838  0.000000  1
  Ir  Ir18  1  0.183218  0.374298  0.000000  1
  Ir  Ir19  1  0.374957  0.181797  0.000000  1
  Ir  Ir20  1  0.191504  0.818123  0.000000  1
  Ir  Ir21  1  0.806698  0.624465  0.000000  1
  Ir  Ir22  1  0.999226  0.000712  0.000000  1
  Ru  Ru23  1  0.874320  0.513764  0.500000  1
  Ru  Ru24  1  0.486350  0.358542  0.500000  1
  Ru  Ru25  1  0.639228  0.123012  0.500000  1
  Ru  Ru26  1  0.127991  0.643358  0.500000  1
  Ru  Ru27  1  0.358389  0.485208  0.500000  1
  Ru  Ru28  1  0.514664  0.872104  0.500000  1
  Ru  Ru29  1  0.715942  0.715513  0.500000  1
  Ru  Ru30  1  0.002038  0.286175  0.500000  1
  Ru  Ru31  1  0.442383  0.996923  0.000000  1
  Ru  Ru32  1  0.555028  0.554832  0.000000  1
  Ru  Ru33  1  0.003612  0.445931  0.000000  1
  Ru  Ru34  1  0.818195  0.196899  0.000000  1
  Ru  Ru35  1  0.284226  0.000387  0.500000  1
