# generated using pymatgen
data_Pr8TcOsBr8
_symmetry_space_group_name_H-M   'P 1'
_cell_length_a   9.38819941
_cell_length_b   9.38819753
_cell_length_c   6.80629330
_cell_angle_alpha   90.15686203
_cell_angle_beta   90.15686296
_cell_angle_gamma   89.01933982
_symmetry_Int_Tables_number   1
_chemical_formula_structural   Pr8TcOsBr8
_chemical_formula_sum   'Pr8 Tc1 Os1 Br8'
_cell_volume   599.80263214
_cell_formula_units_Z   1
loop_
 _symmetry_equiv_pos_site_id
 _symmetry_equiv_pos_as_xyz
  1  'x, y, z'
loop_
 _atom_site_type_symbol
 _atom_site_label
 _atom_site_symmetry_multiplicity
 _atom_site_fract_x
 _atom_site_fract_y
 _atom_site_fract_z
 _atom_site_occupancy
  Pr  Pr0  1  0.748957  0.100117  0.989950  1
  Pr  Pr1  1  0.100116  0.749388  0.490917  1
  Pr  Pr2  1  0.097752  0.249804  0.996564  1
  Pr  Pr3  1  0.249957  0.097864  0.497596  1
  Pr  Pr4  1  0.902136  0.750043  0.002404  1
  Pr  Pr5  1  0.899883  0.251043  0.510050  1
  Pr  Pr6  1  0.250612  0.899884  0.009083  1
  Pr  Pr7  1  0.750196  0.902248  0.503436  1
  Tc  Tc8  1  0.997143  0.002857  0.250000  1
  Os  Os9  1  0.002790  0.997210  0.750000  1
  Br  Br10  1  0.585286  0.181989  0.578757  1
  Br  Br11  1  0.815192  0.589146  0.418286  1
  Br  Br12  1  0.410854  0.184808  0.081714  1
  Br  Br13  1  0.185127  0.410752  0.581323  1
  Br  Br14  1  0.589248  0.814873  0.918677  1
  Br  Br15  1  0.414610  0.817872  0.422196  1
  Br  Br16  1  0.182128  0.585390  0.077804  1
  Br  Br17  1  0.818011  0.414714  0.921243  1
