# generated using pymatgen
data_Hf5NbCo16Si6As
_symmetry_space_group_name_H-M   'P 1'
_cell_length_a   8.02121920
_cell_length_b   8.00847350
_cell_length_c   8.02121930
_cell_angle_alpha   60.05255048
_cell_angle_beta   59.89490096
_cell_angle_gamma   60.05254192
_symmetry_Int_Tables_number   1
_chemical_formula_structural   Hf5NbCo16Si6As
_chemical_formula_sum   'Hf5 Nb1 Co16 Si6 As1'
_cell_volume   364.34541460
_cell_formula_units_Z   1
loop_
 _symmetry_equiv_pos_site_id
 _symmetry_equiv_pos_as_xyz
  1  'x, y, z'
loop_
 _atom_site_type_symbol
 _atom_site_label
 _atom_site_symmetry_multiplicity
 _atom_site_fract_x
 _atom_site_fract_y
 _atom_site_fract_z
 _atom_site_occupancy
  Hf  Hf0  1  0.205108  0.794892  0.205108  1
  Hf  Hf1  1  0.202329  0.797671  0.796749  1
  Hf  Hf2  1  0.796749  0.203251  0.202329  1
  Hf  Hf3  1  0.796749  0.797671  0.202329  1
  Hf  Hf4  1  0.202329  0.203251  0.796749  1
  Nb  Nb5  1  0.798056  0.201944  0.798056  1
  Co  Co6  1  0.169866  0.170429  0.169866  1
  Co  Co7  1  0.510162  0.830134  0.829571  1
  Co  Co8  1  0.830564  0.507612  0.830564  1
  Co  Co9  1  0.829571  0.830134  0.510162  1
  Co  Co10  1  0.169866  0.489838  0.169866  1
  Co  Co11  1  0.168738  0.169436  0.492388  1
  Co  Co12  1  0.492388  0.169436  0.168738  1
  Co  Co13  1  0.830564  0.831262  0.830564  1
  Co  Co14  1  0.379240  0.379174  0.379240  1
  Co  Co15  1  0.137653  0.620760  0.620826  1
  Co  Co16  1  0.621144  0.140752  0.621144  1
  Co  Co17  1  0.620826  0.620760  0.137653  1
  Co  Co18  1  0.379240  0.862347  0.379240  1
  Co  Co19  1  0.383040  0.378856  0.859248  1
  Co  Co20  1  0.859248  0.378856  0.383040  1
  Co  Co21  1  0.621144  0.616960  0.621144  1
  Si  Si22  1  0.999744  0.500256  0.999744  1
  Si  Si23  1  0.500680  0.001774  0.998226  1
  Si  Si24  1  0.998226  0.499320  0.500680  1
  Si  Si25  1  0.499744  0.000256  0.499744  1
  Si  Si26  1  0.998226  0.001774  0.500680  1
  Si  Si27  1  0.500680  0.499320  0.998226  1
  As  As28  1  0.498122  0.501878  0.498122  1
