# generated using pymatgen
data_Tb18Y2Cd3Hg3Ru2
_symmetry_space_group_name_H-M   'P 1'
_cell_length_a   9.65385900
_cell_length_b   9.65385883
_cell_length_c   9.84683900
_cell_angle_alpha   90.00000000
_cell_angle_beta   90.00000000
_cell_angle_gamma   120.00118689
_symmetry_Int_Tables_number   1
_chemical_formula_structural   Tb18Y2Cd3Hg3Ru2
_chemical_formula_sum   'Tb18 Y2 Cd3 Hg3 Ru2'
_cell_volume   794.73834886
_cell_formula_units_Z   1
loop_
 _symmetry_equiv_pos_site_id
 _symmetry_equiv_pos_as_xyz
  1  'x, y, z'
loop_
 _atom_site_type_symbol
 _atom_site_label
 _atom_site_symmetry_multiplicity
 _atom_site_fract_x
 _atom_site_fract_y
 _atom_site_fract_z
 _atom_site_occupancy
  Tb  Tb0  1  0.999988  0.000012  0.491575  1
  Tb  Tb1  1  0.999988  0.000012  0.008425  1
  Tb  Tb2  1  0.209421  0.790579  0.439188  1
  Tb  Tb3  1  0.209461  0.418891  0.439217  1
  Tb  Tb4  1  0.581109  0.790539  0.439217  1
  Tb  Tb5  1  0.790305  0.209695  0.559848  1
  Tb  Tb6  1  0.790282  0.580599  0.559864  1
  Tb  Tb7  1  0.419401  0.209718  0.559864  1
  Tb  Tb8  1  0.790305  0.209695  0.940152  1
  Tb  Tb9  1  0.790282  0.580599  0.940136  1
  Tb  Tb10  1  0.419401  0.209718  0.940136  1
  Tb  Tb11  1  0.209421  0.790579  0.060812  1
  Tb  Tb12  1  0.209461  0.418891  0.060783  1
  Tb  Tb13  1  0.581109  0.790539  0.060783  1
  Tb  Tb14  1  0.541308  0.458692  0.250000  1
  Tb  Tb15  1  0.541318  0.082625  0.250000  1
  Tb  Tb16  1  0.917375  0.458682  0.250000  1
  Tb  Tb17  1  0.458759  0.541241  0.750000  1
  Y  Y18  1  0.458682  0.917427  0.750000  1
  Y  Y19  1  0.082573  0.541318  0.750000  1
  Cd  Cd20  1  0.113486  0.886514  0.750000  1
  Cd  Cd21  1  0.113459  0.226927  0.750000  1
  Cd  Cd22  1  0.773073  0.886541  0.750000  1
  Hg  Hg23  1  0.879924  0.120076  0.250000  1
  Hg  Hg24  1  0.879931  0.759827  0.250000  1
  Hg  Hg25  1  0.240173  0.120069  0.250000  1
  Ru  Ru26  1  0.333358  0.666642  0.250000  1
  Ru  Ru27  1  0.666645  0.333355  0.750000  1
