# generated using pymatgen
data_HfMn2NbSi2
_symmetry_space_group_name_H-M   'P 1'
_cell_length_a   3.58053300
_cell_length_b   6.48077800
_cell_length_c   7.57910800
_cell_angle_alpha   90.00000000
_cell_angle_beta   90.00000000
_cell_angle_gamma   90.00000000
_symmetry_Int_Tables_number   1
_chemical_formula_structural   HfMn2NbSi2
_chemical_formula_sum   'Hf2 Mn4 Nb2 Si4'
_cell_volume   175.87046883
_cell_formula_units_Z   2
loop_
 _symmetry_equiv_pos_site_id
 _symmetry_equiv_pos_as_xyz
  1  'x, y, z'
loop_
 _atom_site_type_symbol
 _atom_site_label
 _atom_site_symmetry_multiplicity
 _atom_site_fract_x
 _atom_site_fract_y
 _atom_site_fract_z
 _atom_site_occupancy
  Hf  Hf0  1  0.750000  0.032841  0.673192  1
  Hf  Hf1  1  0.750000  0.532841  0.826808  1
  Mn  Mn2  1  0.250000  0.362199  0.562448  1
  Mn  Mn3  1  0.250000  0.862199  0.937552  1
  Mn  Mn4  1  0.750000  0.635856  0.435162  1
  Mn  Mn5  1  0.750000  0.135856  0.064838  1
  Nb  Nb6  1  0.250000  0.969998  0.322487  1
  Nb  Nb7  1  0.250000  0.469998  0.177513  1
  Si  Si8  1  0.250000  0.731490  0.621656  1
  Si  Si9  1  0.250000  0.231490  0.878344  1
  Si  Si10  1  0.750000  0.267617  0.369701  1
  Si  Si11  1  0.750000  0.767617  0.130299  1
