# generated using pymatgen
data_Y2Ho3In4PdPt
_symmetry_space_group_name_H-M   'P 1'
_cell_length_a   3.61108300
_cell_length_b   8.16272875
_cell_length_c   18.28675693
_cell_angle_alpha   90.00516631
_cell_angle_beta   90.00000000
_cell_angle_gamma   90.00000000
_symmetry_Int_Tables_number   1
_chemical_formula_structural   Y2Ho3In4PdPt
_chemical_formula_sum   'Y4 Ho6 In8 Pd2 Pt2'
_cell_volume   539.02576659
_cell_formula_units_Z   2
loop_
 _symmetry_equiv_pos_site_id
 _symmetry_equiv_pos_as_xyz
  1  'x, y, z'
loop_
 _atom_site_type_symbol
 _atom_site_label
 _atom_site_symmetry_multiplicity
 _atom_site_fract_x
 _atom_site_fract_y
 _atom_site_fract_z
 _atom_site_occupancy
  Y  Y0  1  0.000000  0.118660  0.416431  1
  Y  Y1  1  0.000000  0.881340  0.583569  1
  Y  Y2  1  0.000000  0.000000  0.000000  1
  Y  Y3  1  0.000000  0.500000  0.500000  1
  Ho  Ho4  1  0.000000  0.382977  0.915124  1
  Ho  Ho5  1  0.000000  0.617023  0.084876  1
  Ho  Ho6  1  0.000000  0.246533  0.219301  1
  Ho  Ho7  1  0.000000  0.753467  0.780699  1
  Ho  Ho8  1  0.000000  0.261398  0.720549  1
  Ho  Ho9  1  0.000000  0.738602  0.279451  1
  In  In10  1  0.500000  0.421867  0.351075  1
  In  In11  1  0.500000  0.578133  0.648925  1
  In  In12  1  0.500000  0.075727  0.850196  1
  In  In13  1  0.500000  0.924273  0.149804  1
  In  In14  1  0.500000  0.292575  0.066577  1
  In  In15  1  0.500000  0.707425  0.933423  1
  In  In16  1  0.500000  0.206954  0.567726  1
  In  In17  1  0.500000  0.793046  0.432274  1
  Pd  Pd18  1  0.500000  0.023966  0.302766  1
  Pd  Pd19  1  0.500000  0.976034  0.697234  1
  Pt  Pt20  1  0.500000  0.474992  0.803519  1
  Pt  Pt21  1  0.500000  0.525008  0.196481  1
