# generated using pymatgen
data_Er8Hf12Si15P
_symmetry_space_group_name_H-M   'P 1'
_cell_length_a   7.22984677
_cell_length_b   7.23535017
_cell_length_c   13.29300867
_cell_angle_alpha   89.81064188
_cell_angle_beta   89.93621886
_cell_angle_gamma   90.01455799
_symmetry_Int_Tables_number   1
_chemical_formula_structural   Er8Hf12Si15P
_chemical_formula_sum   'Er8 Hf12 Si15 P1'
_cell_volume   695.35932111
_cell_formula_units_Z   1
loop_
 _symmetry_equiv_pos_site_id
 _symmetry_equiv_pos_as_xyz
  1  'x, y, z'
loop_
 _atom_site_type_symbol
 _atom_site_label
 _atom_site_symmetry_multiplicity
 _atom_site_fract_x
 _atom_site_fract_y
 _atom_site_fract_z
 _atom_site_occupancy
  Er  Er0  1  0.998233  0.345033  0.215940  1
  Er  Er1  1  0.004962  0.656154  0.715094  1
  Er  Er2  1  0.155155  0.496539  0.464921  1
  Er  Er3  1  0.506715  0.842700  0.033947  1
  Er  Er4  1  0.844265  0.503480  0.965035  1
  Er  Er5  1  0.495609  0.155176  0.534824  1
  Er  Er6  1  0.345091  0.995920  0.784995  1
  Er  Er7  1  0.652612  0.006099  0.284562  1
  Hf  Hf8  1  0.174622  0.174929  0.000310  1
  Hf  Hf9  1  0.826358  0.826268  0.499791  1
  Hf  Hf10  1  0.324847  0.674807  0.250423  1
  Hf  Hf11  1  0.674555  0.325577  0.750090  1
  Hf  Hf12  1  0.151501  0.000076  0.372755  1
  Hf  Hf13  1  0.851555  0.003107  0.875033  1
  Hf  Hf14  1  0.502639  0.649254  0.624835  1
  Hf  Hf15  1  0.352020  0.497090  0.875301  1
  Hf  Hf16  1  0.494507  0.348172  0.127713  1
  Hf  Hf17  1  0.647563  0.502099  0.375625  1
  Hf  Hf18  1  0.997476  0.149331  0.625307  1
  Hf  Hf19  1  0.000349  0.849122  0.124356  1
  Si  Si20  1  0.638683  0.705308  0.817253  1
  Si  Si21  1  0.204048  0.862398  0.566582  1
  Si  Si22  1  0.138476  0.794536  0.931891  1
  Si  Si23  1  0.794721  0.139605  0.068000  1
  Si  Si24  1  0.861693  0.204600  0.432157  1
  Si  Si25  1  0.295670  0.361034  0.682354  1
  Si  Si26  1  0.703427  0.636916  0.183249  1
  Si  Si27  1  0.294987  0.040298  0.180992  1
  Si  Si28  1  0.704268  0.951442  0.685616  1
  Si  Si29  1  0.451738  0.796791  0.435819  1
  Si  Si30  1  0.203772  0.547692  0.064434  1
  Si  Si31  1  0.548925  0.203862  0.936277  1
  Si  Si32  1  0.795904  0.451730  0.564713  1
  Si  Si33  1  0.049092  0.296365  0.814157  1
  Si  Si34  1  0.951541  0.704511  0.314869  1
  P  P35  1  0.362423  0.301981  0.320773  1
