# generated using pymatgen
data_Lu20FeCo3Bi8
_symmetry_space_group_name_H-M   'P 1'
_cell_length_a   7.79571761
_cell_length_b   8.81748700
_cell_length_c   12.20520419
_cell_angle_alpha   90.00000000
_cell_angle_beta   89.95317906
_cell_angle_gamma   90.00000000
_symmetry_Int_Tables_number   1
_chemical_formula_structural   Lu20FeCo3Bi8
_chemical_formula_sum   'Lu20 Fe1 Co3 Bi8'
_cell_volume   838.96884008
_cell_formula_units_Z   1
loop_
 _symmetry_equiv_pos_site_id
 _symmetry_equiv_pos_as_xyz
  1  'x, y, z'
loop_
 _atom_site_type_symbol
 _atom_site_label
 _atom_site_symmetry_multiplicity
 _atom_site_fract_x
 _atom_site_fract_y
 _atom_site_fract_z
 _atom_site_occupancy
  Lu  Lu0  1  0.346498  0.750000  0.701155  1
  Lu  Lu1  1  0.652516  0.250000  0.300623  1
  Lu  Lu2  1  0.847959  0.250000  0.799888  1
  Lu  Lu3  1  0.151730  0.750000  0.199390  1
  Lu  Lu4  1  0.888402  0.750000  0.814093  1
  Lu  Lu5  1  0.112632  0.250000  0.186158  1
  Lu  Lu6  1  0.387134  0.250000  0.685482  1
  Lu  Lu7  1  0.612152  0.750000  0.315193  1
  Lu  Lu8  1  0.672830  0.537951  0.563367  1
  Lu  Lu9  1  0.326796  0.461149  0.436768  1
  Lu  Lu10  1  0.171850  0.464047  0.937642  1
  Lu  Lu11  1  0.326796  0.038851  0.436768  1
  Lu  Lu12  1  0.826494  0.539801  0.062794  1
  Lu  Lu13  1  0.672830  0.962049  0.563367  1
  Lu  Lu14  1  0.826494  0.960199  0.062794  1
  Lu  Lu15  1  0.171850  0.035953  0.937642  1
  Lu  Lu16  1  0.059629  0.750000  0.496881  1
  Lu  Lu17  1  0.941693  0.250000  0.502718  1
  Lu  Lu18  1  0.560210  0.250000  0.003289  1
  Lu  Lu19  1  0.440620  0.750000  0.995892  1
  Fe  Fe20  1  0.069544  0.750000  0.991556  1
  Co  Co21  1  0.932178  0.250000  0.007544  1
  Co  Co22  1  0.567118  0.250000  0.507440  1
  Co  Co23  1  0.432957  0.750000  0.493576  1
  Bi  Bi24  1  0.569888  0.508341  0.827112  1
  Bi  Bi25  1  0.431061  0.491323  0.172379  1
  Bi  Bi26  1  0.069253  0.491207  0.672057  1
  Bi  Bi27  1  0.431061  0.008677  0.172379  1
  Bi  Bi28  1  0.930340  0.509134  0.327440  1
  Bi  Bi29  1  0.569888  0.991659  0.827112  1
  Bi  Bi30  1  0.930340  0.990866  0.327440  1
  Bi  Bi31  1  0.069253  0.008793  0.672057  1
