# generated using pymatgen
data_Tb4Ga18Pd2Ru3Rh
_symmetry_space_group_name_H-M   'P 1'
_cell_length_a   7.58910434
_cell_length_b   7.58910346
_cell_length_c   9.62251192
_cell_angle_alpha   90.04504009
_cell_angle_beta   90.04504285
_cell_angle_gamma   119.98664216
_symmetry_Int_Tables_number   1
_chemical_formula_structural   Tb4Ga18Pd2Ru3Rh
_chemical_formula_sum   'Tb4 Ga18 Pd2 Ru3 Rh1'
_cell_volume   480.01851779
_cell_formula_units_Z   1
loop_
 _symmetry_equiv_pos_site_id
 _symmetry_equiv_pos_as_xyz
  1  'x, y, z'
loop_
 _atom_site_type_symbol
 _atom_site_label
 _atom_site_symmetry_multiplicity
 _atom_site_fract_x
 _atom_site_fract_y
 _atom_site_fract_z
 _atom_site_occupancy
  Tb  Tb0  1  0.997347  0.669114  0.249752  1
  Tb  Tb1  1  0.003650  0.331182  0.750236  1
  Tb  Tb2  1  0.668818  0.996350  0.249764  1
  Tb  Tb3  1  0.330886  0.002653  0.750248  1
  Ga  Ga4  1  0.130557  0.129752  0.250605  1
  Ga  Ga5  1  0.870248  0.869443  0.749395  1
  Ga  Ga6  1  0.000586  0.338478  0.079505  1
  Ga  Ga7  1  0.999285  0.661306  0.921075  1
  Ga  Ga8  1  0.000558  0.662730  0.578924  1
  Ga  Ga9  1  0.337270  0.999442  0.421076  1
  Ga  Ga10  1  0.001374  0.338268  0.420945  1
  Ga  Ga11  1  0.661732  0.998626  0.579055  1
  Ga  Ga12  1  0.661522  0.999414  0.920495  1
  Ga  Ga13  1  0.338694  0.000715  0.078925  1
  Ga  Ga14  1  0.338201  0.339887  0.564782  1
  Ga  Ga15  1  0.660113  0.661799  0.435218  1
  Ga  Ga16  1  0.659385  0.659195  0.064553  1
  Ga  Ga17  1  0.340805  0.340615  0.935447  1
  Ga  Ga18  1  0.335778  0.547425  0.250238  1
  Ga  Ga19  1  0.664611  0.453419  0.750753  1
  Ga  Ga20  1  0.546581  0.335389  0.249247  1
  Ga  Ga21  1  0.452575  0.664222  0.749762  1
  Pd  Pd22  1  0.999775  0.000225  0.000000  1
  Pd  Pd23  1  0.000165  0.999835  0.500000  1
  Ru  Ru24  1  0.672471  0.327529  0.000000  1
  Ru  Ru25  1  0.327598  0.672402  0.000000  1
  Ru  Ru26  1  0.327725  0.672275  0.500000  1
  Rh  Rh27  1  0.671690  0.328310  0.500000  1
