# generated using pymatgen
data_Y4U4Re(B8Ru)3
_symmetry_space_group_name_H-M   'P 1'
_cell_length_a   3.60570500
_cell_length_b   9.32993856
_cell_length_c   11.44247169
_cell_angle_alpha   90.03987794
_cell_angle_beta   90.00000000
_cell_angle_gamma   90.00000000
_symmetry_Int_Tables_number   1
_chemical_formula_structural   Y4U4Re(B8Ru)3
_chemical_formula_sum   'Y4 U4 Re1 B24 Ru3'
_cell_volume   384.93616717
_cell_formula_units_Z   1
loop_
 _symmetry_equiv_pos_site_id
 _symmetry_equiv_pos_as_xyz
  1  'x, y, z'
loop_
 _atom_site_type_symbol
 _atom_site_label
 _atom_site_symmetry_multiplicity
 _atom_site_fract_x
 _atom_site_fract_y
 _atom_site_fract_z
 _atom_site_occupancy
  Y  Y0  1  0.000000  0.336879  0.407770  1
  Y  Y1  1  0.000000  0.664377  0.593886  1
  Y  Y2  1  0.000000  0.836911  0.091396  1
  Y  Y3  1  0.000000  0.162546  0.907020  1
  U  U4  1  0.000000  0.957572  0.397914  1
  U  U5  1  0.000000  0.041108  0.602668  1
  U  U6  1  0.000000  0.457085  0.102007  1
  U  U7  1  0.000000  0.543932  0.898458  1
  Re  Re8  1  0.000000  0.854368  0.818888  1
  B  B9  1  0.500000  0.551763  0.430920  1
  B  B10  1  0.500000  0.448478  0.569264  1
  B  B11  1  0.500000  0.052110  0.069248  1
  B  B12  1  0.500000  0.948622  0.931116  1
  B  B13  1  0.500000  0.742852  0.422740  1
  B  B14  1  0.500000  0.257130  0.577055  1
  B  B15  1  0.500000  0.243088  0.077279  1
  B  B16  1  0.500000  0.757038  0.923407  1
  B  B17  1  0.500000  0.802016  0.274454  1
  B  B18  1  0.500000  0.198272  0.724883  1
  B  B19  1  0.500000  0.302073  0.225590  1
  B  B20  1  0.500000  0.697886  0.775393  1
  B  B21  1  0.500000  0.643788  0.189041  1
  B  B22  1  0.500000  0.355617  0.811023  1
  B  B23  1  0.500000  0.144190  0.311155  1
  B  B24  1  0.500000  0.855965  0.688516  1
  B  B25  1  0.500000  0.988780  0.218866  1
  B  B26  1  0.500000  0.011644  0.780140  1
  B  B27  1  0.500000  0.488469  0.281194  1
  B  B28  1  0.500000  0.510543  0.719297  1
  B  B29  1  0.500000  0.641592  0.039923  1
  B  B30  1  0.500000  0.357388  0.960339  1
  B  B31  1  0.500000  0.142659  0.460560  1
  B  B32  1  0.500000  0.857744  0.538737  1
  Ru  Ru33  1  0.000000  0.645355  0.319405  1
  Ru  Ru34  1  0.000000  0.355110  0.680170  1
  Ru  Ru35  1  0.000000  0.145051  0.180276  1
