# generated using pymatgen
data_Pr5Zr3(Co4P3)4
_symmetry_space_group_name_H-M   'P 1'
_cell_length_a   12.50052300
_cell_length_b   12.50052197
_cell_length_c   3.78760000
_cell_angle_alpha   90.00000000
_cell_angle_beta   90.00000000
_cell_angle_gamma   120.00000537
_symmetry_Int_Tables_number   1
_chemical_formula_structural   Pr5Zr3(Co4P3)4
_chemical_formula_sum   'Pr5 Zr3 Co16 P12'
_cell_volume   512.56747823
_cell_formula_units_Z   1
loop_
 _symmetry_equiv_pos_site_id
 _symmetry_equiv_pos_as_xyz
  1  'x, y, z'
loop_
 _atom_site_type_symbol
 _atom_site_label
 _atom_site_symmetry_multiplicity
 _atom_site_fract_x
 _atom_site_fract_y
 _atom_site_fract_z
 _atom_site_occupancy
  Pr  Pr0  1  0.183141  0.183141  0.500000  1
  Pr  Pr1  1  0.816859  0.000000  0.500000  1
  Pr  Pr2  1  0.000000  0.816859  0.500000  1
  Pr  Pr3  1  0.333333  0.666667  0.000000  1
  Pr  Pr4  1  0.666667  0.333333  0.000000  1
  Zr  Zr5  1  0.561355  0.561355  0.000000  1
  Zr  Zr6  1  0.438645  0.000000  0.000000  1
  Zr  Zr7  1  0.000000  0.438645  0.000000  1
  Co  Co8  1  0.720802  0.720802  0.500000  1
  Co  Co9  1  0.279198  0.000000  0.500000  1
  Co  Co10  1  0.000000  0.279198  0.500000  1
  Co  Co11  1  0.178718  0.374506  0.000000  1
  Co  Co12  1  0.625494  0.804211  0.000000  1
  Co  Co13  1  0.195789  0.821282  0.000000  1
  Co  Co14  1  0.804211  0.625494  0.000000  1
  Co  Co15  1  0.821282  0.195789  0.000000  1
  Co  Co16  1  0.374506  0.178718  0.000000  1
  Co  Co17  1  0.355513  0.477823  0.500000  1
  Co  Co18  1  0.522177  0.877691  0.500000  1
  Co  Co19  1  0.122309  0.644487  0.500000  1
  Co  Co20  1  0.877691  0.522177  0.500000  1
  Co  Co21  1  0.644487  0.122309  0.500000  1
  Co  Co22  1  0.477823  0.355513  0.500000  1
  Co  Co23  1  0.000000  0.000000  0.000000  1
  P  P24  1  0.818041  0.818041  0.000000  1
  P  P25  1  0.181959  0.000000  0.000000  1
  P  P26  1  0.000000  0.181959  0.000000  1
  P  P27  1  0.170075  0.473560  0.500000  1
  P  P28  1  0.526440  0.696515  0.500000  1
  P  P29  1  0.303485  0.829925  0.500000  1
  P  P30  1  0.696515  0.526440  0.500000  1
  P  P31  1  0.829925  0.303485  0.500000  1
  P  P32  1  0.473560  0.170075  0.500000  1
  P  P33  1  0.356495  0.356495  0.000000  1
  P  P34  1  0.643505  0.000000  0.000000  1
  P  P35  1  0.000000  0.643505  0.000000  1
