# generated using pymatgen
data_Tc(IrRh)4
_symmetry_space_group_name_H-M   'P 1'
_cell_length_a   6.11499967
_cell_length_b   6.11500077
_cell_length_c   6.11602661
_cell_angle_alpha   95.71380263
_cell_angle_beta   95.67308308
_cell_angle_gamma   143.27883219
_symmetry_Int_Tables_number   1
_chemical_formula_structural   Tc(IrRh)4
_chemical_formula_sum   'Tc1 Ir4 Rh4'
_cell_volume   129.78459191
_cell_formula_units_Z   1
loop_
 _symmetry_equiv_pos_site_id
 _symmetry_equiv_pos_as_xyz
  1  'x, y, z'
loop_
 _atom_site_type_symbol
 _atom_site_label
 _atom_site_symmetry_multiplicity
 _atom_site_fract_x
 _atom_site_fract_y
 _atom_site_fract_z
 _atom_site_occupancy
  Tc  Tc0  1  0.002603  0.001795  0.004398  1
  Ir  Ir1  1  0.665291  0.336346  0.001638  1
  Ir  Ir2  1  0.336592  0.664262  0.000855  1
  Ir  Ir3  1  0.663024  0.661647  0.324672  1
  Ir  Ir4  1  0.328097  0.000136  0.328233  1
  Rh  Rh5  1  0.998136  0.329341  0.327477  1
  Rh  Rh6  1  0.669582  0.001974  0.671555  1
  Rh  Rh7  1  0.000273  0.668652  0.668925  1
  Rh  Rh8  1  0.336401  0.335846  0.672246  1
