# generated using pymatgen
data_Dy6Ho4CuPPb6
_symmetry_space_group_name_H-M   'P 1'
_cell_length_a   9.15700500
_cell_length_b   9.15700479
_cell_length_c   6.70165100
_cell_angle_alpha   90.00000000
_cell_angle_beta   90.00000000
_cell_angle_gamma   119.99999714
_symmetry_Int_Tables_number   1
_chemical_formula_structural   Dy6Ho4CuPPb6
_chemical_formula_sum   'Dy6 Ho4 Cu1 P1 Pb6'
_cell_volume   486.65293215
_cell_formula_units_Z   1
loop_
 _symmetry_equiv_pos_site_id
 _symmetry_equiv_pos_as_xyz
  1  'x, y, z'
loop_
 _atom_site_type_symbol
 _atom_site_label
 _atom_site_symmetry_multiplicity
 _atom_site_fract_x
 _atom_site_fract_y
 _atom_site_fract_z
 _atom_site_occupancy
  Dy  Dy0  1  0.246646  0.000000  0.737965  1
  Dy  Dy1  1  0.753354  0.000000  0.262035  1
  Dy  Dy2  1  0.000000  0.246646  0.737965  1
  Dy  Dy3  1  0.000000  0.753354  0.262035  1
  Dy  Dy4  1  0.753354  0.753354  0.737965  1
  Dy  Dy5  1  0.246646  0.246646  0.262035  1
  Ho  Ho6  1  0.333333  0.666667  0.500000  1
  Ho  Ho7  1  0.666667  0.333333  0.500000  1
  Ho  Ho8  1  0.666667  0.333333  0.000000  1
  Ho  Ho9  1  0.333333  0.666667  0.000000  1
  Cu  Cu10  1  0.000000  0.000000  0.000000  1
  P  P11  1  0.000000  0.000000  0.500000  1
  Pb  Pb12  1  0.605350  0.000000  0.749775  1
  Pb  Pb13  1  0.394650  0.000000  0.250225  1
  Pb  Pb14  1  0.000000  0.605350  0.749775  1
  Pb  Pb15  1  0.000000  0.394650  0.250225  1
  Pb  Pb16  1  0.394650  0.394650  0.749775  1
  Pb  Pb17  1  0.605350  0.605350  0.250225  1
