# generated using pymatgen
data_Lu4Sc2ReSn2
_symmetry_space_group_name_H-M   'P 1'
_cell_length_a   7.79196900
_cell_length_b   7.73258356
_cell_length_c   4.31191500
_cell_angle_alpha   90.00000000
_cell_angle_beta   90.00000000
_cell_angle_gamma   120.25437147
_symmetry_Int_Tables_number   1
_chemical_formula_structural   Lu4Sc2ReSn2
_chemical_formula_sum   'Lu4 Sc2 Re1 Sn2'
_cell_volume   224.41596735
_cell_formula_units_Z   1
loop_
 _symmetry_equiv_pos_site_id
 _symmetry_equiv_pos_as_xyz
  1  'x, y, z'
loop_
 _atom_site_type_symbol
 _atom_site_label
 _atom_site_symmetry_multiplicity
 _atom_site_fract_x
 _atom_site_fract_y
 _atom_site_fract_z
 _atom_site_occupancy
  Lu  Lu0  1  0.606720  0.000000  0.500000  1
  Lu  Lu1  1  0.400611  0.403507  0.500000  1
  Lu  Lu2  1  0.997104  0.596493  0.500000  1
  Lu  Lu3  1  0.237069  0.000000  0.000000  1
  Sc  Sc4  1  0.997297  0.236023  0.000000  1
  Sc  Sc5  1  0.761272  0.763977  0.000000  1
  Re  Re6  1  0.992550  0.000000  0.500000  1
  Sn  Sn7  1  0.672326  0.337274  0.000000  1
  Sn  Sn8  1  0.335051  0.662726  0.000000  1
