# generated using pymatgen
data_LaGdYRuO7
_symmetry_space_group_name_H-M   'P 1'
_cell_length_a   6.51979969
_cell_length_b   6.52164230
_cell_length_c   7.57461800
_cell_angle_alpha   90.00000000
_cell_angle_beta   90.00000000
_cell_angle_gamma   110.32244426
_symmetry_Int_Tables_number   1
_chemical_formula_structural   LaGdYRuO7
_chemical_formula_sum   'La2 Gd2 Y2 Ru2 O14'
_cell_volume   302.02327077
_cell_formula_units_Z   2
loop_
 _symmetry_equiv_pos_site_id
 _symmetry_equiv_pos_as_xyz
  1  'x, y, z'
loop_
 _atom_site_type_symbol
 _atom_site_label
 _atom_site_symmetry_multiplicity
 _atom_site_fract_x
 _atom_site_fract_y
 _atom_site_fract_z
 _atom_site_occupancy
  La  La0  1  0.000000  0.000000  0.500000  1
  La  La1  1  0.000000  0.000000  0.000000  1
  Gd  Gd2  1  0.926242  0.478429  0.750000  1
  Gd  Gd3  1  0.073758  0.521571  0.250000  1
  Y  Y4  1  0.479928  0.928217  0.750000  1
  Y  Y5  1  0.520072  0.071783  0.250000  1
  Ru  Ru6  1  0.500000  0.500000  0.500000  1
  Ru  Ru7  1  0.500000  0.500000  0.000000  1
  O  O8  1  0.585476  0.588503  0.750000  1
  O  O9  1  0.414524  0.411497  0.250000  1
  O  O10  1  0.835730  0.112247  0.750000  1
  O  O11  1  0.164270  0.887753  0.250000  1
  O  O12  1  0.117281  0.837669  0.750000  1
  O  O13  1  0.882719  0.162331  0.250000  1
  O  O14  1  0.443822  0.184160  0.963271  1
  O  O15  1  0.556178  0.815840  0.463271  1
  O  O16  1  0.184401  0.441309  0.961949  1
  O  O17  1  0.815599  0.558691  0.461949  1
  O  O18  1  0.443822  0.184160  0.536729  1
  O  O19  1  0.556178  0.815840  0.036729  1
  O  O20  1  0.815599  0.558691  0.038051  1
  O  O21  1  0.184401  0.441309  0.538051  1
