# generated using pymatgen
data_EuEr2TaO7
_symmetry_space_group_name_H-M   'P 1'
_cell_length_a   6.44608805
_cell_length_b   6.44609021
_cell_length_c   7.52789300
_cell_angle_alpha   90.00000000
_cell_angle_beta   90.00000000
_cell_angle_gamma   108.94522777
_symmetry_Int_Tables_number   1
_chemical_formula_structural   EuEr2TaO7
_chemical_formula_sum   'Eu2 Er4 Ta2 O14'
_cell_volume   295.85495475
_cell_formula_units_Z   2
loop_
 _symmetry_equiv_pos_site_id
 _symmetry_equiv_pos_as_xyz
  1  'x, y, z'
loop_
 _atom_site_type_symbol
 _atom_site_label
 _atom_site_symmetry_multiplicity
 _atom_site_fract_x
 _atom_site_fract_y
 _atom_site_fract_z
 _atom_site_occupancy
  Eu  Eu0  1  0.500000  0.500000  0.500000  1
  Eu  Eu1  1  0.500000  0.500000  0.000000  1
  Er  Er2  1  0.533796  0.000635  0.750000  1
  Er  Er3  1  0.000635  0.533796  0.250000  1
  Er  Er4  1  0.466204  0.999365  0.250000  1
  Er  Er5  1  0.999365  0.466204  0.750000  1
  Ta  Ta6  1  0.000000  0.000000  0.500000  1
  Ta  Ta7  1  0.000000  0.000000  0.000000  1
  O  O8  1  0.678637  0.932489  0.466251  1
  O  O9  1  0.932489  0.678637  0.533749  1
  O  O10  1  0.678637  0.932489  0.033749  1
  O  O11  1  0.932489  0.678637  0.966251  1
  O  O12  1  0.321363  0.067511  0.533749  1
  O  O13  1  0.067511  0.321363  0.466251  1
  O  O14  1  0.321363  0.067511  0.966251  1
  O  O15  1  0.067511  0.321363  0.033749  1
  O  O16  1  0.932547  0.067453  0.750000  1
  O  O17  1  0.067453  0.932547  0.250000  1
  O  O18  1  0.365175  0.634825  0.750000  1
  O  O19  1  0.634825  0.365175  0.250000  1
  O  O20  1  0.641796  0.358204  0.750000  1
  O  O21  1  0.358204  0.641796  0.250000  1
