# generated using pymatgen
data_Ca3Yb2GeBi2
_symmetry_space_group_name_H-M   'P 1'
_cell_length_a   8.13351800
_cell_length_b   9.56824300
_cell_length_c   12.91472900
_cell_angle_alpha   90.00000000
_cell_angle_beta   90.00000000
_cell_angle_gamma   90.00000000
_symmetry_Int_Tables_number   1
_chemical_formula_structural   Ca3Yb2GeBi2
_chemical_formula_sum   'Ca12 Yb8 Ge4 Bi8'
_cell_volume   1005.06911102
_cell_formula_units_Z   4
loop_
 _symmetry_equiv_pos_site_id
 _symmetry_equiv_pos_as_xyz
  1  'x, y, z'
loop_
 _atom_site_type_symbol
 _atom_site_label
 _atom_site_symmetry_multiplicity
 _atom_site_fract_x
 _atom_site_fract_y
 _atom_site_fract_z
 _atom_site_occupancy
  Ca  Ca0  1  0.829873  0.250000  0.783574  1
  Ca  Ca1  1  0.054793  0.750000  0.500824  1
  Ca  Ca2  1  0.356297  0.250000  0.696036  1
  Ca  Ca3  1  0.554793  0.250000  0.999176  1
  Ca  Ca4  1  0.856297  0.750000  0.803964  1
  Ca  Ca5  1  0.329873  0.750000  0.716426  1
  Ca  Ca6  1  0.670127  0.250000  0.283574  1
  Ca  Ca7  1  0.445207  0.750000  0.000824  1
  Ca  Ca8  1  0.945207  0.250000  0.499176  1
  Ca  Ca9  1  0.143703  0.250000  0.196036  1
  Ca  Ca10  1  0.170127  0.750000  0.216426  1
  Ca  Ca11  1  0.643703  0.750000  0.303964  1
  Yb  Yb12  1  0.828672  0.527416  0.074156  1
  Yb  Yb13  1  0.171328  0.027416  0.925844  1
  Yb  Yb14  1  0.328672  0.472584  0.425844  1
  Yb  Yb15  1  0.671328  0.527416  0.574156  1
  Yb  Yb16  1  0.171328  0.472584  0.925844  1
  Yb  Yb17  1  0.828672  0.972584  0.074156  1
  Yb  Yb18  1  0.671328  0.972584  0.574156  1
  Yb  Yb19  1  0.328672  0.027416  0.425844  1
  Ge  Ge20  1  0.441606  0.750000  0.491652  1
  Ge  Ge21  1  0.558394  0.250000  0.508348  1
  Ge  Ge22  1  0.058394  0.750000  0.991652  1
  Ge  Ge23  1  0.941606  0.250000  0.008348  1
  Bi  Bi24  1  0.058275  0.008084  0.668752  1
  Bi  Bi25  1  0.941725  0.991916  0.331248  1
  Bi  Bi26  1  0.058275  0.491916  0.668752  1
  Bi  Bi27  1  0.558275  0.991916  0.831248  1
  Bi  Bi28  1  0.441725  0.008084  0.168752  1
  Bi  Bi29  1  0.441725  0.491916  0.168752  1
  Bi  Bi30  1  0.558275  0.508084  0.831248  1
  Bi  Bi31  1  0.941725  0.508084  0.331248  1
