# generated using pymatgen
data_Ta3Ga2FeC
_symmetry_space_group_name_H-M   'P 1'
_cell_length_a   8.17735474
_cell_length_b   8.17735488
_cell_length_c   8.17738500
_cell_angle_alpha   60.00009742
_cell_angle_beta   60.00009892
_cell_angle_gamma   59.99997583
_symmetry_Int_Tables_number   1
_chemical_formula_structural   Ta3Ga2FeC
_chemical_formula_sum   'Ta12 Ga8 Fe4 C4'
_cell_volume   386.65683921
_cell_formula_units_Z   4
loop_
 _symmetry_equiv_pos_site_id
 _symmetry_equiv_pos_as_xyz
  1  'x, y, z'
loop_
 _atom_site_type_symbol
 _atom_site_label
 _atom_site_symmetry_multiplicity
 _atom_site_fract_x
 _atom_site_fract_y
 _atom_site_fract_z
 _atom_site_occupancy
  Ta  Ta0  1  0.555478  0.944524  0.555475  1
  Ta  Ta1  1  0.305476  0.694522  0.694525  1
  Ta  Ta2  1  0.694527  0.305475  0.305475  1
  Ta  Ta3  1  0.305475  0.694527  0.305475  1
  Ta  Ta4  1  0.694524  0.694524  0.305476  1
  Ta  Ta5  1  0.305476  0.305476  0.694528  1
  Ta  Ta6  1  0.555476  0.555476  0.944524  1
  Ta  Ta7  1  0.944524  0.555478  0.555475  1
  Ta  Ta8  1  0.555473  0.944525  0.944525  1
  Ta  Ta9  1  0.944524  0.944524  0.555472  1
  Ta  Ta10  1  0.694522  0.305476  0.694525  1
  Ta  Ta11  1  0.944525  0.555473  0.944525  1
  Ga  Ga12  1  0.916259  0.916259  0.916262  1
  Ga  Ga13  1  0.998780  0.333739  0.333735  1
  Ga  Ga14  1  0.333739  0.998780  0.333735  1
  Ga  Ga15  1  0.333737  0.333737  0.998782  1
  Ga  Ga16  1  0.916261  0.251220  0.916265  1
  Ga  Ga17  1  0.916263  0.916263  0.251218  1
  Ga  Ga18  1  0.251220  0.916261  0.916265  1
  Ga  Ga19  1  0.333741  0.333741  0.333738  1
  Fe  Fe20  1  0.125000  0.125000  0.125000  1
  Fe  Fe21  1  0.625000  0.125000  0.125000  1
  Fe  Fe22  1  0.125000  0.625000  0.125000  1
  Fe  Fe23  1  0.125000  0.125000  0.625000  1
  C  C24  1  0.625000  0.625000  0.625000  1
  C  C25  1  0.125000  0.625000  0.625000  1
  C  C26  1  0.625000  0.125000  0.625000  1
  C  C27  1  0.625000  0.625000  0.125000  1
