# generated using pymatgen
data_Sr15Bi11
_symmetry_space_group_name_H-M   'P 1'
_cell_length_a   17.85039315
_cell_length_b   17.85040200
_cell_length_c   17.85040800
_cell_angle_alpha   94.39898113
_cell_angle_beta   117.49359779
_cell_angle_gamma   117.49361841
_symmetry_Int_Tables_number   1
_chemical_formula_structural   Sr15Bi11
_chemical_formula_sum   'Sr60 Bi44'
_cell_volume   4160.97435688
_cell_formula_units_Z   4
loop_
 _symmetry_equiv_pos_site_id
 _symmetry_equiv_pos_as_xyz
  1  'x, y, z'
loop_
 _atom_site_type_symbol
 _atom_site_label
 _atom_site_symmetry_multiplicity
 _atom_site_fract_x
 _atom_site_fract_y
 _atom_site_fract_z
 _atom_site_occupancy
  Sr  Sr0  1  0.089620  0.125147  0.977851  1
  Sr  Sr1  1  0.354679  0.250001  0.604677  1
  Sr  Sr2  1  0.033532  0.785474  0.402010  1
  Sr  Sr3  1  0.087170  0.518225  0.752588  1
  Sr  Sr4  1  0.645321  0.749999  0.395323  1
  Sr  Sr5  1  0.645323  0.395325  0.250001  1
  Sr  Sr6  1  0.883460  0.751940  0.785471  1
  Sr  Sr7  1  0.410372  0.388228  0.035522  1
  Sr  Sr8  1  0.265641  0.334585  0.747420  1
  Sr  Sr9  1  0.087168  0.068941  0.334581  1
  Sr  Sr10  1  0.912832  0.931059  0.665419  1
  Sr  Sr11  1  0.734359  0.665415  0.252580  1
  Sr  Sr12  1  0.647290  0.111765  0.522150  1
  Sr  Sr13  1  0.852708  0.977851  0.388230  1
  Sr  Sr14  1  0.145325  0.750002  0.895323  1
  Sr  Sr15  1  0.589628  0.611772  0.964478  1
  Sr  Sr16  1  0.734364  0.568954  0.481781  1
  Sr  Sr17  1  0.587167  0.252587  0.018227  1
  Sr  Sr18  1  0.410374  0.522145  0.374851  1
  Sr  Sr19  1  0.234364  0.981782  0.068949  1
  Sr  Sr20  1  0.412833  0.747413  0.981773  1
  Sr  Sr21  1  0.147288  0.625141  0.535524  1
  Sr  Sr22  1  0.383459  0.285469  0.251937  1
  Sr  Sr23  1  0.533532  0.131523  0.248062  1
  Sr  Sr24  1  0.912830  0.481775  0.247412  1
  Sr  Sr25  1  0.587170  0.834583  0.568948  1
  Sr  Sr26  1  0.883460  0.631522  0.097989  1
  Sr  Sr27  1  0.116540  0.368478  0.902011  1
  Sr  Sr28  1  0.352710  0.888235  0.477850  1
  Sr  Sr29  1  0.466468  0.868477  0.751938  1
  Sr  Sr30  1  0.352713  0.964475  0.874859  1
  Sr  Sr31  1  0.910380  0.874853  0.022149  1
  Sr  Sr32  1  0.852712  0.374859  0.464476  1
  Sr  Sr33  1  0.854675  0.249998  0.104677  1
  Sr  Sr34  1  0.910380  0.535526  0.888229  1
  Sr  Sr35  1  0.089620  0.464474  0.111771  1
  Sr  Sr36  1  0.116540  0.248060  0.214529  1
  Sr  Sr37  1  0.533534  0.902008  0.285473  1
  Sr  Sr38  1  0.589626  0.477855  0.625149  1
  Sr  Sr39  1  0.234360  0.752582  0.165413  1
  Sr  Sr40  1  0.616546  0.402012  0.868480  1
  Sr  Sr41  1  0.383454  0.597988  0.131520  1
  Sr  Sr42  1  0.033535  0.748058  0.631523  1
  Sr  Sr43  1  0.966468  0.214526  0.597990  1
  Sr  Sr44  1  0.765640  0.247418  0.834587  1
  Sr  Sr45  1  0.354677  0.604675  0.749999  1
  Sr  Sr46  1  0.412830  0.165417  0.431052  1
  Sr  Sr47  1  0.147292  0.022149  0.611770  1
  Sr  Sr48  1  0.647287  0.035525  0.125141  1
  Sr  Sr49  1  0.854677  0.104677  0.750002  1
  Sr  Sr50  1  0.616541  0.714531  0.748063  1
  Sr  Sr51  1  0.265636  0.431046  0.518219  1
  Sr  Sr52  1  0.145323  0.895323  0.249998  1
  Sr  Sr53  1  0.466466  0.097992  0.714527  1
  Sr  Sr54  1  0.765636  0.018218  0.931051  1
  Sr  Sr55  1  0.966465  0.251942  0.368477  1
  Sr  Sr56  1  0.749997  0.875001  0.125000  1
  Sr  Sr57  1  0.750003  0.375000  0.624998  1
  Sr  Sr58  1  0.249997  0.625000  0.375002  1
  Sr  Sr59  1  0.250003  0.124999  0.875000  1
  Bi  Bi60  1  0.477870  0.488933  0.738934  1
  Bi  Bi61  1  0.395886  0.915171  0.075042  1
  Bi  Bi62  1  0.522130  0.511067  0.261066  1
  Bi  Bi63  1  0.104114  0.179155  0.519285  1
  Bi  Bi64  1  0.895884  0.575040  0.415171  1
  Bi  Bi65  1  0.750000  0.988932  0.511065  1
  Bi  Bi66  1  0.604114  0.084829  0.924958  1
  Bi  Bi67  1  0.395885  0.980713  0.320844  1
  Bi  Bi68  1  0.391081  0.685882  0.590810  1
  Bi  Bi69  1  0.659858  0.679148  0.575037  1
  Bi  Bi70  1  0.750000  0.124999  0.375002  1
  Bi  Bi71  1  0.895886  0.820845  0.480715  1
  Bi  Bi72  1  0.095072  0.409186  0.300274  1
  Bi  Bi73  1  0.891084  0.300270  0.705199  1
  Bi  Bi74  1  0.891089  0.090818  0.185890  1
  Bi  Bi75  1  0.608911  0.794792  0.199727  1
  Bi  Bi76  1  0.404926  0.199725  0.090810  1
  Bi  Bi77  1  0.595074  0.294797  0.685886  1
  Bi  Bi78  1  0.404926  0.705203  0.314114  1
  Bi  Bi79  1  0.249999  0.374999  0.125000  1
  Bi  Bi80  1  0.095075  0.185884  0.794800  1
  Bi  Bi81  1  0.250000  0.011068  0.488935  1
  Bi  Bi82  1  0.108916  0.699730  0.294801  1
  Bi  Bi83  1  0.750001  0.625001  0.875000  1
  Bi  Bi84  1  0.108911  0.909182  0.814110  1
  Bi  Bi85  1  0.104116  0.424960  0.584829  1
  Bi  Bi86  1  0.250000  0.875001  0.624998  1
  Bi  Bi87  1  0.604115  0.019287  0.679156  1
  Bi  Bi88  1  0.840140  0.924961  0.820851  1
  Bi  Bi89  1  0.340142  0.320852  0.424963  1
  Bi  Bi90  1  0.840142  0.415179  0.019289  1
  Bi  Bi91  1  0.904925  0.814116  0.205200  1
  Bi  Bi92  1  0.159858  0.584821  0.980711  1
  Bi  Bi93  1  0.249998  0.738931  0.761067  1
  Bi  Bi94  1  0.904928  0.590814  0.699726  1
  Bi  Bi95  1  0.750002  0.261069  0.238933  1
  Bi  Bi96  1  0.608919  0.314118  0.409190  1
  Bi  Bi97  1  0.391089  0.205208  0.800273  1
  Bi  Bi98  1  0.659860  0.480711  0.084823  1
  Bi  Bi99  1  0.340140  0.519289  0.915177  1
  Bi  Bi100  1  0.159860  0.075039  0.179149  1
  Bi  Bi101  1  0.022132  0.761064  0.011067  1
  Bi  Bi102  1  0.977868  0.238936  0.988933  1
  Bi  Bi103  1  0.595074  0.800275  0.909190  1
