# generated using pymatgen
data_CaNd3(Ga12Cu)2
_symmetry_space_group_name_H-M   'P 1'
_cell_length_a   6.20812300
_cell_length_b   6.20812312
_cell_length_c   15.45295600
_cell_angle_alpha   90.00000000
_cell_angle_beta   90.00000000
_cell_angle_gamma   89.64805289
_symmetry_Int_Tables_number   1
_chemical_formula_structural   CaNd3(Ga12Cu)2
_chemical_formula_sum   'Ca1 Nd3 Ga24 Cu2'
_cell_volume   595.55792610
_cell_formula_units_Z   1
loop_
 _symmetry_equiv_pos_site_id
 _symmetry_equiv_pos_as_xyz
  1  'x, y, z'
loop_
 _atom_site_type_symbol
 _atom_site_label
 _atom_site_symmetry_multiplicity
 _atom_site_fract_x
 _atom_site_fract_y
 _atom_site_fract_z
 _atom_site_occupancy
  Ca  Ca0  1  0.750000  0.250000  0.248057  1
  Nd  Nd1  1  0.250000  0.750000  0.243565  1
  Nd  Nd2  1  0.250000  0.750000  0.753275  1
  Nd  Nd3  1  0.750000  0.250000  0.755169  1
  Ga  Ga4  1  0.250000  0.250000  0.181211  1
  Ga  Ga5  1  0.750000  0.750000  0.181211  1
  Ga  Ga6  1  0.750000  0.750000  0.817840  1
  Ga  Ga7  1  0.250000  0.250000  0.817840  1
  Ga  Ga8  1  0.250000  0.250000  0.343520  1
  Ga  Ga9  1  0.750000  0.750000  0.343520  1
  Ga  Ga10  1  0.750000  0.750000  0.656303  1
  Ga  Ga11  1  0.250000  0.250000  0.656303  1
  Ga  Ga12  1  0.498612  0.998612  0.915191  1
  Ga  Ga13  1  0.001690  0.998310  0.914681  1
  Ga  Ga14  1  0.498310  0.501690  0.914681  1
  Ga  Ga15  1  0.001388  0.501388  0.915191  1
  Ga  Ga16  1  0.502497  0.002497  0.084678  1
  Ga  Ga17  1  0.997424  0.002576  0.084786  1
  Ga  Ga18  1  0.502576  0.497424  0.084786  1
  Ga  Ga19  1  0.997503  0.497503  0.084678  1
  Ga  Ga20  1  0.576317  0.076317  0.431690  1
  Ga  Ga21  1  0.076876  0.923124  0.431057  1
  Ga  Ga22  1  0.423124  0.576876  0.431057  1
  Ga  Ga23  1  0.923683  0.423683  0.431690  1
  Ga  Ga24  1  0.414862  0.914862  0.569911  1
  Ga  Ga25  1  0.916633  0.083367  0.570117  1
  Ga  Ga26  1  0.583367  0.416633  0.570117  1
  Ga  Ga27  1  0.085138  0.585138  0.569911  1
  Cu  Cu28  1  0.750000  0.250000  0.997612  1
  Cu  Cu29  1  0.250000  0.750000  0.000353  1
