# generated using pymatgen
data_Tb3CeY6(SiB4)4
_symmetry_space_group_name_H-M   'P 1'
_cell_length_a   7.26294701
_cell_length_b   7.26294699
_cell_length_c   8.15872100
_cell_angle_alpha   89.99533991
_cell_angle_beta   89.99533883
_cell_angle_gamma   90.05990716
_symmetry_Int_Tables_number   1
_chemical_formula_structural   Tb3CeY6(SiB4)4
_chemical_formula_sum   'Tb3 Ce1 Y6 Si4 B16'
_cell_volume   430.37555128
_cell_formula_units_Z   1
loop_
 _symmetry_equiv_pos_site_id
 _symmetry_equiv_pos_as_xyz
  1  'x, y, z'
loop_
 _atom_site_type_symbol
 _atom_site_label
 _atom_site_symmetry_multiplicity
 _atom_site_fract_x
 _atom_site_fract_y
 _atom_site_fract_z
 _atom_site_occupancy
  Tb  Tb0  1  0.318639  0.818639  0.776945  1
  Tb  Tb1  1  0.319499  0.819499  0.223179  1
  Tb  Tb2  1  0.680794  0.180794  0.776452  1
  Ce  Ce3  1  0.682222  0.182222  0.230308  1
  Y  Y4  1  0.819461  0.680561  0.222733  1
  Y  Y5  1  0.819715  0.680807  0.777164  1
  Y  Y6  1  0.180807  0.319715  0.777164  1
  Y  Y7  1  0.180561  0.319461  0.222733  1
  Y  Y8  1  0.000568  0.999160  0.500421  1
  Y  Y9  1  0.499160  0.500568  0.500421  1
  Si  Si10  1  0.115385  0.615385  0.501235  1
  Si  Si11  1  0.886027  0.386027  0.500118  1
  Si  Si12  1  0.384976  0.114109  0.499460  1
  Si  Si13  1  0.614109  0.884976  0.499460  1
  B  B14  1  0.172590  0.038811  0.999092  1
  B  B15  1  0.827779  0.960945  0.999773  1
  B  B16  1  0.960746  0.171683  0.999544  1
  B  B17  1  0.327409  0.539748  0.999220  1
  B  B18  1  0.039748  0.827409  0.999220  1
  B  B19  1  0.671683  0.460746  0.999544  1
  B  B20  1  0.538811  0.672590  0.999092  1
  B  B21  1  0.460945  0.327779  0.999773  1
  B  B22  1  0.090300  0.590300  0.999434  1
  B  B23  1  0.909381  0.409381  0.001127  1
  B  B24  1  0.409720  0.089977  0.999607  1
  B  B25  1  0.589977  0.909720  0.999607  1
  B  B26  1  0.999362  0.999601  0.160539  1
  B  B27  1  0.000406  0.999618  0.838048  1
  B  B28  1  0.499618  0.500406  0.838048  1
  B  B29  1  0.499601  0.499362  0.160539  1
