# generated using pymatgen
data_Cs16TiPb3Se16
_symmetry_space_group_name_H-M   'P 1'
_cell_length_a   9.08245701
_cell_length_b   10.82116500
_cell_length_c   16.01767400
_cell_angle_alpha   90.00000000
_cell_angle_beta   90.08507513
_cell_angle_gamma   90.00000000
_symmetry_Int_Tables_number   1
_chemical_formula_structural   Cs16TiPb3Se16
_chemical_formula_sum   'Cs16 Ti1 Pb3 Se16'
_cell_volume   1574.25956914
_cell_formula_units_Z   1
loop_
 _symmetry_equiv_pos_site_id
 _symmetry_equiv_pos_as_xyz
  1  'x, y, z'
loop_
 _atom_site_type_symbol
 _atom_site_label
 _atom_site_symmetry_multiplicity
 _atom_site_fract_x
 _atom_site_fract_y
 _atom_site_fract_z
 _atom_site_occupancy
  Cs  Cs0  1  0.003940  0.001371  0.999045  1
  Cs  Cs1  1  0.499835  0.000217  0.500156  1
  Cs  Cs2  1  0.003940  0.498629  0.999045  1
  Cs  Cs3  1  0.499835  0.499783  0.500156  1
  Cs  Cs4  1  0.987857  0.750000  0.424707  1
  Cs  Cs5  1  0.485534  0.250000  0.073539  1
  Cs  Cs6  1  0.016339  0.250000  0.578370  1
  Cs  Cs7  1  0.504190  0.750000  0.924263  1
  Cs  Cs8  1  0.838223  0.051868  0.276805  1
  Cs  Cs9  1  0.339049  0.948603  0.223173  1
  Cs  Cs10  1  0.160864  0.552508  0.722717  1
  Cs  Cs11  1  0.664049  0.444790  0.779468  1
  Cs  Cs12  1  0.160864  0.947492  0.722717  1
  Cs  Cs13  1  0.664049  0.055210  0.779468  1
  Cs  Cs14  1  0.838223  0.448132  0.276805  1
  Cs  Cs15  1  0.339049  0.551397  0.223173  1
  Ti  Ti16  1  0.260603  0.250000  0.833429  1
  Pb  Pb17  1  0.762479  0.750000  0.665579  1
  Pb  Pb18  1  0.236963  0.250000  0.335668  1
  Pb  Pb19  1  0.737905  0.750000  0.163691  1
  Se  Se20  1  0.993883  0.250000  0.825265  1
  Se  Se21  1  0.529752  0.250000  0.326042  1
  Se  Se22  1  0.469775  0.750000  0.675160  1
  Se  Se23  1  0.030830  0.750000  0.173908  1
  Se  Se24  1  0.647881  0.549808  0.084462  1
  Se  Se25  1  0.145812  0.449451  0.415289  1
  Se  Se26  1  0.344331  0.068788  0.905731  1
  Se  Se27  1  0.852333  0.950192  0.585882  1
  Se  Se28  1  0.344331  0.431212  0.905731  1
  Se  Se29  1  0.852333  0.549808  0.585882  1
  Se  Se30  1  0.647881  0.950192  0.084462  1
  Se  Se31  1  0.145812  0.050549  0.415289  1
  Se  Se32  1  0.627944  0.750000  0.319951  1
  Se  Se33  1  0.127555  0.250000  0.179302  1
  Se  Se34  1  0.364645  0.250000  0.693554  1
  Se  Se35  1  0.871112  0.750000  0.822117  1
