# generated using pymatgen
data_HgTe11(RhCl3)2
_symmetry_space_group_name_H-M   'P 1'
_cell_length_a   9.12001850
_cell_length_b   9.51262923
_cell_length_c   9.30048119
_cell_angle_alpha   109.72636915
_cell_angle_beta   107.50309226
_cell_angle_gamma   107.37897902
_symmetry_Int_Tables_number   1
_chemical_formula_structural   HgTe11(RhCl3)2
_chemical_formula_sum   'Hg1 Te11 Rh2 Cl6'
_cell_volume   648.39184138
_cell_formula_units_Z   1
loop_
 _symmetry_equiv_pos_site_id
 _symmetry_equiv_pos_as_xyz
  1  'x, y, z'
loop_
 _atom_site_type_symbol
 _atom_site_label
 _atom_site_symmetry_multiplicity
 _atom_site_fract_x
 _atom_site_fract_y
 _atom_site_fract_z
 _atom_site_occupancy
  Hg  Hg0  1  0.823365  0.828408  0.103715  1
  Te  Te1  1  0.807843  0.073749  0.800554  1
  Te  Te2  1  0.070385  0.826147  0.815572  1
  Te  Te3  1  0.682089  0.660293  0.420931  1
  Te  Te4  1  0.413561  0.685923  0.660711  1
  Te  Te5  1  0.668724  0.447788  0.698408  1
  Te  Te6  1  0.171839  0.178290  0.917036  1
  Te  Te7  1  0.182798  0.931387  0.180777  1
  Te  Te8  1  0.902358  0.164884  0.150323  1
  Te  Te9  1  0.302193  0.335769  0.571645  1
  Te  Te10  1  0.568341  0.309711  0.329256  1
  Te  Te11  1  0.305914  0.567496  0.304929  1
  Rh  Rh12  1  0.740902  0.758072  0.738818  1
  Rh  Rh13  1  0.233554  0.244436  0.241890  1
  Cl  Cl14  1  0.780686  0.997104  0.461526  1
  Cl  Cl15  1  0.511540  0.655127  0.019989  1
  Cl  Cl16  1  0.008568  0.503876  0.760699  1
  Cl  Cl17  1  0.293494  0.028074  0.527695  1
  Cl  Cl18  1  0.516738  0.234734  0.002727  1
  Cl  Cl19  1  0.015108  0.568731  0.292800  1
