# generated using pymatgen
data_Yb2InAg(Pt2O7)2
_symmetry_space_group_name_H-M   'P 1'
_cell_length_a   7.10438157
_cell_length_b   7.17638536
_cell_length_c   7.17638504
_cell_angle_alpha   61.23957778
_cell_angle_beta   61.05681587
_cell_angle_gamma   61.05682635
_symmetry_Int_Tables_number   1
_chemical_formula_structural   Yb2InAg(Pt2O7)2
_chemical_formula_sum   'Yb2 In1 Ag1 Pt4 O14'
_cell_volume   265.22240872
_cell_formula_units_Z   1
loop_
 _symmetry_equiv_pos_site_id
 _symmetry_equiv_pos_as_xyz
  1  'x, y, z'
loop_
 _atom_site_type_symbol
 _atom_site_label
 _atom_site_symmetry_multiplicity
 _atom_site_fract_x
 _atom_site_fract_y
 _atom_site_fract_z
 _atom_site_occupancy
  Yb  Yb0  1  0.125000  0.625000  0.125000  1
  Yb  Yb1  1  0.125000  0.125000  0.625000  1
  In  In2  1  0.625000  0.125000  0.125000  1
  Ag  Ag3  1  0.125000  0.125000  0.125000  1
  Pt  Pt4  1  0.625000  0.625000  0.125000  1
  Pt  Pt5  1  0.625000  0.125000  0.625000  1
  Pt  Pt6  1  0.125000  0.625000  0.625000  1
  Pt  Pt7  1  0.625000  0.625000  0.625000  1
  O  O8  1  0.261570  0.235067  0.235067  1
  O  O9  1  0.696362  0.293118  0.293118  1
  O  O10  1  0.704628  0.290203  0.718826  1
  O  O11  1  0.293414  0.705994  0.293084  1
  O  O12  1  0.704628  0.718826  0.290203  1
  O  O13  1  0.293414  0.293084  0.705994  1
  O  O14  1  0.961814  0.536356  0.536356  1
  O  O15  1  0.288186  0.713644  0.713644  1
  O  O16  1  0.956586  0.956916  0.544006  1
  O  O17  1  0.545372  0.959797  0.531174  1
  O  O18  1  0.545372  0.531174  0.959797  1
  O  O19  1  0.956586  0.544006  0.956916  1
  O  O20  1  0.553638  0.956882  0.956882  1
  O  O21  1  0.988430  0.014933  0.014933  1
