# generated using pymatgen
data_K11Rb(InTe3)4
_symmetry_space_group_name_H-M   'P 1'
_cell_length_a   8.67914425
_cell_length_b   8.89146256
_cell_length_c   17.89478366
_cell_angle_alpha   61.75037168
_cell_angle_beta   90.08565353
_cell_angle_gamma   89.75587435
_symmetry_Int_Tables_number   1
_chemical_formula_structural   K11Rb(InTe3)4
_chemical_formula_sum   'K11 Rb1 In4 Te12'
_cell_volume   1216.44570026
_cell_formula_units_Z   1
loop_
 _symmetry_equiv_pos_site_id
 _symmetry_equiv_pos_as_xyz
  1  'x, y, z'
loop_
 _atom_site_type_symbol
 _atom_site_label
 _atom_site_symmetry_multiplicity
 _atom_site_fract_x
 _atom_site_fract_y
 _atom_site_fract_z
 _atom_site_occupancy
  K  K0  1  0.529149  0.058844  0.218940  1
  K  K1  1  0.972688  0.056615  0.719709  1
  K  K2  1  0.471847  0.942499  0.780637  1
  K  K3  1  0.996698  0.720294  0.104940  1
  K  K4  1  0.493955  0.280935  0.395640  1
  K  K5  1  0.003566  0.280926  0.894142  1
  K  K6  1  0.501896  0.716988  0.606424  1
  K  K7  1  0.996182  0.314226  0.402193  1
  K  K8  1  0.497287  0.686105  0.096677  1
  K  K9  1  0.003217  0.683748  0.599193  1
  K  K10  1  0.504241  0.316996  0.901224  1
  Rb  Rb11  1  0.029323  0.942901  0.278863  1
  In  In12  1  0.642083  0.662576  0.418337  1
  In  In13  1  0.144151  0.337472  0.081452  1
  In  In14  1  0.358939  0.334356  0.583219  1
  In  In15  1  0.857885  0.665557  0.917081  1
  Te  Te16  1  0.807848  0.353581  0.070098  1
  Te  Te17  1  0.306463  0.644871  0.430860  1
  Te  Te18  1  0.193683  0.649073  0.928816  1
  Te  Te19  1  0.694851  0.350328  0.571222  1
  Te  Te20  1  0.242798  0.353599  0.226308  1
  Te  Te21  1  0.733023  0.647887  0.272135  1
  Te  Te22  1  0.760641  0.653766  0.771254  1
  Te  Te23  1  0.261168  0.345165  0.729198  1
  Te  Te24  1  0.748574  0.947927  0.428572  1
  Te  Te25  1  0.257697  0.052025  0.072383  1
  Te  Te26  1  0.244950  0.048927  0.575250  1
  Te  Te27  1  0.745196  0.951811  0.925235  1
