# generated using pymatgen
data_Cs2Mg2CdSe4
_symmetry_space_group_name_H-M   'P 1'
_cell_length_a   10.24604332
_cell_length_b   10.24604322
_cell_length_c   10.24604248
_cell_angle_alpha   143.48626072
_cell_angle_beta   105.30923330
_cell_angle_gamma   86.11565657
_symmetry_Int_Tables_number   1
_chemical_formula_structural   Cs2Mg2CdSe4
_chemical_formula_sum   'Cs4 Mg4 Cd2 Se8'
_cell_volume   597.43651243
_cell_formula_units_Z   2
loop_
 _symmetry_equiv_pos_site_id
 _symmetry_equiv_pos_as_xyz
  1  'x, y, z'
loop_
 _atom_site_type_symbol
 _atom_site_label
 _atom_site_symmetry_multiplicity
 _atom_site_fract_x
 _atom_site_fract_y
 _atom_site_fract_z
 _atom_site_occupancy
  Cs  Cs0  1  0.617366  0.239168  0.856534  1
  Cs  Cs1  1  0.382634  0.760832  0.143466  1
  Cs  Cs2  1  0.117366  0.260832  0.378198  1
  Cs  Cs3  1  0.882634  0.739168  0.621802  1
  Mg  Mg4  1  0.018926  0.750000  0.268926  1
  Mg  Mg5  1  0.481074  0.750000  0.731074  1
  Mg  Mg6  1  0.981074  0.250000  0.731074  1
  Mg  Mg7  1  0.518926  0.250000  0.268926  1
  Cd  Cd8  1  0.750000  0.750000  0.000000  1
  Cd  Cd9  1  0.250000  0.250000  0.000000  1
  Se  Se10  1  0.990421  0.627862  0.915196  1
  Se  Se11  1  0.712667  0.075225  0.084804  1
  Se  Se12  1  0.787333  0.872138  0.362558  1
  Se  Se13  1  0.509579  0.424775  0.637442  1
  Se  Se14  1  0.009579  0.372138  0.084804  1
  Se  Se15  1  0.287333  0.924775  0.915196  1
  Se  Se16  1  0.212667  0.127862  0.637442  1
  Se  Se17  1  0.490421  0.575225  0.362558  1
