# generated using pymatgen
data_La2Pr2ZnGa4Ru3
_symmetry_space_group_name_H-M   'P 1'
_cell_length_a   4.69936100
_cell_length_b   7.47365325
_cell_length_c   7.27528968
_cell_angle_alpha   89.61169552
_cell_angle_beta   90.00000000
_cell_angle_gamma   90.00000000
_symmetry_Int_Tables_number   1
_chemical_formula_structural   La2Pr2ZnGa4Ru3
_chemical_formula_sum   'La2 Pr2 Zn1 Ga4 Ru3'
_cell_volume   255.51245185
_cell_formula_units_Z   1
loop_
 _symmetry_equiv_pos_site_id
 _symmetry_equiv_pos_as_xyz
  1  'x, y, z'
loop_
 _atom_site_type_symbol
 _atom_site_label
 _atom_site_symmetry_multiplicity
 _atom_site_fract_x
 _atom_site_fract_y
 _atom_site_fract_z
 _atom_site_occupancy
  La  La0  1  0.250000  0.039144  0.805238  1
  La  La1  1  0.250000  0.526900  0.687182  1
  Pr  Pr2  1  0.750000  0.983879  0.195403  1
  Pr  Pr3  1  0.750000  0.465604  0.310752  1
  Zn  Zn4  1  0.750000  0.663227  0.931803  1
  Ga  Ga5  1  0.250000  0.190403  0.393332  1
  Ga  Ga6  1  0.250000  0.687151  0.126553  1
  Ga  Ga7  1  0.750000  0.805004  0.589402  1
  Ga  Ga8  1  0.750000  0.307652  0.894813  1
  Ru  Ru9  1  0.250000  0.842373  0.443187  1
  Ru  Ru10  1  0.250000  0.339218  0.058557  1
  Ru  Ru11  1  0.750000  0.149447  0.563777  1
