# generated using pymatgen
data_Sr4GdDy3(BO4)4
_symmetry_space_group_name_H-M   'P 1'
_cell_length_a   3.69372800
_cell_length_b   9.76344841
_cell_length_c   10.98594486
_cell_angle_alpha   89.90407901
_cell_angle_beta   90.00000000
_cell_angle_gamma   90.00000000
_symmetry_Int_Tables_number   1
_chemical_formula_structural   Sr4GdDy3(BO4)4
_chemical_formula_sum   'Sr4 Gd1 Dy3 B4 O16'
_cell_volume   396.19131741
_cell_formula_units_Z   1
loop_
 _symmetry_equiv_pos_site_id
 _symmetry_equiv_pos_as_xyz
  1  'x, y, z'
loop_
 _atom_site_type_symbol
 _atom_site_label
 _atom_site_symmetry_multiplicity
 _atom_site_fract_x
 _atom_site_fract_y
 _atom_site_fract_z
 _atom_site_occupancy
  Sr  Sr0  1  0.250000  0.658858  0.083548  1
  Sr  Sr1  1  0.750000  0.341259  0.915727  1
  Sr  Sr2  1  0.750000  0.159876  0.417110  1
  Sr  Sr3  1  0.250000  0.840194  0.583690  1
  Gd  Gd4  1  0.250000  0.081944  0.110596  1
  Dy  Dy5  1  0.750000  0.917276  0.888268  1
  Dy  Dy6  1  0.750000  0.582069  0.389963  1
  Dy  Dy7  1  0.250000  0.418158  0.610170  1
  B  B8  1  0.250000  0.364834  0.205433  1
  B  B9  1  0.750000  0.636313  0.795299  1
  B  B10  1  0.750000  0.862573  0.296398  1
  B  B11  1  0.250000  0.136694  0.704457  1
  O  O12  1  0.250000  0.491383  0.262964  1
  O  O13  1  0.750000  0.510143  0.736925  1
  O  O14  1  0.750000  0.989493  0.238977  1
  O  O15  1  0.250000  0.010053  0.762382  1
  O  O16  1  0.250000  0.243218  0.272485  1
  O  O17  1  0.750000  0.758883  0.729411  1
  O  O18  1  0.750000  0.740794  0.230023  1
  O  O19  1  0.250000  0.259195  0.770068  1
  O  O20  1  0.250000  0.357844  0.077758  1
  O  O21  1  0.750000  0.642516  0.922799  1
  O  O22  1  0.750000  0.855403  0.423842  1
  O  O23  1  0.250000  0.143444  0.576891  1
  O  O24  1  0.250000  0.612383  0.500402  1
  O  O25  1  0.750000  0.387575  0.500114  1
  O  O26  1  0.750000  0.112112  0.996086  1
  O  O27  1  0.250000  0.885515  0.998213  1
