# generated using pymatgen
data_Ho4TaZn2Ru5
_symmetry_space_group_name_H-M   'P 1'
_cell_length_a   5.54779940
_cell_length_b   5.20126474
_cell_length_c   9.00773600
_cell_angle_alpha   90.00000000
_cell_angle_beta   90.00000000
_cell_angle_gamma   121.27390799
_symmetry_Int_Tables_number   1
_chemical_formula_structural   Ho4TaZn2Ru5
_chemical_formula_sum   'Ho4 Ta1 Zn2 Ru5'
_cell_volume   222.15530463
_cell_formula_units_Z   1
loop_
 _symmetry_equiv_pos_site_id
 _symmetry_equiv_pos_as_xyz
  1  'x, y, z'
loop_
 _atom_site_type_symbol
 _atom_site_label
 _atom_site_symmetry_multiplicity
 _atom_site_fract_x
 _atom_site_fract_y
 _atom_site_fract_z
 _atom_site_occupancy
  Ho  Ho0  1  0.677766  0.351516  0.563465  1
  Ho  Ho1  1  0.338133  0.669262  0.437046  1
  Ho  Ho2  1  0.338133  0.669262  0.062954  1
  Ho  Ho3  1  0.677766  0.351516  0.936535  1
  Ta  Ta4  1  0.153395  0.308730  0.750000  1
  Zn  Zn5  1  0.818755  0.655982  0.250000  1
  Zn  Zn6  1  0.820860  0.162324  0.250000  1
  Ru  Ru7  1  0.017313  0.017787  0.494136  1
  Ru  Ru8  1  0.017313  0.017787  0.005864  1
  Ru  Ru9  1  0.174118  0.822048  0.750000  1
  Ru  Ru10  1  0.644198  0.819433  0.750000  1
  Ru  Ru11  1  0.322250  0.154353  0.250000  1
