# generated using pymatgen
data_Dy5Er11Cd3Hg(IrPt)2
_symmetry_space_group_name_H-M   'P 1'
_cell_length_a   9.59638004
_cell_length_b   9.59179883
_cell_length_c   9.56125300
_cell_angle_alpha   60.02005876
_cell_angle_beta   59.98919630
_cell_angle_gamma   60.18262794
_symmetry_Int_Tables_number   1
_chemical_formula_structural   Dy5Er11Cd3Hg(IrPt)2
_chemical_formula_sum   'Dy5 Er11 Cd3 Hg1 Ir2 Pt2'
_cell_volume   623.20874913
_cell_formula_units_Z   1
loop_
 _symmetry_equiv_pos_site_id
 _symmetry_equiv_pos_as_xyz
  1  'x, y, z'
loop_
 _atom_site_type_symbol
 _atom_site_label
 _atom_site_symmetry_multiplicity
 _atom_site_fract_x
 _atom_site_fract_y
 _atom_site_fract_z
 _atom_site_occupancy
  Dy  Dy0  1  0.811125  0.189412  0.188494  1
  Dy  Dy1  1  0.816251  0.187350  0.810574  1
  Dy  Dy2  1  0.188109  0.811930  0.186966  1
  Dy  Dy3  1  0.812970  0.811601  0.187156  1
  Dy  Dy4  1  0.188432  0.188032  0.810019  1
  Er  Er5  1  0.598996  0.597496  0.597179  1
  Er  Er6  1  0.601496  0.604144  0.198230  1
  Er  Er7  1  0.609166  0.188134  0.604864  1
  Er  Er8  1  0.189236  0.609183  0.602565  1
  Er  Er9  1  0.058065  0.441921  0.436791  1
  Er  Er10  1  0.439455  0.057499  0.062644  1
  Er  Er11  1  0.441784  0.057385  0.438245  1
  Er  Er12  1  0.056686  0.440616  0.062003  1
  Er  Er13  1  0.439082  0.440081  0.061032  1
  Er  Er14  1  0.062405  0.062692  0.434798  1
  Er  Er15  1  0.189519  0.813704  0.809396  1
  Cd  Cd16  1  0.830020  0.830003  0.505558  1
  Cd  Cd17  1  0.829310  0.507233  0.830637  1
  Cd  Cd18  1  0.505654  0.829638  0.831399  1
  Hg  Hg19  1  0.835930  0.834561  0.834072  1
  Ir  Ir20  1  0.389811  0.823366  0.394974  1
  Ir  Ir21  1  0.822826  0.390204  0.393396  1
  Pt  Pt22  1  0.393561  0.392032  0.397353  1
  Pt  Pt23  1  0.390110  0.391783  0.821655  1
