# generated using pymatgen
data_Dy2Er11Tm3(Ga3Co)2
_symmetry_space_group_name_H-M   'P 1'
_cell_length_a   9.91297000
_cell_length_b   9.91293009
_cell_length_c   6.88818208
_cell_angle_alpha   89.98547502
_cell_angle_beta   89.99809811
_cell_angle_gamma   120.00067254
_symmetry_Int_Tables_number   1
_chemical_formula_structural   Dy2Er11Tm3(Ga3Co)2
_chemical_formula_sum   'Dy2 Er11 Tm3 Ga6 Co2'
_cell_volume   586.18961651
_cell_formula_units_Z   1
loop_
 _symmetry_equiv_pos_site_id
 _symmetry_equiv_pos_as_xyz
  1  'x, y, z'
loop_
 _atom_site_type_symbol
 _atom_site_label
 _atom_site_symmetry_multiplicity
 _atom_site_fract_x
 _atom_site_fract_y
 _atom_site_fract_z
 _atom_site_occupancy
  Dy  Dy0  1  0.000227  0.000216  0.269589  1
  Dy  Dy1  1  0.999974  0.000208  0.770287  1
  Er  Er2  1  0.653264  0.826679  0.990306  1
  Er  Er3  1  0.346949  0.173494  0.490282  1
  Er  Er4  1  0.826546  0.653069  0.490389  1
  Er  Er5  1  0.333021  0.666539  0.672612  1
  Er  Er6  1  0.666815  0.333155  0.172563  1
  Er  Er7  1  0.463280  0.536242  0.293036  1
  Er  Er8  1  0.536129  0.463417  0.793519  1
  Er  Er9  1  0.463710  0.927321  0.293269  1
  Er  Er10  1  0.072609  0.536122  0.292980  1
  Er  Er11  1  0.927524  0.463582  0.793332  1
  Er  Er12  1  0.536258  0.072667  0.793303  1
  Tm  Tm13  1  0.173609  0.826422  0.990226  1
  Tm  Tm14  1  0.826404  0.173661  0.490248  1
  Tm  Tm15  1  0.173581  0.347143  0.990223  1
  Ga  Ga16  1  0.163714  0.836236  0.541337  1
  Ga  Ga17  1  0.836932  0.164008  0.041265  1
  Ga  Ga18  1  0.163131  0.327186  0.541334  1
  Ga  Ga19  1  0.672773  0.836841  0.540792  1
  Ga  Ga20  1  0.326877  0.163444  0.040685  1
  Ga  Ga21  1  0.836891  0.672810  0.040682  1
  Co  Co22  1  0.332854  0.666431  0.056888  1
  Co  Co23  1  0.666926  0.333105  0.556970  1
