# generated using pymatgen
data_CrCoBr18
_symmetry_space_group_name_H-M   'P 1'
_cell_length_a   8.98532558
_cell_length_b   8.98532625
_cell_length_c   8.98532624
_cell_angle_alpha   90.69567443
_cell_angle_beta   90.69566647
_cell_angle_gamma   90.69567268
_symmetry_Int_Tables_number   1
_chemical_formula_structural   CrCoBr18
_chemical_formula_sum   'Cr1 Co1 Br18'
_cell_volume   725.27830690
_cell_formula_units_Z   1
loop_
 _symmetry_equiv_pos_site_id
 _symmetry_equiv_pos_as_xyz
  1  'x, y, z'
loop_
 _atom_site_type_symbol
 _atom_site_label
 _atom_site_symmetry_multiplicity
 _atom_site_fract_x
 _atom_site_fract_y
 _atom_site_fract_z
 _atom_site_occupancy
  Cr  Cr0  1  0.500000  0.500000  0.500000  1
  Co  Co1  1  0.000000  0.000000  0.000000  1
  Br  Br2  1  0.733526  0.981796  0.025615  1
  Br  Br3  1  0.742807  0.127697  0.620641  1
  Br  Br4  1  0.025615  0.733526  0.981796  1
  Br  Br5  1  0.257193  0.872303  0.379359  1
  Br  Br6  1  0.127697  0.620641  0.742807  1
  Br  Br7  1  0.018204  0.974385  0.266474  1
  Br  Br8  1  0.620641  0.742807  0.127697  1
  Br  Br9  1  0.974385  0.266474  0.018204  1
  Br  Br10  1  0.872303  0.379359  0.257193  1
  Br  Br11  1  0.379359  0.257193  0.872303  1
  Br  Br12  1  0.981796  0.025615  0.733526  1
  Br  Br13  1  0.266474  0.018204  0.974385  1
  Br  Br14  1  0.777468  0.530505  0.484365  1
  Br  Br15  1  0.515635  0.222532  0.469495  1
  Br  Br16  1  0.469495  0.515635  0.222532  1
  Br  Br17  1  0.484365  0.777468  0.530505  1
  Br  Br18  1  0.530505  0.484365  0.777468  1
  Br  Br19  1  0.222532  0.469495  0.515635  1
