# generated using pymatgen
data_La7Tb12NdSi16
_symmetry_space_group_name_H-M   'P 1'
_cell_length_a   7.84584577
_cell_length_b   7.84508573
_cell_length_c   14.64313394
_cell_angle_alpha   90.02731463
_cell_angle_beta   89.97032185
_cell_angle_gamma   90.04159423
_symmetry_Int_Tables_number   1
_chemical_formula_structural   La7Tb12NdSi16
_chemical_formula_sum   'La7 Tb12 Nd1 Si16'
_cell_volume   901.30394831
_cell_formula_units_Z   1
loop_
 _symmetry_equiv_pos_site_id
 _symmetry_equiv_pos_as_xyz
  1  'x, y, z'
loop_
 _atom_site_type_symbol
 _atom_site_label
 _atom_site_symmetry_multiplicity
 _atom_site_fract_x
 _atom_site_fract_y
 _atom_site_fract_z
 _atom_site_occupancy
  La  La0  1  0.010386  0.364582  0.543828  1
  La  La1  1  0.636105  0.989271  0.957314  1
  La  La2  1  0.134775  0.511058  0.794235  1
  La  La3  1  0.864388  0.489277  0.293272  1
  La  La4  1  0.510148  0.135209  0.205920  1
  La  La5  1  0.488973  0.864729  0.706361  1
  La  La6  1  0.364605  0.010504  0.455913  1
  Tb  Tb7  1  0.365633  0.488819  0.374261  1
  Tb  Tb8  1  0.865206  0.010502  0.374782  1
  Tb  Tb9  1  0.989283  0.134054  0.124481  1
  Tb  Tb10  1  0.011120  0.865477  0.624731  1
  Tb  Tb11  1  0.635135  0.511943  0.875395  1
  Tb  Tb12  1  0.489089  0.365233  0.625250  1
  Tb  Tb13  1  0.511390  0.634689  0.124956  1
  Tb  Tb14  1  0.133897  0.989052  0.875699  1
  Tb  Tb15  1  0.686771  0.686680  0.499882  1
  Tb  Tb16  1  0.812617  0.186572  0.750429  1
  Tb  Tb17  1  0.186546  0.812645  0.249770  1
  Tb  Tb18  1  0.313060  0.313750  0.999927  1
  Nd  Nd19  1  0.991422  0.633542  0.044871  1
  Si  Si20  1  0.070509  0.712891  0.438999  1
  Si  Si21  1  0.930832  0.289361  0.939482  1
  Si  Si22  1  0.713218  0.070224  0.560849  1
  Si  Si23  1  0.212573  0.430426  0.188631  1
  Si  Si24  1  0.786657  0.570165  0.689388  1
  Si  Si25  1  0.429685  0.213127  0.811106  1
  Si  Si26  1  0.571330  0.786266  0.310289  1
  Si  Si27  1  0.285207  0.928345  0.060678  1
  Si  Si28  1  0.841220  0.799459  0.806366  1
  Si  Si29  1  0.157378  0.201686  0.305907  1
  Si  Si30  1  0.799429  0.841355  0.192074  1
  Si  Si31  1  0.298605  0.657934  0.556191  1
  Si  Si32  1  0.703515  0.344129  0.056902  1
  Si  Si33  1  0.658055  0.298352  0.443691  1
  Si  Si34  1  0.339986  0.700546  0.944206  1
  Si  Si35  1  0.201250  0.158148  0.693967  1
