# generated using pymatgen
data_Y6Tm13Lu(Cd3Os)2
_symmetry_space_group_name_H-M   'P 1'
_cell_length_a   9.52099100
_cell_length_b   9.52099155
_cell_length_c   9.77122700
_cell_angle_alpha   90.00000000
_cell_angle_beta   90.00000000
_cell_angle_gamma   119.99999461
_symmetry_Int_Tables_number   1
_chemical_formula_structural   Y6Tm13Lu(Cd3Os)2
_chemical_formula_sum   'Y6 Tm13 Lu1 Cd6 Os2'
_cell_volume   767.08606324
_cell_formula_units_Z   1
loop_
 _symmetry_equiv_pos_site_id
 _symmetry_equiv_pos_as_xyz
  1  'x, y, z'
loop_
 _atom_site_type_symbol
 _atom_site_label
 _atom_site_symmetry_multiplicity
 _atom_site_fract_x
 _atom_site_fract_y
 _atom_site_fract_z
 _atom_site_occupancy
  Y  Y0  1  0.539014  0.460986  0.249933  1
  Y  Y1  1  0.539014  0.078028  0.249933  1
  Y  Y2  1  0.921972  0.460986  0.249933  1
  Y  Y3  1  0.460986  0.539014  0.750067  1
  Y  Y4  1  0.460986  0.921972  0.750067  1
  Y  Y5  1  0.078028  0.539014  0.750067  1
  Tm  Tm6  1  0.000000  0.000000  0.500000  1
  Tm  Tm7  1  0.209943  0.790057  0.440340  1
  Tm  Tm8  1  0.209943  0.419886  0.440340  1
  Tm  Tm9  1  0.580114  0.790057  0.440340  1
  Tm  Tm10  1  0.790057  0.209943  0.559660  1
  Tm  Tm11  1  0.790057  0.580114  0.559660  1
  Tm  Tm12  1  0.419886  0.209943  0.559660  1
  Tm  Tm13  1  0.790265  0.209735  0.940321  1
  Tm  Tm14  1  0.790265  0.580528  0.940321  1
  Tm  Tm15  1  0.419472  0.209735  0.940321  1
  Tm  Tm16  1  0.209735  0.790265  0.059679  1
  Tm  Tm17  1  0.209735  0.419472  0.059679  1
  Tm  Tm18  1  0.580528  0.790265  0.059679  1
  Lu  Lu19  1  0.000000  0.000000  0.000000  1
  Cd  Cd20  1  0.886662  0.113338  0.249474  1
  Cd  Cd21  1  0.886662  0.773326  0.249474  1
  Cd  Cd22  1  0.226674  0.113338  0.249474  1
  Cd  Cd23  1  0.113338  0.886662  0.750526  1
  Cd  Cd24  1  0.113338  0.226674  0.750526  1
  Cd  Cd25  1  0.773326  0.886662  0.750526  1
  Os  Os26  1  0.333333  0.666667  0.249936  1
  Os  Os27  1  0.666667  0.333333  0.750064  1
