# generated using pymatgen
data_Sr3Sm(Si5Pt3)2
_symmetry_space_group_name_H-M   'P 1'
_cell_length_a   8.38054952
_cell_length_b   8.37623080
_cell_length_c   8.37623102
_cell_angle_alpha   137.90174011
_cell_angle_beta   105.03249663
_cell_angle_gamma   89.91428381
_symmetry_Int_Tables_number   1
_chemical_formula_structural   Sr3Sm(Si5Pt3)2
_chemical_formula_sum   'Sr3 Sm1 Si10 Pt6'
_cell_volume   363.76759193
_cell_formula_units_Z   1
loop_
 _symmetry_equiv_pos_site_id
 _symmetry_equiv_pos_as_xyz
  1  'x, y, z'
loop_
 _atom_site_type_symbol
 _atom_site_label
 _atom_site_symmetry_multiplicity
 _atom_site_fract_x
 _atom_site_fract_y
 _atom_site_fract_z
 _atom_site_occupancy
  Sr  Sr0  1  0.634719  0.370022  0.264697  1
  Sr  Sr1  1  0.364365  0.628995  0.735369  1
  Sr  Sr2  1  0.106701  0.871859  0.234842  1
  Sm  Sm3  1  0.896634  0.129434  0.767200  1
  Si  Si4  1  0.269298  0.520375  0.250124  1
  Si  Si5  1  0.728351  0.477072  0.748476  1
  Si  Si6  1  0.728351  0.979875  0.251279  1
  Si  Si7  1  0.269298  0.019174  0.748923  1
  Si  Si8  1  0.462694  0.112306  0.350388  1
  Si  Si9  1  0.540303  0.890219  0.650084  1
  Si  Si10  1  0.760398  0.611951  0.148448  1
  Si  Si11  1  0.238168  0.386291  0.851878  1
  Si  Si12  1  0.000318  0.252422  0.250969  1
  Si  Si13  1  0.000318  0.749350  0.747896  1
  Pt  Pt14  1  0.244171  0.134820  0.109351  1
  Pt  Pt15  1  0.755202  0.866010  0.889192  1
  Pt  Pt16  1  0.020874  0.635702  0.385172  1
  Pt  Pt17  1  0.975092  0.362839  0.612253  1
  Pt  Pt18  1  0.502373  0.249418  0.750505  1
  Pt  Pt19  1  0.502373  0.751868  0.252954  1
