# generated using pymatgen
data_Yb2DyLu(NiB4)4
_symmetry_space_group_name_H-M   'P 1'
_cell_length_a   6.79846741
_cell_length_b   6.79846696
_cell_length_c   6.79846707
_cell_angle_alpha   112.85624693
_cell_angle_beta   112.85625674
_cell_angle_gamma   102.89465588
_symmetry_Int_Tables_number   1
_chemical_formula_structural   Yb2DyLu(NiB4)4
_chemical_formula_sum   'Yb2 Dy1 Lu1 Ni4 B16'
_cell_volume   239.53388895
_cell_formula_units_Z   1
loop_
 _symmetry_equiv_pos_site_id
 _symmetry_equiv_pos_as_xyz
  1  'x, y, z'
loop_
 _atom_site_type_symbol
 _atom_site_label
 _atom_site_symmetry_multiplicity
 _atom_site_fract_x
 _atom_site_fract_y
 _atom_site_fract_z
 _atom_site_occupancy
  Yb  Yb0  1  0.796048  0.796048  0.000000  1
  Yb  Yb1  1  0.203952  0.203952  0.000000  1
  Dy  Dy2  1  0.250000  0.750000  0.500000  1
  Lu  Lu3  1  0.750000  0.250000  0.500000  1
  Ni  Ni4  1  0.272392  0.499586  0.772805  1
  Ni  Ni5  1  0.726781  0.499586  0.227195  1
  Ni  Ni6  1  0.500414  0.727608  0.227195  1
  Ni  Ni7  1  0.500414  0.273219  0.772805  1
  B  B8  1  0.276508  0.112149  0.388530  1
  B  B9  1  0.723619  0.887978  0.611470  1
  B  B10  1  0.276508  0.887978  0.164359  1
  B  B11  1  0.723619  0.112149  0.835641  1
  B  B12  1  0.112022  0.723492  0.835641  1
  B  B13  1  0.887851  0.276381  0.164359  1
  B  B14  1  0.112022  0.276381  0.388530  1
  B  B15  1  0.887851  0.723492  0.611470  1
  B  B16  1  0.112777  0.113385  0.530376  1
  B  B17  1  0.583008  0.582400  0.469624  1
  B  B18  1  0.112777  0.582400  0.999392  1
  B  B19  1  0.583008  0.113385  0.000608  1
  B  B20  1  0.886615  0.887223  0.469624  1
  B  B21  1  0.417600  0.416992  0.530376  1
  B  B22  1  0.886615  0.416992  0.999392  1
  B  B23  1  0.417600  0.887223  0.000608  1
