# generated using pymatgen
data_Tb5Dy7Tc3Ru
_symmetry_space_group_name_H-M   'P 1'
_cell_length_a   6.29708727
_cell_length_b   7.38854083
_cell_length_c   9.18701508
_cell_angle_alpha   90.00804645
_cell_angle_beta   90.01233857
_cell_angle_gamma   89.93451529
_symmetry_Int_Tables_number   1
_chemical_formula_structural   Tb5Dy7Tc3Ru
_chemical_formula_sum   'Tb5 Dy7 Tc3 Ru1'
_cell_volume   427.43740130
_cell_formula_units_Z   1
loop_
 _symmetry_equiv_pos_site_id
 _symmetry_equiv_pos_as_xyz
  1  'x, y, z'
loop_
 _atom_site_type_symbol
 _atom_site_label
 _atom_site_symmetry_multiplicity
 _atom_site_fract_x
 _atom_site_fract_y
 _atom_site_fract_z
 _atom_site_occupancy
  Tb  Tb0  1  0.335701  0.676672  0.063716  1
  Tb  Tb1  1  0.874308  0.542380  0.250152  1
  Tb  Tb2  1  0.625422  0.040855  0.250071  1
  Tb  Tb3  1  0.130489  0.456956  0.749882  1
  Tb  Tb4  1  0.373564  0.956263  0.749861  1
  Dy  Dy5  1  0.162480  0.175623  0.437189  1
  Dy  Dy6  1  0.661757  0.324249  0.563095  1
  Dy  Dy7  1  0.836662  0.824485  0.937061  1
  Dy  Dy8  1  0.661971  0.323928  0.936784  1
  Dy  Dy9  1  0.836774  0.824463  0.562893  1
  Dy  Dy10  1  0.335760  0.676569  0.436393  1
  Dy  Dy11  1  0.162299  0.175638  0.062831  1
  Tc  Tc12  1  0.038348  0.886207  0.250246  1
  Tc  Tc13  1  0.462404  0.387438  0.250178  1
  Tc  Tc14  1  0.962191  0.114096  0.750007  1
  Ru  Ru15  1  0.539871  0.614179  0.749643  1
