# generated using pymatgen
data_TbY3(As4O9)2
_symmetry_space_group_name_H-M   'P 1'
_cell_length_a   6.76877286
_cell_length_b   7.56963217
_cell_length_c   9.83262302
_cell_angle_alpha   94.98368327
_cell_angle_beta   104.19192698
_cell_angle_gamma   104.72222854
_symmetry_Int_Tables_number   1
_chemical_formula_structural   TbY3(As4O9)2
_chemical_formula_sum   'Tb1 Y3 As8 O18'
_cell_volume   466.36740155
_cell_formula_units_Z   1
loop_
 _symmetry_equiv_pos_site_id
 _symmetry_equiv_pos_as_xyz
  1  'x, y, z'
loop_
 _atom_site_type_symbol
 _atom_site_label
 _atom_site_symmetry_multiplicity
 _atom_site_fract_x
 _atom_site_fract_y
 _atom_site_fract_z
 _atom_site_occupancy
  Tb  Tb0  1  0.244234  0.939413  0.615829  1
  Y  Y1  1  0.755929  0.060680  0.384255  1
  Y  Y2  1  0.720785  0.530589  0.408878  1
  Y  Y3  1  0.279190  0.469335  0.591108  1
  As  As4  1  0.681310  0.775060  0.077136  1
  As  As5  1  0.318699  0.225024  0.922896  1
  As  As6  1  0.172091  0.753114  0.913240  1
  As  As7  1  0.827898  0.246857  0.086773  1
  As  As8  1  0.744701  0.915787  0.709613  1
  As  As9  1  0.255316  0.084198  0.290322  1
  As  As10  1  0.809710  0.350893  0.701677  1
  As  As11  1  0.190273  0.649034  0.298298  1
  O  O12  1  0.723401  0.750552  0.257826  1
  O  O13  1  0.276635  0.249684  0.742263  1
  O  O14  1  0.316281  0.978796  0.871217  1
  O  O15  1  0.683743  0.021185  0.128910  1
  O  O16  1  0.607721  0.323955  0.985362  1
  O  O17  1  0.392261  0.676038  0.014629  1
  O  O18  1  0.128578  0.647511  0.738275  1
  O  O19  1  0.871425  0.352538  0.261658  1
  O  O20  1  0.846336  0.874664  0.559133  1
  O  O21  1  0.153445  0.125479  0.440658  1
  O  O22  1  0.484913  0.769061  0.666944  1
  O  O23  1  0.515240  0.230793  0.333081  1
  O  O24  1  0.372592  0.534758  0.379290  1
  O  O25  1  0.627427  0.465211  0.620695  1
  O  O26  1  0.089228  0.669232  0.453034  1
  O  O27  1  0.910637  0.330524  0.546857  1
  O  O28  1  0.374953  0.898931  0.358519  1
  O  O29  1  0.625049  0.101104  0.641620  1
