# generated using pymatgen
data_Yb7Ga(GeN)2
_symmetry_space_group_name_H-M   'P 1'
_cell_length_a   11.77376478
_cell_length_b   11.77376410
_cell_length_c   4.75503300
_cell_angle_alpha   90.00000000
_cell_angle_beta   90.00000000
_cell_angle_gamma   156.47123900
_symmetry_Int_Tables_number   1
_chemical_formula_structural   Yb7Ga(GeN)2
_chemical_formula_sum   'Yb7 Ga1 Ge2 N2'
_cell_volume   263.13882737
_cell_formula_units_Z   1
loop_
 _symmetry_equiv_pos_site_id
 _symmetry_equiv_pos_as_xyz
  1  'x, y, z'
loop_
 _atom_site_type_symbol
 _atom_site_label
 _atom_site_symmetry_multiplicity
 _atom_site_fract_x
 _atom_site_fract_y
 _atom_site_fract_z
 _atom_site_occupancy
  Yb  Yb0  1  0.999568  0.000432  0.000000  1
  Yb  Yb1  1  0.799459  0.200542  0.000000  1
  Yb  Yb2  1  0.594698  0.405303  0.000000  1
  Yb  Yb3  1  0.402781  0.597220  0.000000  1
  Yb  Yb4  1  0.203328  0.796673  0.000000  1
  Yb  Yb5  1  0.900911  0.099090  0.500000  1
  Yb  Yb6  1  0.096869  0.903132  0.500000  1
  Ga  Ga7  1  0.711439  0.288562  0.500000  1
  Ge  Ge8  1  0.500613  0.499387  0.500000  1
  Ge  Ge9  1  0.288457  0.711544  0.500000  1
  N  N10  1  0.895585  0.104416  0.000000  1
  N  N11  1  0.106297  0.893704  0.000000  1
