# generated using pymatgen
data_Hf6Al6Os2PdPtAu2
_symmetry_space_group_name_H-M   'P 1'
_cell_length_a   7.34984400
_cell_length_b   7.34984346
_cell_length_c   6.70956100
_cell_angle_alpha   90.00000000
_cell_angle_beta   90.00000000
_cell_angle_gamma   120.00000241
_symmetry_Int_Tables_number   1
_chemical_formula_structural   Hf6Al6Os2PdPtAu2
_chemical_formula_sum   'Hf6 Al6 Os2 Pd1 Pt1 Au2'
_cell_volume   313.89249913
_cell_formula_units_Z   1
loop_
 _symmetry_equiv_pos_site_id
 _symmetry_equiv_pos_as_xyz
  1  'x, y, z'
loop_
 _atom_site_type_symbol
 _atom_site_label
 _atom_site_symmetry_multiplicity
 _atom_site_fract_x
 _atom_site_fract_y
 _atom_site_fract_z
 _atom_site_occupancy
  Hf  Hf0  1  0.608654  0.011211  0.750000  1
  Hf  Hf1  1  0.988789  0.597444  0.750000  1
  Hf  Hf2  1  0.402556  0.391346  0.750000  1
  Hf  Hf3  1  0.977386  0.600361  0.250000  1
  Hf  Hf4  1  0.622974  0.022614  0.250000  1
  Hf  Hf5  1  0.399639  0.377026  0.250000  1
  Al  Al6  1  0.731564  0.734632  0.997875  1
  Al  Al7  1  0.265368  0.996932  0.997875  1
  Al  Al8  1  0.003068  0.268436  0.997875  1
  Al  Al9  1  0.731564  0.734632  0.502125  1
  Al  Al10  1  0.265368  0.996932  0.502125  1
  Al  Al11  1  0.003068  0.268436  0.502125  1
  Os  Os12  1  0.666667  0.333333  0.996717  1
  Os  Os13  1  0.666667  0.333333  0.503283  1
  Pd  Pd14  1  0.000000  0.000000  0.750000  1
  Pt  Pt15  1  0.000000  0.000000  0.250000  1
  Au  Au16  1  0.333333  0.666667  0.478385  1
  Au  Au17  1  0.333333  0.666667  0.021616  1
