# generated using pymatgen
data_Cs2RbFe2(Co2P3)2
_symmetry_space_group_name_H-M   'P 1'
_cell_length_a   5.28205683
_cell_length_b   7.65439730
_cell_length_c   8.34817475
_cell_angle_alpha   109.14047353
_cell_angle_beta   108.44292575
_cell_angle_gamma   89.99998879
_symmetry_Int_Tables_number   1
_chemical_formula_structural   Cs2RbFe2(Co2P3)2
_chemical_formula_sum   'Cs2 Rb1 Fe2 Co4 P6'
_cell_volume   300.45535339
_cell_formula_units_Z   1
loop_
 _symmetry_equiv_pos_site_id
 _symmetry_equiv_pos_as_xyz
  1  'x, y, z'
loop_
 _atom_site_type_symbol
 _atom_site_label
 _atom_site_symmetry_multiplicity
 _atom_site_fract_x
 _atom_site_fract_y
 _atom_site_fract_z
 _atom_site_occupancy
  Cs  Cs0  1  0.665950  0.998232  0.329753  1
  Cs  Cs1  1  0.336194  0.001768  0.670247  1
  Rb  Rb2  1  0.998577  0.000000  0.000000  1
  Fe  Fe3  1  0.416871  0.500672  0.334295  1
  Fe  Fe4  1  0.082574  0.499328  0.665705  1
  Co  Co5  1  0.750133  0.500000  0.000000  1
  Co  Co6  1  0.583680  0.499479  0.667232  1
  Co  Co7  1  0.249865  0.500000  0.000000  1
  Co  Co8  1  0.916451  0.500521  0.332768  1
  P  P9  1  0.222206  0.335652  0.444353  1
  P  P10  1  0.891226  0.337723  0.777604  1
  P  P11  1  0.554949  0.338588  0.115100  1
  P  P12  1  0.777852  0.664348  0.555647  1
  P  P13  1  0.439849  0.661412  0.884900  1
  P  P14  1  0.113620  0.662277  0.222396  1
