# generated using pymatgen
data_Yb2Co5Si14Ir
_symmetry_space_group_name_H-M   'P 1'
_cell_length_a   7.71340291
_cell_length_b   7.67785819
_cell_length_c   7.67785844
_cell_angle_alpha   57.33765634
_cell_angle_beta   57.16593285
_cell_angle_gamma   57.16593995
_symmetry_Int_Tables_number   1
_chemical_formula_structural   Yb2Co5Si14Ir
_chemical_formula_sum   'Yb2 Co5 Si14 Ir1'
_cell_volume   300.95718596
_cell_formula_units_Z   1
loop_
 _symmetry_equiv_pos_site_id
 _symmetry_equiv_pos_as_xyz
  1  'x, y, z'
loop_
 _atom_site_type_symbol
 _atom_site_label
 _atom_site_symmetry_multiplicity
 _atom_site_fract_x
 _atom_site_fract_y
 _atom_site_fract_z
 _atom_site_occupancy
  Yb  Yb0  1  0.000247  0.999156  0.001849  1
  Yb  Yb1  1  0.499753  0.498151  0.500844  1
  Co  Co2  1  0.069310  0.429824  0.751537  1
  Co  Co3  1  0.250000  0.929607  0.570393  1
  Co  Co4  1  0.569193  0.250904  0.928478  1
  Co  Co5  1  0.930807  0.571522  0.249096  1
  Co  Co6  1  0.430690  0.748463  0.070176  1
  Si  Si7  1  0.750000  0.738473  0.761527  1
  Si  Si8  1  0.250000  0.250875  0.249125  1
  Si  Si9  1  0.856409  0.073579  0.673375  1
  Si  Si10  1  0.668563  0.848925  0.070779  1
  Si  Si11  1  0.075428  0.667640  0.848382  1
  Si  Si12  1  0.643591  0.826625  0.426421  1
  Si  Si13  1  0.424572  0.651618  0.832360  1
  Si  Si14  1  0.831437  0.429221  0.651075  1
  Si  Si15  1  0.166834  0.572641  0.350056  1
  Si  Si16  1  0.566757  0.358897  0.158116  1
  Si  Si17  1  0.338113  0.168910  0.577665  1
  Si  Si18  1  0.933243  0.341884  0.141103  1
  Si  Si19  1  0.333166  0.149944  0.927359  1
  Si  Si20  1  0.161887  0.922335  0.331090  1
  Ir  Ir21  1  0.750000  0.070806  0.429194  1
