# generated using pymatgen
data_Ba2BHN2
_symmetry_space_group_name_H-M   'P 1'
_cell_length_a   4.24597200
_cell_length_b   10.69110400
_cell_length_c   10.64737300
_cell_angle_alpha   90.00000000
_cell_angle_beta   90.00000000
_cell_angle_gamma   90.00000000
_symmetry_Int_Tables_number   1
_chemical_formula_structural   Ba2BHN2
_chemical_formula_sum   'Ba8 B4 H4 N8'
_cell_volume   483.32821531
_cell_formula_units_Z   4
loop_
 _symmetry_equiv_pos_site_id
 _symmetry_equiv_pos_as_xyz
  1  'x, y, z'
loop_
 _atom_site_type_symbol
 _atom_site_label
 _atom_site_symmetry_multiplicity
 _atom_site_fract_x
 _atom_site_fract_y
 _atom_site_fract_z
 _atom_site_occupancy
  Ba  Ba0  1  0.250000  0.678172  0.514062  1
  Ba  Ba1  1  0.750000  0.321828  0.485938  1
  Ba  Ba2  1  0.250000  0.178172  0.985938  1
  Ba  Ba3  1  0.750000  0.821828  0.014062  1
  Ba  Ba4  1  0.250000  0.529385  0.164088  1
  Ba  Ba5  1  0.750000  0.470615  0.835912  1
  Ba  Ba6  1  0.250000  0.029385  0.335912  1
  Ba  Ba7  1  0.750000  0.970615  0.664088  1
  B  B8  1  0.250000  0.724031  0.829273  1
  B  B9  1  0.750000  0.275969  0.170727  1
  B  B10  1  0.250000  0.224031  0.670727  1
  B  B11  1  0.750000  0.775969  0.329273  1
  H  H12  1  0.250000  0.950979  0.095729  1
  H  H13  1  0.750000  0.049021  0.904271  1
  H  H14  1  0.250000  0.450979  0.404271  1
  H  H15  1  0.750000  0.549021  0.595729  1
  N  N16  1  0.750000  0.687963  0.239098  1
  N  N17  1  0.250000  0.312037  0.760902  1
  N  N18  1  0.750000  0.187963  0.260902  1
  N  N19  1  0.250000  0.812037  0.739098  1
  N  N20  1  0.750000  0.856234  0.428404  1
  N  N21  1  0.250000  0.143766  0.571596  1
  N  N22  1  0.750000  0.356234  0.071596  1
  N  N23  1  0.250000  0.643766  0.928404  1
