# generated using pymatgen
data_Nb8VSbSe16
_symmetry_space_group_name_H-M   'P 1'
_cell_length_a   7.00786500
_cell_length_b   7.00786602
_cell_length_c   13.71063500
_cell_angle_alpha   90.00000000
_cell_angle_beta   90.00000000
_cell_angle_gamma   119.99999993
_symmetry_Int_Tables_number   1
_chemical_formula_structural   Nb8VSbSe16
_chemical_formula_sum   'Nb8 V1 Sb1 Se16'
_cell_volume   583.12239130
_cell_formula_units_Z   1
loop_
 _symmetry_equiv_pos_site_id
 _symmetry_equiv_pos_as_xyz
  1  'x, y, z'
loop_
 _atom_site_type_symbol
 _atom_site_label
 _atom_site_symmetry_multiplicity
 _atom_site_fract_x
 _atom_site_fract_y
 _atom_site_fract_z
 _atom_site_occupancy
  Nb  Nb0  1  0.000000  0.000000  0.265769  1
  Nb  Nb1  1  0.000000  0.000000  0.734231  1
  Nb  Nb2  1  0.507826  0.015651  0.266695  1
  Nb  Nb3  1  0.492174  0.984349  0.733305  1
  Nb  Nb4  1  0.984349  0.492174  0.266695  1
  Nb  Nb5  1  0.015651  0.507826  0.733305  1
  Nb  Nb6  1  0.507826  0.492174  0.266695  1
  Nb  Nb7  1  0.492174  0.507826  0.733305  1
  V  V8  1  0.000000  0.000000  0.500000  1
  Sb  Sb9  1  0.000000  0.000000  0.000000  1
  Se  Se10  1  0.333333  0.666667  0.607294  1
  Se  Se11  1  0.666667  0.333333  0.392706  1
  Se  Se12  1  0.666667  0.333333  0.139603  1
  Se  Se13  1  0.333333  0.666667  0.860397  1
  Se  Se14  1  0.170325  0.340649  0.144808  1
  Se  Se15  1  0.829675  0.659351  0.855192  1
  Se  Se16  1  0.659351  0.829675  0.144808  1
  Se  Se17  1  0.833230  0.666460  0.613326  1
  Se  Se18  1  0.340649  0.170325  0.855192  1
  Se  Se19  1  0.166770  0.333540  0.386674  1
  Se  Se20  1  0.170325  0.829675  0.144808  1
  Se  Se21  1  0.333540  0.166770  0.613326  1
  Se  Se22  1  0.829675  0.170325  0.855192  1
  Se  Se23  1  0.666460  0.833230  0.386674  1
  Se  Se24  1  0.833230  0.166770  0.613326  1
  Se  Se25  1  0.166770  0.833230  0.386674  1
