# generated using pymatgen
data_Li22Pd3Pt
_symmetry_space_group_name_H-M   'P 1'
_cell_length_a   8.24931282
_cell_length_b   8.24931287
_cell_length_c   8.24931300
_cell_angle_alpha   109.40524044
_cell_angle_beta   109.40524410
_cell_angle_gamma   109.40522193
_symmetry_Int_Tables_number   1
_chemical_formula_structural   Li22Pd3Pt
_chemical_formula_sum   'Li22 Pd3 Pt1'
_cell_volume   433.19947113
_cell_formula_units_Z   1
loop_
 _symmetry_equiv_pos_site_id
 _symmetry_equiv_pos_as_xyz
  1  'x, y, z'
loop_
 _atom_site_type_symbol
 _atom_site_label
 _atom_site_symmetry_multiplicity
 _atom_site_fract_x
 _atom_site_fract_y
 _atom_site_fract_z
 _atom_site_occupancy
  Li  Li0  1  0.997805  0.797527  0.997805  1
  Li  Li1  1  0.797527  0.997805  0.997805  1
  Li  Li2  1  0.997805  0.997805  0.797527  1
  Li  Li3  1  0.201953  0.201953  0.201953  1
  Li  Li4  1  0.355551  0.606291  0.355551  1
  Li  Li5  1  0.253879  0.000164  0.647814  1
  Li  Li6  1  0.647814  0.000164  0.253879  1
  Li  Li7  1  0.253879  0.647814  0.000164  1
  Li  Li8  1  0.744335  0.744335  0.395140  1
  Li  Li9  1  0.395140  0.744335  0.744335  1
  Li  Li10  1  0.000164  0.647814  0.253879  1
  Li  Li11  1  0.000164  0.253879  0.647814  1
  Li  Li12  1  0.647814  0.253879  0.000164  1
  Li  Li13  1  0.355551  0.355551  0.606291  1
  Li  Li14  1  0.606291  0.355551  0.355551  1
  Li  Li15  1  0.744335  0.395140  0.744335  1
  Li  Li16  1  0.346486  0.346486  0.000948  1
  Li  Li17  1  0.995992  0.653804  0.653804  1
  Li  Li18  1  0.000948  0.346486  0.346486  1
  Li  Li19  1  0.346486  0.000948  0.346486  1
  Li  Li20  1  0.653804  0.995992  0.653804  1
  Li  Li21  1  0.653804  0.653804  0.995992  1
  Pd  Pd22  1  0.000001  0.339487  0.000001  1
  Pd  Pd23  1  0.339487  0.000001  0.000001  1
  Pd  Pd24  1  0.000001  0.000001  0.339487  1
  Pt  Pt25  1  0.662980  0.662980  0.662980  1
