# generated using pymatgen
data_TbY3(CuPd)2
_symmetry_space_group_name_H-M   'P 1'
_cell_length_a   4.48846100
_cell_length_b   5.54482698
_cell_length_c   7.18494005
_cell_angle_alpha   89.95841037
_cell_angle_beta   90.00000000
_cell_angle_gamma   90.00000000
_symmetry_Int_Tables_number   1
_chemical_formula_structural   TbY3(CuPd)2
_chemical_formula_sum   'Tb1 Y3 Cu2 Pd2'
_cell_volume   178.81687033
_cell_formula_units_Z   1
loop_
 _symmetry_equiv_pos_site_id
 _symmetry_equiv_pos_as_xyz
  1  'x, y, z'
loop_
 _atom_site_type_symbol
 _atom_site_label
 _atom_site_symmetry_multiplicity
 _atom_site_fract_x
 _atom_site_fract_y
 _atom_site_fract_z
 _atom_site_occupancy
  Tb  Tb0  1  0.500000  0.608537  0.816450  1
  Y  Y1  1  0.000000  0.113680  0.683436  1
  Y  Y2  1  0.000000  0.886513  0.183761  1
  Y  Y3  1  0.500000  0.391432  0.316579  1
  Cu  Cu4  1  0.500000  0.890759  0.464134  1
  Cu  Cu5  1  0.500000  0.108949  0.963869  1
  Pd  Pd6  1  0.000000  0.616208  0.536062  1
  Pd  Pd7  1  0.000000  0.383922  0.035711  1
