# generated using pymatgen
data_Y7Ho3In8PdRh3
_symmetry_space_group_name_H-M   'P 1'
_cell_length_a   3.62820800
_cell_length_b   8.10736800
_cell_length_c   18.30958058
_cell_angle_alpha   90.02946727
_cell_angle_beta   90.00000000
_cell_angle_gamma   90.00000000
_symmetry_Int_Tables_number   1
_chemical_formula_structural   Y7Ho3In8PdRh3
_chemical_formula_sum   'Y7 Ho3 In8 Pd1 Rh3'
_cell_volume   538.58022273
_cell_formula_units_Z   1
loop_
 _symmetry_equiv_pos_site_id
 _symmetry_equiv_pos_as_xyz
  1  'x, y, z'
loop_
 _atom_site_type_symbol
 _atom_site_label
 _atom_site_symmetry_multiplicity
 _atom_site_fract_x
 _atom_site_fract_y
 _atom_site_fract_z
 _atom_site_occupancy
  Y  Y0  1  0.000000  0.500184  0.500615  1
  Y  Y1  1  0.000000  0.001082  0.999832  1
  Y  Y2  1  0.000000  0.734200  0.278154  1
  Y  Y3  1  0.000000  0.254717  0.721810  1
  Y  Y4  1  0.000000  0.754654  0.778140  1
  Y  Y5  1  0.000000  0.254427  0.219483  1
  Y  Y6  1  0.000000  0.617063  0.086301  1
  Ho  Ho7  1  0.000000  0.384436  0.910381  1
  Ho  Ho8  1  0.000000  0.883497  0.589603  1
  Ho  Ho9  1  0.000000  0.117296  0.414996  1
  In  In10  1  0.500000  0.707174  0.931104  1
  In  In11  1  0.500000  0.293921  0.067587  1
  In  In12  1  0.500000  0.792564  0.432790  1
  In  In13  1  0.500000  0.205984  0.568873  1
  In  In14  1  0.500000  0.570842  0.650188  1
  In  In15  1  0.500000  0.425182  0.350411  1
  In  In16  1  0.500000  0.925822  0.150105  1
  In  In17  1  0.500000  0.070847  0.850065  1
  Pd  Pd18  1  0.500000  0.023571  0.304581  1
  Rh  Rh19  1  0.500000  0.523216  0.194886  1
  Rh  Rh20  1  0.500000  0.479895  0.805534  1
  Rh  Rh21  1  0.500000  0.979428  0.694562  1
