# generated using pymatgen
data_Tm4Nb2CoOs5
_symmetry_space_group_name_H-M   'P 1'
_cell_length_a   5.46919100
_cell_length_b   5.49816151
_cell_length_c   8.44257300
_cell_angle_alpha   90.00000000
_cell_angle_beta   90.00000000
_cell_angle_gamma   119.82740756
_symmetry_Int_Tables_number   1
_chemical_formula_structural   Tm4Nb2CoOs5
_chemical_formula_sum   'Tm4 Nb2 Co1 Os5'
_cell_volume   220.24127978
_cell_formula_units_Z   1
loop_
 _symmetry_equiv_pos_site_id
 _symmetry_equiv_pos_as_xyz
  1  'x, y, z'
loop_
 _atom_site_type_symbol
 _atom_site_label
 _atom_site_symmetry_multiplicity
 _atom_site_fract_x
 _atom_site_fract_y
 _atom_site_fract_z
 _atom_site_occupancy
  Tm  Tm0  1  0.667876  0.335754  0.565703  1
  Tm  Tm1  1  0.333951  0.667907  0.437343  1
  Tm  Tm2  1  0.333951  0.667907  0.062657  1
  Tm  Tm3  1  0.667876  0.335754  0.934297  1
  Nb  Nb4  1  0.001301  0.002593  0.504910  1
  Nb  Nb5  1  0.001301  0.002593  0.995090  1
  Co  Co6  1  0.165308  0.330621  0.750000  1
  Os  Os7  1  0.178489  0.821613  0.750000  1
  Os  Os8  1  0.643115  0.821603  0.750000  1
  Os  Os9  1  0.828757  0.657504  0.250000  1
  Os  Os10  1  0.827996  0.178082  0.250000  1
  Os  Os11  1  0.350079  0.178068  0.250000  1
