# generated using pymatgen
data_EuY6FeBr12
_symmetry_space_group_name_H-M   'P 1'
_cell_length_a   9.26793766
_cell_length_b   9.26793713
_cell_length_c   9.26793631
_cell_angle_alpha   106.55386058
_cell_angle_beta   106.55385511
_cell_angle_gamma   106.55386221
_symmetry_Int_Tables_number   1
_chemical_formula_structural   EuY6FeBr12
_chemical_formula_sum   'Eu1 Y6 Fe1 Br12'
_cell_volume   670.87661612
_cell_formula_units_Z   1
loop_
 _symmetry_equiv_pos_site_id
 _symmetry_equiv_pos_as_xyz
  1  'x, y, z'
loop_
 _atom_site_type_symbol
 _atom_site_label
 _atom_site_symmetry_multiplicity
 _atom_site_fract_x
 _atom_site_fract_y
 _atom_site_fract_z
 _atom_site_occupancy
  Eu  Eu0  1  0.000000  0.000000  0.000000  1
  Y  Y1  1  0.802705  0.522049  0.597187  1
  Y  Y2  1  0.522049  0.597187  0.802705  1
  Y  Y3  1  0.197295  0.477951  0.402813  1
  Y  Y4  1  0.477951  0.402813  0.197295  1
  Y  Y5  1  0.597187  0.802705  0.522049  1
  Y  Y6  1  0.402813  0.197295  0.477951  1
  Fe  Fe7  1  0.500000  0.500000  0.500000  1
  Br  Br8  1  0.719938  0.181033  0.572938  1
  Br  Br9  1  0.947669  0.869787  0.644187  1
  Br  Br10  1  0.572938  0.719938  0.181033  1
  Br  Br11  1  0.130213  0.355813  0.052331  1
  Br  Br12  1  0.644187  0.947669  0.869787  1
  Br  Br13  1  0.869787  0.644187  0.947669  1
  Br  Br14  1  0.052331  0.130213  0.355813  1
  Br  Br15  1  0.818967  0.427062  0.280062  1
  Br  Br16  1  0.355813  0.052331  0.130213  1
  Br  Br17  1  0.280062  0.818967  0.427062  1
  Br  Br18  1  0.181033  0.572938  0.719938  1
  Br  Br19  1  0.427062  0.280062  0.818967  1
