# generated using pymatgen
data_Tb16Ho3ScSn16
_symmetry_space_group_name_H-M   'P 1'
_cell_length_a   8.03044342
_cell_length_b   8.18549843
_cell_length_c   15.50109200
_cell_angle_alpha   90.00000000
_cell_angle_beta   90.00000000
_cell_angle_gamma   90.03714947
_symmetry_Int_Tables_number   1
_chemical_formula_structural   Tb16Ho3ScSn16
_chemical_formula_sum   'Tb16 Ho3 Sc1 Sn16'
_cell_volume   1018.93588783
_cell_formula_units_Z   1
loop_
 _symmetry_equiv_pos_site_id
 _symmetry_equiv_pos_as_xyz
  1  'x, y, z'
loop_
 _atom_site_type_symbol
 _atom_site_label
 _atom_site_symmetry_multiplicity
 _atom_site_fract_x
 _atom_site_fract_y
 _atom_site_fract_z
 _atom_site_occupancy
  Tb  Tb0  1  0.365915  0.837070  0.877104  1
  Tb  Tb1  1  0.867465  0.661968  0.622993  1
  Tb  Tb2  1  0.633391  0.162590  0.378157  1
  Tb  Tb3  1  0.133227  0.337152  0.121298  1
  Tb  Tb4  1  0.633391  0.162590  0.121843  1
  Tb  Tb5  1  0.133227  0.337152  0.378702  1
  Tb  Tb6  1  0.365915  0.837070  0.622896  1
  Tb  Tb7  1  0.867465  0.661968  0.877007  1
  Tb  Tb8  1  0.519548  0.321038  0.902246  1
  Tb  Tb9  1  0.020715  0.180277  0.597870  1
  Tb  Tb10  1  0.480619  0.679769  0.403526  1
  Tb  Tb11  1  0.980084  0.820536  0.097082  1
  Tb  Tb12  1  0.480619  0.679769  0.096474  1
  Tb  Tb13  1  0.980084  0.820536  0.402918  1
  Tb  Tb14  1  0.519548  0.321038  0.597754  1
  Tb  Tb15  1  0.020715  0.180277  0.902130  1
  Ho  Ho16  1  0.697451  0.997926  0.750000  1
  Ho  Ho17  1  0.801983  0.497139  0.250000  1
  Ho  Ho18  1  0.301695  0.002848  0.250000  1
  Sc  Sc19  1  0.198932  0.502846  0.750000  1
  Sn  Sn20  1  0.293202  0.035954  0.041761  1
  Sn  Sn21  1  0.793312  0.464010  0.458192  1
  Sn  Sn22  1  0.706825  0.963616  0.542469  1
  Sn  Sn23  1  0.207007  0.534726  0.955236  1
  Sn  Sn24  1  0.706825  0.963616  0.957531  1
  Sn  Sn25  1  0.207007  0.534726  0.544764  1
  Sn  Sn26  1  0.293202  0.035954  0.458239  1
  Sn  Sn27  1  0.793312  0.464010  0.041808  1
  Sn  Sn28  1  0.558806  0.615310  0.750000  1
  Sn  Sn29  1  0.064725  0.880275  0.750000  1
  Sn  Sn30  1  0.435597  0.381603  0.250000  1
  Sn  Sn31  1  0.935723  0.118230  0.250000  1
  Sn  Sn32  1  0.326377  0.153822  0.750000  1
  Sn  Sn33  1  0.832948  0.353423  0.750000  1
  Sn  Sn34  1  0.671368  0.851670  0.250000  1
  Sn  Sn35  1  0.171775  0.647497  0.250000  1
