# generated using pymatgen
data_GdTm3(CBr)2
_symmetry_space_group_name_H-M   'P 1'
_cell_length_a   3.65510400
_cell_length_b   3.65510407
_cell_length_c   14.01454400
_cell_angle_alpha   90.00000000
_cell_angle_beta   90.00000000
_cell_angle_gamma   119.99999935
_symmetry_Int_Tables_number   1
_chemical_formula_structural   GdTm3(CBr)2
_chemical_formula_sum   'Gd1 Tm3 C2 Br2'
_cell_volume   162.14706488
_cell_formula_units_Z   1
loop_
 _symmetry_equiv_pos_site_id
 _symmetry_equiv_pos_as_xyz
  1  'x, y, z'
loop_
 _atom_site_type_symbol
 _atom_site_label
 _atom_site_symmetry_multiplicity
 _atom_site_fract_x
 _atom_site_fract_y
 _atom_site_fract_z
 _atom_site_occupancy
  Gd  Gd0  1  0.333333  0.666667  0.409162  1
  Tm  Tm1  1  0.333333  0.666667  0.087316  1
  Tm  Tm2  1  0.666667  0.333333  0.591093  1
  Tm  Tm3  1  0.666667  0.333333  0.911395  1
  C  C4  1  0.000000  0.000000  0.999391  1
  C  C5  1  0.000000  0.000000  0.506364  1
  Br  Br6  1  0.333333  0.666667  0.751869  1
  Br  Br7  1  0.666667  0.333333  0.243408  1
