# generated using pymatgen
data_LiTm(TaSe2)8
_symmetry_space_group_name_H-M   'P 1'
_cell_length_a   7.01612100
_cell_length_b   7.01612073
_cell_length_c   13.49469600
_cell_angle_alpha   90.00000000
_cell_angle_beta   90.00000000
_cell_angle_gamma   119.99999655
_symmetry_Int_Tables_number   1
_chemical_formula_structural   LiTm(TaSe2)8
_chemical_formula_sum   'Li1 Tm1 Ta8 Se16'
_cell_volume   575.29139246
_cell_formula_units_Z   1
loop_
 _symmetry_equiv_pos_site_id
 _symmetry_equiv_pos_as_xyz
  1  'x, y, z'
loop_
 _atom_site_type_symbol
 _atom_site_label
 _atom_site_symmetry_multiplicity
 _atom_site_fract_x
 _atom_site_fract_y
 _atom_site_fract_z
 _atom_site_occupancy
  Li  Li0  1  0.000000  0.000000  0.000000  1
  Tm  Tm1  1  0.000000  0.000000  0.500000  1
  Ta  Ta2  1  0.000000  0.000000  0.242608  1
  Ta  Ta3  1  0.000000  0.000000  0.757392  1
  Ta  Ta4  1  0.509967  0.019934  0.241849  1
  Ta  Ta5  1  0.980066  0.490033  0.241849  1
  Ta  Ta6  1  0.509967  0.490033  0.241849  1
  Ta  Ta7  1  0.490033  0.980066  0.758151  1
  Ta  Ta8  1  0.019934  0.509967  0.758151  1
  Ta  Ta9  1  0.490033  0.509967  0.758151  1
  Se  Se10  1  0.333333  0.666667  0.886739  1
  Se  Se11  1  0.666667  0.333333  0.113261  1
  Se  Se12  1  0.666667  0.333333  0.372084  1
  Se  Se13  1  0.333333  0.666667  0.627916  1
  Se  Se14  1  0.170943  0.829057  0.363875  1
  Se  Se15  1  0.170943  0.341887  0.363875  1
  Se  Se16  1  0.658113  0.829057  0.363875  1
  Se  Se17  1  0.829057  0.170943  0.636125  1
  Se  Se18  1  0.829057  0.658113  0.636125  1
  Se  Se19  1  0.341887  0.170943  0.636125  1
  Se  Se20  1  0.830929  0.169071  0.878016  1
  Se  Se21  1  0.830929  0.661860  0.878016  1
  Se  Se22  1  0.338140  0.169071  0.878016  1
  Se  Se23  1  0.169071  0.830929  0.121984  1
  Se  Se24  1  0.169071  0.338140  0.121984  1
  Se  Se25  1  0.661860  0.830929  0.121984  1
