# generated using pymatgen
data_Sr6CrCo3TcO15
_symmetry_space_group_name_H-M   'P 1'
_cell_length_a   7.00997160
_cell_length_b   7.00997176
_cell_length_c   7.00997184
_cell_angle_alpha   87.23203347
_cell_angle_beta   87.23204362
_cell_angle_gamma   87.23203602
_symmetry_Int_Tables_number   1
_chemical_formula_structural   Sr6CrCo3TcO15
_chemical_formula_sum   'Sr6 Cr1 Co3 Tc1 O15'
_cell_volume   343.29977338
_cell_formula_units_Z   1
loop_
 _symmetry_equiv_pos_site_id
 _symmetry_equiv_pos_as_xyz
  1  'x, y, z'
loop_
 _atom_site_type_symbol
 _atom_site_label
 _atom_site_symmetry_multiplicity
 _atom_site_fract_x
 _atom_site_fract_y
 _atom_site_fract_z
 _atom_site_occupancy
  Sr  Sr0  1  0.498323  0.870412  0.130623  1
  Sr  Sr1  1  0.130623  0.498323  0.870412  1
  Sr  Sr2  1  0.870412  0.130623  0.498323  1
  Sr  Sr3  1  0.001466  0.686133  0.310129  1
  Sr  Sr4  1  0.310129  0.001466  0.686133  1
  Sr  Sr5  1  0.686133  0.310129  0.001466  1
  Cr  Cr6  1  0.707145  0.707145  0.707145  1
  Co  Co7  1  0.293327  0.293327  0.293327  1
  Co  Co8  1  0.903304  0.903304  0.903304  1
  Co  Co9  1  0.098460  0.098460  0.098460  1
  Tc  Tc10  1  0.500039  0.500039  0.500039  1
  O  O11  1  0.381102  0.554728  0.256032  1
  O  O12  1  0.256032  0.381102  0.554728  1
  O  O13  1  0.554728  0.256032  0.381102  1
  O  O14  1  0.616866  0.744475  0.436817  1
  O  O15  1  0.436817  0.616866  0.744475  1
  O  O16  1  0.744475  0.436817  0.616866  1
  O  O17  1  0.208964  0.037033  0.345637  1
  O  O18  1  0.345637  0.208964  0.037033  1
  O  O19  1  0.037033  0.345637  0.208964  1
  O  O20  1  0.794774  0.651855  0.971481  1
  O  O21  1  0.971481  0.794774  0.651855  1
  O  O22  1  0.154995  0.845388  0.000493  1
  O  O23  1  0.845388  0.000493  0.154995  1
  O  O24  1  0.000493  0.154995  0.845388  1
  O  O25  1  0.651855  0.971481  0.794774  1
