# generated using pymatgen
data_Tb2Gd(In2Rh)2
_symmetry_space_group_name_H-M   'P 1'
_cell_length_a   7.84472300
_cell_length_b   7.85260036
_cell_length_c   3.87840800
_cell_angle_alpha   90.00000000
_cell_angle_beta   90.00000000
_cell_angle_gamma   119.96870394
_symmetry_Int_Tables_number   1
_chemical_formula_structural   Tb2Gd(In2Rh)2
_chemical_formula_sum   'Tb2 Gd1 In4 Rh2'
_cell_volume   206.97224327
_cell_formula_units_Z   1
loop_
 _symmetry_equiv_pos_site_id
 _symmetry_equiv_pos_as_xyz
  1  'x, y, z'
loop_
 _atom_site_type_symbol
 _atom_site_label
 _atom_site_symmetry_multiplicity
 _atom_site_fract_x
 _atom_site_fract_y
 _atom_site_fract_z
 _atom_site_occupancy
  Tb  Tb0  1  0.031505  0.615435  0.500000  1
  Tb  Tb1  1  0.583930  0.968531  0.500000  1
  Gd  Gd2  1  0.384916  0.416333  0.500000  1
  In  In3  1  0.001040  0.254658  0.000000  1
  In  In4  1  0.666980  0.333114  0.000000  1
  In  In5  1  0.745375  0.747087  0.000000  1
  In  In6  1  0.253145  0.998101  0.000000  1
  Rh  Rh7  1  0.333206  0.667054  0.000000  1
  Rh  Rh8  1  0.999904  0.999688  0.500000  1
