# generated using pymatgen
data_Tm5MgIO12
_symmetry_space_group_name_H-M   'P 1'
_cell_length_a   6.35763975
_cell_length_b   6.18558781
_cell_length_c   6.38523100
_cell_angle_alpha   99.21459045
_cell_angle_beta   99.13504921
_cell_angle_gamma   97.05712581
_symmetry_Int_Tables_number   1
_chemical_formula_structural   Tm5MgIO12
_chemical_formula_sum   'Tm5 Mg1 I1 O12'
_cell_volume   241.87070020
_cell_formula_units_Z   1
loop_
 _symmetry_equiv_pos_site_id
 _symmetry_equiv_pos_as_xyz
  1  'x, y, z'
loop_
 _atom_site_type_symbol
 _atom_site_label
 _atom_site_symmetry_multiplicity
 _atom_site_fract_x
 _atom_site_fract_y
 _atom_site_fract_z
 _atom_site_occupancy
  Tm  Tm0  1  0.388694  0.681734  0.849402  1
  Tm  Tm1  1  0.859053  0.381305  0.675371  1
  Tm  Tm2  1  0.670465  0.851928  0.394395  1
  Tm  Tm3  1  0.607792  0.315030  0.137232  1
  Tm  Tm4  1  0.148942  0.613223  0.329873  1
  Mg  Mg5  1  0.353201  0.166850  0.591493  1
  I  I6  1  0.998314  0.997060  0.004488  1
  O  O7  1  0.186369  0.421307  0.592856  1
  O  O8  1  0.599270  0.183001  0.425341  1
  O  O9  1  0.426978  0.595717  0.176486  1
  O  O10  1  0.825629  0.565053  0.403152  1
  O  O11  1  0.398565  0.842170  0.573572  1
  O  O12  1  0.577618  0.409475  0.820671  1
  O  O13  1  0.905846  0.018682  0.711598  1
  O  O14  1  0.966318  0.300521  0.071406  1
  O  O15  1  0.289957  0.065256  0.978466  1
  O  O16  1  0.065791  0.969082  0.299363  1
  O  O17  1  0.030629  0.693700  0.928226  1
  O  O18  1  0.700569  0.928907  0.036610  1
