# generated using pymatgen
data_Zr6AlPN2
_symmetry_space_group_name_H-M   'P 1'
_cell_length_a   5.91251270
_cell_length_b   5.91251373
_cell_length_c   8.70756100
_cell_angle_alpha   90.00000000
_cell_angle_beta   90.00000000
_cell_angle_gamma   146.20900114
_symmetry_Int_Tables_number   1
_chemical_formula_structural   Zr6AlPN2
_chemical_formula_sum   'Zr6 Al1 P1 N2'
_cell_volume   169.29513444
_cell_formula_units_Z   1
loop_
 _symmetry_equiv_pos_site_id
 _symmetry_equiv_pos_as_xyz
  1  'x, y, z'
loop_
 _atom_site_type_symbol
 _atom_site_label
 _atom_site_symmetry_multiplicity
 _atom_site_fract_x
 _atom_site_fract_y
 _atom_site_fract_z
 _atom_site_occupancy
  Zr  Zr0  1  0.951385  0.048615  0.750000  1
  Zr  Zr1  1  0.065656  0.934344  0.250000  1
  Zr  Zr2  1  0.627697  0.372303  0.542805  1
  Zr  Zr3  1  0.367176  0.632824  0.438986  1
  Zr  Zr4  1  0.367176  0.632824  0.061014  1
  Zr  Zr5  1  0.627697  0.372303  0.957195  1
  Al  Al6  1  0.251648  0.748352  0.750000  1
  P  P7  1  0.744593  0.255407  0.250000  1
  N  N8  1  0.998485  0.001515  0.494487  1
  N  N9  1  0.998485  0.001515  0.005513  1
