# generated using pymatgen
data_LiHo2Se3
_symmetry_space_group_name_H-M   'P 1'
_cell_length_a   6.96082833
_cell_length_b   6.96082862
_cell_length_c   6.93114809
_cell_angle_alpha   80.37897879
_cell_angle_beta   80.37897564
_cell_angle_gamma   119.51112833
_symmetry_Int_Tables_number   1
_chemical_formula_structural   LiHo2Se3
_chemical_formula_sum   'Li2 Ho4 Se6'
_cell_volume   275.70640129
_cell_formula_units_Z   2
loop_
 _symmetry_equiv_pos_site_id
 _symmetry_equiv_pos_as_xyz
  1  'x, y, z'
loop_
 _atom_site_type_symbol
 _atom_site_label
 _atom_site_symmetry_multiplicity
 _atom_site_fract_x
 _atom_site_fract_y
 _atom_site_fract_z
 _atom_site_occupancy
  Li  Li0  1  0.416066  0.583934  0.750000  1
  Li  Li1  1  0.583934  0.416066  0.250000  1
  Ho  Ho2  1  0.750376  0.249624  0.750000  1
  Ho  Ho3  1  0.083114  0.916886  0.750000  1
  Ho  Ho4  1  0.916886  0.083114  0.250000  1
  Ho  Ho5  1  0.249624  0.750376  0.250000  1
  Se  Se6  1  0.177011  0.338414  0.502656  1
  Se  Se7  1  0.822989  0.661586  0.497344  1
  Se  Se8  1  0.661586  0.822989  0.997344  1
  Se  Se9  1  0.500000  0.000000  0.500000  1
  Se  Se10  1  0.338414  0.177011  0.002656  1
  Se  Se11  1  0.000000  0.500000  0.000000  1
