# generated using pymatgen
data_Li3Tb3Pd2Rh
_symmetry_space_group_name_H-M   'P 1'
_cell_length_a   7.18539600
_cell_length_b   7.18539732
_cell_length_c   4.00793400
_cell_angle_alpha   90.00000000
_cell_angle_beta   90.00000000
_cell_angle_gamma   119.99999391
_symmetry_Int_Tables_number   1
_chemical_formula_structural   Li3Tb3Pd2Rh
_chemical_formula_sum   'Li3 Tb3 Pd2 Rh1'
_cell_volume   179.20606979
_cell_formula_units_Z   1
loop_
 _symmetry_equiv_pos_site_id
 _symmetry_equiv_pos_as_xyz
  1  'x, y, z'
loop_
 _atom_site_type_symbol
 _atom_site_label
 _atom_site_symmetry_multiplicity
 _atom_site_fract_x
 _atom_site_fract_y
 _atom_site_fract_z
 _atom_site_occupancy
  Li  Li0  1  0.999481  0.761750  0.500000  1
  Li  Li1  1  0.238250  0.237732  0.500000  1
  Li  Li2  1  0.762268  0.000519  0.500000  1
  Tb  Tb3  1  0.009283  0.416549  0.000000  1
  Tb  Tb4  1  0.583451  0.592734  0.000000  1
  Tb  Tb5  1  0.407266  0.990717  0.000000  1
  Pd  Pd6  1  0.000000  0.000000  0.000000  1
  Pd  Pd7  1  0.666667  0.333333  0.500000  1
  Rh  Rh8  1  0.333333  0.666667  0.500000  1
