# generated using pymatgen
data_Nb12Zn12CN
_symmetry_space_group_name_H-M   'P 1'
_cell_length_a   8.21009539
_cell_length_b   8.21009640
_cell_length_c   8.21009600
_cell_angle_alpha   60.00000160
_cell_angle_beta   59.99999755
_cell_angle_gamma   60.00000474
_symmetry_Int_Tables_number   1
_chemical_formula_structural   Nb12Zn12CN
_chemical_formula_sum   'Nb12 Zn12 C1 N1'
_cell_volume   391.31789588
_cell_formula_units_Z   1
loop_
 _symmetry_equiv_pos_site_id
 _symmetry_equiv_pos_as_xyz
  1  'x, y, z'
loop_
 _atom_site_type_symbol
 _atom_site_label
 _atom_site_symmetry_multiplicity
 _atom_site_fract_x
 _atom_site_fract_y
 _atom_site_fract_z
 _atom_site_occupancy
  Nb  Nb0  1  0.189274  0.810726  0.189274  1
  Nb  Nb1  1  0.438536  0.061464  0.438536  1
  Nb  Nb2  1  0.438536  0.061464  0.061464  1
  Nb  Nb3  1  0.438536  0.438536  0.061464  1
  Nb  Nb4  1  0.189274  0.810726  0.810726  1
  Nb  Nb5  1  0.061464  0.438536  0.061464  1
  Nb  Nb6  1  0.810726  0.810726  0.189274  1
  Nb  Nb7  1  0.061464  0.438536  0.438536  1
  Nb  Nb8  1  0.189274  0.189274  0.810726  1
  Nb  Nb9  1  0.810726  0.189274  0.189274  1
  Nb  Nb10  1  0.810726  0.189274  0.810726  1
  Nb  Nb11  1  0.061464  0.061464  0.438536  1
  Zn  Zn12  1  0.833038  0.500887  0.833038  1
  Zn  Zn13  1  0.417151  0.417151  0.748546  1
  Zn  Zn14  1  0.748546  0.417151  0.417151  1
  Zn  Zn15  1  0.417151  0.417151  0.417151  1
  Zn  Zn16  1  0.833038  0.833038  0.500887  1
  Zn  Zn17  1  0.417151  0.748546  0.417151  1
  Zn  Zn18  1  0.833038  0.833038  0.833038  1
  Zn  Zn19  1  0.500887  0.833038  0.833038  1
  Zn  Zn20  1  0.625043  0.124872  0.625043  1
  Zn  Zn21  1  0.625043  0.625043  0.124872  1
  Zn  Zn22  1  0.124872  0.625043  0.625043  1
  Zn  Zn23  1  0.625043  0.625043  0.625043  1
  C  C24  1  0.000000  0.000000  0.000000  1
  N  N25  1  0.250000  0.250000  0.250000  1
