# generated using pymatgen
data_NdGe4PtRh5
_symmetry_space_group_name_H-M   'P 1'
_cell_length_a   7.23068400
_cell_length_b   7.28035009
_cell_length_c   3.90779900
_cell_angle_alpha   90.00000000
_cell_angle_beta   90.00000000
_cell_angle_gamma   119.77457851
_symmetry_Int_Tables_number   1
_chemical_formula_structural   NdGe4PtRh5
_chemical_formula_sum   'Nd1 Ge4 Pt1 Rh5'
_cell_volume   178.55685098
_cell_formula_units_Z   1
loop_
 _symmetry_equiv_pos_site_id
 _symmetry_equiv_pos_as_xyz
  1  'x, y, z'
loop_
 _atom_site_type_symbol
 _atom_site_label
 _atom_site_symmetry_multiplicity
 _atom_site_fract_x
 _atom_site_fract_y
 _atom_site_fract_z
 _atom_site_occupancy
  Nd  Nd0  1  0.997979  0.995959  0.000000  1
  Ge  Ge1  1  0.337850  0.675701  0.000000  1
  Ge  Ge2  1  0.802275  0.604550  0.500000  1
  Ge  Ge3  1  0.398099  0.194990  0.500000  1
  Ge  Ge4  1  0.796891  0.194990  0.500000  1
  Pt  Pt5  1  0.198271  0.396541  0.500000  1
  Rh  Rh6  1  0.534251  0.068502  0.000000  1
  Rh  Rh7  1  0.934235  0.467362  0.000000  1
  Rh  Rh8  1  0.533127  0.467362  0.000000  1
  Rh  Rh9  1  0.600480  0.800354  0.500000  1
  Rh  Rh10  1  0.199876  0.800354  0.500000  1
