# generated using pymatgen
data_CaPr2(CdPd)3
_symmetry_space_group_name_H-M   'P 1'
_cell_length_a   7.75368725
_cell_length_b   7.75368721
_cell_length_c   4.09723000
_cell_angle_alpha   90.00000000
_cell_angle_beta   90.00000000
_cell_angle_gamma   120.32531583
_symmetry_Int_Tables_number   1
_chemical_formula_structural   CaPr2(CdPd)3
_chemical_formula_sum   'Ca1 Pr2 Cd3 Pd3'
_cell_volume   212.62019787
_cell_formula_units_Z   1
loop_
 _symmetry_equiv_pos_site_id
 _symmetry_equiv_pos_as_xyz
  1  'x, y, z'
loop_
 _atom_site_type_symbol
 _atom_site_label
 _atom_site_symmetry_multiplicity
 _atom_site_fract_x
 _atom_site_fract_y
 _atom_site_fract_z
 _atom_site_occupancy
  Ca  Ca0  1  0.403738  0.403738  0.500000  1
  Pr  Pr1  1  0.000244  0.593620  0.500000  1
  Pr  Pr2  1  0.593620  0.000244  0.500000  1
  Cd  Cd3  1  0.739788  0.739788  0.000000  1
  Cd  Cd4  1  0.252575  0.006423  0.000000  1
  Cd  Cd5  1  0.006423  0.252575  0.000000  1
  Pd  Pd6  1  0.674449  0.331692  0.000000  1
  Pd  Pd7  1  0.997472  0.997472  0.500000  1
  Pd  Pd8  1  0.331692  0.674449  0.000000  1
