# generated using pymatgen
data_SmMgCo(PRh)3
_symmetry_space_group_name_H-M   'P 1'
_cell_length_a   3.87796100
_cell_length_b   10.87121000
_cell_length_c   12.75074700
_cell_angle_alpha   90.00000000
_cell_angle_beta   90.00000000
_cell_angle_gamma   90.00000000
_symmetry_Int_Tables_number   1
_chemical_formula_structural   SmMgCo(PRh)3
_chemical_formula_sum   'Sm4 Mg4 Co4 P12 Rh12'
_cell_volume   537.54762926
_cell_formula_units_Z   4
loop_
 _symmetry_equiv_pos_site_id
 _symmetry_equiv_pos_as_xyz
  1  'x, y, z'
loop_
 _atom_site_type_symbol
 _atom_site_label
 _atom_site_symmetry_multiplicity
 _atom_site_fract_x
 _atom_site_fract_y
 _atom_site_fract_z
 _atom_site_occupancy
  Sm  Sm0  1  0.250000  0.580212  0.709798  1
  Sm  Sm1  1  0.250000  0.919788  0.209798  1
  Sm  Sm2  1  0.750000  0.419788  0.290202  1
  Sm  Sm3  1  0.750000  0.080212  0.790202  1
  Mg  Mg4  1  0.250000  0.704953  0.987710  1
  Mg  Mg5  1  0.250000  0.795047  0.487710  1
  Mg  Mg6  1  0.750000  0.295047  0.012290  1
  Mg  Mg7  1  0.750000  0.204953  0.512290  1
  Co  Co8  1  0.250000  0.465496  0.936776  1
  Co  Co9  1  0.250000  0.034504  0.436776  1
  Co  Co10  1  0.750000  0.534504  0.063224  1
  Co  Co11  1  0.750000  0.965496  0.563224  1
  P  P12  1  0.250000  0.427132  0.109779  1
  P  P13  1  0.250000  0.072868  0.609779  1
  P  P14  1  0.750000  0.572868  0.890221  1
  P  P15  1  0.750000  0.927132  0.390221  1
  P  P16  1  0.250000  0.270965  0.861845  1
  P  P17  1  0.250000  0.229035  0.361845  1
  P  P18  1  0.750000  0.729035  0.138155  1
  P  P19  1  0.750000  0.770965  0.638155  1
  P  P20  1  0.250000  0.594659  0.386231  1
  P  P21  1  0.250000  0.905341  0.886231  1
  P  P22  1  0.750000  0.405341  0.613769  1
  P  P23  1  0.750000  0.094659  0.113769  1
  Rh  Rh24  1  0.250000  0.403167  0.478827  1
  Rh  Rh25  1  0.250000  0.096833  0.978827  1
  Rh  Rh26  1  0.750000  0.596833  0.521173  1
  Rh  Rh27  1  0.750000  0.903167  0.021173  1
  Rh  Rh28  1  0.250000  0.223251  0.173740  1
  Rh  Rh29  1  0.250000  0.276749  0.673740  1
  Rh  Rh30  1  0.750000  0.776749  0.826260  1
  Rh  Rh31  1  0.750000  0.723251  0.326260  1
  Rh  Rh32  1  0.250000  0.880213  0.693064  1
  Rh  Rh33  1  0.250000  0.619787  0.193064  1
  Rh  Rh34  1  0.750000  0.119787  0.306936  1
  Rh  Rh35  1  0.750000  0.380213  0.806936  1
