# generated using pymatgen
data_Dy16In4Ni3Os
_symmetry_space_group_name_H-M   'P 1'
_cell_length_a   9.62322625
_cell_length_b   9.62322585
_cell_length_c   9.62322535
_cell_angle_alpha   59.75730587
_cell_angle_beta   59.75730558
_cell_angle_gamma   59.75730143
_symmetry_Int_Tables_number   1
_chemical_formula_structural   Dy16In4Ni3Os
_chemical_formula_sum   'Dy16 In4 Ni3 Os1'
_cell_volume   626.68179512
_cell_formula_units_Z   1
loop_
 _symmetry_equiv_pos_site_id
 _symmetry_equiv_pos_as_xyz
  1  'x, y, z'
loop_
 _atom_site_type_symbol
 _atom_site_label
 _atom_site_symmetry_multiplicity
 _atom_site_fract_x
 _atom_site_fract_y
 _atom_site_fract_z
 _atom_site_occupancy
  Dy  Dy0  1  0.597021  0.597021  0.597021  1
  Dy  Dy1  1  0.599145  0.599145  0.204932  1
  Dy  Dy2  1  0.599145  0.204932  0.599145  1
  Dy  Dy3  1  0.204932  0.599145  0.599145  1
  Dy  Dy4  1  0.060219  0.439292  0.439292  1
  Dy  Dy5  1  0.438815  0.060929  0.060929  1
  Dy  Dy6  1  0.439292  0.060219  0.439292  1
  Dy  Dy7  1  0.060929  0.438815  0.060929  1
  Dy  Dy8  1  0.439292  0.439292  0.060219  1
  Dy  Dy9  1  0.060929  0.060929  0.438815  1
  Dy  Dy10  1  0.186232  0.813104  0.813104  1
  Dy  Dy11  1  0.805749  0.190381  0.190381  1
  Dy  Dy12  1  0.813104  0.186232  0.813104  1
  Dy  Dy13  1  0.190381  0.805749  0.190381  1
  Dy  Dy14  1  0.813104  0.813104  0.186232  1
  Dy  Dy15  1  0.190381  0.190381  0.805749  1
  In  In16  1  0.833375  0.833375  0.833375  1
  In  In17  1  0.831881  0.831881  0.503292  1
  In  In18  1  0.831881  0.503292  0.831881  1
  In  In19  1  0.503292  0.831881  0.831881  1
  Ni  Ni20  1  0.391757  0.391757  0.825806  1
  Ni  Ni21  1  0.391757  0.825806  0.391757  1
  Ni  Ni22  1  0.825806  0.391757  0.391757  1
  Os  Os23  1  0.391581  0.391581  0.391581  1
