# generated using pymatgen
data_MnGeTeO6
_symmetry_space_group_name_H-M   'P 1'
_cell_length_a   5.07323400
_cell_length_b   5.07323281
_cell_length_c   4.78734600
_cell_angle_alpha   90.00000000
_cell_angle_beta   90.00000000
_cell_angle_gamma   120.00006769
_symmetry_Int_Tables_number   1
_chemical_formula_structural   MnGeTeO6
_chemical_formula_sum   'Mn1 Ge1 Te1 O6'
_cell_volume   106.70747404
_cell_formula_units_Z   1
loop_
 _symmetry_equiv_pos_site_id
 _symmetry_equiv_pos_as_xyz
  1  'x, y, z'
loop_
 _atom_site_type_symbol
 _atom_site_label
 _atom_site_symmetry_multiplicity
 _atom_site_fract_x
 _atom_site_fract_y
 _atom_site_fract_z
 _atom_site_occupancy
  Mn  Mn0  1  0.000000  0.000001  0.999998  1
  Ge  Ge1  1  0.333333  0.666667  0.500000  1
  Te  Te2  1  0.666667  0.333333  0.500000  1
  O  O3  1  0.360371  0.364657  0.276991  1
  O  O4  1  0.004287  0.639629  0.276991  1
  O  O5  1  0.635343  0.995714  0.276990  1
  O  O6  1  0.004286  0.364657  0.723010  1
  O  O7  1  0.635342  0.639629  0.723010  1
  O  O8  1  0.360371  0.995714  0.723010  1
