# generated using pymatgen
data_Ho12InFeCo3Pd
_symmetry_space_group_name_H-M   'P 1'
_cell_length_a   8.28525577
_cell_length_b   8.28525546
_cell_length_c   8.28525574
_cell_angle_alpha   110.83681025
_cell_angle_beta   110.34777960
_cell_angle_gamma   107.25200388
_symmetry_Int_Tables_number   1
_chemical_formula_structural   Ho12InFeCo3Pd
_chemical_formula_sum   'Ho12 In1 Fe1 Co3 Pd1'
_cell_volume   437.32167924
_cell_formula_units_Z   1
loop_
 _symmetry_equiv_pos_site_id
 _symmetry_equiv_pos_as_xyz
  1  'x, y, z'
loop_
 _atom_site_type_symbol
 _atom_site_label
 _atom_site_symmetry_multiplicity
 _atom_site_fract_x
 _atom_site_fract_y
 _atom_site_fract_z
 _atom_site_occupancy
  Ho  Ho0  1  0.312578  0.615730  0.303152  1
  Ho  Ho1  1  0.685762  0.382729  0.696967  1
  Ho  Ho2  1  0.312578  0.009426  0.696848  1
  Ho  Ho3  1  0.685762  0.988796  0.303033  1
  Ho  Ho4  1  0.189403  0.296417  0.483546  1
  Ho  Ho5  1  0.812871  0.705857  0.516454  1
  Ho  Ho6  1  0.189403  0.705857  0.892986  1
  Ho  Ho7  1  0.812871  0.296417  0.107014  1
  Ho  Ho8  1  0.413622  0.213180  0.200443  1
  Ho  Ho9  1  0.586029  0.786956  0.799072  1
  Ho  Ho10  1  0.012738  0.213180  0.799557  1
  Ho  Ho11  1  0.987883  0.786956  0.200928  1
  In  In12  1  0.500807  0.500807  0.000000  1
  Fe  Fe13  1  0.108980  0.608980  0.500000  1
  Co  Co14  1  0.886973  0.386973  0.500000  1
  Co  Co15  1  0.382202  0.000524  0.381678  1
  Co  Co16  1  0.618846  0.000524  0.618322  1
  Pd  Pd17  1  0.000691  0.000691  0.000000  1
