# generated using pymatgen
data_Tm4Cr2Co5P12Rh13
_symmetry_space_group_name_H-M   'P 1'
_cell_length_a   3.78405100
_cell_length_b   10.69728381
_cell_length_c   12.36630834
_cell_angle_alpha   89.87323354
_cell_angle_beta   90.00000000
_cell_angle_gamma   90.00000000
_symmetry_Int_Tables_number   1
_chemical_formula_structural   Tm4Cr2Co5P12Rh13
_chemical_formula_sum   'Tm4 Cr2 Co5 P12 Rh13'
_cell_volume   500.57540473
_cell_formula_units_Z   1
loop_
 _symmetry_equiv_pos_site_id
 _symmetry_equiv_pos_as_xyz
  1  'x, y, z'
loop_
 _atom_site_type_symbol
 _atom_site_label
 _atom_site_symmetry_multiplicity
 _atom_site_fract_x
 _atom_site_fract_y
 _atom_site_fract_z
 _atom_site_occupancy
  Tm  Tm0  1  0.250000  0.578652  0.709833  1
  Tm  Tm1  1  0.250000  0.918608  0.208127  1
  Tm  Tm2  1  0.750000  0.414890  0.291227  1
  Tm  Tm3  1  0.750000  0.087581  0.791968  1
  Cr  Cr4  1  0.750000  0.292118  0.008586  1
  Cr  Cr5  1  0.750000  0.210145  0.514253  1
  Co  Co6  1  0.750000  0.381899  0.804699  1
  Co  Co7  1  0.250000  0.463213  0.932241  1
  Co  Co8  1  0.250000  0.037346  0.437068  1
  Co  Co9  1  0.750000  0.535523  0.062731  1
  Co  Co10  1  0.750000  0.966277  0.567222  1
  P  P11  1  0.250000  0.423596  0.105012  1
  P  P12  1  0.250000  0.078312  0.608746  1
  P  P13  1  0.750000  0.566358  0.886897  1
  P  P14  1  0.750000  0.924467  0.394262  1
  P  P15  1  0.250000  0.275076  0.867800  1
  P  P16  1  0.250000  0.229141  0.371147  1
  P  P17  1  0.750000  0.730637  0.127123  1
  P  P18  1  0.750000  0.769181  0.629037  1
  P  P19  1  0.250000  0.596728  0.389325  1
  P  P20  1  0.250000  0.902170  0.888902  1
  P  P21  1  0.750000  0.401557  0.619706  1
  P  P22  1  0.750000  0.100533  0.110961  1
  Rh  Rh23  1  0.250000  0.712872  0.987508  1
  Rh  Rh24  1  0.250000  0.786700  0.486935  1
  Rh  Rh25  1  0.250000  0.403057  0.481703  1
  Rh  Rh26  1  0.250000  0.098658  0.979479  1
  Rh  Rh27  1  0.750000  0.591064  0.520379  1
  Rh  Rh28  1  0.750000  0.909052  0.016840  1
  Rh  Rh29  1  0.250000  0.227978  0.175947  1
  Rh  Rh30  1  0.250000  0.277046  0.678982  1
  Rh  Rh31  1  0.750000  0.765847  0.820846  1
  Rh  Rh32  1  0.750000  0.729883  0.320545  1
  Rh  Rh33  1  0.250000  0.888476  0.701030  1
  Rh  Rh34  1  0.250000  0.610607  0.199809  1
  Rh  Rh35  1  0.750000  0.114752  0.303124  1
