# generated using pymatgen
data_YbDy3FeRu7
_symmetry_space_group_name_H-M   'P 1'
_cell_length_a   5.30400272
_cell_length_b   5.20558024
_cell_length_c   8.86930610
_cell_angle_alpha   89.90114073
_cell_angle_beta   89.97273058
_cell_angle_gamma   120.52107264
_symmetry_Int_Tables_number   1
_chemical_formula_structural   YbDy3FeRu7
_chemical_formula_sum   'Yb1 Dy3 Fe1 Ru7'
_cell_volume   210.95392386
_cell_formula_units_Z   1
loop_
 _symmetry_equiv_pos_site_id
 _symmetry_equiv_pos_as_xyz
  1  'x, y, z'
loop_
 _atom_site_type_symbol
 _atom_site_label
 _atom_site_symmetry_multiplicity
 _atom_site_fract_x
 _atom_site_fract_y
 _atom_site_fract_z
 _atom_site_occupancy
  Yb  Yb0  1  0.667344  0.334746  0.564984  1
  Dy  Dy1  1  0.331506  0.663796  0.438153  1
  Dy  Dy2  1  0.331756  0.664349  0.066377  1
  Dy  Dy3  1  0.667853  0.335421  0.928594  1
  Fe  Fe4  1  0.166244  0.331892  0.749921  1
  Ru  Ru5  1  0.000269  0.001979  0.503996  1
  Ru  Ru6  1  0.002142  0.005679  0.998112  1
  Ru  Ru7  1  0.174637  0.826763  0.750008  1
  Ru  Ru8  1  0.653144  0.826388  0.750251  1
  Ru  Ru9  1  0.832063  0.664719  0.249978  1
  Ru  Ru10  1  0.826451  0.171716  0.249907  1
  Ru  Ru11  1  0.346588  0.172552  0.249721  1
