# generated using pymatgen
data_Lu10Zn3Os
_symmetry_space_group_name_H-M   'P 1'
_cell_length_a   9.21203800
_cell_length_b   9.21175682
_cell_length_c   9.48879200
_cell_angle_alpha   90.00066033
_cell_angle_beta   89.99944394
_cell_angle_gamma   120.00142944
_symmetry_Int_Tables_number   1
_chemical_formula_structural   Lu10Zn3Os
_chemical_formula_sum   'Lu20 Zn6 Os2'
_cell_volume   697.32219417
_cell_formula_units_Z   2
loop_
 _symmetry_equiv_pos_site_id
 _symmetry_equiv_pos_as_xyz
  1  'x, y, z'
loop_
 _atom_site_type_symbol
 _atom_site_label
 _atom_site_symmetry_multiplicity
 _atom_site_fract_x
 _atom_site_fract_y
 _atom_site_fract_z
 _atom_site_occupancy
  Lu  Lu0  1  0.999990  0.000008  0.500014  1
  Lu  Lu1  1  0.999996  0.000009  0.999988  1
  Lu  Lu2  1  0.207613  0.792385  0.442817  1
  Lu  Lu3  1  0.207619  0.415226  0.442800  1
  Lu  Lu4  1  0.584768  0.792387  0.442811  1
  Lu  Lu5  1  0.792382  0.207611  0.557083  1
  Lu  Lu6  1  0.792397  0.584803  0.557096  1
  Lu  Lu7  1  0.415214  0.207600  0.557080  1
  Lu  Lu8  1  0.792394  0.207607  0.942901  1
  Lu  Lu9  1  0.792403  0.584809  0.942901  1
  Lu  Lu10  1  0.415219  0.207604  0.942914  1
  Lu  Lu11  1  0.207622  0.792395  0.057192  1
  Lu  Lu12  1  0.207623  0.415228  0.057186  1
  Lu  Lu13  1  0.584780  0.792388  0.057182  1
  Lu  Lu14  1  0.540366  0.459650  0.250018  1
  Lu  Lu15  1  0.540346  0.080675  0.250007  1
  Lu  Lu16  1  0.919315  0.459658  0.250012  1
  Lu  Lu17  1  0.459724  0.540294  0.749991  1
  Lu  Lu18  1  0.459716  0.919429  0.749999  1
  Lu  Lu19  1  0.080564  0.540299  0.750001  1
  Zn  Zn20  1  0.887392  0.112422  0.250003  1
  Zn  Zn21  1  0.887552  0.775056  0.250003  1
  Zn  Zn22  1  0.224985  0.112369  0.250002  1
  Zn  Zn23  1  0.112657  0.887461  0.749998  1
  Zn  Zn24  1  0.112545  0.225147  0.750001  1
  Zn  Zn25  1  0.774816  0.887504  0.750004  1
  Os  Os26  1  0.333325  0.666648  0.249997  1
  Os  Os27  1  0.666676  0.333331  0.749998  1
