# generated using pymatgen
data_Tb3Ga24RePd8
_symmetry_space_group_name_H-M   'P 1'
_cell_length_a   8.47468541
_cell_length_b   8.47565912
_cell_length_c   8.47323767
_cell_angle_alpha   89.64408968
_cell_angle_beta   89.63526908
_cell_angle_gamma   89.65106838
_symmetry_Int_Tables_number   1
_chemical_formula_structural   Tb3Ga24RePd8
_chemical_formula_sum   'Tb3 Ga24 Re1 Pd8'
_cell_volume   608.58511698
_cell_formula_units_Z   1
loop_
 _symmetry_equiv_pos_site_id
 _symmetry_equiv_pos_as_xyz
  1  'x, y, z'
loop_
 _atom_site_type_symbol
 _atom_site_label
 _atom_site_symmetry_multiplicity
 _atom_site_fract_x
 _atom_site_fract_y
 _atom_site_fract_z
 _atom_site_occupancy
  Tb  Tb0  1  0.000000  0.500000  0.000000  1
  Tb  Tb1  1  0.500000  0.000000  0.000000  1
  Tb  Tb2  1  0.000000  0.000000  0.500000  1
  Ga  Ga3  1  0.989712  0.643257  0.643316  1
  Ga  Ga4  1  0.643321  0.643356  0.989674  1
  Ga  Ga5  1  0.643253  0.989697  0.643322  1
  Ga  Ga6  1  0.010288  0.356743  0.356684  1
  Ga  Ga7  1  0.356679  0.356644  0.010326  1
  Ga  Ga8  1  0.356747  0.010303  0.356678  1
  Ga  Ga9  1  0.736039  0.499992  0.264010  1
  Ga  Ga10  1  0.263961  0.500008  0.735990  1
  Ga  Ga11  1  0.500012  0.263913  0.735980  1
  Ga  Ga12  1  0.499988  0.736087  0.264020  1
  Ga  Ga13  1  0.264042  0.736012  0.499991  1
  Ga  Ga14  1  0.735958  0.263988  0.500009  1
  Ga  Ga15  1  0.839294  0.141474  0.839340  1
  Ga  Ga16  1  0.141527  0.839308  0.839376  1
  Ga  Ga17  1  0.839354  0.839346  0.141460  1
  Ga  Ga18  1  0.160706  0.858526  0.160660  1
  Ga  Ga19  1  0.858473  0.160692  0.160624  1
  Ga  Ga20  1  0.160646  0.160654  0.858540  1
  Ga  Ga21  1  0.729151  0.489761  0.729146  1
  Ga  Ga22  1  0.489768  0.729193  0.729172  1
  Ga  Ga23  1  0.729138  0.729170  0.489778  1
  Ga  Ga24  1  0.270849  0.510239  0.270854  1
  Ga  Ga25  1  0.510232  0.270807  0.270828  1
  Ga  Ga26  1  0.270862  0.270830  0.510222  1
  Re  Re27  1  0.500000  0.500000  0.500000  1
  Pd  Pd28  1  0.835190  0.835170  0.835130  1
  Pd  Pd29  1  0.164810  0.164830  0.164870  1
  Pd  Pd30  1  0.664546  0.335493  0.000004  1
  Pd  Pd31  1  0.000014  0.335419  0.664643  1
  Pd  Pd32  1  0.335386  0.999990  0.664667  1
  Pd  Pd33  1  0.335454  0.664507  0.999996  1
  Pd  Pd34  1  0.999986  0.664581  0.335357  1
  Pd  Pd35  1  0.664614  0.000010  0.335333  1
