# generated using pymatgen
data_Sr6ZrCr2CoO12
_symmetry_space_group_name_H-M   'P 1'
_cell_length_a   6.76678100
_cell_length_b   6.75704227
_cell_length_c   6.76141925
_cell_angle_alpha   92.88730903
_cell_angle_beta   92.88600560
_cell_angle_gamma   92.88066793
_symmetry_Int_Tables_number   1
_chemical_formula_structural   Sr6ZrCr2CoO12
_chemical_formula_sum   'Sr6 Zr1 Cr2 Co1 O12'
_cell_volume   307.93897139
_cell_formula_units_Z   1
loop_
 _symmetry_equiv_pos_site_id
 _symmetry_equiv_pos_as_xyz
  1  'x, y, z'
loop_
 _atom_site_type_symbol
 _atom_site_label
 _atom_site_symmetry_multiplicity
 _atom_site_fract_x
 _atom_site_fract_y
 _atom_site_fract_z
 _atom_site_occupancy
  Sr  Sr0  1  0.620623  0.879316  0.252386  1
  Sr  Sr1  1  0.879633  0.248811  0.620403  1
  Sr  Sr2  1  0.248810  0.621038  0.878990  1
  Sr  Sr3  1  0.107623  0.750205  0.392437  1
  Sr  Sr4  1  0.750195  0.391255  0.108781  1
  Sr  Sr5  1  0.391817  0.108088  0.749595  1
  Zr  Zr6  1  0.250035  0.250035  0.249924  1
  Cr  Cr7  1  0.504614  0.505094  0.504016  1
  Cr  Cr8  1  0.995918  0.995572  0.994810  1
  Co  Co9  1  0.747991  0.747642  0.754378  1
  O  O10  1  0.532295  0.210590  0.399368  1
  O  O11  1  0.210526  0.399012  0.532181  1
  O  O12  1  0.399249  0.531654  0.209728  1
  O  O13  1  0.043731  0.912386  0.716845  1
  O  O14  1  0.911819  0.715920  0.040914  1
  O  O15  1  0.716927  0.040825  0.909105  1
  O  O16  1  0.457045  0.783755  0.586909  1
  O  O17  1  0.782808  0.589616  0.457301  1
  O  O18  1  0.590165  0.460166  0.783737  1
  O  O19  1  0.967575  0.100849  0.289173  1
  O  O20  1  0.100576  0.289952  0.968077  1
  O  O21  1  0.290023  0.968221  0.100941  1
