# generated using pymatgen
data_HoPaSnRh2
_symmetry_space_group_name_H-M   'P 1'
_cell_length_a   7.77115000
_cell_length_b   7.51604300
_cell_length_c   3.66057500
_cell_angle_alpha   90.00000000
_cell_angle_beta   90.00000000
_cell_angle_gamma   90.00000000
_symmetry_Int_Tables_number   1
_chemical_formula_structural   HoPaSnRh2
_chemical_formula_sum   'Ho2 Pa2 Sn2 Rh4'
_cell_volume   213.80795384
_cell_formula_units_Z   2
loop_
 _symmetry_equiv_pos_site_id
 _symmetry_equiv_pos_as_xyz
  1  'x, y, z'
loop_
 _atom_site_type_symbol
 _atom_site_label
 _atom_site_symmetry_multiplicity
 _atom_site_fract_x
 _atom_site_fract_y
 _atom_site_fract_z
 _atom_site_occupancy
  Ho  Ho0  1  0.673499  0.172446  0.500000  1
  Ho  Ho1  1  0.173500  0.327555  0.500000  1
  Pa  Pa2  1  0.822768  0.663554  0.500000  1
  Pa  Pa3  1  0.322768  0.836446  0.500000  1
  Sn  Sn4  1  0.992725  0.009188  0.000000  1
  Sn  Sn5  1  0.492725  0.490812  0.000000  1
  Rh  Rh6  1  0.368315  0.100343  0.000000  1
  Rh  Rh7  1  0.868314  0.399658  0.000000  1
  Rh  Rh8  1  0.142694  0.652533  0.000000  1
  Rh  Rh9  1  0.642694  0.847467  0.000000  1
