# generated using pymatgen
data_Mn2PBrO4
_symmetry_space_group_name_H-M   'P 1'
_cell_length_a   5.01444900
_cell_length_b   8.35144000
_cell_length_c   11.69320300
_cell_angle_alpha   89.99857993
_cell_angle_beta   89.99870519
_cell_angle_gamma   89.99997277
_symmetry_Int_Tables_number   1
_chemical_formula_structural   Mn2PBrO4
_chemical_formula_sum   'Mn8 P4 Br4 O16'
_cell_volume   489.68643448
_cell_formula_units_Z   4
loop_
 _symmetry_equiv_pos_site_id
 _symmetry_equiv_pos_as_xyz
  1  'x, y, z'
loop_
 _atom_site_type_symbol
 _atom_site_label
 _atom_site_symmetry_multiplicity
 _atom_site_fract_x
 _atom_site_fract_y
 _atom_site_fract_z
 _atom_site_occupancy
  Mn  Mn0  1  0.506095  0.101223  0.120501  1
  Mn  Mn1  1  0.005997  0.601203  0.379497  1
  Mn  Mn2  1  0.001001  0.339213  0.867580  1
  Mn  Mn3  1  0.501016  0.839202  0.632449  1
  Mn  Mn4  1  0.006072  0.898762  0.879494  1
  Mn  Mn5  1  0.506066  0.398752  0.620519  1
  Mn  Mn6  1  0.001053  0.160788  0.367542  1
  Mn  Mn7  1  0.501031  0.660763  0.132448  1
  P  P8  1  0.548155  0.380048  0.336494  1
  P  P9  1  0.048165  0.880052  0.163512  1
  P  P10  1  0.548162  0.119950  0.836485  1
  P  P11  1  0.048162  0.619957  0.663503  1
  Br  Br12  1  0.722804  0.624735  0.931516  1
  Br  Br13  1  0.222807  0.124741  0.568482  1
  Br  Br14  1  0.222807  0.375273  0.068483  1
  Br  Br15  1  0.722800  0.875266  0.431517  1
  O  O16  1  0.643874  0.227077  0.272074  1
  O  O17  1  0.143853  0.727074  0.227935  1
  O  O18  1  0.143869  0.772935  0.727923  1
  O  O19  1  0.643870  0.272936  0.772073  1
  O  O20  1  0.148420  0.034222  0.224757  1
  O  O21  1  0.648390  0.534216  0.275231  1
  O  O22  1  0.648413  0.965786  0.775236  1
  O  O23  1  0.148407  0.465790  0.724763  1
  O  O24  1  0.196779  0.621417  0.545688  1
  O  O25  1  0.196781  0.878588  0.045696  1
  O  O26  1  0.696777  0.378608  0.454303  1
  O  O27  1  0.696782  0.121419  0.954299  1
  O  O28  1  0.740100  0.882024  0.150659  1
  O  O29  1  0.240101  0.117983  0.849342  1
  O  O30  1  0.240091  0.382006  0.349343  1
  O  O31  1  0.740103  0.617992  0.650653  1
