# generated using pymatgen
data_Ba2CaZnCo2F14
_symmetry_space_group_name_H-M   'P 1'
_cell_length_a   5.35964291
_cell_length_b   7.46122805
_cell_length_c   14.88496183
_cell_angle_alpha   91.44296173
_cell_angle_beta   90.01660484
_cell_angle_gamma   111.04272440
_symmetry_Int_Tables_number   1
_chemical_formula_structural   Ba2CaZnCo2F14
_chemical_formula_sum   'Ba4 Ca2 Zn2 Co4 F28'
_cell_volume   555.34353086
_cell_formula_units_Z   2
loop_
 _symmetry_equiv_pos_site_id
 _symmetry_equiv_pos_as_xyz
  1  'x, y, z'
loop_
 _atom_site_type_symbol
 _atom_site_label
 _atom_site_symmetry_multiplicity
 _atom_site_fract_x
 _atom_site_fract_y
 _atom_site_fract_z
 _atom_site_occupancy
  Ba  Ba0  1  0.129442  0.379301  0.621725  1
  Ba  Ba1  1  0.249168  0.379380  0.121599  1
  Ba  Ba2  1  0.869926  0.620323  0.379106  1
  Ba  Ba3  1  0.750073  0.620249  0.879286  1
  Ca  Ca4  1  0.424233  0.999897  0.750504  1
  Ca  Ca5  1  0.574885  0.999968  0.250528  1
  Zn  Zn6  1  0.499514  0.999590  0.000519  1
  Zn  Zn7  1  0.499919  0.000005  0.500472  1
  Co  Co8  1  0.109037  0.241808  0.876207  1
  Co  Co9  1  0.889882  0.757804  0.124849  1
  Co  Co10  1  0.132689  0.242397  0.375925  1
  Co  Co11  1  0.866968  0.757450  0.624880  1
  F  F12  1  0.926236  0.988424  0.346738  1
  F  F13  1  0.857982  0.256479  0.453181  1
  F  F14  1  0.141870  0.743017  0.547810  1
  F  F15  1  0.680770  0.501466  0.596241  1
  F  F16  1  0.615756  0.119332  0.618443  1
  F  F17  1  0.495484  0.879918  0.882475  1
  F  F18  1  0.398892  0.255498  0.953080  1
  F  F19  1  0.937964  0.011334  0.154562  1
  F  F20  1  0.355134  0.315030  0.779886  1
  F  F21  1  0.318782  0.498760  0.404368  1
  F  F22  1  0.835999  0.244976  0.797658  1
  F  F23  1  0.179310  0.497595  0.905598  1
  F  F24  1  0.407753  0.244806  0.297176  1
  F  F25  1  0.162676  0.754990  0.203584  1
  F  F26  1  0.503208  0.119496  0.118454  1
  F  F27  1  0.643602  0.684888  0.221054  1
  F  F28  1  0.109222  0.820675  0.022878  1
  F  F29  1  0.072923  0.011064  0.654186  1
  F  F30  1  0.889861  0.178481  0.978231  1
  F  F31  1  0.709674  0.820094  0.522893  1
  F  F32  1  0.600227  0.743859  0.047765  1
  F  F33  1  0.592098  0.755265  0.703605  1
  F  F34  1  0.959031  0.314945  0.279759  1
  F  F35  1  0.290525  0.180221  0.477754  1
  F  F36  1  0.383396  0.880705  0.382571  1
  F  F37  1  0.060724  0.988338  0.846259  1
  F  F38  1  0.040871  0.684681  0.721180  1
  F  F39  1  0.819774  0.501908  0.095773  1
