# generated using pymatgen
data_Lu8Nb11Si16Ru
_symmetry_space_group_name_H-M   'P 1'
_cell_length_a   6.79557834
_cell_length_b   7.00699372
_cell_length_c   13.24415139
_cell_angle_alpha   90.12054928
_cell_angle_beta   89.92371549
_cell_angle_gamma   89.94911558
_symmetry_Int_Tables_number   1
_chemical_formula_structural   Lu8Nb11Si16Ru
_chemical_formula_sum   'Lu8 Nb11 Si16 Ru1'
_cell_volume   630.63891917
_cell_formula_units_Z   1
loop_
 _symmetry_equiv_pos_site_id
 _symmetry_equiv_pos_as_xyz
  1  'x, y, z'
loop_
 _atom_site_type_symbol
 _atom_site_label
 _atom_site_symmetry_multiplicity
 _atom_site_fract_x
 _atom_site_fract_y
 _atom_site_fract_z
 _atom_site_occupancy
  Lu  Lu0  1  0.502970  0.328405  0.095095  1
  Lu  Lu1  1  0.999777  0.174434  0.403717  1
  Lu  Lu2  1  0.497760  0.673361  0.594676  1
  Lu  Lu3  1  0.999651  0.829581  0.904762  1
  Lu  Lu4  1  0.497771  0.670967  0.904079  1
  Lu  Lu5  1  0.996928  0.826849  0.595386  1
  Lu  Lu6  1  0.503695  0.327876  0.404885  1
  Lu  Lu7  1  0.004220  0.173392  0.095990  1
  Nb  Nb8  1  0.838969  0.327978  0.624093  1
  Nb  Nb9  1  0.337340  0.172725  0.872523  1
  Nb  Nb10  1  0.163912  0.674298  0.125687  1
  Nb  Nb11  1  0.659917  0.830419  0.376890  1
  Nb  Nb12  1  0.167958  0.673212  0.378143  1
  Nb  Nb13  1  0.663357  0.825985  0.125683  1
  Nb  Nb14  1  0.835491  0.324170  0.872793  1
  Nb  Nb15  1  0.664972  0.007672  0.749479  1
  Nb  Nb16  1  0.159840  0.493550  0.749281  1
  Nb  Nb17  1  0.337193  0.996088  0.251404  1
  Nb  Nb18  1  0.838661  0.507071  0.250259  1
  Si  Si19  1  0.658881  0.038331  0.543367  1
  Si  Si20  1  0.164106  0.463638  0.958594  1
  Si  Si21  1  0.334886  0.964088  0.040739  1
  Si  Si22  1  0.835863  0.538352  0.458715  1
  Si  Si23  1  0.333157  0.967157  0.461878  1
  Si  Si24  1  0.836496  0.534956  0.040195  1
  Si  Si25  1  0.663622  0.034073  0.959418  1
  Si  Si26  1  0.166376  0.455097  0.543556  1
  Si  Si27  1  0.534188  0.376675  0.746141  1
  Si  Si28  1  0.044390  0.121220  0.747527  1
  Si  Si29  1  0.461382  0.620118  0.251149  1
  Si  Si30  1  0.959864  0.879957  0.251498  1
  Si  Si31  1  0.793762  0.631536  0.749754  1
  Si  Si32  1  0.298268  0.869289  0.749761  1
  Si  Si33  1  0.205974  0.369501  0.250306  1
  Si  Si34  1  0.704796  0.132636  0.249426  1
  Ru  Ru35  1  0.333605  0.165343  0.623150  1
