# generated using pymatgen
data_CeDy3(SbSe)4
_symmetry_space_group_name_H-M   'P 1'
_cell_length_a   4.17711600
_cell_length_b   4.17592559
_cell_length_c   17.68986412
_cell_angle_alpha   89.84524023
_cell_angle_beta   90.00000000
_cell_angle_gamma   90.00000000
_symmetry_Int_Tables_number   1
_chemical_formula_structural   CeDy3(SbSe)4
_chemical_formula_sum   'Ce1 Dy3 Sb4 Se4'
_cell_volume   308.56893419
_cell_formula_units_Z   1
loop_
 _symmetry_equiv_pos_site_id
 _symmetry_equiv_pos_as_xyz
  1  'x, y, z'
loop_
 _atom_site_type_symbol
 _atom_site_label
 _atom_site_symmetry_multiplicity
 _atom_site_fract_x
 _atom_site_fract_y
 _atom_site_fract_z
 _atom_site_occupancy
  Ce  Ce0  1  0.250000  0.741303  0.646642  1
  Dy  Dy1  1  0.750000  0.236338  0.853971  1
  Dy  Dy2  1  0.750000  0.261627  0.351563  1
  Dy  Dy3  1  0.250000  0.761008  0.148049  1
  Sb  Sb4  1  0.250000  0.250359  0.498406  1
  Sb  Sb5  1  0.250000  0.250538  0.000400  1
  Sb  Sb6  1  0.750000  0.751507  0.499325  1
  Sb  Sb7  1  0.750000  0.746077  0.000340  1
  Se  Se8  1  0.750000  0.239407  0.686113  1
  Se  Se9  1  0.750000  0.262653  0.186728  1
  Se  Se10  1  0.250000  0.763092  0.312838  1
  Se  Se11  1  0.250000  0.736091  0.815625  1
