# generated using pymatgen
data_Ho7Er(CdRu)2
_symmetry_space_group_name_H-M   'P 1'
_cell_length_a   9.62174599
_cell_length_b   9.58466434
_cell_length_c   9.58466507
_cell_angle_alpha   59.74884844
_cell_angle_beta   59.87193531
_cell_angle_gamma   59.87193812
_symmetry_Int_Tables_number   1
_chemical_formula_structural   Ho7Er(CdRu)2
_chemical_formula_sum   'Ho14 Er2 Cd4 Ru4'
_cell_volume   622.61768101
_cell_formula_units_Z   2
loop_
 _symmetry_equiv_pos_site_id
 _symmetry_equiv_pos_as_xyz
  1  'x, y, z'
loop_
 _atom_site_type_symbol
 _atom_site_label
 _atom_site_symmetry_multiplicity
 _atom_site_fract_x
 _atom_site_fract_y
 _atom_site_fract_z
 _atom_site_occupancy
  Ho  Ho0  1  0.561439  0.561238  0.938488  1
  Ho  Ho1  1  0.938837  0.561238  0.938488  1
  Ho  Ho2  1  0.560995  0.939005  0.939005  1
  Ho  Ho3  1  0.938837  0.938488  0.561238  1
  Ho  Ho4  1  0.561439  0.938488  0.561238  1
  Ho  Ho5  1  0.940785  0.559215  0.559215  1
  Ho  Ho6  1  0.189939  0.189007  0.810406  1
  Ho  Ho7  1  0.810647  0.189007  0.810406  1
  Ho  Ho8  1  0.188678  0.811322  0.811321  1
  Ho  Ho9  1  0.810647  0.810407  0.189007  1
  Ho  Ho10  1  0.189938  0.810406  0.189006  1
  Ho  Ho11  1  0.811066  0.188934  0.188934  1
  Ho  Ho12  1  0.345834  0.346362  0.961971  1
  Ho  Ho13  1  0.345834  0.961971  0.346362  1
  Er  Er14  1  0.957741  0.346600  0.346600  1
  Er  Er15  1  0.349059  0.346600  0.346600  1
  Cd  Cd16  1  0.580884  0.580315  0.257916  1
  Cd  Cd17  1  0.580884  0.257916  0.580315  1
  Cd  Cd18  1  0.259216  0.580213  0.580213  1
  Cd  Cd19  1  0.580356  0.580213  0.580213  1
  Ru  Ru20  1  0.138303  0.143694  0.579700  1
  Ru  Ru21  1  0.138303  0.579700  0.143694  1
  Ru  Ru22  1  0.582288  0.139830  0.139830  1
  Ru  Ru23  1  0.138050  0.139830  0.139830  1
