# generated using pymatgen
data_Pr3Al12(IrOs)2
_symmetry_space_group_name_H-M   'P 1'
_cell_length_a   8.94375700
_cell_length_b   8.93164629
_cell_length_c   9.65750028
_cell_angle_alpha   89.72069459
_cell_angle_beta   90.00000000
_cell_angle_gamma   120.04486033
_symmetry_Int_Tables_number   1
_chemical_formula_structural   Pr3Al12(IrOs)2
_chemical_formula_sum   'Pr6 Al24 Ir4 Os4'
_cell_volume   667.79549419
_cell_formula_units_Z   2
loop_
 _symmetry_equiv_pos_site_id
 _symmetry_equiv_pos_as_xyz
  1  'x, y, z'
loop_
 _atom_site_type_symbol
 _atom_site_label
 _atom_site_symmetry_multiplicity
 _atom_site_fract_x
 _atom_site_fract_y
 _atom_site_fract_z
 _atom_site_occupancy
  Pr  Pr0  1  0.191993  0.383985  0.250841  1
  Pr  Pr1  1  0.808007  0.616015  0.749159  1
  Pr  Pr2  1  0.616466  0.807379  0.250638  1
  Pr  Pr3  1  0.383534  0.192621  0.749362  1
  Pr  Pr4  1  0.190913  0.807379  0.250638  1
  Pr  Pr5  1  0.809087  0.192621  0.749362  1
  Al  Al6  1  0.333337  0.666676  0.011008  1
  Al  Al7  1  0.666663  0.333324  0.988992  1
  Al  Al8  1  0.667588  0.335175  0.510226  1
  Al  Al9  1  0.332412  0.664825  0.489774  1
  Al  Al10  1  0.163327  0.326653  0.574656  1
  Al  Al11  1  0.836673  0.673347  0.425344  1
  Al  Al12  1  0.673909  0.835979  0.574872  1
  Al  Al13  1  0.837182  0.674364  0.074560  1
  Al  Al14  1  0.326091  0.164021  0.425128  1
  Al  Al15  1  0.162818  0.325636  0.925440  1
  Al  Al16  1  0.162071  0.835979  0.574872  1
  Al  Al17  1  0.325579  0.162803  0.074853  1
  Al  Al18  1  0.837929  0.164021  0.425128  1
  Al  Al19  1  0.674421  0.837197  0.925147  1
  Al  Al20  1  0.837223  0.162803  0.074853  1
  Al  Al21  1  0.162777  0.837197  0.925147  1
  Al  Al22  1  0.562794  0.125587  0.248949  1
  Al  Al23  1  0.437206  0.874413  0.751051  1
  Al  Al24  1  0.874330  0.437160  0.250439  1
  Al  Al25  1  0.125670  0.562840  0.749561  1
  Al  Al26  1  0.562830  0.437160  0.250439  1
  Al  Al27  1  0.437170  0.562840  0.749561  1
  Al  Al28  1  0.999910  0.999820  0.250157  1
  Al  Al29  1  0.000090  0.000180  0.749843  1
  Ir  Ir30  1  0.500000  0.000000  0.000000  1
  Ir  Ir31  1  0.000000  0.500000  0.000000  1
  Ir  Ir32  1  0.500000  0.000000  0.500000  1
  Ir  Ir33  1  0.500000  0.500000  0.000000  1
  Os  Os34  1  0.000000  0.500000  0.500000  1
  Os  Os35  1  0.500000  0.500000  0.500000  1
  Os  Os36  1  0.000000  0.000000  0.000000  1
  Os  Os37  1  0.000000  0.000000  0.500000  1
