# generated using pymatgen
data_Zr3Ga2FeN
_symmetry_space_group_name_H-M   'P 1'
_cell_length_a   8.48826601
_cell_length_b   8.48826577
_cell_length_c   8.48826700
_cell_angle_alpha   59.99999910
_cell_angle_beta   60.00000003
_cell_angle_gamma   60.00000134
_symmetry_Int_Tables_number   1
_chemical_formula_structural   Zr3Ga2FeN
_chemical_formula_sum   'Zr12 Ga8 Fe4 N4'
_cell_volume   432.45605848
_cell_formula_units_Z   4
loop_
 _symmetry_equiv_pos_site_id
 _symmetry_equiv_pos_as_xyz
  1  'x, y, z'
loop_
 _atom_site_type_symbol
 _atom_site_label
 _atom_site_symmetry_multiplicity
 _atom_site_fract_x
 _atom_site_fract_y
 _atom_site_fract_z
 _atom_site_occupancy
  Zr  Zr0  1  0.804249  0.804249  0.195751  1
  Zr  Zr1  1  0.195751  0.195751  0.804249  1
  Zr  Zr2  1  0.804249  0.195751  0.804249  1
  Zr  Zr3  1  0.195751  0.804249  0.195751  1
  Zr  Zr4  1  0.195751  0.804249  0.804249  1
  Zr  Zr5  1  0.804249  0.195751  0.195751  1
  Zr  Zr6  1  0.445751  0.445751  0.054249  1
  Zr  Zr7  1  0.054249  0.054249  0.445751  1
  Zr  Zr8  1  0.445751  0.054249  0.445751  1
  Zr  Zr9  1  0.054249  0.445751  0.054249  1
  Zr  Zr10  1  0.054249  0.445751  0.445751  1
  Zr  Zr11  1  0.445751  0.054249  0.054249  1
  Ga  Ga12  1  0.743995  0.418669  0.418669  1
  Ga  Ga13  1  0.418669  0.743995  0.418669  1
  Ga  Ga14  1  0.418669  0.418669  0.743995  1
  Ga  Ga15  1  0.418669  0.418669  0.418669  1
  Ga  Ga16  1  0.506005  0.831331  0.831331  1
  Ga  Ga17  1  0.831331  0.506005  0.831331  1
  Ga  Ga18  1  0.831331  0.831331  0.506005  1
  Ga  Ga19  1  0.831331  0.831331  0.831331  1
  Fe  Fe20  1  0.125000  0.625000  0.625000  1
  Fe  Fe21  1  0.625000  0.125000  0.625000  1
  Fe  Fe22  1  0.625000  0.625000  0.125000  1
  Fe  Fe23  1  0.625000  0.625000  0.625000  1
  N  N24  1  0.625000  0.125000  0.125000  1
  N  N25  1  0.125000  0.625000  0.125000  1
  N  N26  1  0.125000  0.125000  0.625000  1
  N  N27  1  0.125000  0.125000  0.125000  1
