# generated using pymatgen
data_Rb3Tl5Br16
_symmetry_space_group_name_H-M   'P 1'
_cell_length_a   7.98154400
_cell_length_b   9.59710069
_cell_length_c   14.16054778
_cell_angle_alpha   75.77282864
_cell_angle_beta   90.00000000
_cell_angle_gamma   90.00000000
_symmetry_Int_Tables_number   1
_chemical_formula_structural   Rb3Tl5Br16
_chemical_formula_sum   'Rb3 Tl5 Br16'
_cell_volume   1051.42471685
_cell_formula_units_Z   1
loop_
 _symmetry_equiv_pos_site_id
 _symmetry_equiv_pos_as_xyz
  1  'x, y, z'
loop_
 _atom_site_type_symbol
 _atom_site_label
 _atom_site_symmetry_multiplicity
 _atom_site_fract_x
 _atom_site_fract_y
 _atom_site_fract_z
 _atom_site_occupancy
  Rb  Rb0  1  0.865310  0.000000  0.250000  1
  Rb  Rb1  1  0.133424  0.000000  0.750000  1
  Rb  Rb2  1  0.398107  0.500000  0.250000  1
  Tl  Tl3  1  0.580290  0.500000  0.750000  1
  Tl  Tl4  1  0.714948  0.219693  0.548705  1
  Tl  Tl5  1  0.714948  0.780307  0.951295  1
  Tl  Tl6  1  0.290777  0.784568  0.454406  1
  Tl  Tl7  1  0.290777  0.215432  0.045594  1
  Br  Br8  1  0.074486  0.653500  0.364857  1
  Br  Br9  1  0.074486  0.346500  0.135143  1
  Br  Br10  1  0.923778  0.348972  0.643252  1
  Br  Br11  1  0.923778  0.651028  0.856748  1
  Br  Br12  1  0.413050  0.703431  0.906778  1
  Br  Br13  1  0.413050  0.296569  0.593222  1
  Br  Br14  1  0.589780  0.286419  0.095584  1
  Br  Br15  1  0.589780  0.713581  0.404416  1
  Br  Br16  1  0.752596  0.297813  0.358167  1
  Br  Br17  1  0.752596  0.702187  0.141833  1
  Br  Br18  1  0.255498  0.701461  0.645487  1
  Br  Br19  1  0.255498  0.298539  0.854513  1
  Br  Br20  1  0.223294  0.059403  0.400794  1
  Br  Br21  1  0.223294  0.940597  0.099206  1
  Br  Br22  1  0.773225  0.943457  0.604935  1
  Br  Br23  1  0.773225  0.056543  0.895065  1
