# generated using pymatgen
data_Li4UMnS6
_symmetry_space_group_name_H-M   'P 1'
_cell_length_a   6.35808644
_cell_length_b   6.35808667
_cell_length_c   6.29773500
_cell_angle_alpha   99.74327203
_cell_angle_beta   99.74327239
_cell_angle_gamma   119.97398315
_symmetry_Int_Tables_number   1
_chemical_formula_structural   Li4UMnS6
_chemical_formula_sum   'Li4 U1 Mn1 S6'
_cell_volume   207.53113513
_cell_formula_units_Z   1
loop_
 _symmetry_equiv_pos_site_id
 _symmetry_equiv_pos_as_xyz
  1  'x, y, z'
loop_
 _atom_site_type_symbol
 _atom_site_label
 _atom_site_symmetry_multiplicity
 _atom_site_fract_x
 _atom_site_fract_y
 _atom_site_fract_z
 _atom_site_occupancy
  Li  Li0  1  0.500369  0.499629  0.000000  1
  Li  Li1  1  0.998122  0.001878  0.499998  1
  Li  Li2  1  0.667104  0.332894  0.500000  1
  Li  Li3  1  0.334178  0.665820  0.500000  1
  U  U4  1  0.166616  0.833381  0.000000  1
  Mn  Mn5  1  0.832678  0.167320  0.000000  1
  S  S6  1  0.920538  0.574646  0.243272  1
  S  S7  1  0.236103  0.242752  0.247393  1
  S  S8  1  0.588154  0.926466  0.242707  1
  S  S9  1  0.073536  0.411848  0.757295  1
  S  S10  1  0.757251  0.763899  0.752609  1
  S  S11  1  0.425355  0.079464  0.756729  1
