# generated using pymatgen
data_Sc8Cr12Si15P
_symmetry_space_group_name_H-M   'P 1'
_cell_length_a   6.51851188
_cell_length_b   6.50941675
_cell_length_c   12.06964004
_cell_angle_alpha   89.97522581
_cell_angle_beta   90.06099836
_cell_angle_gamma   90.09675604
_symmetry_Int_Tables_number   1
_chemical_formula_structural   Sc8Cr12Si15P
_chemical_formula_sum   'Sc8 Cr12 Si15 P1'
_cell_volume   512.13440322
_cell_formula_units_Z   1
loop_
 _symmetry_equiv_pos_site_id
 _symmetry_equiv_pos_as_xyz
  1  'x, y, z'
loop_
 _atom_site_type_symbol
 _atom_site_label
 _atom_site_symmetry_multiplicity
 _atom_site_fract_x
 _atom_site_fract_y
 _atom_site_fract_z
 _atom_site_occupancy
  Sc  Sc0  1  0.004816  0.666405  0.029340  1
  Sc  Sc1  1  0.837249  0.501529  0.278953  1
  Sc  Sc2  1  0.161812  0.498010  0.778625  1
  Sc  Sc3  1  0.502310  0.837631  0.721434  1
  Sc  Sc4  1  0.494710  0.159625  0.218665  1
  Sc  Sc5  1  0.998204  0.337219  0.529206  1
  Sc  Sc6  1  0.658944  0.002364  0.971659  1
  Sc  Sc7  1  0.337221  0.998498  0.471147  1
  Cr  Cr8  1  0.331927  0.328182  0.001466  1
  Cr  Cr9  1  0.168995  0.834219  0.246962  1
  Cr  Cr10  1  0.833087  0.167762  0.750228  1
  Cr  Cr11  1  0.667488  0.667075  0.499923  1
  Cr  Cr12  1  0.000552  0.164457  0.124458  1
  Cr  Cr13  1  0.331569  0.496845  0.376198  1
  Cr  Cr14  1  0.669408  0.503302  0.875945  1
  Cr  Cr15  1  0.496595  0.331992  0.623958  1
  Cr  Cr16  1  0.499895  0.673341  0.122946  1
  Cr  Cr17  1  0.002850  0.831823  0.626013  1
  Cr  Cr18  1  0.169791  0.995623  0.878255  1
  Cr  Cr19  1  0.832676  0.002470  0.373994  1
  Si  Si20  1  0.533370  0.787239  0.316156  1
  Si  Si21  1  0.467406  0.213406  0.815456  1
  Si  Si22  1  0.787337  0.533679  0.684282  1
  Si  Si23  1  0.212656  0.466430  0.184849  1
  Si  Si24  1  0.712735  0.033001  0.565620  1
  Si  Si25  1  0.965207  0.288874  0.934203  1
  Si  Si26  1  0.033659  0.712829  0.433935  1
  Si  Si27  1  0.697890  0.379524  0.067075  1
  Si  Si28  1  0.122668  0.198019  0.317120  1
  Si  Si29  1  0.877418  0.804037  0.817342  1
  Si  Si30  1  0.196956  0.122414  0.684319  1
  Si  Si31  1  0.801577  0.876849  0.183888  1
  Si  Si32  1  0.302521  0.623396  0.566735  1
  Si  Si33  1  0.378291  0.692760  0.932111  1
  Si  Si34  1  0.623020  0.302068  0.432898  1
  P  P35  1  0.287190  0.967105  0.064634  1
