# generated using pymatgen
data_Re5RuPtRh
_symmetry_space_group_name_H-M   'P 1'
_cell_length_a   5.55777900
_cell_length_b   5.58039484
_cell_length_c   4.40222400
_cell_angle_alpha   90.00000000
_cell_angle_beta   90.00000000
_cell_angle_gamma   119.86602111
_symmetry_Int_Tables_number   1
_chemical_formula_structural   Re5RuPtRh
_chemical_formula_sum   'Re5 Ru1 Pt1 Rh1'
_cell_volume   118.40054813
_cell_formula_units_Z   1
loop_
 _symmetry_equiv_pos_site_id
 _symmetry_equiv_pos_as_xyz
  1  'x, y, z'
loop_
 _atom_site_type_symbol
 _atom_site_label
 _atom_site_symmetry_multiplicity
 _atom_site_fract_x
 _atom_site_fract_y
 _atom_site_fract_z
 _atom_site_occupancy
  Re  Re0  1  0.682050  0.841195  0.250000  1
  Re  Re1  1  0.159146  0.841195  0.250000  1
  Re  Re2  1  0.839254  0.678510  0.750000  1
  Re  Re3  1  0.321037  0.161634  0.750000  1
  Re  Re4  1  0.840596  0.161634  0.750000  1
  Ru  Ru5  1  0.161601  0.323202  0.250000  1
  Pt  Pt6  1  0.331330  0.662661  0.750000  1
  Rh  Rh7  1  0.664987  0.329972  0.250000  1
