# generated using pymatgen
data_Y4Al15Ga3CuRh5
_symmetry_space_group_name_H-M   'P 1'
_cell_length_a   7.55734918
_cell_length_b   7.54858776
_cell_length_c   9.46746769
_cell_angle_alpha   90.14364608
_cell_angle_beta   90.02813426
_cell_angle_gamma   119.47576674
_symmetry_Int_Tables_number   1
_chemical_formula_structural   Y4Al15Ga3CuRh5
_chemical_formula_sum   'Y4 Al15 Ga3 Cu1 Rh5'
_cell_volume   470.18358183
_cell_formula_units_Z   1
loop_
 _symmetry_equiv_pos_site_id
 _symmetry_equiv_pos_as_xyz
  1  'x, y, z'
loop_
 _atom_site_type_symbol
 _atom_site_label
 _atom_site_symmetry_multiplicity
 _atom_site_fract_x
 _atom_site_fract_y
 _atom_site_fract_z
 _atom_site_occupancy
  Y  Y0  1  0.994264  0.672195  0.248509  1
  Y  Y1  1  0.005455  0.325928  0.752766  1
  Y  Y2  1  0.675932  0.996854  0.248487  1
  Y  Y3  1  0.325505  0.005693  0.750377  1
  Al  Al4  1  0.998549  0.661577  0.922804  1
  Al  Al5  1  0.999388  0.664946  0.573646  1
  Al  Al6  1  0.335245  0.000025  0.426242  1
  Al  Al7  1  0.001161  0.335074  0.428585  1
  Al  Al8  1  0.664889  0.999597  0.573696  1
  Al  Al9  1  0.659603  0.997596  0.922428  1
  Al  Al10  1  0.338730  0.001511  0.076540  1
  Al  Al11  1  0.333908  0.333789  0.552816  1
  Al  Al12  1  0.666667  0.666838  0.447166  1
  Al  Al13  1  0.663273  0.663487  0.054249  1
  Al  Al14  1  0.337121  0.337369  0.946359  1
  Al  Al15  1  0.338461  0.550611  0.249983  1
  Al  Al16  1  0.662675  0.449941  0.749125  1
  Al  Al17  1  0.548847  0.338056  0.250140  1
  Al  Al18  1  0.449380  0.661572  0.749066  1
  Ga  Ga19  1  0.133062  0.130604  0.250365  1
  Ga  Ga20  1  0.868014  0.868607  0.749823  1
  Ga  Ga21  1  0.000275  0.337541  0.079948  1
  Cu  Cu22  1  0.000336  0.998617  0.999806  1
  Rh  Rh23  1  0.669456  0.328303  0.999089  1
  Rh  Rh24  1  0.329871  0.673515  0.999378  1
  Rh  Rh25  1  0.327971  0.671424  0.499558  1
  Rh  Rh26  1  0.671892  0.328330  0.499207  1
  Rh  Rh27  1  0.000068  0.000401  0.499844  1
