# generated using pymatgen
data_EuLuCuTe3
_symmetry_space_group_name_H-M   'P 1'
_cell_length_a   7.44565710
_cell_length_b   7.44565712
_cell_length_c   11.14825500
_cell_angle_alpha   90.00000000
_cell_angle_beta   90.00000000
_cell_angle_gamma   146.49574030
_symmetry_Int_Tables_number   1
_chemical_formula_structural   EuLuCuTe3
_chemical_formula_sum   'Eu2 Lu2 Cu2 Te6'
_cell_volume   341.15460135
_cell_formula_units_Z   2
loop_
 _symmetry_equiv_pos_site_id
 _symmetry_equiv_pos_as_xyz
  1  'x, y, z'
loop_
 _atom_site_type_symbol
 _atom_site_label
 _atom_site_symmetry_multiplicity
 _atom_site_fract_x
 _atom_site_fract_y
 _atom_site_fract_z
 _atom_site_occupancy
  Eu  Eu0  1  0.758671  0.241328  0.250000  1
  Eu  Eu1  1  0.241328  0.758671  0.750000  1
  Lu  Lu2  1  0.000000  0.000000  0.000000  1
  Lu  Lu3  1  0.000000  0.000000  0.500000  1
  Cu  Cu4  1  0.470989  0.529010  0.250000  1
  Cu  Cu5  1  0.529010  0.470989  0.750000  1
  Te  Te6  1  0.357677  0.642322  0.062130  1
  Te  Te7  1  0.082202  0.917797  0.250000  1
  Te  Te8  1  0.357677  0.642322  0.437870  1
  Te  Te9  1  0.642322  0.357677  0.562130  1
  Te  Te10  1  0.917797  0.082202  0.750000  1
  Te  Te11  1  0.642322  0.357677  0.937870  1
