# generated using pymatgen
data_Li7Ho8ZnSn8
_symmetry_space_group_name_H-M   'P 1'
_cell_length_a   9.36244100
_cell_length_b   9.36108705
_cell_length_c   7.22427291
_cell_angle_alpha   89.92900189
_cell_angle_beta   90.00000000
_cell_angle_gamma   120.00478817
_symmetry_Int_Tables_number   1
_chemical_formula_structural   Li7Ho8ZnSn8
_chemical_formula_sum   'Li7 Ho8 Zn1 Sn8'
_cell_volume   548.30063911
_cell_formula_units_Z   1
loop_
 _symmetry_equiv_pos_site_id
 _symmetry_equiv_pos_as_xyz
  1  'x, y, z'
loop_
 _atom_site_type_symbol
 _atom_site_label
 _atom_site_symmetry_multiplicity
 _atom_site_fract_x
 _atom_site_fract_y
 _atom_site_fract_z
 _atom_site_occupancy
  Li  Li0  1  0.165192  0.832373  0.289084  1
  Li  Li1  1  0.667180  0.832373  0.289084  1
  Li  Li2  1  0.833142  0.666283  0.789263  1
  Li  Li3  1  0.831982  0.166175  0.788514  1
  Li  Li4  1  0.334194  0.166175  0.788514  1
  Li  Li5  1  0.334064  0.668129  0.679037  1
  Li  Li6  1  0.668286  0.336571  0.175450  1
  Ho  Ho7  1  0.511417  0.022833  0.496476  1
  Ho  Ho8  1  0.511257  0.488562  0.493016  1
  Ho  Ho9  1  0.977306  0.488562  0.493016  1
  Ho  Ho10  1  0.488845  0.977692  0.990111  1
  Ho  Ho11  1  0.486847  0.510154  0.992627  1
  Ho  Ho12  1  0.023306  0.510154  0.992627  1
  Ho  Ho13  1  0.999443  0.998887  0.498559  1
  Ho  Ho14  1  0.001038  0.002076  0.997760  1
  Zn  Zn15  1  0.166526  0.333053  0.299889  1
  Sn  Sn16  1  0.166169  0.332339  0.729779  1
  Sn  Sn17  1  0.165508  0.832662  0.728603  1
  Sn  Sn18  1  0.667153  0.832662  0.728603  1
  Sn  Sn19  1  0.833888  0.667774  0.229947  1
  Sn  Sn20  1  0.831732  0.165741  0.227198  1
  Sn  Sn21  1  0.334010  0.165741  0.227198  1
  Sn  Sn22  1  0.334403  0.668807  0.257638  1
  Sn  Sn23  1  0.667111  0.334222  0.759975  1
