# generated using pymatgen
data_Ba6MgIn(BO3)6
_symmetry_space_group_name_H-M   'P 1'
_cell_length_a   8.08165413
_cell_length_b   8.08165352
_cell_length_c   8.08165345
_cell_angle_alpha   105.77651480
_cell_angle_beta   105.77650898
_cell_angle_gamma   105.77652114
_symmetry_Int_Tables_number   1
_chemical_formula_structural   Ba6MgIn(BO3)6
_chemical_formula_sum   'Ba6 Mg1 In1 B6 O18'
_cell_volume   453.46103569
_cell_formula_units_Z   1
loop_
 _symmetry_equiv_pos_site_id
 _symmetry_equiv_pos_as_xyz
  1  'x, y, z'
loop_
 _atom_site_type_symbol
 _atom_site_label
 _atom_site_symmetry_multiplicity
 _atom_site_fract_x
 _atom_site_fract_y
 _atom_site_fract_z
 _atom_site_occupancy
  Ba  Ba0  1  0.767726  0.670376  0.153951  1
  Ba  Ba1  1  0.329625  0.846049  0.232275  1
  Ba  Ba2  1  0.846049  0.232276  0.329624  1
  Ba  Ba3  1  0.153951  0.767725  0.670377  1
  Ba  Ba4  1  0.670376  0.153951  0.767725  1
  Ba  Ba5  1  0.232275  0.329624  0.846050  1
  Mg  Mg6  1  0.000000  0.000000  0.000000  1
  In  In7  1  0.500000  0.500000  0.500000  1
  B  B8  1  0.447774  0.208131  0.131862  1
  B  B9  1  0.131862  0.447774  0.208131  1
  B  B10  1  0.208131  0.131862  0.447774  1
  B  B11  1  0.791869  0.868138  0.552227  1
  B  B12  1  0.868139  0.552227  0.791869  1
  B  B13  1  0.552227  0.791869  0.868138  1
  O  O14  1  0.277368  0.071836  0.012543  1
  O  O15  1  0.566511  0.300114  0.062568  1
  O  O16  1  0.012543  0.277368  0.071836  1
  O  O17  1  0.322341  0.507320  0.240147  1
  O  O18  1  0.071836  0.012542  0.277368  1
  O  O19  1  0.062567  0.566511  0.300114  1
  O  O20  1  0.507320  0.240147  0.322341  1
  O  O21  1  0.699885  0.937432  0.433489  1
  O  O22  1  0.759853  0.677659  0.492681  1
  O  O23  1  0.240147  0.322342  0.507320  1
  O  O24  1  0.300114  0.062567  0.566511  1
  O  O25  1  0.492681  0.759853  0.677659  1
  O  O26  1  0.937432  0.433488  0.699885  1
  O  O27  1  0.928163  0.987457  0.722631  1
  O  O28  1  0.677659  0.492681  0.759853  1
  O  O29  1  0.987456  0.722632  0.928164  1
  O  O30  1  0.433488  0.699885  0.937432  1
  O  O31  1  0.722632  0.928164  0.987457  1
