# generated using pymatgen
data_Er2Hf3Co9P7
_symmetry_space_group_name_H-M   'P 1'
_cell_length_a   3.68078300
_cell_length_b   9.35485022
_cell_length_c   9.35485000
_cell_angle_alpha   119.99999923
_cell_angle_beta   90.00000000
_cell_angle_gamma   90.00000000
_symmetry_Int_Tables_number   1
_chemical_formula_structural   Er2Hf3Co9P7
_chemical_formula_sum   'Er2 Hf3 Co9 P7'
_cell_volume   278.96165828
_cell_formula_units_Z   1
loop_
 _symmetry_equiv_pos_site_id
 _symmetry_equiv_pos_as_xyz
  1  'x, y, z'
loop_
 _atom_site_type_symbol
 _atom_site_label
 _atom_site_symmetry_multiplicity
 _atom_site_fract_x
 _atom_site_fract_y
 _atom_site_fract_z
 _atom_site_occupancy
  Er  Er0  1  0.000000  0.666667  0.333333  1
  Er  Er1  1  0.500000  0.333333  0.666667  1
  Hf  Hf2  1  0.500000  0.768073  0.889100  1
  Hf  Hf3  1  0.500000  0.121026  0.231927  1
  Hf  Hf4  1  0.500000  0.110900  0.878974  1
  Co  Co5  1  0.000000  0.572350  0.935045  1
  Co  Co6  1  0.000000  0.362695  0.427650  1
  Co  Co7  1  0.000000  0.064955  0.637305  1
  Co  Co8  1  0.000000  0.877017  0.164256  1
  Co  Co9  1  0.000000  0.287240  0.122983  1
  Co  Co10  1  0.000000  0.835744  0.712760  1
  Co  Co11  1  0.500000  0.946683  0.393322  1
  Co  Co12  1  0.500000  0.446638  0.053317  1
  Co  Co13  1  0.500000  0.606678  0.553362  1
  P  P14  1  0.000000  0.000000  0.000000  1
  P  P15  1  0.500000  0.714720  0.134671  1
  P  P16  1  0.500000  0.419951  0.285280  1
  P  P17  1  0.500000  0.865329  0.580049  1
  P  P18  1  0.000000  0.574105  0.680751  1
  P  P19  1  0.000000  0.106646  0.425895  1
  P  P20  1  0.000000  0.319249  0.893354  1
