# generated using pymatgen
data_YbTh3(Si3Ni5)4
_symmetry_space_group_name_H-M   'P 1'
_cell_length_a   3.86946100
_cell_length_b   6.62763463
_cell_length_c   18.98761800
_cell_angle_alpha   90.04021646
_cell_angle_beta   90.00000000
_cell_angle_gamma   90.00000000
_symmetry_Int_Tables_number   1
_chemical_formula_structural   YbTh3(Si3Ni5)4
_chemical_formula_sum   'Yb1 Th3 Si12 Ni20'
_cell_volume   486.94443996
_cell_formula_units_Z   1
loop_
 _symmetry_equiv_pos_site_id
 _symmetry_equiv_pos_as_xyz
  1  'x, y, z'
loop_
 _atom_site_type_symbol
 _atom_site_label
 _atom_site_symmetry_multiplicity
 _atom_site_fract_x
 _atom_site_fract_y
 _atom_site_fract_z
 _atom_site_occupancy
  Yb  Yb0  1  0.250000  0.878240  0.144247  1
  Th  Th1  1  0.250000  0.623727  0.643668  1
  Th  Th2  1  0.750000  0.375208  0.355579  1
  Th  Th3  1  0.750000  0.124484  0.856808  1
  Si  Si4  1  0.250000  0.838077  0.929597  1
  Si  Si5  1  0.750000  0.154443  0.073185  1
  Si  Si6  1  0.750000  0.339276  0.569695  1
  Si  Si7  1  0.250000  0.661496  0.428388  1
  Si  Si8  1  0.750000  0.616845  0.766927  1
  Si  Si9  1  0.250000  0.383364  0.232574  1
  Si  Si10  1  0.250000  0.430279  0.917037  1
  Si  Si11  1  0.750000  0.579491  0.088624  1
  Si  Si12  1  0.750000  0.932026  0.586613  1
  Si  Si13  1  0.250000  0.065431  0.411599  1
  Si  Si14  1  0.250000  0.117355  0.733647  1
  Si  Si15  1  0.750000  0.882598  0.261813  1
  Ni  Ni16  1  0.250000  0.135564  0.995107  1
  Ni  Ni17  1  0.750000  0.392021  0.986465  1
  Ni  Ni18  1  0.750000  0.106674  0.481273  1
  Ni  Ni19  1  0.250000  0.615865  0.020159  1
  Ni  Ni20  1  0.250000  0.348679  0.113403  1
  Ni  Ni21  1  0.750000  0.645486  0.886677  1
  Ni  Ni22  1  0.750000  0.849674  0.383233  1
  Ni  Ni23  1  0.250000  0.150799  0.613662  1
  Ni  Ni24  1  0.250000  0.072841  0.290001  1
  Ni  Ni25  1  0.750000  0.924745  0.708016  1
  Ni  Ni26  1  0.750000  0.574219  0.207229  1
  Ni  Ni27  1  0.250000  0.424039  0.794656  1
  Ni  Ni28  1  0.750000  0.639527  0.505872  1
  Ni  Ni29  1  0.250000  0.361154  0.492649  1
  Ni  Ni30  1  0.250000  0.811893  0.802417  1
  Ni  Ni31  1  0.750000  0.187455  0.197511  1
  Ni  Ni32  1  0.750000  0.312487  0.698024  1
  Ni  Ni33  1  0.250000  0.689519  0.300304  1
  Ni  Ni34  1  0.250000  0.892694  0.517026  1
  Ni  Ni35  1  0.750000  0.862323  0.006313  1
