# generated using pymatgen
data_Sc8Tc2B24IrRu
_symmetry_space_group_name_H-M   'P 1'
_cell_length_a   3.50441000
_cell_length_b   8.88074020
_cell_length_c   11.20463850
_cell_angle_alpha   90.11394254
_cell_angle_beta   90.00000000
_cell_angle_gamma   90.00000000
_symmetry_Int_Tables_number   1
_chemical_formula_structural   Sc8Tc2B24IrRu
_chemical_formula_sum   'Sc8 Tc2 B24 Ir1 Ru1'
_cell_volume   348.70732207
_cell_formula_units_Z   1
loop_
 _symmetry_equiv_pos_site_id
 _symmetry_equiv_pos_as_xyz
  1  'x, y, z'
loop_
 _atom_site_type_symbol
 _atom_site_label
 _atom_site_symmetry_multiplicity
 _atom_site_fract_x
 _atom_site_fract_y
 _atom_site_fract_z
 _atom_site_occupancy
  Sc  Sc0  1  0.500000  0.311916  0.412754  1
  Sc  Sc1  1  0.500000  0.684984  0.592104  1
  Sc  Sc2  1  0.500000  0.177871  0.915348  1
  Sc  Sc3  1  0.500000  0.824628  0.080556  1
  Sc  Sc4  1  0.500000  0.441436  0.125968  1
  Sc  Sc5  1  0.500000  0.556418  0.872370  1
  Sc  Sc6  1  0.500000  0.055439  0.628154  1
  Sc  Sc7  1  0.500000  0.946644  0.372417  1
  Tc  Tc8  1  0.500000  0.138901  0.180734  1
  Tc  Tc9  1  0.500000  0.861009  0.819544  1
  B  B10  1  0.000000  0.101195  0.472469  1
  B  B11  1  0.000000  0.898347  0.527711  1
  B  B12  1  0.000000  0.398642  0.971906  1
  B  B13  1  0.000000  0.601543  0.028011  1
  B  B14  1  0.000000  0.129714  0.317896  1
  B  B15  1  0.000000  0.870307  0.682551  1
  B  B16  1  0.000000  0.370199  0.817243  1
  B  B17  1  0.000000  0.629942  0.181424  1
  B  B18  1  0.000000  0.052633  0.065247  1
  B  B19  1  0.000000  0.947213  0.934669  1
  B  B20  1  0.000000  0.446523  0.564674  1
  B  B21  1  0.000000  0.553591  0.435922  1
  B  B22  1  0.000000  0.479243  0.287336  1
  B  B23  1  0.000000  0.520450  0.712236  1
  B  B24  1  0.000000  0.021341  0.787129  1
  B  B25  1  0.000000  0.978811  0.212830  1
  B  B26  1  0.000000  0.251531  0.078644  1
  B  B27  1  0.000000  0.748189  0.921291  1
  B  B28  1  0.000000  0.247834  0.578656  1
  B  B29  1  0.000000  0.752668  0.422453  1
  B  B30  1  0.000000  0.294654  0.236233  1
  B  B31  1  0.000000  0.705301  0.764225  1
  B  B32  1  0.000000  0.206711  0.735460  1
  B  B33  1  0.000000  0.793940  0.264272  1
  Ir  Ir34  1  0.500000  0.638377  0.320682  1
  Ru  Ru35  1  0.500000  0.361853  0.678886  1
