# generated using pymatgen
data_Pr2Nd2Co3RuI2
_symmetry_space_group_name_H-M   'P 1'
_cell_length_a   4.08949000
_cell_length_b   4.08948794
_cell_length_c   17.73602100
_cell_angle_alpha   90.00000000
_cell_angle_beta   90.00000000
_cell_angle_gamma   119.99998434
_symmetry_Int_Tables_number   1
_chemical_formula_structural   Pr2Nd2Co3RuI2
_chemical_formula_sum   'Pr2 Nd2 Co3 Ru1 I2'
_cell_volume   256.87685562
_cell_formula_units_Z   1
loop_
 _symmetry_equiv_pos_site_id
 _symmetry_equiv_pos_as_xyz
  1  'x, y, z'
loop_
 _atom_site_type_symbol
 _atom_site_label
 _atom_site_symmetry_multiplicity
 _atom_site_fract_x
 _atom_site_fract_y
 _atom_site_fract_z
 _atom_site_occupancy
  Pr  Pr0  1  0.000000  0.000000  0.104342  1
  Pr  Pr1  1  0.000000  0.000000  0.895708  1
  Nd  Nd2  1  0.000000  0.000000  0.606898  1
  Nd  Nd3  1  0.000000  0.000000  0.392909  1
  Co  Co4  1  0.666667  0.333333  0.499280  1
  Co  Co5  1  0.666667  0.333333  0.000769  1
  Co  Co6  1  0.333333  0.666667  0.999154  1
  Ru  Ru7  1  0.333333  0.666667  0.500910  1
  I  I8  1  0.333333  0.666667  0.248980  1
  I  I9  1  0.666667  0.333333  0.751052  1
