# generated using pymatgen
data_Ca(AlC)2
_symmetry_space_group_name_H-M   'P 1'
_cell_length_a   3.47786069
_cell_length_b   3.47915613
_cell_length_c   7.18067871
_cell_angle_alpha   75.91764005
_cell_angle_beta   104.06740527
_cell_angle_gamma   59.99775160
_symmetry_Int_Tables_number   1
_chemical_formula_structural   Ca(AlC)2
_chemical_formula_sum   'Ca1 Al2 C2'
_cell_volume   65.74364836
_cell_formula_units_Z   1
loop_
 _symmetry_equiv_pos_site_id
 _symmetry_equiv_pos_as_xyz
  1  'x, y, z'
loop_
 _atom_site_type_symbol
 _atom_site_label
 _atom_site_symmetry_multiplicity
 _atom_site_fract_x
 _atom_site_fract_y
 _atom_site_fract_z
 _atom_site_occupancy
  Ca  Ca0  1  0.300067  0.822252  0.271969  1
  Al  Al1  1  0.604269  0.851613  0.908064  1
  Al  Al2  1  0.997619  0.791462  0.636432  1
  C  C3  1  0.346466  0.441930  0.984179  1
  C  C4  1  0.254709  0.200693  0.560908  1
