# generated using pymatgen
data_Tm4Ga20PdPt10
_symmetry_space_group_name_H-M   'P 1'
_cell_length_a   4.17721431
_cell_length_b   11.00393448
_cell_length_c   13.72998500
_cell_angle_alpha   82.20227702
_cell_angle_beta   81.25019410
_cell_angle_gamma   79.05856884
_symmetry_Int_Tables_number   1
_chemical_formula_structural   Tm4Ga20PdPt10
_chemical_formula_sum   'Tm4 Ga20 Pd1 Pt10'
_cell_volume   608.70522374
_cell_formula_units_Z   1
loop_
 _symmetry_equiv_pos_site_id
 _symmetry_equiv_pos_as_xyz
  1  'x, y, z'
loop_
 _atom_site_type_symbol
 _atom_site_label
 _atom_site_symmetry_multiplicity
 _atom_site_fract_x
 _atom_site_fract_y
 _atom_site_fract_z
 _atom_site_occupancy
  Tm  Tm0  1  0.877111  0.910650  0.335126  1
  Tm  Tm1  1  0.122889  0.089350  0.664874  1
  Tm  Tm2  1  0.227090  0.368430  0.177390  1
  Tm  Tm3  1  0.772910  0.631570  0.822610  1
  Ga  Ga4  1  0.990865  0.929661  0.088608  1
  Ga  Ga5  1  0.009135  0.070339  0.911392  1
  Ga  Ga6  1  0.935051  0.324818  0.805080  1
  Ga  Ga7  1  0.064949  0.675182  0.194920  1
  Ga  Ga8  1  0.896663  0.660617  0.546056  1
  Ga  Ga9  1  0.103337  0.339383  0.453944  1
  Ga  Ga10  1  0.799068  0.393712  0.008153  1
  Ga  Ga11  1  0.200932  0.606288  0.991847  1
  Ga  Ga12  1  0.741736  0.217793  0.298737  1
  Ga  Ga13  1  0.258264  0.782207  0.701263  1
  Ga  Ga14  1  0.697317  0.099616  0.505748  1
  Ga  Ga15  1  0.302683  0.900384  0.494252  1
  Ga  Ga16  1  0.614025  0.472885  0.299069  1
  Ga  Ga17  1  0.385975  0.527115  0.700931  1
  Ga  Ga18  1  0.603100  0.793859  0.999939  1
  Ga  Ga19  1  0.396900  0.206141  0.000061  1
  Ga  Ga20  1  0.456681  0.716083  0.370553  1
  Ga  Ga21  1  0.543319  0.283917  0.629447  1
  Ga  Ga22  1  0.363920  0.064876  0.207285  1
  Ga  Ga23  1  0.636080  0.935124  0.792715  1
  Pd  Pd24  1  0.500000  0.500000  0.500000  1
  Pt  Pt25  1  0.972409  0.426243  0.628938  1
  Pt  Pt26  1  0.027591  0.573757  0.371062  1
  Pt  Pt27  1  0.860488  0.166701  0.112321  1
  Pt  Pt28  1  0.139512  0.833299  0.887679  1
  Pt  Pt29  1  0.757851  0.875153  0.609147  1
  Pt  Pt30  1  0.242149  0.124847  0.390853  1
  Pt  Pt31  1  0.656447  0.577415  0.109691  1
  Pt  Pt32  1  0.343553  0.422585  0.890309  1
  Pt  Pt33  1  0.492643  0.830576  0.184136  1
  Pt  Pt34  1  0.507357  0.169424  0.815864  1
