# generated using pymatgen
data_Ho4AlZnRu6
_symmetry_space_group_name_H-M   'P 1'
_cell_length_a   5.39920688
_cell_length_b   5.35930150
_cell_length_c   8.59851155
_cell_angle_alpha   89.24843600
_cell_angle_beta   90.00015259
_cell_angle_gamma   120.26127365
_symmetry_Int_Tables_number   1
_chemical_formula_structural   Ho4AlZnRu6
_chemical_formula_sum   'Ho4 Al1 Zn1 Ru6'
_cell_volume   214.87830426
_cell_formula_units_Z   1
loop_
 _symmetry_equiv_pos_site_id
 _symmetry_equiv_pos_as_xyz
  1  'x, y, z'
loop_
 _atom_site_type_symbol
 _atom_site_label
 _atom_site_symmetry_multiplicity
 _atom_site_fract_x
 _atom_site_fract_y
 _atom_site_fract_z
 _atom_site_occupancy
  Ho  Ho0  1  0.666396  0.332741  0.566779  1
  Ho  Ho1  1  0.336548  0.673078  0.426619  1
  Ho  Ho2  1  0.331250  0.662565  0.063203  1
  Ho  Ho3  1  0.667615  0.335279  0.937298  1
  Al  Al4  1  0.991896  0.983788  0.495510  1
  Zn  Zn5  1  0.169089  0.338096  0.752142  1
  Ru  Ru6  1  0.994880  0.989823  0.007796  1
  Ru  Ru7  1  0.181085  0.840336  0.747584  1
  Ru  Ru8  1  0.659338  0.840340  0.747550  1
  Ru  Ru9  1  0.829221  0.658504  0.247385  1
  Ru  Ru10  1  0.826840  0.172721  0.254072  1
  Ru  Ru11  1  0.345842  0.172728  0.254063  1
