# generated using pymatgen
data_Nd3HoTmPb3
_symmetry_space_group_name_H-M   'P 1'
_cell_length_a   6.74819700
_cell_length_b   9.25539865
_cell_length_c   9.25594500
_cell_angle_alpha   119.99804195
_cell_angle_beta   90.00005023
_cell_angle_gamma   89.99988743
_symmetry_Int_Tables_number   1
_chemical_formula_structural   Nd3HoTmPb3
_chemical_formula_sum   'Nd6 Ho2 Tm2 Pb6'
_cell_volume   500.65994539
_cell_formula_units_Z   2
loop_
 _symmetry_equiv_pos_site_id
 _symmetry_equiv_pos_as_xyz
  1  'x, y, z'
loop_
 _atom_site_type_symbol
 _atom_site_label
 _atom_site_symmetry_multiplicity
 _atom_site_fract_x
 _atom_site_fract_y
 _atom_site_fract_z
 _atom_site_occupancy
  Nd  Nd0  1  0.750096  0.240140  0.000000  1
  Nd  Nd1  1  0.750093  0.759787  0.759817  1
  Nd  Nd2  1  0.750093  0.999970  0.240183  1
  Nd  Nd3  1  0.249906  0.759861  0.000000  1
  Nd  Nd4  1  0.249901  0.240214  0.240185  1
  Nd  Nd5  1  0.249901  0.000029  0.759815  1
  Ho  Ho6  1  0.499997  0.333334  0.666696  1
  Ho  Ho7  1  0.499997  0.666637  0.333304  1
  Tm  Tm8  1  0.999999  0.666666  0.333301  1
  Tm  Tm9  1  0.999999  0.333365  0.666699  1
  Pb  Pb10  1  0.750227  0.601752  0.000000  1
  Pb  Pb11  1  0.750232  0.398212  0.398191  1
  Pb  Pb12  1  0.750232  0.000020  0.601809  1
  Pb  Pb13  1  0.249774  0.398248  0.000000  1
  Pb  Pb14  1  0.249779  0.601787  0.601809  1
  Pb  Pb15  1  0.249779  0.999978  0.398191  1
