# generated using pymatgen
data_Ni4Hg3BrO8
_symmetry_space_group_name_H-M   'P 1'
_cell_length_a   5.48740173
_cell_length_b   6.36463579
_cell_length_c   7.10702170
_cell_angle_alpha   63.43530432
_cell_angle_beta   104.91661822
_cell_angle_gamma   89.95951908
_symmetry_Int_Tables_number   1
_chemical_formula_structural   Ni4Hg3BrO8
_chemical_formula_sum   'Ni4 Hg3 Br1 O8'
_cell_volume   212.59438321
_cell_formula_units_Z   1
loop_
 _symmetry_equiv_pos_site_id
 _symmetry_equiv_pos_as_xyz
  1  'x, y, z'
loop_
 _atom_site_type_symbol
 _atom_site_label
 _atom_site_symmetry_multiplicity
 _atom_site_fract_x
 _atom_site_fract_y
 _atom_site_fract_z
 _atom_site_occupancy
  Ni  Ni0  1  0.498161  0.750668  0.498866  1
  Ni  Ni1  1  0.999999  0.999887  0.500006  1
  Ni  Ni2  1  0.501837  0.249609  0.501113  1
  Ni  Ni3  1  0.999992  0.499838  0.500011  1
  Hg  Hg4  1  0.499909  0.250076  0.999990  1
  Hg  Hg5  1  0.999995  0.500003  0.999991  1
  Hg  Hg6  1  0.500096  0.749934  0.000005  1
  Br  Br7  1  0.000018  0.999940  0.000042  1
  O  O8  1  0.111234  0.832402  0.335504  1
  O  O9  1  0.611392  0.083427  0.334196  1
  O  O10  1  0.112920  0.331888  0.335438  1
  O  O11  1  0.611511  0.582784  0.334354  1
  O  O12  1  0.887083  0.667861  0.664554  1
  O  O13  1  0.388615  0.916841  0.665803  1
  O  O14  1  0.888755  0.167358  0.664482  1
  O  O15  1  0.388485  0.417482  0.665646  1
