# generated using pymatgen
data_La16Cd4FeCo2Cu
_symmetry_space_group_name_H-M   'P 1'
_cell_length_a   10.07495548
_cell_length_b   9.99078288
_cell_length_c   9.98058755
_cell_angle_alpha   60.07405961
_cell_angle_beta   59.36211222
_cell_angle_gamma   60.25690971
_symmetry_Int_Tables_number   1
_chemical_formula_structural   La16Cd4FeCo2Cu
_chemical_formula_sum   'La16 Cd4 Fe1 Co2 Cu1'
_cell_volume   708.62347717
_cell_formula_units_Z   1
loop_
 _symmetry_equiv_pos_site_id
 _symmetry_equiv_pos_as_xyz
  1  'x, y, z'
loop_
 _atom_site_type_symbol
 _atom_site_label
 _atom_site_symmetry_multiplicity
 _atom_site_fract_x
 _atom_site_fract_y
 _atom_site_fract_z
 _atom_site_occupancy
  La  La0  1  0.936450  0.942184  0.561392  1
  La  La1  1  0.561627  0.940511  0.564250  1
  La  La2  1  0.555143  0.942940  0.940484  1
  La  La3  1  0.686236  0.693734  0.310963  1
  La  La4  1  0.161867  0.151731  0.535755  1
  La  La5  1  0.304836  0.707096  0.682039  1
  La  La6  1  0.145222  0.150365  0.166992  1
  La  La7  1  0.543781  0.147711  0.159022  1
  La  La8  1  0.310965  0.691520  0.310454  1
  La  La9  1  0.310213  0.310869  0.675266  1
  La  La10  1  0.713084  0.314973  0.661201  1
  La  La11  1  0.939027  0.557806  0.563944  1
  La  La12  1  0.556317  0.557947  0.943465  1
  La  La13  1  0.147031  0.538548  0.164373  1
  La  La14  1  0.686661  0.313555  0.309383  1
  La  La15  1  0.937699  0.556162  0.939413  1
  Cd  Cd16  1  0.235721  0.921235  0.922188  1
  Cd  Cd17  1  0.921068  0.920442  0.922384  1
  Cd  Cd18  1  0.919958  0.919190  0.239508  1
  Cd  Cd19  1  0.922447  0.235493  0.920929  1
  Fe  Fe20  1  0.912951  0.350084  0.382865  1
  Co  Co21  1  0.363517  0.920737  0.351890  1
  Co  Co22  1  0.365780  0.359017  0.352069  1
  Cu  Cu23  1  0.362395  0.356149  0.919766  1
