# generated using pymatgen
data_PdPtCl4
_symmetry_space_group_name_H-M   'P 1'
_cell_length_a   8.63923870
_cell_length_b   8.63923759
_cell_length_c   8.63923710
_cell_angle_alpha   108.13873991
_cell_angle_beta   108.13873613
_cell_angle_gamma   108.13873567
_symmetry_Int_Tables_number   1
_chemical_formula_structural   PdPtCl4
_chemical_formula_sum   'Pd3 Pt3 Cl12'
_cell_volume   519.41408865
_cell_formula_units_Z   3
loop_
 _symmetry_equiv_pos_site_id
 _symmetry_equiv_pos_as_xyz
  1  'x, y, z'
loop_
 _atom_site_type_symbol
 _atom_site_label
 _atom_site_symmetry_multiplicity
 _atom_site_fract_x
 _atom_site_fract_y
 _atom_site_fract_z
 _atom_site_occupancy
  Pd  Pd0  1  0.928745  0.928745  0.689394  1
  Pd  Pd1  1  0.689394  0.928745  0.928745  1
  Pd  Pd2  1  0.928745  0.689394  0.928745  1
  Pt  Pt3  1  0.069802  0.309900  0.069802  1
  Pt  Pt4  1  0.069802  0.069802  0.309900  1
  Pt  Pt5  1  0.309900  0.069802  0.069802  1
  Cl  Cl6  1  0.000618  0.237276  0.766561  1
  Cl  Cl7  1  0.766561  0.000618  0.237276  1
  Cl  Cl8  1  0.237276  0.766561  0.000618  1
  Cl  Cl9  1  0.000618  0.766561  0.237276  1
  Cl  Cl10  1  0.237276  0.000618  0.766561  1
  Cl  Cl11  1  0.766561  0.237276  0.000618  1
  Cl  Cl12  1  0.136911  0.372674  0.372674  1
  Cl  Cl13  1  0.372674  0.372674  0.136911  1
  Cl  Cl14  1  0.372674  0.136911  0.372674  1
  Cl  Cl15  1  0.625173  0.862095  0.625173  1
  Cl  Cl16  1  0.862095  0.625173  0.625173  1
  Cl  Cl17  1  0.625173  0.625173  0.862095  1
