# generated using pymatgen
data_TbTm3SiBr6
_symmetry_space_group_name_H-M   'P 1'
_cell_length_a   4.01773900
_cell_length_b   13.15261378
_cell_length_c   13.88434197
_cell_angle_alpha   90.37105840
_cell_angle_beta   90.00000000
_cell_angle_gamma   90.00000000
_symmetry_Int_Tables_number   1
_chemical_formula_structural   TbTm3SiBr6
_chemical_formula_sum   'Tb2 Tm6 Si2 Br12'
_cell_volume   733.68557864
_cell_formula_units_Z   2
loop_
 _symmetry_equiv_pos_site_id
 _symmetry_equiv_pos_as_xyz
  1  'x, y, z'
loop_
 _atom_site_type_symbol
 _atom_site_label
 _atom_site_symmetry_multiplicity
 _atom_site_fract_x
 _atom_site_fract_y
 _atom_site_fract_z
 _atom_site_occupancy
  Tb  Tb0  1  0.000000  0.619335  0.920620  1
  Tb  Tb1  1  0.000000  0.380665  0.079380  1
  Tm  Tm2  1  0.500000  0.116993  0.342699  1
  Tm  Tm3  1  0.500000  0.883007  0.657301  1
  Tm  Tm4  1  0.500000  0.618067  0.158445  1
  Tm  Tm5  1  0.500000  0.381933  0.841555  1
  Tm  Tm6  1  0.000000  0.116421  0.577620  1
  Tm  Tm7  1  0.000000  0.883579  0.422380  1
  Si  Si8  1  0.500000  0.000000  0.500000  1
  Si  Si9  1  0.500000  0.500000  0.000000  1
  Br  Br10  1  0.500000  0.240647  0.166378  1
  Br  Br11  1  0.500000  0.759353  0.833622  1
  Br  Br12  1  0.500000  0.747148  0.337221  1
  Br  Br13  1  0.500000  0.252852  0.662779  1
  Br  Br14  1  0.000000  0.253982  0.412136  1
  Br  Br15  1  0.000000  0.746018  0.587864  1
  Br  Br16  1  0.000000  0.755662  0.092797  1
  Br  Br17  1  0.000000  0.244338  0.907203  1
  Br  Br18  1  0.000000  0.001618  0.244569  1
  Br  Br19  1  0.000000  0.998382  0.755431  1
  Br  Br20  1  0.000000  0.506324  0.258865  1
  Br  Br21  1  0.000000  0.493676  0.741135  1
