# generated using pymatgen
data_Er3Tm3FeCoSi6
_symmetry_space_group_name_H-M   'P 1'
_cell_length_a   5.57426208
_cell_length_b   5.57426080
_cell_length_c   13.32492165
_cell_angle_alpha   70.42742109
_cell_angle_beta   70.42742499
_cell_angle_gamma   43.50792149
_symmetry_Int_Tables_number   1
_chemical_formula_structural   Er3Tm3FeCoSi6
_chemical_formula_sum   'Er3 Tm3 Fe1 Co1 Si6'
_cell_volume   265.85854128
_cell_formula_units_Z   1
loop_
 _symmetry_equiv_pos_site_id
 _symmetry_equiv_pos_as_xyz
  1  'x, y, z'
loop_
 _atom_site_type_symbol
 _atom_site_label
 _atom_site_symmetry_multiplicity
 _atom_site_fract_x
 _atom_site_fract_y
 _atom_site_fract_z
 _atom_site_occupancy
  Er  Er0  1  0.476750  0.476750  0.379254  1
  Er  Er1  1  0.399520  0.399520  0.919510  1
  Er  Er2  1  0.600408  0.600408  0.081506  1
  Tm  Tm3  1  0.747742  0.747742  0.771061  1
  Tm  Tm4  1  0.252029  0.252029  0.228877  1
  Tm  Tm5  1  0.525117  0.525117  0.620423  1
  Fe  Fe6  1  0.247090  0.247090  0.582347  1
  Co  Co7  1  0.752145  0.752145  0.416453  1
  Si  Si8  1  0.140322  0.140322  0.456611  1
  Si  Si9  1  0.856824  0.856824  0.544166  1
  Si  Si10  1  0.115789  0.115789  0.924257  1
  Si  Si11  1  0.884614  0.884614  0.076036  1
  Si  Si12  1  0.055046  0.055046  0.757396  1
  Si  Si13  1  0.946603  0.946603  0.242104  1
