# generated using pymatgen
data_TbEr3Al14(Ga2Ir3)2
_symmetry_space_group_name_H-M   'P 1'
_cell_length_a   7.53054500
_cell_length_b   7.52901861
_cell_length_c   9.51772100
_cell_angle_alpha   90.00000000
_cell_angle_beta   90.00000000
_cell_angle_gamma   119.54278314
_symmetry_Int_Tables_number   1
_chemical_formula_structural   TbEr3Al14(Ga2Ir3)2
_chemical_formula_sum   'Tb1 Er3 Al14 Ga4 Ir6'
_cell_volume   469.47329125
_cell_formula_units_Z   1
loop_
 _symmetry_equiv_pos_site_id
 _symmetry_equiv_pos_as_xyz
  1  'x, y, z'
loop_
 _atom_site_type_symbol
 _atom_site_label
 _atom_site_symmetry_multiplicity
 _atom_site_fract_x
 _atom_site_fract_y
 _atom_site_fract_z
 _atom_site_occupancy
  Tb  Tb0  1  0.330081  0.006726  0.750000  1
  Er  Er1  1  0.997158  0.673084  0.250000  1
  Er  Er2  1  0.002736  0.326962  0.750000  1
  Er  Er3  1  0.670030  0.993290  0.250000  1
  Al  Al4  1  0.000739  0.334910  0.073050  1
  Al  Al5  1  0.998557  0.664378  0.927432  1
  Al  Al6  1  0.998557  0.664378  0.572568  1
  Al  Al7  1  0.335330  0.001410  0.426171  1
  Al  Al8  1  0.000739  0.334910  0.426950  1
  Al  Al9  1  0.665418  0.998582  0.572579  1
  Al  Al10  1  0.665418  0.998582  0.927421  1
  Al  Al11  1  0.335330  0.001410  0.073829  1
  Al  Al12  1  0.333279  0.334346  0.554419  1
  Al  Al13  1  0.666667  0.666354  0.444927  1
  Al  Al14  1  0.666667  0.666354  0.055073  1
  Al  Al15  1  0.333279  0.334346  0.945581  1
  Al  Al16  1  0.549664  0.339123  0.250000  1
  Al  Al17  1  0.450668  0.660353  0.750000  1
  Ga  Ga18  1  0.129520  0.130368  0.250000  1
  Ga  Ga19  1  0.869507  0.869171  0.750000  1
  Ga  Ga20  1  0.338481  0.546560  0.250000  1
  Ga  Ga21  1  0.662292  0.454440  0.750000  1
  Ir  Ir22  1  0.671824  0.328052  0.002764  1
  Ir  Ir23  1  0.328500  0.672010  0.997779  1
  Ir  Ir24  1  0.328500  0.672010  0.502221  1
  Ir  Ir25  1  0.671824  0.328052  0.497236  1
  Ir  Ir26  1  0.999617  0.999920  0.000289  1
  Ir  Ir27  1  0.999617  0.999920  0.499711  1
