# generated using pymatgen
data_Ho7TmTi11Si16Ag
_symmetry_space_group_name_H-M   'P 1'
_cell_length_a   7.04449512
_cell_length_b   7.04485699
_cell_length_c   12.86700006
_cell_angle_alpha   90.07407226
_cell_angle_beta   89.92855760
_cell_angle_gamma   89.66670560
_symmetry_Int_Tables_number   1
_chemical_formula_structural   Ho7TmTi11Si16Ag
_chemical_formula_sum   'Ho7 Tm1 Ti11 Si16 Ag1'
_cell_volume   638.54469942
_cell_formula_units_Z   1
loop_
 _symmetry_equiv_pos_site_id
 _symmetry_equiv_pos_as_xyz
  1  'x, y, z'
loop_
 _atom_site_type_symbol
 _atom_site_label
 _atom_site_symmetry_multiplicity
 _atom_site_fract_x
 _atom_site_fract_y
 _atom_site_fract_z
 _atom_site_occupancy
  Ho  Ho0  1  0.497755  0.840320  0.716631  1
  Ho  Ho1  1  0.500808  0.158091  0.214592  1
  Ho  Ho2  1  0.840302  0.497840  0.283323  1
  Ho  Ho3  1  0.158142  0.500915  0.785469  1
  Ho  Ho4  1  0.656433  0.000668  0.968235  1
  Ho  Ho5  1  0.002405  0.340800  0.533439  1
  Ho  Ho6  1  0.000635  0.656416  0.031721  1
  Tm  Tm7  1  0.341054  0.002004  0.466529  1
  Ti  Ti8  1  0.173846  0.826687  0.250188  1
  Ti  Ti9  1  0.826685  0.173752  0.749881  1
  Ti  Ti10  1  0.672906  0.673158  0.500003  1
  Ti  Ti11  1  0.148209  0.007668  0.876857  1
  Ti  Ti12  1  0.495213  0.650720  0.123594  1
  Ti  Ti13  1  0.507453  0.350173  0.625166  1
  Ti  Ti14  1  0.650695  0.495157  0.876415  1
  Ti  Ti15  1  0.350200  0.507605  0.374815  1
  Ti  Ti16  1  0.849875  0.992391  0.374630  1
  Ti  Ti17  1  0.007751  0.148132  0.123125  1
  Ti  Ti18  1  0.992479  0.849805  0.625333  1
  Si  Si19  1  0.202219  0.132141  0.684011  1
  Si  Si20  1  0.373672  0.718697  0.929127  1
  Si  Si21  1  0.631056  0.294133  0.432537  1
  Si  Si22  1  0.718745  0.373611  0.070767  1
  Si  Si23  1  0.294370  0.631825  0.567326  1
  Si  Si24  1  0.797495  0.867851  0.182766  1
  Si  Si25  1  0.132585  0.201875  0.316081  1
  Si  Si26  1  0.867843  0.797378  0.817191  1
  Si  Si27  1  0.286142  0.938251  0.066298  1
  Si  Si28  1  0.546202  0.791959  0.314751  1
  Si  Si29  1  0.455586  0.207313  0.808882  1
  Si  Si30  1  0.791735  0.546672  0.685500  1
  Si  Si31  1  0.207268  0.455625  0.191187  1
  Si  Si32  1  0.708419  0.047405  0.564331  1
  Si  Si33  1  0.938217  0.286211  0.933710  1
  Si  Si34  1  0.047885  0.709044  0.435581  1
  Ag  Ag35  1  0.327710  0.327706  0.000007  1
