# generated using pymatgen
data_Er8Os3WC8
_symmetry_space_group_name_H-M   'P 1'
_cell_length_a   5.06181800
_cell_length_b   6.50222520
_cell_length_c   9.74875358
_cell_angle_alpha   89.68458278
_cell_angle_beta   90.00000000
_cell_angle_gamma   90.00000000
_symmetry_Int_Tables_number   1
_chemical_formula_structural   Er8Os3WC8
_chemical_formula_sum   'Er8 Os3 W1 C8'
_cell_volume   320.85665007
_cell_formula_units_Z   1
loop_
 _symmetry_equiv_pos_site_id
 _symmetry_equiv_pos_as_xyz
  1  'x, y, z'
loop_
 _atom_site_type_symbol
 _atom_site_label
 _atom_site_symmetry_multiplicity
 _atom_site_fract_x
 _atom_site_fract_y
 _atom_site_fract_z
 _atom_site_occupancy
  Er  Er0  1  0.250000  0.677771  0.554842  1
  Er  Er1  1  0.750000  0.323381  0.444095  1
  Er  Er2  1  0.750000  0.824853  0.056010  1
  Er  Er3  1  0.250000  0.179794  0.943621  1
  Er  Er4  1  0.250000  0.532409  0.214311  1
  Er  Er5  1  0.750000  0.465918  0.780221  1
  Er  Er6  1  0.750000  0.968538  0.716467  1
  Er  Er7  1  0.250000  0.030882  0.285166  1
  Os  Os8  1  0.750000  0.281428  0.134010  1
  Os  Os9  1  0.750000  0.779628  0.365375  1
  Os  Os10  1  0.250000  0.221418  0.631110  1
  W  W11  1  0.250000  0.718980  0.868870  1
  C  C12  1  0.250000  0.450689  0.759455  1
  C  C13  1  0.750000  0.545305  0.242316  1
  C  C14  1  0.750000  0.046384  0.259112  1
  C  C15  1  0.250000  0.955685  0.739790  1
  C  C16  1  0.250000  0.826116  0.058853  1
  C  C17  1  0.750000  0.173503  0.948407  1
  C  C18  1  0.750000  0.671952  0.552516  1
  C  C19  1  0.250000  0.325365  0.445453  1
