# generated using pymatgen
data_Ho3Tm(HfRh)4
_symmetry_space_group_name_H-M   'P 1'
_cell_length_a   4.58064600
_cell_length_b   6.98189749
_cell_length_c   8.23065583
_cell_angle_alpha   89.98312981
_cell_angle_beta   90.00000000
_cell_angle_gamma   90.00000000
_symmetry_Int_Tables_number   1
_chemical_formula_structural   Ho3Tm(HfRh)4
_chemical_formula_sum   'Ho3 Tm1 Hf4 Rh4'
_cell_volume   263.22953764
_cell_formula_units_Z   1
loop_
 _symmetry_equiv_pos_site_id
 _symmetry_equiv_pos_as_xyz
  1  'x, y, z'
loop_
 _atom_site_type_symbol
 _atom_site_label
 _atom_site_symmetry_multiplicity
 _atom_site_fract_x
 _atom_site_fract_y
 _atom_site_fract_z
 _atom_site_occupancy
  Ho  Ho0  1  0.250000  0.516203  0.178019  1
  Ho  Ho1  1  0.750000  0.483690  0.822139  1
  Ho  Ho2  1  0.750000  0.983904  0.677293  1
  Tm  Tm3  1  0.250000  0.016741  0.322612  1
  Hf  Hf4  1  0.250000  0.640854  0.573220  1
  Hf  Hf5  1  0.750000  0.358867  0.426172  1
  Hf  Hf6  1  0.750000  0.859707  0.074637  1
  Hf  Hf7  1  0.250000  0.140130  0.926783  1
  Rh  Rh8  1  0.250000  0.767652  0.910844  1
  Rh  Rh9  1  0.750000  0.232085  0.089644  1
  Rh  Rh10  1  0.750000  0.733009  0.410305  1
  Rh  Rh11  1  0.250000  0.267158  0.588330  1
