# generated using pymatgen
data_Dy6Zn14Ru9
_symmetry_space_group_name_H-M   'P 1'
_cell_length_a   8.98027500
_cell_length_b   8.90689068
_cell_length_c   8.85774796
_cell_angle_alpha   119.69379069
_cell_angle_beta   90.00000000
_cell_angle_gamma   120.27291818
_symmetry_Int_Tables_number   1
_chemical_formula_structural   Dy6Zn14Ru9
_chemical_formula_sum   'Dy6 Zn14 Ru9'
_cell_volume   501.22344185
_cell_formula_units_Z   1
loop_
 _symmetry_equiv_pos_site_id
 _symmetry_equiv_pos_as_xyz
  1  'x, y, z'
loop_
 _atom_site_type_symbol
 _atom_site_label
 _atom_site_symmetry_multiplicity
 _atom_site_fract_x
 _atom_site_fract_y
 _atom_site_fract_z
 _atom_site_occupancy
  Dy  Dy0  1  0.215777  0.005844  0.212886  1
  Dy  Dy1  1  0.213205  0.426410  0.217615  1
  Dy  Dy2  1  0.790065  0.005844  0.212886  1
  Dy  Dy3  1  0.212946  0.001993  0.793186  1
  Dy  Dy4  1  0.786941  0.573884  0.782859  1
  Dy  Dy5  1  0.789046  0.001993  0.793187  1
  Zn  Zn6  1  0.829341  0.658682  0.168278  1
  Zn  Zn7  1  0.620141  0.240283  0.381328  1
  Zn  Zn8  1  0.136728  0.763166  0.383706  1
  Zn  Zn9  1  0.626438  0.763166  0.383706  1
  Zn  Zn10  1  0.828521  0.657041  0.482216  1
  Zn  Zn11  1  0.493655  0.987311  0.486318  1
  Zn  Zn12  1  0.171370  0.342741  0.512667  1
  Zn  Zn13  1  0.377210  0.248323  0.626795  1
  Zn  Zn14  1  0.376440  0.752879  0.627834  1
  Zn  Zn15  1  0.871113  0.248323  0.626796  1
  Zn  Zn16  1  0.168555  0.337109  0.827065  1
  Zn  Zn17  1  0.166477  0.658798  0.828385  1
  Zn  Zn18  1  0.492319  0.658798  0.828385  1
  Zn  Zn19  1  0.618592  0.237185  0.854372  1
  Ru  Ru20  1  0.501481  0.002966  0.008442  1
  Ru  Ru21  1  0.006696  0.496592  0.011192  1
  Ru  Ru22  1  0.489896  0.496592  0.011192  1
  Ru  Ru23  1  0.372322  0.744644  0.114791  1
  Ru  Ru24  1  0.529257  0.352562  0.171605  1
  Ru  Ru25  1  0.823305  0.352562  0.171605  1
  Ru  Ru26  1  0.000837  0.001674  0.499201  1
  Ru  Ru27  1  0.994612  0.491314  0.490745  1
  Ru  Ru28  1  0.496701  0.491314  0.490745  1
