# generated using pymatgen
data_Ho4MnMoRu6
_symmetry_space_group_name_H-M   'P 1'
_cell_length_a   5.47127088
_cell_length_b   5.12198149
_cell_length_c   9.02285500
_cell_angle_alpha   90.00000000
_cell_angle_beta   90.00000000
_cell_angle_gamma   122.48877187
_symmetry_Int_Tables_number   1
_chemical_formula_structural   Ho4MnMoRu6
_chemical_formula_sum   'Ho4 Mn1 Mo1 Ru6'
_cell_volume   213.28170262
_cell_formula_units_Z   1
loop_
 _symmetry_equiv_pos_site_id
 _symmetry_equiv_pos_as_xyz
  1  'x, y, z'
loop_
 _atom_site_type_symbol
 _atom_site_label
 _atom_site_symmetry_multiplicity
 _atom_site_fract_x
 _atom_site_fract_y
 _atom_site_fract_z
 _atom_site_occupancy
  Ho  Ho0  1  0.673088  0.346767  0.562638  1
  Ho  Ho1  1  0.333879  0.667867  0.431020  1
  Ho  Ho2  1  0.333879  0.667867  0.068980  1
  Ho  Ho3  1  0.673088  0.346767  0.937362  1
  Mn  Mn4  1  0.822107  0.644274  0.250000  1
  Mo  Mo5  1  0.160586  0.321235  0.750000  1
  Ru  Ru6  1  0.003726  0.007498  0.495230  1
  Ru  Ru7  1  0.003726  0.007498  0.004770  1
  Ru  Ru8  1  0.171486  0.821562  0.750000  1
  Ru  Ru9  1  0.651774  0.821960  0.750000  1
  Ru  Ru10  1  0.832469  0.173511  0.250000  1
  Ru  Ru11  1  0.340191  0.173196  0.250000  1
