# generated using pymatgen
data_HoMg3P6N13
_symmetry_space_group_name_H-M   'P 1'
_cell_length_a   7.13662710
_cell_length_b   7.13662826
_cell_length_c   7.13662693
_cell_angle_alpha   109.31044198
_cell_angle_beta   109.31043974
_cell_angle_gamma   109.31043951
_symmetry_Int_Tables_number   1
_chemical_formula_structural   HoMg3P6N13
_chemical_formula_sum   'Ho1 Mg3 P6 N13'
_cell_volume   281.45939171
_cell_formula_units_Z   1
loop_
 _symmetry_equiv_pos_site_id
 _symmetry_equiv_pos_as_xyz
  1  'x, y, z'
loop_
 _atom_site_type_symbol
 _atom_site_label
 _atom_site_symmetry_multiplicity
 _atom_site_fract_x
 _atom_site_fract_y
 _atom_site_fract_z
 _atom_site_occupancy
  Ho  Ho0  1  0.288772  0.288772  0.288772  1
  Mg  Mg1  1  0.992114  0.696812  0.992114  1
  Mg  Mg2  1  0.696812  0.992114  0.992114  1
  Mg  Mg3  1  0.992114  0.992114  0.696812  1
  P  P4  1  0.503845  0.251650  0.756559  1
  P  P5  1  0.503845  0.756559  0.251650  1
  P  P6  1  0.756559  0.251650  0.503845  1
  P  P7  1  0.251650  0.503845  0.756559  1
  P  P8  1  0.756559  0.503845  0.251650  1
  P  P9  1  0.251650  0.756559  0.503845  1
  N  N10  1  0.984995  0.984995  0.984995  1
  N  N11  1  0.001331  0.733305  0.448824  1
  N  N12  1  0.270762  0.715599  0.270762  1
  N  N13  1  0.279554  0.558744  0.558744  1
  N  N14  1  0.558744  0.558744  0.279554  1
  N  N15  1  0.558744  0.279554  0.558744  1
  N  N16  1  0.733305  0.001331  0.448824  1
  N  N17  1  0.448824  0.001331  0.733305  1
  N  N18  1  0.733305  0.448824  0.001331  1
  N  N19  1  0.270762  0.270762  0.715599  1
  N  N20  1  0.715599  0.270762  0.270762  1
  N  N21  1  0.001331  0.448824  0.733305  1
  N  N22  1  0.448824  0.733305  0.001331  1
