# generated using pymatgen
data_LiAc3MnC6
_symmetry_space_group_name_H-M   'P 1'
_cell_length_a   8.76689600
_cell_length_b   8.76689617
_cell_length_c   5.42297800
_cell_angle_alpha   90.00000000
_cell_angle_beta   90.00000000
_cell_angle_gamma   119.99998426
_symmetry_Int_Tables_number   1
_chemical_formula_structural   LiAc3MnC6
_chemical_formula_sum   'Li2 Ac6 Mn2 C12'
_cell_volume   360.96098316
_cell_formula_units_Z   2
loop_
 _symmetry_equiv_pos_site_id
 _symmetry_equiv_pos_as_xyz
  1  'x, y, z'
loop_
 _atom_site_type_symbol
 _atom_site_label
 _atom_site_symmetry_multiplicity
 _atom_site_fract_x
 _atom_site_fract_y
 _atom_site_fract_z
 _atom_site_occupancy
  Li  Li0  1  0.000000  0.000000  0.500000  1
  Li  Li1  1  0.000000  0.000000  0.000000  1
  Ac  Ac2  1  0.611337  0.682886  0.750000  1
  Ac  Ac3  1  0.928451  0.611337  0.250000  1
  Ac  Ac4  1  0.682886  0.071549  0.250000  1
  Ac  Ac5  1  0.317114  0.928451  0.750000  1
  Ac  Ac6  1  0.071549  0.388663  0.750000  1
  Ac  Ac7  1  0.388663  0.317114  0.250000  1
  Mn  Mn8  1  0.666667  0.333333  0.750000  1
  Mn  Mn9  1  0.333333  0.666667  0.250000  1
  C  C10  1  0.966818  0.731436  0.750000  1
  C  C11  1  0.235381  0.966818  0.250000  1
  C  C12  1  0.731436  0.764619  0.250000  1
  C  C13  1  0.268564  0.235381  0.750000  1
  C  C14  1  0.764619  0.033182  0.750000  1
  C  C15  1  0.033182  0.268564  0.250000  1
  C  C16  1  0.845167  0.560400  0.750000  1
  C  C17  1  0.284766  0.845167  0.250000  1
  C  C18  1  0.560400  0.715234  0.250000  1
  C  C19  1  0.439600  0.284766  0.750000  1
  C  C20  1  0.154833  0.439600  0.250000  1
  C  C21  1  0.715234  0.154833  0.750000  1
