# generated using pymatgen
data_Dy6Tm10MgIn3Rh4
_symmetry_space_group_name_H-M   'P 1'
_cell_length_a   9.59061102
_cell_length_b   9.56749497
_cell_length_c   9.58186272
_cell_angle_alpha   60.03075073
_cell_angle_beta   60.04778477
_cell_angle_gamma   59.88276523
_symmetry_Int_Tables_number   1
_chemical_formula_structural   Dy6Tm10MgIn3Rh4
_chemical_formula_sum   'Dy6 Tm10 Mg1 In3 Rh4'
_cell_volume   621.51303525
_cell_formula_units_Z   1
loop_
 _symmetry_equiv_pos_site_id
 _symmetry_equiv_pos_as_xyz
  1  'x, y, z'
loop_
 _atom_site_type_symbol
 _atom_site_label
 _atom_site_symmetry_multiplicity
 _atom_site_fract_x
 _atom_site_fract_y
 _atom_site_fract_z
 _atom_site_occupancy
  Dy  Dy0  1  0.061740  0.061500  0.437834  1
  Dy  Dy1  1  0.435412  0.064826  0.435007  1
  Dy  Dy2  1  0.061320  0.438132  0.061441  1
  Dy  Dy3  1  0.049195  0.649443  0.649478  1
  Dy  Dy4  1  0.435605  0.435258  0.064190  1
  Dy  Dy5  1  0.649639  0.048626  0.649797  1
  Tm  Tm6  1  0.187004  0.813763  0.186560  1
  Tm  Tm7  1  0.186516  0.186656  0.813846  1
  Tm  Tm8  1  0.809574  0.809891  0.190776  1
  Tm  Tm9  1  0.439137  0.060057  0.060349  1
  Tm  Tm10  1  0.813947  0.186931  0.186326  1
  Tm  Tm11  1  0.062333  0.436857  0.436993  1
  Tm  Tm12  1  0.810327  0.190501  0.810517  1
  Tm  Tm13  1  0.190494  0.810499  0.810259  1
  Tm  Tm14  1  0.649594  0.649796  0.047372  1
  Tm  Tm15  1  0.651373  0.651621  0.652209  1
  Mg  Mg16  1  0.423069  0.423487  0.422121  1
  In  In17  1  0.747949  0.418658  0.417731  1
  In  In18  1  0.418998  0.747754  0.417047  1
  In  In19  1  0.418423  0.417810  0.747943  1
  Rh  Rh20  1  0.858891  0.857347  0.424229  1
  Rh  Rh21  1  0.856390  0.856995  0.859535  1
  Rh  Rh22  1  0.425133  0.857903  0.860030  1
  Rh  Rh23  1  0.857938  0.425689  0.858412  1
