# generated using pymatgen
data_Sr12Nb3OsO22
_symmetry_space_group_name_H-M   'P 1'
_cell_length_a   6.04812963
_cell_length_b   6.02926719
_cell_length_c   23.97327100
_cell_angle_alpha   58.50539920
_cell_angle_beta   59.00307281
_cell_angle_gamma   59.96016338
_symmetry_Int_Tables_number   1
_chemical_formula_structural   Sr12Nb3OsO22
_chemical_formula_sum   'Sr12 Nb3 Os1 O22'
_cell_volume   606.06075796
_cell_formula_units_Z   1
loop_
 _symmetry_equiv_pos_site_id
 _symmetry_equiv_pos_as_xyz
  1  'x, y, z'
loop_
 _atom_site_type_symbol
 _atom_site_label
 _atom_site_symmetry_multiplicity
 _atom_site_fract_x
 _atom_site_fract_y
 _atom_site_fract_z
 _atom_site_occupancy
  Sr  Sr0  1  0.115749  0.332285  0.077397  1
  Sr  Sr1  1  0.441043  0.615008  0.107868  1
  Sr  Sr2  1  0.181358  0.358016  0.290684  1
  Sr  Sr3  1  0.366126  0.543938  0.388462  1
  Sr  Sr4  1  0.630354  0.801334  0.204608  1
  Sr  Sr5  1  0.220473  0.243350  0.579504  1
  Sr  Sr6  1  0.505684  0.513908  0.609163  1
  Sr  Sr7  1  0.224888  0.295499  0.791327  1
  Sr  Sr8  1  0.649239  0.859153  0.420091  1
  Sr  Sr9  1  0.456238  0.476436  0.888182  1
  Sr  Sr10  1  0.682697  0.744964  0.706600  1
  Sr  Sr11  1  0.725892  0.762005  0.916867  1
  Nb  Nb12  1  0.000259  0.047033  0.998118  1
  Nb  Nb13  1  0.905242  0.080873  0.248740  1
  Nb  Nb14  1  0.936234  0.968713  0.498618  1
  Os  Os15  1  0.964722  0.013169  0.748382  1
  O  O16  1  0.086334  0.382984  0.183280  1
  O  O17  1  0.211405  0.846860  0.191062  1
  O  O18  1  0.814999  0.378513  0.025748  1
  O  O19  1  0.782816  0.832663  0.079121  1
  O  O20  1  0.686123  0.229995  0.187464  1
  O  O21  1  0.603813  0.333362  0.300907  1
  O  O22  1  0.145368  0.191502  0.417642  1
  O  O23  1  0.111345  0.930762  0.313303  1
  O  O24  1  0.733996  0.770657  0.314963  1
  O  O25  1  0.604923  0.159535  0.470153  1
  O  O26  1  0.728970  0.065368  0.579685  1
  O  O27  1  0.143687  0.793691  0.685811  1
  O  O28  1  0.268334  0.707907  0.527444  1
  O  O29  1  0.332362  0.045547  0.998323  1
  O  O30  1  0.935573  0.635532  0.499158  1
  O  O31  1  0.758808  0.325308  0.684829  1
  O  O32  1  0.256677  0.186785  0.694234  1
  O  O33  1  0.785149  0.224486  0.810820  1
  O  O34  1  0.259276  0.716828  0.969140  1
  O  O35  1  0.184122  0.706720  0.810431  1
  O  O36  1  0.658570  0.850520  0.804691  1
  O  O37  1  0.896655  0.260288  0.917404  1
