# generated using pymatgen
data_Dy16Tm3ThSn16
_symmetry_space_group_name_H-M   'P 1'
_cell_length_a   8.06052266
_cell_length_b   8.18026487
_cell_length_c   15.47449800
_cell_angle_alpha   90.03112643
_cell_angle_beta   89.67752785
_cell_angle_gamma   89.85388172
_symmetry_Int_Tables_number   1
_chemical_formula_structural   Dy16Tm3ThSn16
_chemical_formula_sum   'Dy16 Tm3 Th1 Sn16'
_cell_volume   1020.32559353
_cell_formula_units_Z   1
loop_
 _symmetry_equiv_pos_site_id
 _symmetry_equiv_pos_as_xyz
  1  'x, y, z'
loop_
 _atom_site_type_symbol
 _atom_site_label
 _atom_site_symmetry_multiplicity
 _atom_site_fract_x
 _atom_site_fract_y
 _atom_site_fract_z
 _atom_site_occupancy
  Dy  Dy0  1  0.366574  0.836346  0.877008  1
  Dy  Dy1  1  0.868841  0.663701  0.621149  1
  Dy  Dy2  1  0.629996  0.161921  0.377313  1
  Dy  Dy3  1  0.133082  0.337292  0.123546  1
  Dy  Dy4  1  0.633538  0.162318  0.123552  1
  Dy  Dy5  1  0.131289  0.338625  0.377837  1
  Dy  Dy6  1  0.370362  0.838382  0.622241  1
  Dy  Dy7  1  0.867002  0.661608  0.877509  1
  Dy  Dy8  1  0.523293  0.322166  0.903233  1
  Dy  Dy9  1  0.025769  0.178548  0.598679  1
  Dy  Dy10  1  0.477053  0.678203  0.401850  1
  Dy  Dy11  1  0.979257  0.821305  0.098034  1
  Dy  Dy12  1  0.479080  0.677863  0.097624  1
  Dy  Dy13  1  0.976645  0.821726  0.401923  1
  Dy  Dy14  1  0.522245  0.323312  0.595999  1
  Dy  Dy15  1  0.198381  0.501513  0.748992  1
  Tm  Tm16  1  0.698614  0.996395  0.748744  1
  Tm  Tm17  1  0.800996  0.497197  0.250887  1
  Tm  Tm18  1  0.301159  0.002607  0.250234  1
  Th  Th19  1  0.017079  0.179675  0.903872  1
  Sn  Sn20  1  0.294839  0.035363  0.043035  1
  Sn  Sn21  1  0.790797  0.463415  0.457398  1
  Sn  Sn22  1  0.710183  0.966872  0.542179  1
  Sn  Sn23  1  0.208180  0.536179  0.958364  1
  Sn  Sn24  1  0.702402  0.959085  0.959274  1
  Sn  Sn25  1  0.208793  0.538246  0.541381  1
  Sn  Sn26  1  0.291001  0.036152  0.457662  1
  Sn  Sn27  1  0.793767  0.461727  0.042186  1
  Sn  Sn28  1  0.565756  0.619754  0.749570  1
  Sn  Sn29  1  0.064652  0.879967  0.750541  1
  Sn  Sn30  1  0.435102  0.381844  0.250116  1
  Sn  Sn31  1  0.935145  0.118488  0.250892  1
  Sn  Sn32  1  0.334366  0.148836  0.750062  1
  Sn  Sn33  1  0.827902  0.353520  0.747689  1
  Sn  Sn34  1  0.668639  0.850086  0.249573  1
  Sn  Sn35  1  0.168226  0.649764  0.249854  1
