# generated using pymatgen
data_Dy2ReTcOs2
_symmetry_space_group_name_H-M   'P 1'
_cell_length_a   5.36601654
_cell_length_b   5.25687113
_cell_length_c   9.00212200
_cell_angle_alpha   90.00000000
_cell_angle_beta   90.00000000
_cell_angle_gamma   119.32941221
_symmetry_Int_Tables_number   1
_chemical_formula_structural   Dy2ReTcOs2
_chemical_formula_sum   'Dy4 Re2 Tc2 Os4'
_cell_volume   221.38593823
_cell_formula_units_Z   2
loop_
 _symmetry_equiv_pos_site_id
 _symmetry_equiv_pos_as_xyz
  1  'x, y, z'
loop_
 _atom_site_type_symbol
 _atom_site_label
 _atom_site_symmetry_multiplicity
 _atom_site_fract_x
 _atom_site_fract_y
 _atom_site_fract_z
 _atom_site_occupancy
  Dy  Dy0  1  0.333176  0.666589  0.435054  1
  Dy  Dy1  1  0.668103  0.334051  0.564411  1
  Dy  Dy2  1  0.668103  0.334051  0.935589  1
  Dy  Dy3  1  0.333176  0.666589  0.064946  1
  Re  Re4  1  0.162322  0.829162  0.750000  1
  Re  Re5  1  0.162322  0.333161  0.750000  1
  Tc  Tc6  1  0.830425  0.167565  0.250000  1
  Tc  Tc7  1  0.830425  0.662858  0.250000  1
  Os  Os8  1  0.010092  0.005047  0.500174  1
  Os  Os9  1  0.010092  0.005047  0.999826  1
  Os  Os10  1  0.349608  0.174803  0.250000  1
  Os  Os11  1  0.642154  0.821078  0.750000  1
