# generated using pymatgen
data_SmCoCuO5
_symmetry_space_group_name_H-M   'P 1'
_cell_length_a   5.63456600
_cell_length_b   7.66687300
_cell_length_c   8.45350300
_cell_angle_alpha   90.00000000
_cell_angle_beta   90.00000000
_cell_angle_gamma   90.00000000
_symmetry_Int_Tables_number   1
_chemical_formula_structural   SmCoCuO5
_chemical_formula_sum   'Sm4 Co4 Cu4 O20'
_cell_volume   365.18711918
_cell_formula_units_Z   4
loop_
 _symmetry_equiv_pos_site_id
 _symmetry_equiv_pos_as_xyz
  1  'x, y, z'
loop_
 _atom_site_type_symbol
 _atom_site_label
 _atom_site_symmetry_multiplicity
 _atom_site_fract_x
 _atom_site_fract_y
 _atom_site_fract_z
 _atom_site_occupancy
  Sm  Sm0  1  0.000000  0.347923  0.674138  1
  Sm  Sm1  1  0.000000  0.652077  0.325862  1
  Sm  Sm2  1  0.000000  0.847923  0.825862  1
  Sm  Sm3  1  0.000000  0.152077  0.174138  1
  Co  Co4  1  0.259244  0.500000  0.000000  1
  Co  Co5  1  0.740756  0.000000  0.500000  1
  Co  Co6  1  0.740756  0.500000  0.000000  1
  Co  Co7  1  0.259244  0.000000  0.500000  1
  Cu  Cu8  1  0.500000  0.068484  0.846078  1
  Cu  Cu9  1  0.500000  0.931516  0.153922  1
  Cu  Cu10  1  0.500000  0.568484  0.653922  1
  Cu  Cu11  1  0.500000  0.431516  0.346078  1
  O  O12  1  0.245188  0.911259  0.291988  1
  O  O13  1  0.245188  0.088741  0.708012  1
  O  O14  1  0.754812  0.411259  0.208012  1
  O  O15  1  0.754812  0.588741  0.791988  1
  O  O16  1  0.754812  0.088741  0.708012  1
  O  O17  1  0.754812  0.911259  0.291988  1
  O  O18  1  0.245188  0.588741  0.791988  1
  O  O19  1  0.245188  0.411259  0.208012  1
  O  O20  1  0.500000  0.352842  0.942058  1
  O  O21  1  0.500000  0.647158  0.057942  1
  O  O22  1  0.500000  0.852842  0.557942  1
  O  O23  1  0.500000  0.147158  0.442058  1
  O  O24  1  0.274903  0.000000  0.000000  1
  O  O25  1  0.725097  0.500000  0.500000  1
  O  O26  1  0.725097  0.000000  0.000000  1
  O  O27  1  0.274903  0.500000  0.500000  1
  O  O28  1  0.000000  0.158128  0.450672  1
  O  O29  1  0.000000  0.841872  0.549328  1
  O  O30  1  0.000000  0.658128  0.049328  1
  O  O31  1  0.000000  0.341872  0.950672  1
