# generated using pymatgen
data_Er2CrSbO7
_symmetry_space_group_name_H-M   'P 1'
_cell_length_a   7.23999654
_cell_length_b   7.21268128
_cell_length_c   7.30210400
_cell_angle_alpha   90.00009483
_cell_angle_beta   59.71608695
_cell_angle_gamma   119.87487917
_symmetry_Int_Tables_number   1
_chemical_formula_structural   Er2CrSbO7
_chemical_formula_sum   'Er4 Cr2 Sb2 O14'
_cell_volume   268.97829127
_cell_formula_units_Z   2
loop_
 _symmetry_equiv_pos_site_id
 _symmetry_equiv_pos_as_xyz
  1  'x, y, z'
loop_
 _atom_site_type_symbol
 _atom_site_label
 _atom_site_symmetry_multiplicity
 _atom_site_fract_x
 _atom_site_fract_y
 _atom_site_fract_z
 _atom_site_occupancy
  Er  Er0  1  0.500069  0.500047  0.999918  1
  Er  Er1  1  0.500000  0.000047  0.000019  1
  Er  Er2  1  0.000200  0.999984  0.499990  1
  Er  Er3  1  0.999729  0.999750  0.000274  1
  Cr  Cr4  1  0.500147  0.000081  0.500034  1
  Cr  Cr5  1  0.499904  0.499913  0.500028  1
  Sb  Sb6  1  0.000050  0.500024  0.999905  1
  Sb  Sb7  1  0.000041  0.499955  0.499885  1
  O  O8  1  0.255547  0.127809  0.122213  1
  O  O9  1  0.744455  0.872261  0.877760  1
  O  O10  1  0.684031  0.842022  0.407978  1
  O  O11  1  0.834914  0.417503  0.832475  1
  O  O12  1  0.252647  0.833023  0.838137  1
  O  O13  1  0.252752  0.419727  0.409197  1
  O  O14  1  0.252691  0.419741  0.838038  1
  O  O15  1  0.252638  0.832919  0.409290  1
  O  O16  1  0.315764  0.157865  0.592111  1
  O  O17  1  0.165227  0.582657  0.167316  1
  O  O18  1  0.747287  0.167105  0.162045  1
  O  O19  1  0.747374  0.580300  0.590635  1
  O  O20  1  0.747282  0.580291  0.162013  1
  O  O21  1  0.747253  0.166975  0.590739  1
