# generated using pymatgen
data_Dy2Th(AlNi)3
_symmetry_space_group_name_H-M   'P 1'
_cell_length_a   6.92741084
_cell_length_b   7.04968313
_cell_length_c   3.96612500
_cell_angle_alpha   90.00000000
_cell_angle_beta   90.00000000
_cell_angle_gamma   120.58560799
_symmetry_Int_Tables_number   1
_chemical_formula_structural   Dy2Th(AlNi)3
_chemical_formula_sum   'Dy2 Th1 Al3 Ni3'
_cell_volume   166.74178419
_cell_formula_units_Z   1
loop_
 _symmetry_equiv_pos_site_id
 _symmetry_equiv_pos_as_xyz
  1  'x, y, z'
loop_
 _atom_site_type_symbol
 _atom_site_label
 _atom_site_symmetry_multiplicity
 _atom_site_fract_x
 _atom_site_fract_y
 _atom_site_fract_z
 _atom_site_occupancy
  Dy  Dy0  1  0.417284  0.416958  0.500000  1
  Dy  Dy1  1  0.582716  0.999674  0.500000  1
  Th  Th2  1  0.000000  0.579672  0.500000  1
  Al  Al3  1  0.758658  0.767233  0.000000  1
  Al  Al4  1  0.241342  0.008576  0.000000  1
  Al  Al5  1  0.000000  0.225173  0.000000  1
  Ni  Ni6  1  0.323362  0.665355  0.000000  1
  Ni  Ni7  1  0.676638  0.341992  0.000000  1
  Ni  Ni8  1  0.000000  0.995368  0.500000  1
