# generated using pymatgen
data_PrDy2Ho3Ta2O14
_symmetry_space_group_name_H-M   'P 1'
_cell_length_a   6.50114291
_cell_length_b   6.50106160
_cell_length_c   7.53105206
_cell_angle_alpha   89.88100301
_cell_angle_beta   90.13487041
_cell_angle_gamma   108.73670898
_symmetry_Int_Tables_number   1
_chemical_formula_structural   PrDy2Ho3Ta2O14
_chemical_formula_sum   'Pr1 Dy2 Ho3 Ta2 O14'
_cell_volume   301.42560271
_cell_formula_units_Z   1
loop_
 _symmetry_equiv_pos_site_id
 _symmetry_equiv_pos_as_xyz
  1  'x, y, z'
loop_
 _atom_site_type_symbol
 _atom_site_label
 _atom_site_symmetry_multiplicity
 _atom_site_fract_x
 _atom_site_fract_y
 _atom_site_fract_z
 _atom_site_occupancy
  Pr  Pr0  1  0.515047  0.515186  0.500132  1
  Dy  Dy1  1  0.460718  0.460730  0.999894  1
  Dy  Dy2  1  0.999508  0.534993  0.239832  1
  Ho  Ho3  1  0.998440  0.466053  0.746086  1
  Ho  Ho4  1  0.534535  0.999976  0.760238  1
  Ho  Ho5  1  0.466197  0.998428  0.253882  1
  Ta  Ta6  1  0.001519  0.001432  0.500185  1
  Ta  Ta7  1  0.997112  0.997186  0.999836  1
  O  O8  1  0.932711  0.067364  0.749597  1
  O  O9  1  0.067452  0.933220  0.250382  1
  O  O10  1  0.358529  0.642987  0.239128  1
  O  O11  1  0.642877  0.357300  0.760849  1
  O  O12  1  0.365803  0.633005  0.760489  1
  O  O13  1  0.631690  0.365204  0.239548  1
  O  O14  1  0.327005  0.080470  0.974442  1
  O  O15  1  0.674954  0.926190  0.473025  1
  O  O16  1  0.314257  0.060142  0.541950  1
  O  O17  1  0.692366  0.951869  0.042760  1
  O  O18  1  0.060573  0.314101  0.458719  1
  O  O19  1  0.951703  0.692424  0.956704  1
  O  O20  1  0.925975  0.674947  0.527442  1
  O  O21  1  0.081028  0.326792  0.024881  1
