# generated using pymatgen
data_Li4Yb3ThSi8
_symmetry_space_group_name_H-M   'P 1'
_cell_length_a   3.81777200
_cell_length_b   7.83256505
_cell_length_c   10.56181600
_cell_angle_alpha   89.80314053
_cell_angle_beta   90.00000000
_cell_angle_gamma   90.00000000
_symmetry_Int_Tables_number   1
_chemical_formula_structural   Li4Yb3ThSi8
_chemical_formula_sum   'Li4 Yb3 Th1 Si8'
_cell_volume   315.82756562
_cell_formula_units_Z   1
loop_
 _symmetry_equiv_pos_site_id
 _symmetry_equiv_pos_as_xyz
  1  'x, y, z'
loop_
 _atom_site_type_symbol
 _atom_site_label
 _atom_site_symmetry_multiplicity
 _atom_site_fract_x
 _atom_site_fract_y
 _atom_site_fract_z
 _atom_site_occupancy
  Li  Li0  1  0.250000  0.997482  0.388272  1
  Li  Li1  1  0.750000  0.998833  0.606798  1
  Li  Li2  1  0.250000  0.498472  0.110771  1
  Li  Li3  1  0.750000  0.509905  0.888181  1
  Yb  Yb4  1  0.750000  0.865079  0.136047  1
  Yb  Yb5  1  0.250000  0.633542  0.634302  1
  Yb  Yb6  1  0.750000  0.364559  0.367937  1
  Th  Th7  1  0.250000  0.132743  0.866072  1
  Si  Si8  1  0.750000  0.269478  0.066377  1
  Si  Si9  1  0.250000  0.739103  0.932963  1
  Si  Si10  1  0.750000  0.765552  0.431597  1
  Si  Si11  1  0.250000  0.229588  0.570150  1
  Si  Si12  1  0.750000  0.836280  0.819918  1
  Si  Si13  1  0.250000  0.164436  0.174072  1
  Si  Si14  1  0.750000  0.330223  0.682697  1
  Si  Si15  1  0.250000  0.664724  0.323848  1
