# generated using pymatgen
data_Dy10Er3Tm7(CoBi2)4
_symmetry_space_group_name_H-M   'P 1'
_cell_length_a   7.93776303
_cell_length_b   8.88172134
_cell_length_c   12.42508989
_cell_angle_alpha   89.98742409
_cell_angle_beta   89.96341967
_cell_angle_gamma   90.00900694
_symmetry_Int_Tables_number   1
_chemical_formula_structural   Dy10Er3Tm7(CoBi2)4
_chemical_formula_sum   'Dy10 Er3 Tm7 Co4 Bi8'
_cell_volume   875.98104334
_cell_formula_units_Z   1
loop_
 _symmetry_equiv_pos_site_id
 _symmetry_equiv_pos_as_xyz
  1  'x, y, z'
loop_
 _atom_site_type_symbol
 _atom_site_label
 _atom_site_symmetry_multiplicity
 _atom_site_fract_x
 _atom_site_fract_y
 _atom_site_fract_z
 _atom_site_occupancy
  Dy  Dy0  1  0.653975  0.749865  0.699155  1
  Dy  Dy1  1  0.346067  0.250057  0.300836  1
  Dy  Dy2  1  0.153645  0.249967  0.800700  1
  Dy  Dy3  1  0.846300  0.750049  0.199467  1
  Dy  Dy4  1  0.120325  0.750184  0.814507  1
  Dy  Dy5  1  0.879784  0.249885  0.185600  1
  Dy  Dy6  1  0.620511  0.250271  0.685569  1
  Dy  Dy7  1  0.380161  0.749637  0.314293  1
  Dy  Dy8  1  0.554161  0.749988  0.997142  1
  Dy  Dy9  1  0.445809  0.249992  0.002857  1
  Er  Er10  1  0.053460  0.250336  0.502963  1
  Er  Er11  1  0.945214  0.749801  0.497048  1
  Er  Er12  1  0.326321  0.963592  0.563952  1
  Tm  Tm13  1  0.827825  0.463362  0.935922  1
  Tm  Tm14  1  0.172236  0.536669  0.064180  1
  Tm  Tm15  1  0.327567  0.536549  0.563976  1
  Tm  Tm16  1  0.172273  0.963288  0.064183  1
  Tm  Tm17  1  0.672462  0.463183  0.435738  1
  Tm  Tm18  1  0.827771  0.036616  0.935957  1
  Tm  Tm19  1  0.672588  0.036610  0.435827  1
  Co  Co20  1  0.937434  0.750000  0.993463  1
  Co  Co21  1  0.062640  0.249980  0.006677  1
  Co  Co22  1  0.437334  0.250251  0.506545  1
  Co  Co23  1  0.563713  0.749674  0.493181  1
  Bi  Bi24  1  0.933354  0.007569  0.672958  1
  Bi  Bi25  1  0.066405  0.992501  0.327364  1
  Bi  Bi26  1  0.433826  0.992662  0.826645  1
  Bi  Bi27  1  0.066180  0.507469  0.327160  1
  Bi  Bi28  1  0.566396  0.007488  0.173351  1
  Bi  Bi29  1  0.934054  0.492651  0.672951  1
  Bi  Bi30  1  0.566572  0.492438  0.173232  1
  Bi  Bi31  1  0.433636  0.507412  0.826605  1
