# generated using pymatgen
data_Ca3TbTi4O12
_symmetry_space_group_name_H-M   'P 1'
_cell_length_a   7.70952800
_cell_length_b   5.39308998
_cell_length_c   5.54039087
_cell_angle_alpha   89.86490873
_cell_angle_beta   90.00000000
_cell_angle_gamma   90.00000000
_symmetry_Int_Tables_number   1
_chemical_formula_structural   Ca3TbTi4O12
_chemical_formula_sum   'Ca3 Tb1 Ti4 O12'
_cell_volume   230.35871895
_cell_formula_units_Z   1
loop_
 _symmetry_equiv_pos_site_id
 _symmetry_equiv_pos_as_xyz
  1  'x, y, z'
loop_
 _atom_site_type_symbol
 _atom_site_label
 _atom_site_symmetry_multiplicity
 _atom_site_fract_x
 _atom_site_fract_y
 _atom_site_fract_z
 _atom_site_occupancy
  Ca  Ca0  1  0.500000  0.490308  0.548727  1
  Ca  Ca1  1  0.000000  0.992040  0.954109  1
  Ca  Ca2  1  0.000000  0.509651  0.452294  1
  Tb  Tb3  1  0.500000  0.011192  0.059872  1
  Ti  Ti4  1  0.248235  0.998185  0.503163  1
  Ti  Ti5  1  0.751752  0.502548  0.998977  1
  Ti  Ti6  1  0.751765  0.998185  0.503163  1
  Ti  Ti7  1  0.248248  0.502548  0.998977  1
  O  O8  1  0.500000  0.593053  0.976931  1
  O  O9  1  0.500000  0.919071  0.472756  1
  O  O10  1  0.000000  0.423914  0.021968  1
  O  O11  1  0.000000  0.080462  0.522933  1
  O  O12  1  0.786344  0.798615  0.202682  1
  O  O13  1  0.208831  0.702132  0.703738  1
  O  O14  1  0.297890  0.198929  0.798999  1
  O  O15  1  0.702275  0.289745  0.287646  1
  O  O16  1  0.702110  0.198929  0.798999  1
  O  O17  1  0.297725  0.289745  0.287646  1
  O  O18  1  0.213656  0.798615  0.202682  1
  O  O19  1  0.791169  0.702132  0.703738  1
