# generated using pymatgen
data_YCr2(MoC2)2
_symmetry_space_group_name_H-M   'P 1'
_cell_length_a   5.75745372
_cell_length_b   5.75745377
_cell_length_c   6.12893268
_cell_angle_alpha   93.37768356
_cell_angle_beta   95.24969197
_cell_angle_gamma   147.12755517
_symmetry_Int_Tables_number   1
_chemical_formula_structural   YCr2(MoC2)2
_chemical_formula_sum   'Y1 Cr2 Mo2 C4'
_cell_volume   106.28810971
_cell_formula_units_Z   1
loop_
 _symmetry_equiv_pos_site_id
 _symmetry_equiv_pos_as_xyz
  1  'x, y, z'
loop_
 _atom_site_type_symbol
 _atom_site_label
 _atom_site_symmetry_multiplicity
 _atom_site_fract_x
 _atom_site_fract_y
 _atom_site_fract_z
 _atom_site_occupancy
  Y  Y0  1  0.000000  0.000000  0.000000  1
  Cr  Cr1  1  0.640346  0.188173  0.828517  1
  Cr  Cr2  1  0.359654  0.811827  0.171483  1
  Mo  Mo3  1  0.831939  0.625832  0.457771  1
  Mo  Mo4  1  0.168061  0.374168  0.542229  1
  C  C5  1  0.255257  0.607812  0.863068  1
  C  C6  1  0.744743  0.392188  0.136932  1
  C  C7  1  0.588085  0.734141  0.322226  1
  C  C8  1  0.411915  0.265859  0.677774  1
