# generated using pymatgen
data_Nd4Dy2Si3Ge
_symmetry_space_group_name_H-M   'P 1'
_cell_length_a   7.63547029
_cell_length_b   7.63547117
_cell_length_c   4.40791000
_cell_angle_alpha   90.00000000
_cell_angle_beta   90.00000000
_cell_angle_gamma   90.64449874
_symmetry_Int_Tables_number   1
_chemical_formula_structural   Nd4Dy2Si3Ge
_chemical_formula_sum   'Nd4 Dy2 Si3 Ge1'
_cell_volume   256.96671659
_cell_formula_units_Z   1
loop_
 _symmetry_equiv_pos_site_id
 _symmetry_equiv_pos_as_xyz
  1  'x, y, z'
loop_
 _atom_site_type_symbol
 _atom_site_label
 _atom_site_symmetry_multiplicity
 _atom_site_fract_x
 _atom_site_fract_y
 _atom_site_fract_z
 _atom_site_occupancy
  Nd  Nd0  1  0.679138  0.176483  0.500000  1
  Nd  Nd1  1  0.323517  0.820862  0.500000  1
  Nd  Nd2  1  0.174848  0.325152  0.500000  1
  Nd  Nd3  1  0.824065  0.675935  0.500000  1
  Dy  Dy4  1  0.500990  0.502861  0.000000  1
  Dy  Dy5  1  0.997139  0.999010  0.000000  1
  Si  Si6  1  0.114014  0.613209  0.000000  1
  Si  Si7  1  0.886791  0.385986  0.000000  1
  Si  Si8  1  0.616622  0.883378  0.000000  1
  Ge  Ge9  1  0.382876  0.117124  0.000000  1
