# generated using pymatgen
data_Nd3Gd16ErPb16
_symmetry_space_group_name_H-M   'P 1'
_cell_length_a   8.22429985
_cell_length_b   8.30843802
_cell_length_c   15.68432400
_cell_angle_alpha   90.02357085
_cell_angle_beta   90.28233837
_cell_angle_gamma   89.88634095
_symmetry_Int_Tables_number   1
_chemical_formula_structural   Nd3Gd16ErPb16
_chemical_formula_sum   'Nd3 Gd16 Er1 Pb16'
_cell_volume   1071.71167812
_cell_formula_units_Z   1
loop_
 _symmetry_equiv_pos_site_id
 _symmetry_equiv_pos_as_xyz
  1  'x, y, z'
loop_
 _atom_site_type_symbol
 _atom_site_label
 _atom_site_symmetry_multiplicity
 _atom_site_fract_x
 _atom_site_fract_y
 _atom_site_fract_z
 _atom_site_occupancy
  Nd  Nd0  1  0.028206  0.178230  0.097863  1
  Nd  Nd1  1  0.472730  0.678583  0.903207  1
  Nd  Nd2  1  0.969319  0.821317  0.596830  1
  Gd  Gd3  1  0.623300  0.158910  0.619153  1
  Gd  Gd4  1  0.126373  0.341020  0.879507  1
  Gd  Gd5  1  0.373486  0.842144  0.121619  1
  Gd  Gd6  1  0.875141  0.658405  0.379648  1
  Gd  Gd7  1  0.377384  0.842354  0.379765  1
  Gd  Gd8  1  0.874449  0.657996  0.121325  1
  Gd  Gd9  1  0.624353  0.158763  0.880094  1
  Gd  Gd10  1  0.121755  0.341449  0.619705  1
  Gd  Gd11  1  0.464861  0.676393  0.599480  1
  Gd  Gd12  1  0.968939  0.821666  0.901843  1
  Gd  Gd13  1  0.531418  0.321944  0.098858  1
  Gd  Gd14  1  0.035134  0.177396  0.399643  1
  Gd  Gd15  1  0.532988  0.323540  0.400929  1
  Gd  Gd16  1  0.792072  0.494799  0.750227  1
  Gd  Gd17  1  0.293084  0.004742  0.749268  1
  Gd  Gd18  1  0.207742  0.503933  0.250908  1
  Er  Er19  1  0.707694  0.995751  0.249725  1
  Pb  Pb20  1  0.717979  0.970909  0.454092  1
  Pb  Pb21  1  0.215722  0.534800  0.044113  1
  Pb  Pb22  1  0.284117  0.033549  0.956210  1
  Pb  Pb23  1  0.779926  0.466896  0.542966  1
  Pb  Pb24  1  0.285404  0.036301  0.542242  1
  Pb  Pb25  1  0.788331  0.460938  0.958162  1
  Pb  Pb26  1  0.711813  0.961910  0.043225  1
  Pb  Pb27  1  0.216768  0.534781  0.457220  1
  Pb  Pb28  1  0.427748  0.377766  0.749575  1
  Pb  Pb29  1  0.927067  0.122079  0.750138  1
  Pb  Pb30  1  0.571924  0.623492  0.250172  1
  Pb  Pb31  1  0.069928  0.878111  0.250731  1
  Pb  Pb32  1  0.660003  0.850254  0.749132  1
  Pb  Pb33  1  0.158724  0.649615  0.751121  1
  Pb  Pb34  1  0.344489  0.151553  0.250128  1
  Pb  Pb35  1  0.839629  0.347708  0.251178  1
