# generated using pymatgen
data_Tb3Zn2Co9B4
_symmetry_space_group_name_H-M   'P 1'
_cell_length_a   5.10582395
_cell_length_b   5.10836977
_cell_length_c   9.65713700
_cell_angle_alpha   89.99988782
_cell_angle_beta   90.00022417
_cell_angle_gamma   120.08362349
_symmetry_Int_Tables_number   1
_chemical_formula_structural   Tb3Zn2Co9B4
_chemical_formula_sum   'Tb3 Zn2 Co9 B4'
_cell_volume   217.95187673
_cell_formula_units_Z   1
loop_
 _symmetry_equiv_pos_site_id
 _symmetry_equiv_pos_as_xyz
  1  'x, y, z'
loop_
 _atom_site_type_symbol
 _atom_site_label
 _atom_site_symmetry_multiplicity
 _atom_site_fract_x
 _atom_site_fract_y
 _atom_site_fract_z
 _atom_site_occupancy
  Tb  Tb0  1  0.999984  0.000000  0.999655  1
  Tb  Tb1  1  0.999997  0.000001  0.342375  1
  Tb  Tb2  1  0.000002  0.000000  0.658256  1
  Zn  Zn3  1  0.333369  0.666626  0.999735  1
  Zn  Zn4  1  0.666604  0.333372  0.999735  1
  Co  Co5  1  0.499998  0.000000  0.500044  1
  Co  Co6  1  0.499998  0.500001  0.500049  1
  Co  Co7  1  0.999998  0.499999  0.500051  1
  Co  Co8  1  0.499994  0.000000  0.210267  1
  Co  Co9  1  0.499992  0.500001  0.210236  1
  Co  Co10  1  0.999991  0.499999  0.210285  1
  Co  Co11  1  0.500000  0.000000  0.789488  1
  Co  Co12  1  0.499998  0.500001  0.789465  1
  Co  Co13  1  0.999997  0.499999  0.789478  1
  B  B14  1  0.333278  0.666667  0.351051  1
  B  B15  1  0.666709  0.333334  0.351051  1
  B  B16  1  0.666865  0.333320  0.649391  1
  B  B17  1  0.333128  0.666680  0.649391  1
