# generated using pymatgen
data_HoLu15(In3Co)2
_symmetry_space_group_name_H-M   'P 1'
_cell_length_a   10.15630600
_cell_length_b   10.15630650
_cell_length_c   6.88487200
_cell_angle_alpha   90.00000000
_cell_angle_beta   90.00000000
_cell_angle_gamma   120.00000490
_symmetry_Int_Tables_number   1
_chemical_formula_structural   HoLu15(In3Co)2
_chemical_formula_sum   'Ho1 Lu15 In6 Co2'
_cell_volume   615.03248702
_cell_formula_units_Z   1
loop_
 _symmetry_equiv_pos_site_id
 _symmetry_equiv_pos_as_xyz
  1  'x, y, z'
loop_
 _atom_site_type_symbol
 _atom_site_label
 _atom_site_symmetry_multiplicity
 _atom_site_fract_x
 _atom_site_fract_y
 _atom_site_fract_z
 _atom_site_occupancy
  Ho  Ho0  1  0.000000  0.000000  0.994562  1
  Lu  Lu1  1  0.464988  0.535012  0.481289  1
  Lu  Lu2  1  0.070024  0.535012  0.481289  1
  Lu  Lu3  1  0.464988  0.929976  0.481289  1
  Lu  Lu4  1  0.535160  0.464840  0.981558  1
  Lu  Lu5  1  0.929679  0.464840  0.981558  1
  Lu  Lu6  1  0.535160  0.070321  0.981558  1
  Lu  Lu7  1  0.820339  0.179661  0.277558  1
  Lu  Lu8  1  0.359322  0.179661  0.277558  1
  Lu  Lu9  1  0.820339  0.640678  0.277558  1
  Lu  Lu10  1  0.179819  0.820181  0.775513  1
  Lu  Lu11  1  0.640363  0.820181  0.775513  1
  Lu  Lu12  1  0.179819  0.359637  0.775513  1
  Lu  Lu13  1  0.333333  0.666667  0.091794  1
  Lu  Lu14  1  0.666667  0.333333  0.591450  1
  Lu  Lu15  1  0.000000  0.000000  0.495438  1
  In  In16  1  0.162975  0.837025  0.236303  1
  In  In17  1  0.674049  0.837025  0.236303  1
  In  In18  1  0.162975  0.325951  0.236303  1
  In  In19  1  0.837215  0.162785  0.734333  1
  In  In20  1  0.325571  0.162785  0.734333  1
  In  In21  1  0.837215  0.674429  0.734333  1
  Co  Co22  1  0.333333  0.666667  0.706113  1
  Co  Co23  1  0.666667  0.333333  0.205528  1
