# generated using pymatgen
data_Tb8Y11HoPb16
_symmetry_space_group_name_H-M   'P 1'
_cell_length_a   8.22378823
_cell_length_b   8.31091424
_cell_length_c   15.67370400
_cell_angle_alpha   90.00000000
_cell_angle_beta   90.00000000
_cell_angle_gamma   90.02734726
_symmetry_Int_Tables_number   1
_chemical_formula_structural   Tb8Y11HoPb16
_chemical_formula_sum   'Tb8 Y11 Ho1 Pb16'
_cell_volume   1071.25363986
_cell_formula_units_Z   1
loop_
 _symmetry_equiv_pos_site_id
 _symmetry_equiv_pos_as_xyz
  1  'x, y, z'
loop_
 _atom_site_type_symbol
 _atom_site_label
 _atom_site_symmetry_multiplicity
 _atom_site_fract_x
 _atom_site_fract_y
 _atom_site_fract_z
 _atom_site_occupancy
  Tb  Tb0  1  0.534039  0.323120  0.899871  1
  Tb  Tb1  1  0.034102  0.176866  0.600148  1
  Tb  Tb2  1  0.465897  0.676992  0.399839  1
  Tb  Tb3  1  0.965998  0.823192  0.100185  1
  Tb  Tb4  1  0.465897  0.676992  0.100161  1
  Tb  Tb5  1  0.965998  0.823192  0.399815  1
  Tb  Tb6  1  0.534039  0.323120  0.600129  1
  Tb  Tb7  1  0.034102  0.176866  0.899852  1
  Y  Y8  1  0.376523  0.840982  0.879524  1
  Y  Y9  1  0.876613  0.659083  0.620560  1
  Y  Y10  1  0.623281  0.158933  0.379463  1
  Y  Y11  1  0.123480  0.340776  0.120588  1
  Y  Y12  1  0.623281  0.158933  0.120537  1
  Y  Y13  1  0.123480  0.340776  0.379412  1
  Y  Y14  1  0.376523  0.840982  0.620476  1
  Y  Y15  1  0.876613  0.659083  0.879440  1
  Y  Y16  1  0.208603  0.503657  0.750000  1
  Y  Y17  1  0.708555  0.996299  0.750000  1
  Y  Y18  1  0.791404  0.496362  0.250000  1
  Ho  Ho19  1  0.291446  0.003830  0.250000  1
  Pb  Pb20  1  0.281597  0.033288  0.042867  1
  Pb  Pb21  1  0.781632  0.466659  0.457282  1
  Pb  Pb22  1  0.718419  0.966661  0.542692  1
  Pb  Pb23  1  0.218364  0.533323  0.957285  1
  Pb  Pb24  1  0.718419  0.966661  0.957308  1
  Pb  Pb25  1  0.218364  0.533323  0.542715  1
  Pb  Pb26  1  0.281597  0.033288  0.457133  1
  Pb  Pb27  1  0.781632  0.466659  0.042718  1
  Pb  Pb28  1  0.571842  0.626384  0.750000  1
  Pb  Pb29  1  0.071911  0.873565  0.750000  1
  Pb  Pb30  1  0.428048  0.373346  0.250000  1
  Pb  Pb31  1  0.928449  0.126306  0.250000  1
  Pb  Pb32  1  0.344993  0.151815  0.750000  1
  Pb  Pb33  1  0.845043  0.348259  0.750000  1
  Pb  Pb34  1  0.654718  0.848260  0.250000  1
  Pb  Pb35  1  0.155102  0.652166  0.250000  1
