# generated using pymatgen
data_Lu12Co4TcAg
_symmetry_space_group_name_H-M   'P 1'
_cell_length_a   8.07769738
_cell_length_b   8.07769746
_cell_length_c   8.07769948
_cell_angle_alpha   111.48577164
_cell_angle_beta   110.84910944
_cell_angle_gamma   106.13025126
_symmetry_Int_Tables_number   1
_chemical_formula_structural   Lu12Co4TcAg
_chemical_formula_sum   'Lu12 Co4 Tc1 Ag1'
_cell_volume   404.69329663
_cell_formula_units_Z   1
loop_
 _symmetry_equiv_pos_site_id
 _symmetry_equiv_pos_as_xyz
  1  'x, y, z'
loop_
 _atom_site_type_symbol
 _atom_site_label
 _atom_site_symmetry_multiplicity
 _atom_site_fract_x
 _atom_site_fract_y
 _atom_site_fract_z
 _atom_site_occupancy
  Lu  Lu0  1  0.422359  0.226409  0.195949  1
  Lu  Lu1  1  0.577641  0.773591  0.804051  1
  Lu  Lu2  1  0.030459  0.226409  0.804051  1
  Lu  Lu3  1  0.969541  0.773591  0.195949  1
  Lu  Lu4  1  0.182222  0.276291  0.458513  1
  Lu  Lu5  1  0.817778  0.723709  0.541487  1
  Lu  Lu6  1  0.182222  0.723709  0.905932  1
  Lu  Lu7  1  0.817778  0.276291  0.094068  1
  Lu  Lu8  1  0.313423  0.619282  0.305858  1
  Lu  Lu9  1  0.686577  0.380718  0.694142  1
  Lu  Lu10  1  0.313423  0.007566  0.694142  1
  Lu  Lu11  1  0.686577  0.992434  0.305858  1
  Co  Co12  1  0.372631  0.000000  0.372631  1
  Co  Co13  1  0.627369  0.000000  0.627369  1
  Co  Co14  1  0.112877  0.612877  0.500000  1
  Co  Co15  1  0.887123  0.387123  0.500000  1
  Tc  Tc16  1  0.000000  0.000000  0.000000  1
  Ag  Ag17  1  0.500000  0.500000  0.000000  1
