# generated using pymatgen
data_Zr15Nb(Ir2N)4
_symmetry_space_group_name_H-M   'P 1'
_cell_length_a   8.83487677
_cell_length_b   8.83487652
_cell_length_c   8.83487616
_cell_angle_alpha   59.63773669
_cell_angle_beta   59.63774191
_cell_angle_gamma   59.63773421
_symmetry_Int_Tables_number   1
_chemical_formula_structural   Zr15Nb(Ir2N)4
_chemical_formula_sum   'Zr15 Nb1 Ir8 N4'
_cell_volume   483.61145956
_cell_formula_units_Z   1
loop_
 _symmetry_equiv_pos_site_id
 _symmetry_equiv_pos_as_xyz
  1  'x, y, z'
loop_
 _atom_site_type_symbol
 _atom_site_label
 _atom_site_symmetry_multiplicity
 _atom_site_fract_x
 _atom_site_fract_y
 _atom_site_fract_z
 _atom_site_occupancy
  Zr  Zr0  1  0.125000  0.625000  0.625000  1
  Zr  Zr1  1  0.625000  0.125000  0.625000  1
  Zr  Zr2  1  0.625000  0.625000  0.125000  1
  Zr  Zr3  1  0.814880  0.814880  0.186071  1
  Zr  Zr4  1  0.183616  0.183616  0.816086  1
  Zr  Zr5  1  0.814880  0.186071  0.814880  1
  Zr  Zr6  1  0.183616  0.816086  0.183616  1
  Zr  Zr7  1  0.186071  0.814880  0.814880  1
  Zr  Zr8  1  0.816086  0.183616  0.183616  1
  Zr  Zr9  1  0.435120  0.435120  0.063929  1
  Zr  Zr10  1  0.066384  0.066384  0.433914  1
  Zr  Zr11  1  0.435120  0.063929  0.435120  1
  Zr  Zr12  1  0.066384  0.433914  0.066384  1
  Zr  Zr13  1  0.063929  0.435120  0.435120  1
  Zr  Zr14  1  0.433914  0.066384  0.066384  1
  Nb  Nb15  1  0.625000  0.625000  0.625000  1
  Ir  Ir16  1  0.766976  0.415199  0.415199  1
  Ir  Ir17  1  0.415199  0.766976  0.415199  1
  Ir  Ir18  1  0.415199  0.415199  0.766976  1
  Ir  Ir19  1  0.407815  0.407815  0.407815  1
  Ir  Ir20  1  0.483024  0.834801  0.834801  1
  Ir  Ir21  1  0.834801  0.483024  0.834801  1
  Ir  Ir22  1  0.834801  0.834801  0.483024  1
  Ir  Ir23  1  0.842185  0.842185  0.842185  1
  N  N24  1  0.625000  0.125000  0.125000  1
  N  N25  1  0.125000  0.625000  0.125000  1
  N  N26  1  0.125000  0.125000  0.625000  1
  N  N27  1  0.125000  0.125000  0.125000  1
