# generated using pymatgen
data_Cs8K4Al3GaTe12
_symmetry_space_group_name_H-M   'P 1'
_cell_length_a   14.63698049
_cell_length_b   9.09375003
_cell_length_c   11.94037800
_cell_angle_alpha   53.29571426
_cell_angle_beta   90.06411658
_cell_angle_gamma   89.94699061
_symmetry_Int_Tables_number   1
_chemical_formula_structural   Cs8K4Al3GaTe12
_chemical_formula_sum   'Cs8 K4 Al3 Ga1 Te12'
_cell_volume   1274.20731816
_cell_formula_units_Z   1
loop_
 _symmetry_equiv_pos_site_id
 _symmetry_equiv_pos_as_xyz
  1  'x, y, z'
loop_
 _atom_site_type_symbol
 _atom_site_label
 _atom_site_symmetry_multiplicity
 _atom_site_fract_x
 _atom_site_fract_y
 _atom_site_fract_z
 _atom_site_occupancy
  Cs  Cs0  1  0.909149  0.337395  0.397149  1
  Cs  Cs1  1  0.408961  0.662632  0.102793  1
  Cs  Cs2  1  0.090937  0.662552  0.602969  1
  Cs  Cs3  1  0.590835  0.337264  0.897227  1
  Cs  Cs4  1  0.191066  0.133762  0.583738  1
  Cs  Cs5  1  0.691139  0.866635  0.916123  1
  Cs  Cs6  1  0.808345  0.866596  0.416285  1
  Cs  Cs7  1  0.308923  0.133838  0.083624  1
  K  K8  1  0.612098  0.355190  0.479334  1
  K  K9  1  0.112163  0.644222  0.020865  1
  K  K10  1  0.387969  0.644504  0.520819  1
  K  K11  1  0.887910  0.355739  0.979064  1
  Al  Al12  1  0.937841  0.058196  0.845064  1
  Al  Al13  1  0.437692  0.941457  0.655458  1
  Al  Al14  1  0.062163  0.941770  0.154945  1
  Ga  Ga15  1  0.562896  0.059060  0.343180  1
  Te  Te16  1  0.394908  0.147368  0.380071  1
  Te  Te17  1  0.895588  0.852606  0.120531  1
  Te  Te18  1  0.604326  0.851514  0.622301  1
  Te  Te19  1  0.104356  0.147354  0.879462  1
  Te  Te20  1  0.677159  0.341099  0.200792  1
  Te  Te21  1  0.176165  0.661483  0.298359  1
  Te  Te22  1  0.323785  0.661436  0.798509  1
  Te  Te23  1  0.823807  0.338506  0.701644  1
  Te  Te24  1  0.556488  0.854213  0.254347  1
  Te  Te25  1  0.056576  0.143555  0.245094  1
  Te  Te26  1  0.443371  0.143704  0.745277  1
  Te  Te27  1  0.943387  0.856350  0.754979  1
