# generated using pymatgen
data_YZn2CuAgPt
_symmetry_space_group_name_H-M   'P 1'
_cell_length_a   5.19443469
_cell_length_b   5.19443489
_cell_length_c   5.24535111
_cell_angle_alpha   60.34878567
_cell_angle_beta   60.34878576
_cell_angle_gamma   60.44299730
_symmetry_Int_Tables_number   1
_chemical_formula_structural   YZn2CuAgPt
_chemical_formula_sum   'Y1 Zn2 Cu1 Ag1 Pt1'
_cell_volume   100.93781423
_cell_formula_units_Z   1
loop_
 _symmetry_equiv_pos_site_id
 _symmetry_equiv_pos_as_xyz
  1  'x, y, z'
loop_
 _atom_site_type_symbol
 _atom_site_label
 _atom_site_symmetry_multiplicity
 _atom_site_fract_x
 _atom_site_fract_y
 _atom_site_fract_z
 _atom_site_occupancy
  Y  Y0  1  0.996566  0.996566  0.005298  1
  Zn  Zn1  1  0.624456  0.132347  0.620731  1
  Zn  Zn2  1  0.132347  0.624456  0.620731  1
  Cu  Cu3  1  0.625063  0.625063  0.620754  1
  Ag  Ag4  1  0.244482  0.244482  0.263294  1
  Pt  Pt5  1  0.627083  0.627083  0.119192  1
