# generated using pymatgen
data_Cs8Co3O8
_symmetry_space_group_name_H-M   'P 1'
_cell_length_a   11.18075038
_cell_length_b   6.03685155
_cell_length_c   8.70895644
_cell_angle_alpha   89.99999305
_cell_angle_beta   72.64371459
_cell_angle_gamma   74.33773305
_symmetry_Int_Tables_number   1
_chemical_formula_structural   Cs8Co3O8
_chemical_formula_sum   'Cs8 Co3 O8'
_cell_volume   538.14916513
_cell_formula_units_Z   1
loop_
 _symmetry_equiv_pos_site_id
 _symmetry_equiv_pos_as_xyz
  1  'x, y, z'
loop_
 _atom_site_type_symbol
 _atom_site_label
 _atom_site_symmetry_multiplicity
 _atom_site_fract_x
 _atom_site_fract_y
 _atom_site_fract_z
 _atom_site_occupancy
  Cs  Cs0  1  0.059493  0.970254  0.753922  1
  Cs  Cs1  1  0.940507  0.029746  0.246078  1
  Cs  Cs2  1  0.661939  0.669030  0.458019  1
  Cs  Cs3  1  0.338061  0.330970  0.541981  1
  Cs  Cs4  1  0.790774  0.604614  0.958316  1
  Cs  Cs5  1  0.209226  0.395386  0.041684  1
  Cs  Cs6  1  0.394985  0.802507  0.194598  1
  Cs  Cs7  1  0.605015  0.197493  0.805402  1
  Co  Co8  1  0.000000  0.500000  0.500000  1
  Co  Co9  1  0.381984  0.809008  0.792645  1
  Co  Co10  1  0.618016  0.190992  0.207355  1
  O  O11  1  0.234351  0.882824  0.956637  1
  O  O12  1  0.765649  0.117176  0.043363  1
  O  O13  1  0.340503  0.829749  0.614877  1
  O  O14  1  0.659497  0.170251  0.385123  1
  O  O15  1  0.528607  0.735696  0.837764  1
  O  O16  1  0.471393  0.264304  0.162236  1
  O  O17  1  0.967313  0.516344  0.318848  1
  O  O18  1  0.032687  0.483656  0.681152  1
