# generated using pymatgen
data_Yb(Eu3Si2)3
_symmetry_space_group_name_H-M   'P 1'
_cell_length_a   9.30780925
_cell_length_b   9.30780931
_cell_length_c   9.30780950
_cell_angle_alpha   130.56735190
_cell_angle_beta   130.56734655
_cell_angle_gamma   72.50137373
_symmetry_Int_Tables_number   1
_chemical_formula_structural   Yb(Eu3Si2)3
_chemical_formula_sum   'Yb1 Eu9 Si6'
_cell_volume   454.76531405
_cell_formula_units_Z   1
loop_
 _symmetry_equiv_pos_site_id
 _symmetry_equiv_pos_as_xyz
  1  'x, y, z'
loop_
 _atom_site_type_symbol
 _atom_site_label
 _atom_site_symmetry_multiplicity
 _atom_site_fract_x
 _atom_site_fract_y
 _atom_site_fract_z
 _atom_site_occupancy
  Yb  Yb0  1  0.000000  0.000000  0.000000  1
  Eu  Eu1  1  0.534780  0.032159  0.855478  1
  Eu  Eu2  1  0.176683  0.679304  0.144522  1
  Eu  Eu3  1  0.032159  0.176683  0.497379  1
  Eu  Eu4  1  0.679304  0.534780  0.502621  1
  Eu  Eu5  1  0.465220  0.967841  0.144522  1
  Eu  Eu6  1  0.823317  0.320696  0.855478  1
  Eu  Eu7  1  0.967841  0.823317  0.502621  1
  Eu  Eu8  1  0.320696  0.465220  0.497379  1
  Eu  Eu9  1  0.500000  0.500000  0.000000  1
  Si  Si10  1  0.889905  0.388724  0.278630  1
  Si  Si11  1  0.110095  0.611276  0.721370  1
  Si  Si12  1  0.388724  0.110095  0.498819  1
  Si  Si13  1  0.611276  0.889905  0.501181  1
  Si  Si14  1  0.250296  0.250296  0.000000  1
  Si  Si15  1  0.749704  0.749704  0.000000  1
