# generated using pymatgen
data_BaGa3Pd
_symmetry_space_group_name_H-M   'P 1'
_cell_length_a   6.33745549
_cell_length_b   6.33745518
_cell_length_c   6.26704000
_cell_angle_alpha   90.00000000
_cell_angle_beta   90.00000000
_cell_angle_gamma   116.66055162
_symmetry_Int_Tables_number   1
_chemical_formula_structural   BaGa3Pd
_chemical_formula_sum   'Ba2 Ga6 Pd2'
_cell_volume   224.94409038
_cell_formula_units_Z   2
loop_
 _symmetry_equiv_pos_site_id
 _symmetry_equiv_pos_as_xyz
  1  'x, y, z'
loop_
 _atom_site_type_symbol
 _atom_site_label
 _atom_site_symmetry_multiplicity
 _atom_site_fract_x
 _atom_site_fract_y
 _atom_site_fract_z
 _atom_site_occupancy
  Ba  Ba0  1  0.236473  0.763527  0.750000  1
  Ba  Ba1  1  0.763527  0.236473  0.250000  1
  Ga  Ga2  1  0.654792  0.345208  0.750000  1
  Ga  Ga3  1  0.345208  0.654792  0.250000  1
  Ga  Ga4  1  0.725806  0.725806  0.000000  1
  Ga  Ga5  1  0.725806  0.725806  0.500000  1
  Ga  Ga6  1  0.274194  0.274194  0.000000  1
  Ga  Ga7  1  0.274194  0.274194  0.500000  1
  Pd  Pd8  1  0.899241  0.100759  0.750000  1
  Pd  Pd9  1  0.100759  0.899241  0.250000  1
