# generated using pymatgen
data_Sc2TaRe2Si3Ru
_symmetry_space_group_name_H-M   'P 1'
_cell_length_a   6.93728459
_cell_length_b   6.88082257
_cell_length_c   3.35492100
_cell_angle_alpha   90.00000000
_cell_angle_beta   90.00000000
_cell_angle_gamma   119.78111394
_symmetry_Int_Tables_number   1
_chemical_formula_structural   Sc2TaRe2Si3Ru
_chemical_formula_sum   'Sc2 Ta1 Re2 Si3 Ru1'
_cell_volume   138.99413609
_cell_formula_units_Z   1
loop_
 _symmetry_equiv_pos_site_id
 _symmetry_equiv_pos_as_xyz
  1  'x, y, z'
loop_
 _atom_site_type_symbol
 _atom_site_label
 _atom_site_symmetry_multiplicity
 _atom_site_fract_x
 _atom_site_fract_y
 _atom_site_fract_z
 _atom_site_occupancy
  Sc  Sc0  1  0.593578  0.995328  0.500000  1
  Sc  Sc1  1  0.997490  0.597703  0.500000  1
  Ta  Ta2  1  0.411447  0.406063  0.500000  1
  Re  Re3  1  0.738139  0.737586  0.000000  1
  Re  Re4  1  0.257842  0.008342  0.000000  1
  Si  Si5  1  0.664977  0.330914  0.000000  1
  Si  Si6  1  0.330610  0.663123  0.000000  1
  Si  Si7  1  0.001268  0.003786  0.500000  1
  Ru  Ru8  1  0.004650  0.257156  0.000000  1
