# generated using pymatgen
data_Dy2Y3Pa(Al3Os)8
_symmetry_space_group_name_H-M   'P 1'
_cell_length_a   8.80194000
_cell_length_b   8.84345833
_cell_length_c   9.57057700
_cell_angle_alpha   90.00000000
_cell_angle_beta   90.00000000
_cell_angle_gamma   119.84481071
_symmetry_Int_Tables_number   1
_chemical_formula_structural   Dy2Y3Pa(Al3Os)8
_chemical_formula_sum   'Dy2 Y3 Pa1 Al24 Os8'
_cell_volume   646.16929117
_cell_formula_units_Z   1
loop_
 _symmetry_equiv_pos_site_id
 _symmetry_equiv_pos_as_xyz
  1  'x, y, z'
loop_
 _atom_site_type_symbol
 _atom_site_label
 _atom_site_symmetry_multiplicity
 _atom_site_fract_x
 _atom_site_fract_y
 _atom_site_fract_z
 _atom_site_occupancy
  Dy  Dy0  1  0.610636  0.803048  0.250000  1
  Dy  Dy1  1  0.192412  0.803048  0.250000  1
  Y  Y2  1  0.808141  0.616281  0.750000  1
  Y  Y3  1  0.387113  0.192059  0.750000  1
  Y  Y4  1  0.804946  0.192059  0.750000  1
  Pa  Pa5  1  0.197228  0.394458  0.250000  1
  Al  Al6  1  0.336212  0.672425  0.018267  1
  Al  Al7  1  0.667553  0.335106  0.981570  1
  Al  Al8  1  0.667553  0.335106  0.518430  1
  Al  Al9  1  0.336212  0.672425  0.481733  1
  Al  Al10  1  0.162959  0.325919  0.576614  1
  Al  Al11  1  0.836627  0.673254  0.425151  1
  Al  Al12  1  0.672599  0.835354  0.574562  1
  Al  Al13  1  0.836627  0.673254  0.074849  1
  Al  Al14  1  0.326093  0.162136  0.423610  1
  Al  Al15  1  0.162959  0.325919  0.923386  1
  Al  Al16  1  0.162756  0.835354  0.574562  1
  Al  Al17  1  0.326093  0.162136  0.076390  1
  Al  Al18  1  0.836043  0.162136  0.423610  1
  Al  Al19  1  0.672599  0.835354  0.925438  1
  Al  Al20  1  0.836043  0.162136  0.076390  1
  Al  Al21  1  0.162756  0.835354  0.925438  1
  Al  Al22  1  0.560073  0.120145  0.250000  1
  Al  Al23  1  0.438085  0.876171  0.750000  1
  Al  Al24  1  0.873237  0.437634  0.250000  1
  Al  Al25  1  0.120416  0.559595  0.750000  1
  Al  Al26  1  0.564397  0.437634  0.250000  1
  Al  Al27  1  0.439179  0.559595  0.750000  1
  Al  Al28  1  0.001811  0.003621  0.250000  1
  Al  Al29  1  0.000426  0.000853  0.750000  1
  Os  Os30  1  0.501542  0.003084  0.998175  1
  Os  Os31  1  0.003319  0.499361  0.004867  1
  Os  Os32  1  0.501542  0.003084  0.501825  1
  Os  Os33  1  0.496042  0.499361  0.004867  1
  Os  Os34  1  0.003319  0.499361  0.495133  1
  Os  Os35  1  0.496042  0.499361  0.495133  1
  Os  Os36  1  0.999205  0.998411  0.999257  1
  Os  Os37  1  0.999205  0.998411  0.500743  1
