# generated using pymatgen
data_Zr10Tl2Zn2Bi3Pb
_symmetry_space_group_name_H-M   'P 1'
_cell_length_a   8.83268017
_cell_length_b   8.83205031
_cell_length_c   5.94819900
_cell_angle_alpha   90.00000000
_cell_angle_beta   90.00000000
_cell_angle_gamma   119.92197763
_symmetry_Int_Tables_number   1
_chemical_formula_structural   Zr10Tl2Zn2Bi3Pb
_chemical_formula_sum   'Zr10 Tl2 Zn2 Bi3 Pb1'
_cell_volume   402.17129421
_cell_formula_units_Z   1
loop_
 _symmetry_equiv_pos_site_id
 _symmetry_equiv_pos_as_xyz
  1  'x, y, z'
loop_
 _atom_site_type_symbol
 _atom_site_label
 _atom_site_symmetry_multiplicity
 _atom_site_fract_x
 _atom_site_fract_y
 _atom_site_fract_z
 _atom_site_occupancy
  Zr  Zr0  1  0.332560  0.667039  0.000615  1
  Zr  Zr1  1  0.666262  0.333490  0.499342  1
  Zr  Zr2  1  0.666262  0.333490  0.000658  1
  Zr  Zr3  1  0.332560  0.667039  0.499385  1
  Zr  Zr4  1  0.263939  0.998298  0.250000  1
  Zr  Zr5  1  0.265791  0.263608  0.750000  1
  Zr  Zr6  1  0.002816  0.736786  0.750000  1
  Zr  Zr7  1  0.001086  0.266766  0.250000  1
  Zr  Zr8  1  0.735610  0.733505  0.250000  1
  Zr  Zr9  1  0.734065  0.999960  0.750000  1
  Tl  Tl10  1  0.999968  0.616605  0.250000  1
  Tl  Tl11  1  0.383502  0.000047  0.750000  1
  Zn  Zn12  1  0.001461  0.999434  0.000777  1
  Zn  Zn13  1  0.001461  0.999434  0.499223  1
  Bi  Bi14  1  0.613377  0.999815  0.250000  1
  Bi  Bi15  1  0.615082  0.614529  0.750000  1
  Bi  Bi16  1  0.000515  0.386716  0.750000  1
  Pb  Pb17  1  0.383684  0.383438  0.250000  1
