# generated using pymatgen
data_Ca10CeReN10
_symmetry_space_group_name_H-M   'P 1'
_cell_length_a   7.05987551
_cell_length_b   7.05987492
_cell_length_c   9.07660035
_cell_angle_alpha   80.42308260
_cell_angle_beta   80.42308237
_cell_angle_gamma   59.65262574
_symmetry_Int_Tables_number   1
_chemical_formula_structural   Ca10CeReN10
_chemical_formula_sum   'Ca10 Ce1 Re1 N10'
_cell_volume   383.16016570
_cell_formula_units_Z   1
loop_
 _symmetry_equiv_pos_site_id
 _symmetry_equiv_pos_as_xyz
  1  'x, y, z'
loop_
 _atom_site_type_symbol
 _atom_site_label
 _atom_site_symmetry_multiplicity
 _atom_site_fract_x
 _atom_site_fract_y
 _atom_site_fract_z
 _atom_site_occupancy
  Ca  Ca0  1  0.874552  0.357651  0.820860  1
  Ca  Ca1  1  0.873895  0.873895  0.813607  1
  Ca  Ca2  1  0.740587  0.740587  0.527070  1
  Ca  Ca3  1  0.751138  0.251279  0.510004  1
  Ca  Ca4  1  0.633635  0.133796  0.156113  1
  Ca  Ca5  1  0.357651  0.874552  0.820860  1
  Ca  Ca6  1  0.251279  0.751138  0.510004  1
  Ca  Ca7  1  0.240676  0.240676  0.501862  1
  Ca  Ca8  1  0.136589  0.136589  0.161272  1
  Ca  Ca9  1  0.133796  0.633635  0.156113  1
  Ce  Ce10  1  0.368966  0.368966  0.794891  1
  Re  Re11  1  0.631511  0.631511  0.227501  1
  N  N12  1  0.899527  0.473831  0.313605  1
  N  N13  1  0.994329  0.994329  0.013149  1
  N  N14  1  0.673907  0.673907  0.023304  1
  N  N15  1  0.551459  0.551459  0.679981  1
  N  N16  1  0.473831  0.899527  0.313605  1
  N  N17  1  0.550235  0.067649  0.664982  1
  N  N18  1  0.477997  0.477997  0.295438  1
  N  N19  1  0.316488  0.316488  0.032256  1
  N  N20  1  0.062589  0.062589  0.644352  1
  N  N21  1  0.067649  0.550235  0.664982  1
