# generated using pymatgen
data_Ho4Al18ZnRh5
_symmetry_space_group_name_H-M   'P 1'
_cell_length_a   7.57689516
_cell_length_b   7.57689513
_cell_length_c   9.44095431
_cell_angle_alpha   89.98433614
_cell_angle_beta   89.98432729
_cell_angle_gamma   119.43356285
_symmetry_Int_Tables_number   1
_chemical_formula_structural   Ho4Al18ZnRh5
_chemical_formula_sum   'Ho4 Al18 Zn1 Rh5'
_cell_volume   472.04096718
_cell_formula_units_Z   1
loop_
 _symmetry_equiv_pos_site_id
 _symmetry_equiv_pos_as_xyz
  1  'x, y, z'
loop_
 _atom_site_type_symbol
 _atom_site_label
 _atom_site_symmetry_multiplicity
 _atom_site_fract_x
 _atom_site_fract_y
 _atom_site_fract_z
 _atom_site_occupancy
  Ho  Ho0  1  0.995319  0.676443  0.249071  1
  Ho  Ho1  1  0.004681  0.323557  0.750929  1
  Ho  Ho2  1  0.676443  0.995319  0.249071  1
  Ho  Ho3  1  0.323557  0.004681  0.750929  1
  Al  Al4  1  0.135759  0.135759  0.256998  1
  Al  Al5  1  0.864241  0.864241  0.743002  1
  Al  Al6  1  0.001969  0.345155  0.079862  1
  Al  Al7  1  0.998031  0.654845  0.920138  1
  Al  Al8  1  0.000986  0.663948  0.573066  1
  Al  Al9  1  0.336052  0.999014  0.426934  1
  Al  Al10  1  0.999014  0.336052  0.426934  1
  Al  Al11  1  0.663948  0.000986  0.573066  1
  Al  Al12  1  0.654845  0.998031  0.920138  1
  Al  Al13  1  0.345155  0.001969  0.079862  1
  Al  Al14  1  0.332539  0.332539  0.550909  1
  Al  Al15  1  0.667461  0.667461  0.449091  1
  Al  Al16  1  0.658431  0.658431  0.056917  1
  Al  Al17  1  0.341569  0.341569  0.943083  1
  Al  Al18  1  0.339527  0.552657  0.251572  1
  Al  Al19  1  0.660473  0.447343  0.748428  1
  Al  Al20  1  0.552657  0.339527  0.251572  1
  Al  Al21  1  0.447343  0.660473  0.748428  1
  Zn  Zn22  1  0.000000  0.000000  0.000000  1
  Rh  Rh23  1  0.671931  0.328069  0.000000  1
  Rh  Rh24  1  0.328069  0.671931  0.000000  1
  Rh  Rh25  1  0.328328  0.671672  0.500000  1
  Rh  Rh26  1  0.671672  0.328328  0.500000  1
  Rh  Rh27  1  0.000000  0.000000  0.500000  1
