# generated using pymatgen
data_CaAc(PaN2)4
_symmetry_space_group_name_H-M   'P 1'
_cell_length_a   7.10594548
_cell_length_b   7.10585881
_cell_length_c   7.10594405
_cell_angle_alpha   119.99213979
_cell_angle_beta   90.01439259
_cell_angle_gamma   119.99213714
_symmetry_Int_Tables_number   1
_chemical_formula_structural   CaAc(PaN2)4
_chemical_formula_sum   'Ca1 Ac1 Pa4 N8'
_cell_volume   253.74288954
_cell_formula_units_Z   1
loop_
 _symmetry_equiv_pos_site_id
 _symmetry_equiv_pos_as_xyz
  1  'x, y, z'
loop_
 _atom_site_type_symbol
 _atom_site_label
 _atom_site_symmetry_multiplicity
 _atom_site_fract_x
 _atom_site_fract_y
 _atom_site_fract_z
 _atom_site_occupancy
  Ca  Ca0  1  0.000000  0.000000  0.000000  1
  Ac  Ac1  1  0.750001  0.500000  0.250000  1
  Pa  Pa2  1  0.374661  0.749293  0.123944  1
  Pa  Pa3  1  0.374629  0.749293  0.625347  1
  Pa  Pa4  1  0.374652  0.250706  0.625370  1
  Pa  Pa5  1  0.876055  0.250706  0.625339  1
  N  N6  1  0.603545  0.207139  0.396395  1
  N  N7  1  0.189256  0.792860  0.396403  1
  N  N8  1  0.603606  0.792862  0.396455  1
  N  N9  1  0.145191  0.290434  0.435625  1
  N  N10  1  0.603597  0.207141  0.810745  1
  N  N11  1  0.145191  0.709565  0.854757  1
  N  N12  1  0.145242  0.290434  0.854808  1
  N  N13  1  0.564374  0.709565  0.854808  1
