# generated using pymatgen
data_Nd(SiAu2)2
_symmetry_space_group_name_H-M   'P 1'
_cell_length_a   7.30722543
_cell_length_b   7.30722531
_cell_length_c   4.37979100
_cell_angle_alpha   90.00000000
_cell_angle_beta   90.00000000
_cell_angle_gamma   145.11267880
_symmetry_Int_Tables_number   1
_chemical_formula_structural   Nd(SiAu2)2
_chemical_formula_sum   'Nd1 Si2 Au4'
_cell_volume   133.76034106
_cell_formula_units_Z   1
loop_
 _symmetry_equiv_pos_site_id
 _symmetry_equiv_pos_as_xyz
  1  'x, y, z'
loop_
 _atom_site_type_symbol
 _atom_site_label
 _atom_site_symmetry_multiplicity
 _atom_site_fract_x
 _atom_site_fract_y
 _atom_site_fract_z
 _atom_site_occupancy
  Nd  Nd0  1  0.000000  0.000000  0.000000  1
  Si  Si1  1  0.585203  0.414797  0.500000  1
  Si  Si2  1  0.414797  0.585203  0.500000  1
  Au  Au3  1  0.173562  0.826438  0.500000  1
  Au  Au4  1  0.325906  0.674094  0.000000  1
  Au  Au5  1  0.826438  0.173562  0.500000  1
  Au  Au6  1  0.674094  0.325906  0.000000  1
