# generated using pymatgen
data_Dy5Y2(HoBi2)3
_symmetry_space_group_name_H-M   'P 1'
_cell_length_a   8.25757700
_cell_length_b   9.52204200
_cell_length_c   12.06793600
_cell_angle_alpha   89.99980877
_cell_angle_beta   90.00000000
_cell_angle_gamma   90.00000000
_symmetry_Int_Tables_number   1
_chemical_formula_structural   Dy5Y2(HoBi2)3
_chemical_formula_sum   'Dy10 Y4 Ho6 Bi12'
_cell_volume   948.88967955
_cell_formula_units_Z   2
loop_
 _symmetry_equiv_pos_site_id
 _symmetry_equiv_pos_as_xyz
  1  'x, y, z'
loop_
 _atom_site_type_symbol
 _atom_site_label
 _atom_site_symmetry_multiplicity
 _atom_site_fract_x
 _atom_site_fract_y
 _atom_site_fract_z
 _atom_site_occupancy
  Dy  Dy0  1  0.186338  0.749996  0.719009  1
  Dy  Dy1  1  0.686338  0.750004  0.780991  1
  Dy  Dy2  1  0.813684  0.249965  0.281021  1
  Dy  Dy3  1  0.313684  0.250035  0.218979  1
  Dy  Dy4  1  0.693730  0.936901  0.059669  1
  Dy  Dy5  1  0.193730  0.563099  0.440331  1
  Dy  Dy6  1  0.693767  0.563088  0.059697  1
  Dy  Dy7  1  0.193767  0.936912  0.440303  1
  Dy  Dy8  1  0.306217  0.063164  0.940314  1
  Dy  Dy9  1  0.806217  0.436836  0.559686  1
  Y  Y10  1  0.353979  0.750008  0.215197  1
  Y  Y11  1  0.853979  0.749992  0.284803  1
  Y  Y12  1  0.646073  0.249986  0.784783  1
  Y  Y13  1  0.146073  0.250014  0.715217  1
  Ho  Ho14  1  0.026226  0.749967  0.988568  1
  Ho  Ho15  1  0.526226  0.750033  0.511432  1
  Ho  Ho16  1  0.973948  0.250040  0.011373  1
  Ho  Ho17  1  0.473948  0.249960  0.488627  1
  Ho  Ho18  1  0.306217  0.436746  0.940304  1
  Ho  Ho19  1  0.806217  0.063254  0.559696  1
  Bi  Bi20  1  0.433550  0.003630  0.673652  1
  Bi  Bi21  1  0.933550  0.496370  0.826348  1
  Bi  Bi22  1  0.566497  0.503604  0.326319  1
  Bi  Bi23  1  0.066497  0.996396  0.173681  1
  Bi  Bi24  1  0.566509  0.996382  0.326364  1
  Bi  Bi25  1  0.066509  0.503618  0.173636  1
  Bi  Bi26  1  0.433461  0.496375  0.673707  1
  Bi  Bi27  1  0.933461  0.003625  0.826293  1
  Bi  Bi28  1  0.409164  0.749704  0.957822  1
  Bi  Bi29  1  0.909164  0.750296  0.542178  1
  Bi  Bi30  1  0.590637  0.250110  0.042090  1
  Bi  Bi31  1  0.090637  0.249890  0.457910  1
