# generated using pymatgen
data_Pr7Tm(Sc3Pb4)4
_symmetry_space_group_name_H-M   'P 1'
_cell_length_a   8.06285393
_cell_length_b   15.35026769
_cell_length_c   8.12489700
_cell_angle_alpha   89.81857867
_cell_angle_beta   90.13363111
_cell_angle_gamma   90.32462659
_symmetry_Int_Tables_number   1
_chemical_formula_structural   Pr7Tm(Sc3Pb4)4
_chemical_formula_sum   'Pr7 Tm1 Sc12 Pb16'
_cell_volume   1005.56997773
_cell_formula_units_Z   1
loop_
 _symmetry_equiv_pos_site_id
 _symmetry_equiv_pos_as_xyz
  1  'x, y, z'
loop_
 _atom_site_type_symbol
 _atom_site_label
 _atom_site_symmetry_multiplicity
 _atom_site_fract_x
 _atom_site_fract_y
 _atom_site_fract_z
 _atom_site_occupancy
  Pr  Pr0  1  0.478311  0.595942  0.676963  1
  Pr  Pr1  1  0.980136  0.905356  0.824565  1
  Pr  Pr2  1  0.521278  0.095080  0.324698  1
  Pr  Pr3  1  0.022585  0.405763  0.174218  1
  Pr  Pr4  1  0.521305  0.405851  0.323419  1
  Pr  Pr5  1  0.021005  0.095037  0.175672  1
  Pr  Pr6  1  0.477605  0.902541  0.676216  1
  Tm  Tm7  1  0.973220  0.596585  0.823672  1
  Sc  Sc8  1  0.638634  0.624760  0.154992  1
  Sc  Sc9  1  0.139388  0.872703  0.344581  1
  Sc  Sc10  1  0.359928  0.125233  0.842985  1
  Sc  Sc11  1  0.861468  0.375428  0.658324  1
  Sc  Sc12  1  0.363413  0.375876  0.843558  1
  Sc  Sc13  1  0.860207  0.125465  0.656655  1
  Sc  Sc14  1  0.640972  0.873919  0.156398  1
  Sc  Sc15  1  0.139792  0.625926  0.343290  1
  Sc  Sc16  1  0.807117  0.749053  0.492437  1
  Sc  Sc17  1  0.305482  0.748729  0.005958  1
  Sc  Sc18  1  0.193798  0.250351  0.508053  1
  Sc  Sc19  1  0.694370  0.250676  0.992507  1
  Pb  Pb20  1  0.700263  0.457652  0.950728  1
  Pb  Pb21  1  0.193944  0.044528  0.547338  1
  Pb  Pb22  1  0.307195  0.954155  0.048667  1
  Pb  Pb23  1  0.807743  0.545796  0.456998  1
  Pb  Pb24  1  0.297646  0.546822  0.042084  1
  Pb  Pb25  1  0.805986  0.954335  0.452897  1
  Pb  Pb26  1  0.693353  0.045050  0.952134  1
  Pb  Pb27  1  0.193299  0.455688  0.548142  1
  Pb  Pb28  1  0.446035  0.749255  0.363089  1
  Pb  Pb29  1  0.945739  0.749291  0.134645  1
  Pb  Pb30  1  0.554402  0.250719  0.636617  1
  Pb  Pb31  1  0.055034  0.250118  0.863631  1
  Pb  Pb32  1  0.669746  0.749066  0.852769  1
  Pb  Pb33  1  0.161824  0.746908  0.651903  1
  Pb  Pb34  1  0.334140  0.250137  0.146706  1
  Pb  Pb35  1  0.833640  0.250208  0.352493  1
