# generated using pymatgen
data_TbDyGa2(Co3B)2
_symmetry_space_group_name_H-M   'P 1'
_cell_length_a   5.17400700
_cell_length_b   5.17502133
_cell_length_c   6.67712500
_cell_angle_alpha   90.00000000
_cell_angle_beta   90.00000000
_cell_angle_gamma   119.99351002
_symmetry_Int_Tables_number   1
_chemical_formula_structural   TbDyGa2(Co3B)2
_chemical_formula_sum   'Tb1 Dy1 Ga2 Co6 B2'
_cell_volume   154.84161503
_cell_formula_units_Z   1
loop_
 _symmetry_equiv_pos_site_id
 _symmetry_equiv_pos_as_xyz
  1  'x, y, z'
loop_
 _atom_site_type_symbol
 _atom_site_label
 _atom_site_symmetry_multiplicity
 _atom_site_fract_x
 _atom_site_fract_y
 _atom_site_fract_z
 _atom_site_occupancy
  Tb  Tb0  1  0.999982  0.000000  0.000000  1
  Dy  Dy1  1  0.999983  0.000000  0.500000  1
  Ga  Ga2  1  0.333364  0.666760  0.000000  1
  Ga  Ga3  1  0.666605  0.333240  0.000000  1
  Co  Co4  1  0.499983  0.000000  0.295235  1
  Co  Co5  1  0.499985  0.499999  0.295248  1
  Co  Co6  1  0.999986  0.500001  0.295248  1
  Co  Co7  1  0.499983  0.000000  0.704765  1
  Co  Co8  1  0.499985  0.499999  0.704752  1
  Co  Co9  1  0.999986  0.500001  0.704752  1
  B  B10  1  0.333362  0.666764  0.500000  1
  B  B11  1  0.666598  0.333236  0.500000  1
