# generated using pymatgen
data_Li2Ti2Bi2O
_symmetry_space_group_name_H-M   'P 1'
_cell_length_a   4.14564087
_cell_length_b   4.14564123
_cell_length_c   8.80543100
_cell_angle_alpha   103.61534554
_cell_angle_beta   103.61534675
_cell_angle_gamma   90.00000917
_symmetry_Int_Tables_number   1
_chemical_formula_structural   Li2Ti2Bi2O
_chemical_formula_sum   'Li2 Ti2 Bi2 O1'
_cell_volume   142.70091109
_cell_formula_units_Z   1
loop_
 _symmetry_equiv_pos_site_id
 _symmetry_equiv_pos_as_xyz
  1  'x, y, z'
loop_
 _atom_site_type_symbol
 _atom_site_label
 _atom_site_symmetry_multiplicity
 _atom_site_fract_x
 _atom_site_fract_y
 _atom_site_fract_z
 _atom_site_occupancy
  Li  Li0  1  0.669830  0.669830  0.339661  1
  Li  Li1  1  0.330169  0.330169  0.660338  1
  Ti  Ti2  1  0.500000  0.000000  0.000000  1
  Ti  Ti3  1  0.000000  0.500000  0.000000  1
  Bi  Bi4  1  0.132864  0.132864  0.265728  1
  Bi  Bi5  1  0.867136  0.867136  0.734272  1
  O  O6  1  0.500000  0.500000  0.000000  1
