# generated using pymatgen
data_Ho16CdCo4Hg3
_symmetry_space_group_name_H-M   'P 1'
_cell_length_a   9.42516807
_cell_length_b   9.42425626
_cell_length_c   9.42516800
_cell_angle_alpha   59.99679969
_cell_angle_beta   60.00000023
_cell_angle_gamma   59.99680367
_symmetry_Int_Tables_number   1
_chemical_formula_structural   Ho16CdCo4Hg3
_chemical_formula_sum   'Ho16 Cd1 Co4 Hg3'
_cell_volume   591.95582213
_cell_formula_units_Z   1
loop_
 _symmetry_equiv_pos_site_id
 _symmetry_equiv_pos_as_xyz
  1  'x, y, z'
loop_
 _atom_site_type_symbol
 _atom_site_label
 _atom_site_symmetry_multiplicity
 _atom_site_fract_x
 _atom_site_fract_y
 _atom_site_fract_z
 _atom_site_occupancy
  Ho  Ho0  1  0.938537  0.936397  0.562533  1
  Ho  Ho1  1  0.812593  0.187120  0.187694  1
  Ho  Ho2  1  0.937694  0.562130  0.562483  1
  Ho  Ho3  1  0.937694  0.562130  0.937694  1
  Ho  Ho4  1  0.812064  0.811878  0.188029  1
  Ho  Ho5  1  0.347461  0.347962  0.347461  1
  Ho  Ho6  1  0.562533  0.936397  0.938537  1
  Ho  Ho7  1  0.562533  0.936397  0.562533  1
  Ho  Ho8  1  0.188029  0.811878  0.812064  1
  Ho  Ho9  1  0.187694  0.187120  0.812593  1
  Ho  Ho10  1  0.347461  0.347962  0.957117  1
  Ho  Ho11  1  0.348222  0.955334  0.348222  1
  Ho  Ho12  1  0.812593  0.187120  0.812593  1
  Ho  Ho13  1  0.562483  0.562130  0.937694  1
  Ho  Ho14  1  0.188029  0.811878  0.188029  1
  Ho  Ho15  1  0.957117  0.347962  0.347461  1
  Cd  Cd16  1  0.579600  0.261202  0.579600  1
  Co  Co17  1  0.576170  0.141060  0.141385  1
  Co  Co18  1  0.141385  0.141060  0.141385  1
  Co  Co19  1  0.141344  0.575970  0.141344  1
  Co  Co20  1  0.141385  0.141060  0.576170  1
  Hg  Hg21  1  0.584426  0.582618  0.248531  1
  Hg  Hg22  1  0.248531  0.582618  0.584426  1
  Hg  Hg23  1  0.584426  0.582618  0.584426  1
