# generated using pymatgen
data_Pr16Mg3CdOs4
_symmetry_space_group_name_H-M   'P 1'
_cell_length_a   10.05005895
_cell_length_b   10.07110458
_cell_length_c   10.07110400
_cell_angle_alpha   60.00000191
_cell_angle_beta   59.93070610
_cell_angle_gamma   59.93070590
_symmetry_Int_Tables_number   1
_chemical_formula_structural   Pr16Mg3CdOs4
_chemical_formula_sum   'Pr16 Mg3 Cd1 Os4'
_cell_volume   720.03256494
_cell_formula_units_Z   1
loop_
 _symmetry_equiv_pos_site_id
 _symmetry_equiv_pos_as_xyz
  1  'x, y, z'
loop_
 _atom_site_type_symbol
 _atom_site_label
 _atom_site_symmetry_multiplicity
 _atom_site_fract_x
 _atom_site_fract_y
 _atom_site_fract_z
 _atom_site_occupancy
  Pr  Pr0  1  0.345243  0.345331  0.345331  1
  Pr  Pr1  1  0.345243  0.345331  0.964093  1
  Pr  Pr2  1  0.345243  0.964093  0.345331  1
  Pr  Pr3  1  0.965828  0.344723  0.344723  1
  Pr  Pr4  1  0.811245  0.188731  0.188731  1
  Pr  Pr5  1  0.190090  0.809915  0.809915  1
  Pr  Pr6  1  0.190090  0.809915  0.190082  1
  Pr  Pr7  1  0.811245  0.188731  0.811293  1
  Pr  Pr8  1  0.190090  0.190082  0.809915  1
  Pr  Pr9  1  0.811245  0.811293  0.188731  1
  Pr  Pr10  1  0.942024  0.559598  0.559598  1
  Pr  Pr11  1  0.560302  0.939654  0.939654  1
  Pr  Pr12  1  0.560302  0.939654  0.560390  1
  Pr  Pr13  1  0.942024  0.559598  0.938778  1
  Pr  Pr14  1  0.560302  0.560390  0.939654  1
  Pr  Pr15  1  0.942024  0.938778  0.559598  1
  Mg  Mg16  1  0.575888  0.578339  0.578339  1
  Mg  Mg17  1  0.575888  0.578339  0.267432  1
  Mg  Mg18  1  0.575888  0.267432  0.578339  1
  Cd  Cd19  1  0.260158  0.579947  0.579947  1
  Os  Os20  1  0.137656  0.138387  0.138387  1
  Os  Os21  1  0.137656  0.138387  0.585569  1
  Os  Os22  1  0.137656  0.585569  0.138387  1
  Os  Os23  1  0.586666  0.137778  0.137778  1
