# generated using pymatgen
data_AlZn2Ir3S8
_symmetry_space_group_name_H-M   'P 1'
_cell_length_a   7.04683648
_cell_length_b   7.04683635
_cell_length_c   7.04683617
_cell_angle_alpha   61.22024716
_cell_angle_beta   61.22025243
_cell_angle_gamma   61.22024323
_symmetry_Int_Tables_number   1
_chemical_formula_structural   AlZn2Ir3S8
_chemical_formula_sum   'Al1 Zn2 Ir3 S8'
_cell_volume   254.22953182
_cell_formula_units_Z   1
loop_
 _symmetry_equiv_pos_site_id
 _symmetry_equiv_pos_as_xyz
  1  'x, y, z'
loop_
 _atom_site_type_symbol
 _atom_site_label
 _atom_site_symmetry_multiplicity
 _atom_site_fract_x
 _atom_site_fract_y
 _atom_site_fract_z
 _atom_site_occupancy
  Al  Al0  1  0.125000  0.125000  0.125000  1
  Zn  Zn1  1  0.747303  0.747303  0.747303  1
  Zn  Zn2  1  0.502697  0.502697  0.502697  1
  Ir  Ir3  1  0.125000  0.125000  0.625000  1
  Ir  Ir4  1  0.125000  0.625000  0.125000  1
  Ir  Ir5  1  0.625000  0.125000  0.125000  1
  S  S6  1  0.337699  0.885850  0.885850  1
  S  S7  1  0.360949  0.360949  0.360949  1
  S  S8  1  0.889051  0.889051  0.889051  1
  S  S9  1  0.912301  0.364150  0.364150  1
  S  S10  1  0.364150  0.912301  0.364150  1
  S  S11  1  0.364150  0.364150  0.912301  1
  S  S12  1  0.885850  0.337699  0.885850  1
  S  S13  1  0.885850  0.885850  0.337699  1
