# generated using pymatgen
data_Tb3DyAl18PtRh5
_symmetry_space_group_name_H-M   'P 1'
_cell_length_a   7.57409923
_cell_length_b   7.57522067
_cell_length_c   9.48211300
_cell_angle_alpha   89.99352490
_cell_angle_beta   89.99809881
_cell_angle_gamma   119.49704008
_symmetry_Int_Tables_number   1
_chemical_formula_structural   Tb3DyAl18PtRh5
_chemical_formula_sum   'Tb3 Dy1 Al18 Pt1 Rh5'
_cell_volume   473.52277213
_cell_formula_units_Z   1
loop_
 _symmetry_equiv_pos_site_id
 _symmetry_equiv_pos_as_xyz
  1  'x, y, z'
loop_
 _atom_site_type_symbol
 _atom_site_label
 _atom_site_symmetry_multiplicity
 _atom_site_fract_x
 _atom_site_fract_y
 _atom_site_fract_z
 _atom_site_occupancy
  Tb  Tb0  1  0.993887  0.669355  0.749963  1
  Tb  Tb1  1  0.004103  0.328970  0.250280  1
  Tb  Tb2  1  0.670983  0.995903  0.749704  1
  Dy  Dy3  1  0.330586  0.005802  0.249986  1
  Al  Al4  1  0.127273  0.126441  0.750281  1
  Al  Al5  1  0.873448  0.872527  0.249718  1
  Al  Al6  1  0.004854  0.335151  0.576623  1
  Al  Al7  1  0.002694  0.668917  0.423618  1
  Al  Al8  1  0.000383  0.665354  0.074686  1
  Al  Al9  1  0.334920  0.999870  0.925377  1
  Al  Al10  1  0.001262  0.334800  0.924829  1
  Al  Al11  1  0.664871  0.998728  0.075070  1
  Al  Al12  1  0.664539  0.995144  0.423490  1
  Al  Al13  1  0.331390  0.997594  0.576332  1
  Al  Al14  1  0.332684  0.332472  0.050590  1
  Al  Al15  1  0.667264  0.667285  0.949488  1
  Al  Al16  1  0.666256  0.669519  0.552941  1
  Al  Al17  1  0.330466  0.333473  0.447001  1
  Al  Al18  1  0.340220  0.550284  0.750284  1
  Al  Al19  1  0.660038  0.454147  0.246796  1
  Al  Al20  1  0.545974  0.339651  0.753185  1
  Al  Al21  1  0.450081  0.660140  0.249714  1
  Pt  Pt22  1  0.672266  0.327604  0.499695  1
  Rh  Rh23  1  0.328232  0.671734  0.499729  1
  Rh  Rh24  1  0.328444  0.671537  0.000279  1
  Rh  Rh25  1  0.672087  0.327655  0.000359  1
  Rh  Rh26  1  0.000243  0.000145  0.499659  1
  Rh  Rh27  1  0.000550  0.999799  0.000325  1
