# generated using pymatgen
data_TbTm15(Ga3Ir)2
_symmetry_space_group_name_H-M   'P 1'
_cell_length_a   9.93353900
_cell_length_b   9.93353864
_cell_length_c   6.95406300
_cell_angle_alpha   90.00000000
_cell_angle_beta   90.00000000
_cell_angle_gamma   119.99999786
_symmetry_Int_Tables_number   1
_chemical_formula_structural   TbTm15(Ga3Ir)2
_chemical_formula_sum   'Tb1 Tm15 Ga6 Ir2'
_cell_volume   594.26102636
_cell_formula_units_Z   1
loop_
 _symmetry_equiv_pos_site_id
 _symmetry_equiv_pos_as_xyz
  1  'x, y, z'
loop_
 _atom_site_type_symbol
 _atom_site_label
 _atom_site_symmetry_multiplicity
 _atom_site_fract_x
 _atom_site_fract_y
 _atom_site_fract_z
 _atom_site_occupancy
  Tb  Tb0  1  0.000000  0.000000  0.266827  1
  Tm  Tm1  1  0.828970  0.657942  0.490021  1
  Tm  Tm2  1  0.342058  0.171030  0.490021  1
  Tm  Tm3  1  0.828970  0.171030  0.490021  1
  Tm  Tm4  1  0.171054  0.342106  0.989023  1
  Tm  Tm5  1  0.657894  0.828946  0.989023  1
  Tm  Tm6  1  0.171054  0.828946  0.989023  1
  Tm  Tm7  1  0.666667  0.333333  0.162258  1
  Tm  Tm8  1  0.333333  0.666667  0.662850  1
  Tm  Tm9  1  0.534653  0.069303  0.794073  1
  Tm  Tm10  1  0.930697  0.465347  0.794073  1
  Tm  Tm11  1  0.534653  0.465347  0.794073  1
  Tm  Tm12  1  0.465341  0.930684  0.294011  1
  Tm  Tm13  1  0.069316  0.534659  0.294011  1
  Tm  Tm14  1  0.465341  0.534659  0.294011  1
  Tm  Tm15  1  0.000000  0.000000  0.765777  1
  Ga  Ga16  1  0.835984  0.671971  0.042415  1
  Ga  Ga17  1  0.328029  0.164016  0.042415  1
  Ga  Ga18  1  0.835984  0.164016  0.042415  1
  Ga  Ga19  1  0.163927  0.327852  0.543584  1
  Ga  Ga20  1  0.672148  0.836073  0.543584  1
  Ga  Ga21  1  0.163927  0.836073  0.543584  1
  Ir  Ir22  1  0.666667  0.333333  0.554095  1
  Ir  Ir23  1  0.333333  0.666667  0.054878  1
