# generated using pymatgen
data_LiCu2PS4
_symmetry_space_group_name_H-M   'P 1'
_cell_length_a   6.09998200
_cell_length_b   6.28409900
_cell_length_c   7.61819700
_cell_angle_alpha   90.00000000
_cell_angle_beta   90.00000000
_cell_angle_gamma   90.00000000
_symmetry_Int_Tables_number   1
_chemical_formula_structural   LiCu2PS4
_chemical_formula_sum   'Li2 Cu4 P2 S8'
_cell_volume   292.02751359
_cell_formula_units_Z   2
loop_
 _symmetry_equiv_pos_site_id
 _symmetry_equiv_pos_as_xyz
  1  'x, y, z'
loop_
 _atom_site_type_symbol
 _atom_site_label
 _atom_site_symmetry_multiplicity
 _atom_site_fract_x
 _atom_site_fract_y
 _atom_site_fract_z
 _atom_site_occupancy
  Li  Li0  1  0.999236  0.646685  0.500000  1
  Li  Li1  1  0.499236  0.353315  0.000000  1
  Cu  Cu2  1  0.008790  0.180999  0.754068  1
  Cu  Cu3  1  0.008790  0.180999  0.245932  1
  Cu  Cu4  1  0.508790  0.819001  0.745932  1
  Cu  Cu5  1  0.508790  0.819001  0.254068  1
  P  P6  1  0.502063  0.317011  0.500000  1
  P  P7  1  0.002063  0.682989  0.000000  1
  S  S8  1  0.382951  0.166578  0.724212  1
  S  S9  1  0.382951  0.166578  0.275788  1
  S  S10  1  0.882951  0.833422  0.775788  1
  S  S11  1  0.882951  0.833422  0.224212  1
  S  S12  1  0.843949  0.294653  0.500000  1
  S  S13  1  0.343949  0.705347  0.000000  1
  S  S14  1  0.399841  0.634024  0.500000  1
  S  S15  1  0.899841  0.365976  0.000000  1
