# generated using pymatgen
data_Ba3CeMgSe6
_symmetry_space_group_name_H-M   'P 1'
_cell_length_a   8.63666699
_cell_length_b   8.63666534
_cell_length_c   8.63666700
_cell_angle_alpha   92.28095271
_cell_angle_beta   92.28095227
_cell_angle_gamma   92.28094626
_symmetry_Int_Tables_number   1
_chemical_formula_structural   Ba3CeMgSe6
_chemical_formula_sum   'Ba6 Ce2 Mg2 Se12'
_cell_volume   642.65306347
_cell_formula_units_Z   2
loop_
 _symmetry_equiv_pos_site_id
 _symmetry_equiv_pos_as_xyz
  1  'x, y, z'
loop_
 _atom_site_type_symbol
 _atom_site_label
 _atom_site_symmetry_multiplicity
 _atom_site_fract_x
 _atom_site_fract_y
 _atom_site_fract_z
 _atom_site_occupancy
  Ba  Ba0  1  0.367604  0.750000  0.132396  1
  Ba  Ba1  1  0.132396  0.367604  0.750000  1
  Ba  Ba2  1  0.750000  0.132396  0.367604  1
  Ba  Ba3  1  0.632396  0.250000  0.867604  1
  Ba  Ba4  1  0.867604  0.632396  0.250000  1
  Ba  Ba5  1  0.250000  0.867604  0.632396  1
  Ce  Ce6  1  0.250000  0.250000  0.250000  1
  Ce  Ce7  1  0.750000  0.750000  0.750000  1
  Mg  Mg8  1  0.500000  0.500000  0.500000  1
  Mg  Mg9  1  0.000000  0.000000  0.000000  1
  Se  Se10  1  0.540715  0.409477  0.197641  1
  Se  Se11  1  0.197641  0.540715  0.409477  1
  Se  Se12  1  0.409477  0.197641  0.540715  1
  Se  Se13  1  0.959285  0.302359  0.090523  1
  Se  Se14  1  0.090523  0.959285  0.302359  1
  Se  Se15  1  0.302359  0.090523  0.959285  1
  Se  Se16  1  0.459285  0.590523  0.802359  1
  Se  Se17  1  0.802359  0.459285  0.590523  1
  Se  Se18  1  0.590523  0.802359  0.459285  1
  Se  Se19  1  0.040715  0.697641  0.909477  1
  Se  Se20  1  0.697641  0.909477  0.040715  1
  Se  Se21  1  0.909477  0.040715  0.697641  1
