# generated using pymatgen
data_Dy7Y8Lu5Bi12
_symmetry_space_group_name_H-M   'P 1'
_cell_length_a   8.23669181
_cell_length_b   9.51701011
_cell_length_c   12.05888700
_cell_angle_alpha   90.00183019
_cell_angle_beta   89.93811100
_cell_angle_gamma   90.00857496
_symmetry_Int_Tables_number   1
_chemical_formula_structural   Dy7Y8Lu5Bi12
_chemical_formula_sum   'Dy7 Y8 Lu5 Bi12'
_cell_volume   945.27966196
_cell_formula_units_Z   1
loop_
 _symmetry_equiv_pos_site_id
 _symmetry_equiv_pos_as_xyz
  1  'x, y, z'
loop_
 _atom_site_type_symbol
 _atom_site_label
 _atom_site_symmetry_multiplicity
 _atom_site_fract_x
 _atom_site_fract_y
 _atom_site_fract_z
 _atom_site_occupancy
  Dy  Dy0  1  0.307171  0.435783  0.940553  1
  Dy  Dy1  1  0.807053  0.064396  0.559285  1
  Dy  Dy2  1  0.692734  0.935836  0.059460  1
  Dy  Dy3  1  0.193229  0.564025  0.440437  1
  Dy  Dy4  1  0.692917  0.564090  0.059416  1
  Dy  Dy5  1  0.192406  0.935702  0.440774  1
  Dy  Dy6  1  0.307248  0.064228  0.940553  1
  Y  Y7  1  0.186599  0.749955  0.718603  1
  Y  Y8  1  0.686167  0.750064  0.781312  1
  Y  Y9  1  0.813720  0.250398  0.281546  1
  Y  Y10  1  0.313625  0.250056  0.218827  1
  Y  Y11  1  0.354271  0.750103  0.215711  1
  Y  Y12  1  0.854506  0.750379  0.284257  1
  Y  Y13  1  0.646697  0.250710  0.784040  1
  Y  Y14  1  0.145326  0.250568  0.715329  1
  Lu  Lu15  1  0.024569  0.750305  0.988865  1
  Lu  Lu16  1  0.524985  0.750088  0.511024  1
  Lu  Lu17  1  0.975429  0.249994  0.010991  1
  Lu  Lu18  1  0.476248  0.250385  0.489189  1
  Lu  Lu19  1  0.806684  0.433352  0.559425  1
  Bi  Bi20  1  0.434015  0.004123  0.671891  1
  Bi  Bi21  1  0.933828  0.496419  0.827726  1
  Bi  Bi22  1  0.565822  0.504066  0.328222  1
  Bi  Bi23  1  0.065921  0.996471  0.172159  1
  Bi  Bi24  1  0.566083  0.996494  0.328042  1
  Bi  Bi25  1  0.065708  0.503874  0.172280  1
  Bi  Bi26  1  0.434488  0.496343  0.671779  1
  Bi  Bi27  1  0.933960  0.003968  0.827805  1
  Bi  Bi28  1  0.406072  0.750003  0.957548  1
  Bi  Bi29  1  0.905225  0.747172  0.542872  1
  Bi  Bi30  1  0.593862  0.249953  0.042335  1
  Bi  Bi31  1  0.093429  0.250698  0.457739  1
