# generated using pymatgen
data_Sr4Li5Cd9
_symmetry_space_group_name_H-M   'P 1'
_cell_length_a   14.61685259
_cell_length_b   14.61685366
_cell_length_c   14.61685503
_cell_angle_alpha   24.37555028
_cell_angle_beta   24.37555144
_cell_angle_gamma   24.37555135
_symmetry_Int_Tables_number   1
_chemical_formula_structural   Sr4Li5Cd9
_chemical_formula_sum   'Sr4 Li5 Cd9'
_cell_volume   467.61881146
_cell_formula_units_Z   1
loop_
 _symmetry_equiv_pos_site_id
 _symmetry_equiv_pos_as_xyz
  1  'x, y, z'
loop_
 _atom_site_type_symbol
 _atom_site_label
 _atom_site_symmetry_multiplicity
 _atom_site_fract_x
 _atom_site_fract_y
 _atom_site_fract_z
 _atom_site_occupancy
  Sr  Sr0  1  0.949387  0.949387  0.949387  1
  Sr  Sr1  1  0.050613  0.050613  0.050613  1
  Sr  Sr2  1  0.851985  0.851985  0.851985  1
  Sr  Sr3  1  0.148015  0.148015  0.148015  1
  Li  Li4  1  0.500000  0.500000  0.500000  1
  Li  Li5  1  0.721437  0.721437  0.721437  1
  Li  Li6  1  0.278563  0.278563  0.278563  1
  Li  Li7  1  0.611908  0.611908  0.611908  1
  Li  Li8  1  0.388092  0.388092  0.388092  1
  Cd  Cd9  1  0.500000  0.500000  0.000000  1
  Cd  Cd10  1  0.000000  0.500000  0.500000  1
  Cd  Cd11  1  0.500000  0.000000  0.500000  1
  Cd  Cd12  1  0.390880  0.891658  0.390880  1
  Cd  Cd13  1  0.390880  0.390880  0.891658  1
  Cd  Cd14  1  0.891658  0.390880  0.390880  1
  Cd  Cd15  1  0.609120  0.108342  0.609120  1
  Cd  Cd16  1  0.609120  0.609120  0.108342  1
  Cd  Cd17  1  0.108342  0.609120  0.609120  1
