# generated using pymatgen
data_Tb2ThFe9
_symmetry_space_group_name_H-M   'P 1'
_cell_length_a   8.75974226
_cell_length_b   8.75974197
_cell_length_c   8.75974162
_cell_angle_alpha   33.96092712
_cell_angle_beta   33.96093055
_cell_angle_gamma   33.96093051
_symmetry_Int_Tables_number   1
_chemical_formula_structural   Tb2ThFe9
_chemical_formula_sum   'Tb2 Th1 Fe9'
_cell_volume   186.96109750
_cell_formula_units_Z   1
loop_
 _symmetry_equiv_pos_site_id
 _symmetry_equiv_pos_as_xyz
  1  'x, y, z'
loop_
 _atom_site_type_symbol
 _atom_site_label
 _atom_site_symmetry_multiplicity
 _atom_site_fract_x
 _atom_site_fract_y
 _atom_site_fract_z
 _atom_site_occupancy
  Tb  Tb0  1  0.142438  0.142438  0.142438  1
  Tb  Tb1  1  0.857562  0.857562  0.857562  1
  Th  Th2  1  0.000000  0.000000  0.000000  1
  Fe  Fe3  1  0.500000  0.500000  0.500000  1
  Fe  Fe4  1  0.332506  0.332506  0.332506  1
  Fe  Fe5  1  0.667494  0.667494  0.667494  1
  Fe  Fe6  1  0.083940  0.581227  0.581227  1
  Fe  Fe7  1  0.581227  0.581227  0.083940  1
  Fe  Fe8  1  0.581227  0.083940  0.581227  1
  Fe  Fe9  1  0.418773  0.916060  0.418773  1
  Fe  Fe10  1  0.916060  0.418773  0.418773  1
  Fe  Fe11  1  0.418773  0.418773  0.916060  1
