# generated using pymatgen
data_Tm8Sc12Ga4Si11P
_symmetry_space_group_name_H-M   'P 1'
_cell_length_a   7.08245332
_cell_length_b   7.35869396
_cell_length_c   14.04475473
_cell_angle_alpha   90.05022594
_cell_angle_beta   89.92095251
_cell_angle_gamma   90.24683505
_symmetry_Int_Tables_number   1
_chemical_formula_structural   Tm8Sc12Ga4Si11P
_chemical_formula_sum   'Tm8 Sc12 Ga4 Si11 P1'
_cell_volume   731.97123286
_cell_formula_units_Z   1
loop_
 _symmetry_equiv_pos_site_id
 _symmetry_equiv_pos_as_xyz
  1  'x, y, z'
loop_
 _atom_site_type_symbol
 _atom_site_label
 _atom_site_symmetry_multiplicity
 _atom_site_fract_x
 _atom_site_fract_y
 _atom_site_fract_z
 _atom_site_occupancy
  Tm  Tm0  1  0.012218  0.173646  0.095911  1
  Tm  Tm1  1  0.991081  0.827715  0.900002  1
  Tm  Tm2  1  0.488731  0.677466  0.902662  1
  Tm  Tm3  1  0.990927  0.829298  0.603275  1
  Tm  Tm4  1  0.510308  0.320333  0.095861  1
  Tm  Tm5  1  0.008269  0.175257  0.400880  1
  Tm  Tm6  1  0.510433  0.324012  0.400896  1
  Tm  Tm7  1  0.491834  0.676001  0.600603  1
  Sc  Sc8  1  0.161220  0.501322  0.751767  1
  Sc  Sc9  1  0.836435  0.497424  0.249699  1
  Sc  Sc10  1  0.335892  0.003133  0.247679  1
  Sc  Sc11  1  0.664380  0.998753  0.750903  1
  Sc  Sc12  1  0.329713  0.172253  0.630351  1
  Sc  Sc13  1  0.668405  0.826627  0.374118  1
  Sc  Sc14  1  0.168946  0.673203  0.373172  1
  Sc  Sc15  1  0.667204  0.826445  0.124233  1
  Sc  Sc16  1  0.830972  0.324748  0.627659  1
  Sc  Sc17  1  0.327517  0.172418  0.873138  1
  Sc  Sc18  1  0.830947  0.321860  0.873394  1
  Sc  Sc19  1  0.172541  0.675851  0.123694  1
  Ga  Ga20  1  0.162917  0.460973  0.540132  1
  Ga  Ga21  1  0.837902  0.538502  0.462056  1
  Ga  Ga22  1  0.337809  0.962325  0.461892  1
  Ga  Ga23  1  0.838857  0.538401  0.038078  1
  Si  Si24  1  0.965398  0.884544  0.249328  1
  Si  Si25  1  0.466594  0.612745  0.248146  1
  Si  Si26  1  0.531485  0.385604  0.751763  1
  Si  Si27  1  0.295677  0.860261  0.751663  1
  Si  Si28  1  0.715580  0.129242  0.248302  1
  Si  Si29  1  0.214312  0.370071  0.248302  1
  Si  Si30  1  0.787904  0.632311  0.751842  1
  Si  Si31  1  0.659725  0.037742  0.540440  1
  Si  Si32  1  0.158770  0.462507  0.960283  1
  Si  Si33  1  0.661156  0.037044  0.960316  1
  Si  Si34  1  0.339404  0.964170  0.037029  1
  P  P35  1  0.028535  0.125796  0.750533  1
