# generated using pymatgen
data_CsYBeF6
_symmetry_space_group_name_H-M   'P 1'
_cell_length_a   5.96764400
_cell_length_b   6.73470706
_cell_length_c   7.58984090
_cell_angle_alpha   64.86718808
_cell_angle_beta   90.00000000
_cell_angle_gamma   90.00000000
_symmetry_Int_Tables_number   1
_chemical_formula_structural   CsYBeF6
_chemical_formula_sum   'Cs2 Y2 Be2 F12'
_cell_volume   276.15896686
_cell_formula_units_Z   2
loop_
 _symmetry_equiv_pos_site_id
 _symmetry_equiv_pos_as_xyz
  1  'x, y, z'
loop_
 _atom_site_type_symbol
 _atom_site_label
 _atom_site_symmetry_multiplicity
 _atom_site_fract_x
 _atom_site_fract_y
 _atom_site_fract_z
 _atom_site_occupancy
  Cs  Cs0  1  0.250000  0.098441  0.778725  1
  Cs  Cs1  1  0.750000  0.901559  0.221275  1
  Y  Y2  1  0.250000  0.402151  0.178649  1
  Y  Y3  1  0.750000  0.597849  0.821351  1
  Be  Be4  1  0.250000  0.766997  0.467533  1
  Be  Be5  1  0.750000  0.233003  0.532467  1
  F  F6  1  0.462744  0.726798  0.600306  1
  F  F7  1  0.537256  0.273202  0.399694  1
  F  F8  1  0.962744  0.273202  0.399694  1
  F  F9  1  0.037256  0.726798  0.600306  1
  F  F10  1  0.250000  0.611998  0.361117  1
  F  F11  1  0.750000  0.388002  0.638883  1
  F  F12  1  0.500141  0.677097  0.013866  1
  F  F13  1  0.499859  0.322903  0.986134  1
  F  F14  1  0.000141  0.322903  0.986134  1
  F  F15  1  0.999859  0.677097  0.013866  1
  F  F16  1  0.250000  0.011465  0.306838  1
  F  F17  1  0.750000  0.988535  0.693162  1
