# generated using pymatgen
data_Tb3ErSc6(Si5Ir2)4
_symmetry_space_group_name_H-M   'P 1'
_cell_length_a   12.48719564
_cell_length_b   12.48719670
_cell_length_c   4.15678900
_cell_angle_alpha   90.00000000
_cell_angle_beta   90.00000000
_cell_angle_gamma   90.05662958
_symmetry_Int_Tables_number   1
_chemical_formula_structural   Tb3ErSc6(Si5Ir2)4
_chemical_formula_sum   'Tb3 Er1 Sc6 Si20 Ir8'
_cell_volume   648.16807591
_cell_formula_units_Z   1
loop_
 _symmetry_equiv_pos_site_id
 _symmetry_equiv_pos_as_xyz
  1  'x, y, z'
loop_
 _atom_site_type_symbol
 _atom_site_label
 _atom_site_symmetry_multiplicity
 _atom_site_fract_x
 _atom_site_fract_y
 _atom_site_fract_z
 _atom_site_occupancy
  Tb  Tb0  1  0.115687  0.615623  0.500000  1
  Tb  Tb1  1  0.884377  0.384313  0.500000  1
  Tb  Tb2  1  0.615431  0.884569  0.500000  1
  Er  Er3  1  0.384431  0.115569  0.500000  1
  Sc  Sc4  1  0.673666  0.174143  0.500000  1
  Sc  Sc5  1  0.325857  0.826334  0.500000  1
  Sc  Sc6  1  0.174458  0.325542  0.500000  1
  Sc  Sc7  1  0.825937  0.674063  0.500000  1
  Sc  Sc8  1  0.000348  0.999969  0.000000  1
  Sc  Sc9  1  0.500031  0.499652  0.000000  1
  Si  Si10  1  0.567574  0.067606  0.000000  1
  Si  Si11  1  0.432394  0.932426  0.000000  1
  Si  Si12  1  0.067977  0.432023  0.000000  1
  Si  Si13  1  0.932206  0.567794  0.000000  1
  Si  Si14  1  0.199873  0.165641  0.000000  1
  Si  Si15  1  0.800466  0.834471  0.000000  1
  Si  Si16  1  0.165752  0.800896  0.000000  1
  Si  Si17  1  0.699104  0.334248  0.000000  1
  Si  Si18  1  0.834283  0.199597  0.000000  1
  Si  Si19  1  0.300403  0.665717  0.000000  1
  Si  Si20  1  0.665529  0.699534  0.000000  1
  Si  Si21  1  0.334359  0.300127  0.000000  1
  Si  Si22  1  0.007875  0.150714  0.500000  1
  Si  Si23  1  0.992666  0.849391  0.500000  1
  Si  Si24  1  0.151509  0.993414  0.500000  1
  Si  Si25  1  0.506586  0.348491  0.500000  1
  Si  Si26  1  0.849263  0.008122  0.500000  1
  Si  Si27  1  0.491878  0.650737  0.500000  1
  Si  Si28  1  0.650609  0.507334  0.500000  1
  Si  Si29  1  0.349286  0.492125  0.500000  1
  Ir  Ir30  1  0.020637  0.243803  0.000000  1
  Ir  Ir31  1  0.979508  0.756220  0.000000  1
  Ir  Ir32  1  0.244966  0.980216  0.000000  1
  Ir  Ir33  1  0.519784  0.255034  0.000000  1
  Ir  Ir34  1  0.755841  0.020527  0.000000  1
  Ir  Ir35  1  0.479473  0.744159  0.000000  1
  Ir  Ir36  1  0.743780  0.520492  0.000000  1
  Ir  Ir37  1  0.256197  0.479363  0.000000  1
