# generated using pymatgen
data_Ho10In8CuPd3
_symmetry_space_group_name_H-M   'P 1'
_cell_length_a   3.61575300
_cell_length_b   8.10577421
_cell_length_c   18.20425348
_cell_angle_alpha   90.02624618
_cell_angle_beta   90.00000000
_cell_angle_gamma   90.00000000
_symmetry_Int_Tables_number   1
_chemical_formula_structural   Ho10In8CuPd3
_chemical_formula_sum   'Ho10 In8 Cu1 Pd3'
_cell_volume   533.53889613
_cell_formula_units_Z   1
loop_
 _symmetry_equiv_pos_site_id
 _symmetry_equiv_pos_as_xyz
  1  'x, y, z'
loop_
 _atom_site_type_symbol
 _atom_site_label
 _atom_site_symmetry_multiplicity
 _atom_site_fract_x
 _atom_site_fract_y
 _atom_site_fract_z
 _atom_site_occupancy
  Ho  Ho0  1  0.000000  0.499122  0.499900  1
  Ho  Ho1  1  0.000000  0.998534  0.000520  1
  Ho  Ho2  1  0.000000  0.740184  0.279611  1
  Ho  Ho3  1  0.000000  0.259692  0.719576  1
  Ho  Ho4  1  0.000000  0.759478  0.780239  1
  Ho  Ho5  1  0.000000  0.239611  0.219682  1
  Ho  Ho6  1  0.000000  0.617439  0.084082  1
  Ho  Ho7  1  0.000000  0.384129  0.917629  1
  Ho  Ho8  1  0.000000  0.883608  0.582535  1
  Ho  Ho9  1  0.000000  0.116404  0.416846  1
  In  In10  1  0.500000  0.710248  0.932104  1
  In  In11  1  0.500000  0.291214  0.068980  1
  In  In12  1  0.500000  0.789940  0.431524  1
  In  In13  1  0.500000  0.210113  0.567990  1
  In  In14  1  0.500000  0.580578  0.649337  1
  In  In15  1  0.500000  0.419676  0.348954  1
  In  In16  1  0.500000  0.919371  0.149257  1
  In  In17  1  0.500000  0.081105  0.850800  1
  Cu  Cu18  1  0.500000  0.523814  0.196892  1
  Pd  Pd19  1  0.500000  0.475524  0.804478  1
  Pd  Pd20  1  0.500000  0.975659  0.695789  1
  Pd  Pd21  1  0.500000  0.024559  0.303274  1
