# generated using pymatgen
data_LiTb5Y4Cd3Ru
_symmetry_space_group_name_H-M   'P 1'
_cell_length_a   9.50203647
_cell_length_b   9.50203671
_cell_length_c   9.72080093
_cell_angle_alpha   89.93770020
_cell_angle_beta   90.06229663
_cell_angle_gamma   119.98619426
_symmetry_Int_Tables_number   1
_chemical_formula_structural   LiTb5Y4Cd3Ru
_chemical_formula_sum   'Li2 Tb10 Y8 Cd6 Ru2'
_cell_volume   760.19697250
_cell_formula_units_Z   2
loop_
 _symmetry_equiv_pos_site_id
 _symmetry_equiv_pos_as_xyz
  1  'x, y, z'
loop_
 _atom_site_type_symbol
 _atom_site_label
 _atom_site_symmetry_multiplicity
 _atom_site_fract_x
 _atom_site_fract_y
 _atom_site_fract_z
 _atom_site_occupancy
  Li  Li0  1  0.999984  0.000016  0.500074  1
  Li  Li1  1  0.999912  0.000088  0.000089  1
  Tb  Tb2  1  0.208288  0.791712  0.441111  1
  Tb  Tb3  1  0.208350  0.416577  0.441062  1
  Tb  Tb4  1  0.583423  0.791650  0.441062  1
  Tb  Tb5  1  0.791786  0.208214  0.558704  1
  Tb  Tb6  1  0.791842  0.583605  0.558733  1
  Tb  Tb7  1  0.416395  0.208158  0.558733  1
  Tb  Tb8  1  0.791840  0.208160  0.941201  1
  Tb  Tb9  1  0.791886  0.583723  0.941235  1
  Tb  Tb10  1  0.416277  0.208114  0.941235  1
  Tb  Tb11  1  0.208411  0.791589  0.058919  1
  Y  Y12  1  0.208071  0.415987  0.058233  1
  Y  Y13  1  0.584013  0.791929  0.058233  1
  Y  Y14  1  0.542349  0.457651  0.250092  1
  Y  Y15  1  0.542332  0.084697  0.249956  1
  Y  Y16  1  0.915303  0.457668  0.249956  1
  Y  Y17  1  0.457623  0.542377  0.750001  1
  Y  Y18  1  0.457687  0.915219  0.749999  1
  Y  Y19  1  0.084781  0.542313  0.749999  1
  Cd  Cd20  1  0.891767  0.108233  0.249826  1
  Cd  Cd21  1  0.891619  0.783403  0.249953  1
  Cd  Cd22  1  0.216597  0.108381  0.249953  1
  Cd  Cd23  1  0.108331  0.891669  0.749995  1
  Cd  Cd24  1  0.108385  0.216742  0.750209  1
  Cd  Cd25  1  0.783258  0.891615  0.750209  1
  Ru  Ru26  1  0.332831  0.667169  0.251411  1
  Ru  Ru27  1  0.666660  0.333340  0.749816  1
