# generated using pymatgen
data_Pr5AsRuO12
_symmetry_space_group_name_H-M   'P 1'
_cell_length_a   7.10012781
_cell_length_b   7.10012708
_cell_length_c   7.62364808
_cell_angle_alpha   74.54261203
_cell_angle_beta   74.54261419
_cell_angle_gamma   50.66758932
_symmetry_Int_Tables_number   1
_chemical_formula_structural   Pr5AsRuO12
_chemical_formula_sum   'Pr5 As1 Ru1 O12'
_cell_volume   284.04783688
_cell_formula_units_Z   1
loop_
 _symmetry_equiv_pos_site_id
 _symmetry_equiv_pos_as_xyz
  1  'x, y, z'
loop_
 _atom_site_type_symbol
 _atom_site_label
 _atom_site_symmetry_multiplicity
 _atom_site_fract_x
 _atom_site_fract_y
 _atom_site_fract_z
 _atom_site_occupancy
  Pr  Pr0  1  0.307424  0.304663  0.357568  1
  Pr  Pr1  1  0.695337  0.692576  0.642432  1
  Pr  Pr2  1  0.694243  0.695511  0.164097  1
  Pr  Pr3  1  0.304489  0.305757  0.835903  1
  Pr  Pr4  1  0.995217  0.004783  0.500000  1
  As  As5  1  0.757166  0.242834  0.000000  1
  Ru  Ru6  1  0.244523  0.755477  0.000000  1
  O  O7  1  0.095683  0.597680  0.578437  1
  O  O8  1  0.982307  0.016107  0.168360  1
  O  O9  1  0.402320  0.904317  0.421563  1
  O  O10  1  0.518219  0.482981  0.167689  1
  O  O11  1  0.099698  0.581298  0.077545  1
  O  O12  1  0.905022  0.403987  0.422188  1
  O  O13  1  0.983893  0.017693  0.831640  1
  O  O14  1  0.596013  0.094977  0.577812  1
  O  O15  1  0.517019  0.481781  0.832311  1
  O  O16  1  0.588329  0.105604  0.075822  1
  O  O17  1  0.418702  0.900302  0.922455  1
  O  O18  1  0.894396  0.411671  0.924178  1
