# generated using pymatgen
data_Zr8V11Si16Pd
_symmetry_space_group_name_H-M   'P 1'
_cell_length_a   6.64963659
_cell_length_b   6.64963659
_cell_length_c   12.28890548
_cell_angle_alpha   89.86744367
_cell_angle_beta   90.13255633
_cell_angle_gamma   89.83219528
_symmetry_Int_Tables_number   1
_chemical_formula_structural   Zr8V11Si16Pd
_chemical_formula_sum   'Zr8 V11 Si16 Pd1'
_cell_volume   543.38147990
_cell_formula_units_Z   1
loop_
 _symmetry_equiv_pos_site_id
 _symmetry_equiv_pos_as_xyz
  1  'x, y, z'
loop_
 _atom_site_type_symbol
 _atom_site_label
 _atom_site_symmetry_multiplicity
 _atom_site_fract_x
 _atom_site_fract_y
 _atom_site_fract_z
 _atom_site_occupancy
  Zr  Zr0  1  0.001978  0.661144  0.030540  1
  Zr  Zr1  1  0.998738  0.336844  0.531232  1
  Zr  Zr2  1  0.661144  0.001978  0.969460  1
  Zr  Zr3  1  0.160272  0.497570  0.780851  1
  Zr  Zr4  1  0.840163  0.498523  0.279880  1
  Zr  Zr5  1  0.497570  0.160272  0.219149  1
  Zr  Zr6  1  0.498523  0.840163  0.720120  1
  Zr  Zr7  1  0.336844  0.998738  0.468768  1
  V  V8  1  0.334198  0.503167  0.374911  1
  V  V9  1  0.842063  0.001508  0.371059  1
  V  V10  1  0.004618  0.159004  0.127166  1
  V  V11  1  0.001508  0.842063  0.628941  1
  V  V12  1  0.658791  0.494440  0.877466  1
  V  V13  1  0.503167  0.334198  0.625089  1
  V  V14  1  0.494440  0.658791  0.122534  1
  V  V15  1  0.159004  0.004618  0.872834  1
  V  V16  1  0.833925  0.168558  0.750508  1
  V  V17  1  0.168558  0.833925  0.249492  1
  V  V18  1  0.333505  0.333505  0.000000  1
  Si  Si19  1  0.045809  0.714703  0.436141  1
  Si  Si20  1  0.960445  0.289466  0.936311  1
  Si  Si21  1  0.714703  0.045809  0.563859  1
  Si  Si22  1  0.210244  0.459304  0.185536  1
  Si  Si23  1  0.788774  0.539206  0.686610  1
  Si  Si24  1  0.459304  0.210244  0.814464  1
  Si  Si25  1  0.539206  0.788774  0.313390  1
  Si  Si26  1  0.289466  0.960445  0.063689  1
  Si  Si27  1  0.872148  0.794431  0.819948  1
  Si  Si28  1  0.127336  0.205594  0.320588  1
  Si  Si29  1  0.794431  0.872148  0.180052  1
  Si  Si30  1  0.291588  0.621293  0.571102  1
  Si  Si31  1  0.705917  0.373021  0.071319  1
  Si  Si32  1  0.621293  0.291588  0.428898  1
  Si  Si33  1  0.373021  0.705917  0.928681  1
  Si  Si34  1  0.205594  0.127336  0.679412  1
  Pd  Pd35  1  0.671714  0.671714  0.500000  1
