# generated using pymatgen
data_Ho2Tm2TcRu7
_symmetry_space_group_name_H-M   'P 1'
_cell_length_a   5.18613042
_cell_length_b   5.36732428
_cell_length_c   8.94664504
_cell_angle_alpha   89.99559098
_cell_angle_beta   90.01065521
_cell_angle_gamma   121.10716689
_symmetry_Int_Tables_number   1
_chemical_formula_structural   Ho2Tm2TcRu7
_chemical_formula_sum   'Ho2 Tm2 Tc1 Ru7'
_cell_volume   213.22491166
_cell_formula_units_Z   1
loop_
 _symmetry_equiv_pos_site_id
 _symmetry_equiv_pos_as_xyz
  1  'x, y, z'
loop_
 _atom_site_type_symbol
 _atom_site_label
 _atom_site_symmetry_multiplicity
 _atom_site_fract_x
 _atom_site_fract_y
 _atom_site_fract_z
 _atom_site_occupancy
  Ho  Ho0  1  0.327744  0.664126  0.432932  1
  Ho  Ho1  1  0.656339  0.327859  0.565883  1
  Tm  Tm2  1  0.655731  0.327573  0.934552  1
  Tm  Tm3  1  0.328092  0.664267  0.066567  1
  Tc  Tc4  1  0.683806  0.841952  0.751096  1
  Ru  Ru5  1  0.980293  0.990186  0.499437  1
  Ru  Ru6  1  0.979853  0.989982  0.000628  1
  Ru  Ru7  1  0.836781  0.167718  0.248786  1
  Ru  Ru8  1  0.834808  0.667575  0.248786  1
  Ru  Ru9  1  0.355962  0.177282  0.248572  1
  Ru  Ru10  1  0.179741  0.827610  0.751386  1
  Ru  Ru11  1  0.180849  0.353868  0.751375  1
