# generated using pymatgen
data_Rb4PdPt5Se8
_symmetry_space_group_name_H-M   'P 1'
_cell_length_a   15.05786286
_cell_length_b   14.27007861
_cell_length_c   6.63130734
_cell_angle_alpha   83.66892330
_cell_angle_beta   70.37369056
_cell_angle_gamma   26.39022788
_symmetry_Int_Tables_number   1
_chemical_formula_structural   Rb4PdPt5Se8
_chemical_formula_sum   'Rb4 Pd1 Pt5 Se8'
_cell_volume   531.14074784
_cell_formula_units_Z   1
loop_
 _symmetry_equiv_pos_site_id
 _symmetry_equiv_pos_as_xyz
  1  'x, y, z'
loop_
 _atom_site_type_symbol
 _atom_site_label
 _atom_site_symmetry_multiplicity
 _atom_site_fract_x
 _atom_site_fract_y
 _atom_site_fract_z
 _atom_site_occupancy
  Rb  Rb0  1  0.571836  0.571836  0.428164  1
  Rb  Rb1  1  0.822551  0.822551  0.677449  1
  Rb  Rb2  1  0.677435  0.677435  0.822565  1
  Rb  Rb3  1  0.428078  0.428078  0.571922  1
  Pd  Pd4  1  0.249609  0.249609  0.750391  1
  Pt  Pt5  1  0.750623  0.750623  0.249377  1
  Pt  Pt6  1  0.000545  0.000545  0.499455  1
  Pt  Pt7  1  0.499408  0.499408  0.000592  1
  Pt  Pt8  1  0.999973  0.999973  0.000027  1
  Pt  Pt9  1  0.249977  0.249977  0.250023  1
  Se  Se10  1  0.227906  0.886500  0.102386  1
  Se  Se11  1  0.364848  0.020269  0.464227  1
  Se  Se12  1  0.142008  0.472932  0.029038  1
  Se  Se13  1  0.472932  0.142008  0.356023  1
  Se  Se14  1  0.778680  0.106823  0.891030  1
  Se  Se15  1  0.106823  0.778680  0.223466  1
  Se  Se16  1  0.886500  0.227906  0.783207  1
  Se  Se17  1  0.020269  0.364848  0.150657  1
