# generated using pymatgen
data_Ho6Al24PdRu4Pt3
_symmetry_space_group_name_H-M   'P 1'
_cell_length_a   8.84762058
_cell_length_b   8.82913276
_cell_length_c   9.51109168
_cell_angle_alpha   89.84775537
_cell_angle_beta   90.26620666
_cell_angle_gamma   120.05603979
_symmetry_Int_Tables_number   1
_chemical_formula_structural   Ho6Al24PdRu4Pt3
_chemical_formula_sum   'Ho6 Al24 Pd1 Ru4 Pt3'
_cell_volume   643.06562778
_cell_formula_units_Z   1
loop_
 _symmetry_equiv_pos_site_id
 _symmetry_equiv_pos_as_xyz
  1  'x, y, z'
loop_
 _atom_site_type_symbol
 _atom_site_label
 _atom_site_symmetry_multiplicity
 _atom_site_fract_x
 _atom_site_fract_y
 _atom_site_fract_z
 _atom_site_occupancy
  Ho  Ho0  1  0.192170  0.384299  0.249868  1
  Ho  Ho1  1  0.807830  0.615701  0.750132  1
  Ho  Ho2  1  0.616496  0.806929  0.247726  1
  Ho  Ho3  1  0.383504  0.193071  0.752274  1
  Ho  Ho4  1  0.190541  0.806506  0.252240  1
  Ho  Ho5  1  0.809459  0.193494  0.747760  1
  Al  Al6  1  0.327281  0.663854  0.032818  1
  Al  Al7  1  0.672719  0.336146  0.967182  1
  Al  Al8  1  0.663059  0.336280  0.533218  1
  Al  Al9  1  0.336941  0.663720  0.466782  1
  Al  Al10  1  0.168669  0.325889  0.577654  1
  Al  Al11  1  0.831331  0.674111  0.422346  1
  Al  Al12  1  0.674727  0.831909  0.576278  1
  Al  Al13  1  0.843076  0.674021  0.078209  1
  Al  Al14  1  0.325273  0.168091  0.423722  1
  Al  Al15  1  0.156924  0.325979  0.921791  1
  Al  Al16  1  0.162306  0.838914  0.580150  1
  Al  Al17  1  0.324105  0.161346  0.078903  1
  Al  Al18  1  0.837694  0.161086  0.419850  1
  Al  Al19  1  0.675895  0.838654  0.921097  1
  Al  Al20  1  0.842831  0.167882  0.077746  1
  Al  Al21  1  0.157169  0.832118  0.922254  1
  Al  Al22  1  0.564217  0.127579  0.249788  1
  Al  Al23  1  0.435783  0.872421  0.750212  1
  Al  Al24  1  0.874950  0.437005  0.246220  1
  Al  Al25  1  0.125050  0.562995  0.753780  1
  Al  Al26  1  0.562177  0.437926  0.253520  1
  Al  Al27  1  0.437823  0.562074  0.746480  1
  Al  Al28  1  0.999276  0.998443  0.250064  1
  Al  Al29  1  0.000724  0.001557  0.749936  1
  Pd  Pd30  1  0.500000  0.500000  0.000000  1
  Ru  Ru31  1  0.000000  0.500000  0.000000  1
  Ru  Ru32  1  0.500000  0.500000  0.500000  1
  Ru  Ru33  1  0.000000  0.000000  0.000000  1
  Ru  Ru34  1  0.000000  0.000000  0.500000  1
  Pt  Pt35  1  0.500000  0.000000  0.000000  1
  Pt  Pt36  1  0.500000  0.000000  0.500000  1
  Pt  Pt37  1  0.000000  0.500000  0.500000  1
