# generated using pymatgen
data_ScMn3Ga2(B2Rh5)2
_symmetry_space_group_name_H-M   'P 1'
_cell_length_a   9.35328417
_cell_length_b   9.35328417
_cell_length_c   2.96893500
_cell_angle_alpha   90.00000000
_cell_angle_beta   90.00000000
_cell_angle_gamma   89.49126794
_symmetry_Int_Tables_number   1
_chemical_formula_structural   ScMn3Ga2(B2Rh5)2
_chemical_formula_sum   'Sc1 Mn3 Ga2 B4 Rh10'
_cell_volume   259.72384804
_cell_formula_units_Z   1
loop_
 _symmetry_equiv_pos_site_id
 _symmetry_equiv_pos_as_xyz
  1  'x, y, z'
loop_
 _atom_site_type_symbol
 _atom_site_label
 _atom_site_symmetry_multiplicity
 _atom_site_fract_x
 _atom_site_fract_y
 _atom_site_fract_z
 _atom_site_occupancy
  Sc  Sc0  1  0.825001  0.325001  0.000000  1
  Mn  Mn1  1  0.323657  0.175719  0.000000  1
  Mn  Mn2  1  0.675719  0.823657  0.000000  1
  Mn  Mn3  1  0.178467  0.678467  0.000000  1
  Ga  Ga4  1  0.999071  0.002087  0.000000  1
  Ga  Ga5  1  0.502087  0.499071  0.000000  1
  B  B6  1  0.622061  0.122061  0.000000  1
  B  B7  1  0.129661  0.373738  0.000000  1
  B  B8  1  0.873738  0.629661  0.000000  1
  B  B9  1  0.370527  0.870527  0.000000  1
  Rh  Rh10  1  0.072950  0.216163  0.500000  1
  Rh  Rh11  1  0.214031  0.929683  0.500000  1
  Rh  Rh12  1  0.782023  0.068159  0.500000  1
  Rh  Rh13  1  0.928457  0.786581  0.500000  1
  Rh  Rh14  1  0.429683  0.714031  0.500000  1
  Rh  Rh15  1  0.568159  0.282023  0.500000  1
  Rh  Rh16  1  0.716163  0.572950  0.500000  1
  Rh  Rh17  1  0.286581  0.428457  0.500000  1
  Rh  Rh18  1  0.497985  0.997985  0.500000  1
  Rh  Rh19  1  0.003981  0.503981  0.500000  1
