# generated using pymatgen
data_Y4Ga18Co4PtRh
_symmetry_space_group_name_H-M   'P 1'
_cell_length_a   7.47109575
_cell_length_b   7.47109624
_cell_length_c   9.45069980
_cell_angle_alpha   89.97629229
_cell_angle_beta   89.97629284
_cell_angle_gamma   119.89458148
_symmetry_Int_Tables_number   1
_chemical_formula_structural   Y4Ga18Co4PtRh
_chemical_formula_sum   'Y4 Ga18 Co4 Pt1 Rh1'
_cell_volume   457.32341944
_cell_formula_units_Z   1
loop_
 _symmetry_equiv_pos_site_id
 _symmetry_equiv_pos_as_xyz
  1  'x, y, z'
loop_
 _atom_site_type_symbol
 _atom_site_label
 _atom_site_symmetry_multiplicity
 _atom_site_fract_x
 _atom_site_fract_y
 _atom_site_fract_z
 _atom_site_occupancy
  Y  Y0  1  0.664764  0.997260  0.750639  1
  Y  Y1  1  0.335452  0.003334  0.250373  1
  Y  Y2  1  0.996666  0.664548  0.749627  1
  Y  Y3  1  0.002740  0.335236  0.249361  1
  Ga  Ga4  1  0.008067  0.673049  0.074756  1
  Ga  Ga5  1  0.676029  0.011147  0.424235  1
  Ga  Ga6  1  0.990216  0.667388  0.424270  1
  Ga  Ga7  1  0.006331  0.332653  0.925454  1
  Ga  Ga8  1  0.667347  0.993669  0.074546  1
  Ga  Ga9  1  0.326951  0.991933  0.925244  1
  Ga  Ga10  1  0.676321  0.670085  0.560933  1
  Ga  Ga11  1  0.326736  0.329829  0.059668  1
  Ga  Ga12  1  0.670171  0.673264  0.940332  1
  Ga  Ga13  1  0.329915  0.323679  0.439067  1
  Ga  Ga14  1  0.115534  0.115904  0.750028  1
  Ga  Ga15  1  0.884096  0.884466  0.249972  1
  Ga  Ga16  1  0.660999  0.452921  0.255326  1
  Ga  Ga17  1  0.338878  0.545122  0.758208  1
  Ga  Ga18  1  0.454878  0.661122  0.241792  1
  Ga  Ga19  1  0.547079  0.339001  0.744674  1
  Ga  Ga20  1  0.332612  0.009784  0.575730  1
  Ga  Ga21  1  0.988853  0.323971  0.575765  1
  Co  Co22  1  0.329781  0.670219  0.000000  1
  Co  Co23  1  0.669858  0.330142  0.500000  1
  Co  Co24  1  0.000494  0.999506  0.000000  1
  Co  Co25  1  0.999393  0.000607  0.500000  1
  Pt  Pt26  1  0.328266  0.671734  0.500000  1
  Rh  Rh27  1  0.671575  0.328425  0.000000  1
