# generated using pymatgen
data_PrSb3(SeO3)8
_symmetry_space_group_name_H-M   'P 1'
_cell_length_a   8.52701472
_cell_length_b   8.84987404
_cell_length_c   8.53675700
_cell_angle_alpha   90.75779384
_cell_angle_beta   89.75694786
_cell_angle_gamma   90.09762036
_symmetry_Int_Tables_number   1
_chemical_formula_structural   PrSb3(SeO3)8
_chemical_formula_sum   'Pr1 Sb3 Se8 O24'
_cell_volume   644.14633262
_cell_formula_units_Z   1
loop_
 _symmetry_equiv_pos_site_id
 _symmetry_equiv_pos_as_xyz
  1  'x, y, z'
loop_
 _atom_site_type_symbol
 _atom_site_label
 _atom_site_symmetry_multiplicity
 _atom_site_fract_x
 _atom_site_fract_y
 _atom_site_fract_z
 _atom_site_occupancy
  Pr  Pr0  1  0.000000  0.500000  0.000000  1
  Sb  Sb1  1  0.500000  0.500000  0.500000  1
  Sb  Sb2  1  0.000000  0.000000  0.500000  1
  Sb  Sb3  1  0.500000  0.000000  0.000000  1
  Se  Se4  1  0.360614  0.689884  0.172457  1
  Se  Se5  1  0.836659  0.307398  0.356077  1
  Se  Se6  1  0.687495  0.843562  0.683446  1
  Se  Se7  1  0.197648  0.142342  0.809459  1
  Se  Se8  1  0.639386  0.310116  0.827543  1
  Se  Se9  1  0.163341  0.692602  0.643923  1
  Se  Se10  1  0.312505  0.156438  0.316554  1
  Se  Se11  1  0.802352  0.857658  0.190541  1
  O  O12  1  0.257411  0.577947  0.050006  1
  O  O13  1  0.753612  0.431721  0.487029  1
  O  O14  1  0.767629  0.978596  0.552547  1
  O  O15  1  0.267799  0.007982  0.946804  1
  O  O16  1  0.551006  0.972529  0.768588  1
  O  O17  1  0.497608  0.570162  0.247491  1
  O  O18  1  0.965569  0.414423  0.257099  1
  O  O19  1  0.053053  0.016282  0.731365  1
  O  O20  1  0.977359  0.223019  0.490361  1
  O  O21  1  0.567542  0.748411  0.560881  1
  O  O22  1  0.491140  0.777230  0.028050  1
  O  O23  1  0.086871  0.251493  0.925325  1
  O  O24  1  0.742589  0.422053  0.949994  1
  O  O25  1  0.246388  0.568279  0.512971  1
  O  O26  1  0.232371  0.021404  0.447453  1
  O  O27  1  0.732201  0.992018  0.053196  1
  O  O28  1  0.448994  0.027471  0.231412  1
  O  O29  1  0.502392  0.429838  0.752509  1
  O  O30  1  0.034431  0.585577  0.742901  1
  O  O31  1  0.946947  0.983718  0.268635  1
  O  O32  1  0.022641  0.776981  0.509639  1
  O  O33  1  0.432458  0.251589  0.439119  1
  O  O34  1  0.508860  0.222770  0.971950  1
  O  O35  1  0.913129  0.748507  0.074675  1
