# generated using pymatgen
data_Sm2HoAlC3
_symmetry_space_group_name_H-M   'P 1'
_cell_length_a   3.63891900
_cell_length_b   7.25699960
_cell_length_c   10.02352320
_cell_angle_alpha   89.56164215
_cell_angle_beta   90.00000000
_cell_angle_gamma   90.00000000
_symmetry_Int_Tables_number   1
_chemical_formula_structural   Sm2HoAlC3
_chemical_formula_sum   'Sm4 Ho2 Al2 C6'
_cell_volume   264.68978225
_cell_formula_units_Z   2
loop_
 _symmetry_equiv_pos_site_id
 _symmetry_equiv_pos_as_xyz
  1  'x, y, z'
loop_
 _atom_site_type_symbol
 _atom_site_label
 _atom_site_symmetry_multiplicity
 _atom_site_fract_x
 _atom_site_fract_y
 _atom_site_fract_z
 _atom_site_occupancy
  Sm  Sm0  1  0.500000  0.512342  0.194053  1
  Sm  Sm1  1  0.500000  0.487658  0.805947  1
  Sm  Sm2  1  0.000000  0.750572  0.460762  1
  Sm  Sm3  1  0.000000  0.249428  0.539238  1
  Ho  Ho4  1  0.500000  0.986995  0.201396  1
  Ho  Ho5  1  0.500000  0.013005  0.798604  1
  Al  Al6  1  0.000000  0.770456  0.005980  1
  Al  Al7  1  0.000000  0.229544  0.994020  1
  C  C8  1  0.500000  0.507625  0.565659  1
  C  C9  1  0.500000  0.492375  0.434341  1
  C  C10  1  0.500000  0.992006  0.565778  1
  C  C11  1  0.500000  0.007994  0.434222  1
  C  C12  1  0.000000  0.758118  0.207305  1
  C  C13  1  0.000000  0.241882  0.792695  1
