# generated using pymatgen
data_La20FeTc3Bi8
_symmetry_space_group_name_H-M   'P 1'
_cell_length_a   8.53604029
_cell_length_b   9.30968600
_cell_length_c   13.02893100
_cell_angle_alpha   90.00000000
_cell_angle_beta   90.27634988
_cell_angle_gamma   90.00000000
_symmetry_Int_Tables_number   1
_chemical_formula_structural   La20FeTc3Bi8
_chemical_formula_sum   'La20 Fe1 Tc3 Bi8'
_cell_volume   1035.36915328
_cell_formula_units_Z   1
loop_
 _symmetry_equiv_pos_site_id
 _symmetry_equiv_pos_as_xyz
  1  'x, y, z'
loop_
 _atom_site_type_symbol
 _atom_site_label
 _atom_site_symmetry_multiplicity
 _atom_site_fract_x
 _atom_site_fract_y
 _atom_site_fract_z
 _atom_site_occupancy
  La  La0  1  0.850925  0.750000  0.801301  1
  La  La1  1  0.146448  0.250000  0.198829  1
  La  La2  1  0.349368  0.250000  0.703033  1
  La  La3  1  0.645759  0.750000  0.303389  1
  La  La4  1  0.378388  0.750000  0.694985  1
  La  La5  1  0.619285  0.250000  0.305766  1
  La  La6  1  0.880637  0.250000  0.807327  1
  La  La7  1  0.119541  0.750000  0.191975  1
  La  La8  1  0.957241  0.750000  0.502790  1
  La  La9  1  0.051951  0.250000  0.497120  1
  La  La10  1  0.451709  0.250000  0.997045  1
  La  La11  1  0.555415  0.750000  0.004277  1
  La  La12  1  0.678412  0.028287  0.563695  1
  La  La13  1  0.319465  0.969212  0.435643  1
  La  La14  1  0.178492  0.966437  0.937190  1
  La  La15  1  0.319465  0.530788  0.435643  1
  La  La16  1  0.820323  0.024174  0.061268  1
  La  La17  1  0.678412  0.471713  0.563695  1
  La  La18  1  0.820323  0.475826  0.061268  1
  La  La19  1  0.178492  0.533563  0.937190  1
  Fe  Fe20  1  0.919541  0.750000  0.011600  1
  Tc  Tc21  1  0.587479  0.750000  0.516248  1
  Tc  Tc22  1  0.414345  0.250000  0.483390  1
  Tc  Tc23  1  0.082376  0.250000  0.984284  1
  Bi  Bi24  1  0.573868  0.494134  0.826761  1
  Bi  Bi25  1  0.425060  0.506878  0.173847  1
  Bi  Bi26  1  0.074275  0.506533  0.674483  1
  Bi  Bi27  1  0.425060  0.993122  0.173847  1
  Bi  Bi28  1  0.924904  0.493982  0.325433  1
  Bi  Bi29  1  0.573868  0.005866  0.826761  1
  Bi  Bi30  1  0.924904  0.006018  0.325433  1
  Bi  Bi31  1  0.074275  0.993467  0.674483  1
