# generated using pymatgen
data_Sm2DyEr5(Si3Rh)4
_symmetry_space_group_name_H-M   'P 1'
_cell_length_a   8.16469010
_cell_length_b   8.16469108
_cell_length_c   7.92202100
_cell_angle_alpha   90.00000000
_cell_angle_beta   90.00000000
_cell_angle_gamma   120.01782170
_symmetry_Int_Tables_number   1
_chemical_formula_structural   Sm2DyEr5(Si3Rh)4
_chemical_formula_sum   'Sm2 Dy1 Er5 Si12 Rh4'
_cell_volume   457.26510802
_cell_formula_units_Z   1
loop_
 _symmetry_equiv_pos_site_id
 _symmetry_equiv_pos_as_xyz
  1  'x, y, z'
loop_
 _atom_site_type_symbol
 _atom_site_label
 _atom_site_symmetry_multiplicity
 _atom_site_fract_x
 _atom_site_fract_y
 _atom_site_fract_z
 _atom_site_occupancy
  Sm  Sm0  1  0.000094  0.999906  0.250000  1
  Sm  Sm1  1  0.999939  0.000061  0.750000  1
  Dy  Dy2  1  0.492377  0.507623  0.250000  1
  Er  Er3  1  0.492670  0.985543  0.250000  1
  Er  Er4  1  0.014457  0.507330  0.250000  1
  Er  Er5  1  0.507432  0.492568  0.750000  1
  Er  Er6  1  0.985148  0.492522  0.750000  1
  Er  Er7  1  0.507478  0.014852  0.750000  1
  Si  Si8  1  0.832268  0.167732  0.502154  1
  Si  Si9  1  0.832329  0.664413  0.502291  1
  Si  Si10  1  0.335587  0.167671  0.502291  1
  Si  Si11  1  0.832268  0.167732  0.997846  1
  Si  Si12  1  0.832329  0.664413  0.997709  1
  Si  Si13  1  0.335587  0.167671  0.997709  1
  Si  Si14  1  0.167863  0.832137  0.002044  1
  Si  Si15  1  0.664432  0.832416  0.001520  1
  Si  Si16  1  0.167584  0.335568  0.001520  1
  Si  Si17  1  0.167863  0.832137  0.497956  1
  Si  Si18  1  0.664432  0.832416  0.498480  1
  Si  Si19  1  0.167584  0.335568  0.498480  1
  Rh  Rh20  1  0.666936  0.333064  0.469415  1
  Rh  Rh21  1  0.666936  0.333064  0.030585  1
  Rh  Rh22  1  0.333203  0.666797  0.967722  1
  Rh  Rh23  1  0.333203  0.666797  0.532278  1
