# generated using pymatgen
data_La4ErSn2Hg
_symmetry_space_group_name_H-M   'P 1'
_cell_length_a   9.47193792
_cell_length_b   9.47197341
_cell_length_c   9.47193895
_cell_angle_alpha   96.04255337
_cell_angle_beta   96.04486896
_cell_angle_gamma   142.13154629
_symmetry_Int_Tables_number   1
_chemical_formula_structural   La4ErSn2Hg
_chemical_formula_sum   'La8 Er2 Sn4 Hg2'
_cell_volume   493.42730948
_cell_formula_units_Z   2
loop_
 _symmetry_equiv_pos_site_id
 _symmetry_equiv_pos_as_xyz
  1  'x, y, z'
loop_
 _atom_site_type_symbol
 _atom_site_label
 _atom_site_symmetry_multiplicity
 _atom_site_fract_x
 _atom_site_fract_y
 _atom_site_fract_z
 _atom_site_occupancy
  La  La0  1  0.910209  0.225111  0.135296  1
  La  La1  1  0.225085  0.089795  0.314886  1
  La  La2  1  0.774915  0.910205  0.685114  1
  La  La3  1  0.089791  0.774889  0.864704  1
  La  La4  1  0.725091  0.410205  0.135290  1
  La  La5  1  0.274909  0.589795  0.864710  1
  La  La6  1  0.589815  0.725111  0.314902  1
  La  La7  1  0.410185  0.274889  0.685098  1
  Er  Er8  1  0.750009  0.250000  0.500009  1
  Er  Er9  1  0.249991  0.750000  0.499991  1
  Sn  Sn10  1  0.846181  0.653705  0.499966  1
  Sn  Sn11  1  0.653739  0.153705  0.807524  1
  Sn  Sn12  1  0.346261  0.846295  0.192476  1
  Sn  Sn13  1  0.153819  0.346295  0.500034  1
  Hg  Hg14  1  0.749998  0.750000  0.999998  1
  Hg  Hg15  1  0.250002  0.250000  0.000002  1
