# generated using pymatgen
data_Mn7FeAs4(O4F)4
_symmetry_space_group_name_H-M   'P 1'
_cell_length_a   7.67833217
_cell_length_b   7.68342883
_cell_length_c   10.43190736
_cell_angle_alpha   65.21447882
_cell_angle_beta   65.43839346
_cell_angle_gamma   52.41743319
_symmetry_Int_Tables_number   1
_chemical_formula_structural   Mn7FeAs4(O4F)4
_chemical_formula_sum   'Mn7 Fe1 As4 O16 F4'
_cell_volume   431.70779483
_cell_formula_units_Z   1
loop_
 _symmetry_equiv_pos_site_id
 _symmetry_equiv_pos_as_xyz
  1  'x, y, z'
loop_
 _atom_site_type_symbol
 _atom_site_label
 _atom_site_symmetry_multiplicity
 _atom_site_fract_x
 _atom_site_fract_y
 _atom_site_fract_z
 _atom_site_occupancy
  Mn  Mn0  1  0.197385  0.687644  0.012565  1
  Mn  Mn1  1  0.347152  0.771906  0.492585  1
  Mn  Mn2  1  0.772462  0.342192  0.993582  1
  Mn  Mn3  1  0.685522  0.198341  0.514701  1
  Mn  Mn4  1  0.957423  0.745113  0.362216  1
  Mn  Mn5  1  0.274384  0.056114  0.133302  1
  Mn  Mn6  1  0.053398  0.272047  0.635407  1
  Fe  Fe7  1  0.742510  0.958367  0.862381  1
  As  As8  1  0.421086  0.226368  0.308317  1
  As  As9  1  0.779152  0.571656  0.193129  1
  As  As10  1  0.570558  0.777847  0.696002  1
  As  As11  1  0.225249  0.422881  0.806643  1
  O  O12  1  0.460715  0.378348  0.134677  1
  O  O13  1  0.621211  0.525195  0.364288  1
  O  O14  1  0.524221  0.619168  0.866983  1
  O  O15  1  0.376707  0.462114  0.632958  1
  O  O16  1  0.353074  0.047752  0.309949  1
  O  O17  1  0.956849  0.628809  0.202404  1
  O  O18  1  0.630305  0.953961  0.704573  1
  O  O19  1  0.049975  0.348664  0.810869  1
  O  O20  1  0.213914  0.397991  0.426626  1
  O  O21  1  0.613075  0.785176  0.071768  1
  O  O22  1  0.780415  0.611637  0.575146  1
  O  O23  1  0.402006  0.215589  0.923921  1
  O  O24  1  0.662312  0.073708  0.371259  1
  O  O25  1  0.930872  0.330104  0.129317  1
  O  O26  1  0.328668  0.930479  0.631323  1
  O  O27  1  0.070236  0.665269  0.868295  1
  F  F28  1  0.153746  0.857866  0.155933  1
  F  F29  1  0.854911  0.148305  0.661768  1
  F  F30  1  0.039552  0.901378  0.446956  1
  F  F31  1  0.899152  0.036207  0.947959  1
