# generated using pymatgen
data_Cs8Zr6BeBr20
_symmetry_space_group_name_H-M   'P 1'
_cell_length_a   12.54984424
_cell_length_b   12.54984426
_cell_length_c   12.54984300
_cell_angle_alpha   60.00000068
_cell_angle_beta   60.00000064
_cell_angle_gamma   60.00000047
_symmetry_Int_Tables_number   1
_chemical_formula_structural   Cs8Zr6BeBr20
_chemical_formula_sum   'Cs8 Zr6 Be1 Br20'
_cell_volume   1397.65496935
_cell_formula_units_Z   1
loop_
 _symmetry_equiv_pos_site_id
 _symmetry_equiv_pos_as_xyz
  1  'x, y, z'
loop_
 _atom_site_type_symbol
 _atom_site_label
 _atom_site_symmetry_multiplicity
 _atom_site_fract_x
 _atom_site_fract_y
 _atom_site_fract_z
 _atom_site_occupancy
  Cs  Cs0  1  0.360715  0.360715  0.360715  1
  Cs  Cs1  1  0.639285  0.639285  0.639285  1
  Cs  Cs2  1  0.360715  0.360715  0.917855  1
  Cs  Cs3  1  0.360715  0.917855  0.360715  1
  Cs  Cs4  1  0.639285  0.639285  0.082145  1
  Cs  Cs5  1  0.639285  0.082145  0.639285  1
  Cs  Cs6  1  0.917855  0.360715  0.360715  1
  Cs  Cs7  1  0.082145  0.639285  0.639285  1
  Zr  Zr8  1  0.864725  0.135275  0.135275  1
  Zr  Zr9  1  0.135275  0.864725  0.864725  1
  Zr  Zr10  1  0.135275  0.864725  0.135275  1
  Zr  Zr11  1  0.864725  0.135275  0.864725  1
  Zr  Zr12  1  0.135275  0.135275  0.864725  1
  Zr  Zr13  1  0.864725  0.864725  0.135275  1
  Be  Be14  1  0.000000  0.000000  0.000000  1
  Br  Br15  1  0.308007  0.000000  0.000000  1
  Br  Br16  1  0.691993  0.000000  0.000000  1
  Br  Br17  1  0.000000  0.308007  0.691993  1
  Br  Br18  1  0.000000  0.691993  0.308007  1
  Br  Br19  1  0.000000  0.308007  0.000000  1
  Br  Br20  1  0.691993  0.000000  0.308007  1
  Br  Br21  1  0.000000  0.691993  0.000000  1
  Br  Br22  1  0.308007  0.000000  0.691993  1
  Br  Br23  1  0.000000  0.000000  0.308007  1
  Br  Br24  1  0.000000  0.000000  0.691993  1
  Br  Br25  1  0.691993  0.308007  0.000000  1
  Br  Br26  1  0.308007  0.691993  0.000000  1
  Br  Br27  1  0.698825  0.301175  0.301175  1
  Br  Br28  1  0.301175  0.698825  0.698825  1
  Br  Br29  1  0.301175  0.698825  0.301175  1
  Br  Br30  1  0.698825  0.301175  0.698825  1
  Br  Br31  1  0.301175  0.301175  0.698825  1
  Br  Br32  1  0.698825  0.698825  0.301175  1
  Br  Br33  1  0.250000  0.250000  0.250000  1
  Br  Br34  1  0.750000  0.750000  0.750000  1
