# generated using pymatgen
data_Ce(BeB14)2
_symmetry_space_group_name_H-M   'P 1'
_cell_length_a   7.19627924
_cell_length_b   7.19628002
_cell_length_c   5.74844617
_cell_angle_alpha   66.83685934
_cell_angle_beta   66.83686473
_cell_angle_gamma   92.47574260
_symmetry_Int_Tables_number   1
_chemical_formula_structural   Ce(BeB14)2
_chemical_formula_sum   'Ce1 Be2 B28'
_cell_volume   244.63613977
_cell_formula_units_Z   1
loop_
 _symmetry_equiv_pos_site_id
 _symmetry_equiv_pos_as_xyz
  1  'x, y, z'
loop_
 _atom_site_type_symbol
 _atom_site_label
 _atom_site_symmetry_multiplicity
 _atom_site_fract_x
 _atom_site_fract_y
 _atom_site_fract_z
 _atom_site_occupancy
  Ce  Ce0  1  0.880983  0.880983  0.374321  1
  Be  Be1  1  0.532204  0.532204  0.432463  1
  Be  Be2  1  0.252073  0.252073  0.303965  1
  B  B3  1  0.414965  0.730929  0.182271  1
  B  B4  1  0.577598  0.254070  0.840131  1
  B  B5  1  0.254070  0.577598  0.840131  1
  B  B6  1  0.730929  0.414965  0.182271  1
  B  B7  1  0.692538  0.859924  0.980059  1
  B  B8  1  0.302407  0.128125  0.041434  1
  B  B9  1  0.128125  0.302407  0.041434  1
  B  B10  1  0.859924  0.692538  0.980059  1
  B  B11  1  0.529664  0.868261  0.309669  1
  B  B12  1  0.468236  0.119800  0.218693  1
  B  B13  1  0.119800  0.468236  0.218693  1
  B  B14  1  0.868261  0.529664  0.309669  1
  B  B15  1  0.458214  0.117642  0.716093  1
  B  B16  1  0.527389  0.865809  0.807971  1
  B  B17  1  0.865809  0.527389  0.807971  1
  B  B18  1  0.117642  0.458214  0.716093  1
  B  B19  1  0.717841  0.097992  0.008579  1
  B  B20  1  0.277204  0.888539  0.336706  1
  B  B21  1  0.888539  0.277204  0.336706  1
  B  B22  1  0.097992  0.717841  0.008579  1
  B  B23  1  0.275606  0.889615  0.015055  1
  B  B24  1  0.714664  0.097954  0.691325  1
  B  B25  1  0.097954  0.714664  0.691325  1
  B  B26  1  0.889615  0.275606  0.015055  1
  B  B27  1  0.278628  0.466109  0.395778  1
  B  B28  1  0.698992  0.516023  0.650862  1
  B  B29  1  0.516023  0.698992  0.650862  1
  B  B30  1  0.466109  0.278628  0.395778  1
