# generated using pymatgen
data_Lu3Th5(P3Ir4)4
_symmetry_space_group_name_H-M   'P 1'
_cell_length_a   13.04780400
_cell_length_b   13.04780424
_cell_length_c   4.05904200
_cell_angle_alpha   90.00000000
_cell_angle_beta   90.00000000
_cell_angle_gamma   119.99999940
_symmetry_Int_Tables_number   1
_chemical_formula_structural   Lu3Th5(P3Ir4)4
_chemical_formula_sum   'Lu3 Th5 P12 Ir16'
_cell_volume   598.45160459
_cell_formula_units_Z   1
loop_
 _symmetry_equiv_pos_site_id
 _symmetry_equiv_pos_as_xyz
  1  'x, y, z'
loop_
 _atom_site_type_symbol
 _atom_site_label
 _atom_site_symmetry_multiplicity
 _atom_site_fract_x
 _atom_site_fract_y
 _atom_site_fract_z
 _atom_site_occupancy
  Lu  Lu0  1  0.000000  0.444974  0.500000  1
  Lu  Lu1  1  0.555026  0.555026  0.500000  1
  Lu  Lu2  1  0.444974  0.000000  0.500000  1
  Th  Th3  1  0.333333  0.666667  0.500000  1
  Th  Th4  1  0.666667  0.333333  0.500000  1
  Th  Th5  1  0.000000  0.816435  0.000000  1
  Th  Th6  1  0.183565  0.183565  0.000000  1
  Th  Th7  1  0.816435  0.000000  0.000000  1
  P  P8  1  0.000000  0.647510  0.500000  1
  P  P9  1  0.352490  0.352490  0.500000  1
  P  P10  1  0.647510  0.000000  0.500000  1
  P  P11  1  0.519930  0.686156  0.000000  1
  P  P12  1  0.313844  0.833775  0.000000  1
  P  P13  1  0.166225  0.480070  0.000000  1
  P  P14  1  0.480070  0.166225  0.000000  1
  P  P15  1  0.686156  0.519930  0.000000  1
  P  P16  1  0.833775  0.313844  0.000000  1
  P  P17  1  0.000000  0.177782  0.500000  1
  P  P18  1  0.822218  0.822218  0.500000  1
  P  P19  1  0.177782  0.000000  0.500000  1
  Ir  Ir20  1  0.509685  0.864250  0.000000  1
  Ir  Ir21  1  0.135750  0.645435  0.000000  1
  Ir  Ir22  1  0.354565  0.490315  0.000000  1
  Ir  Ir23  1  0.490315  0.354565  0.000000  1
  Ir  Ir24  1  0.864250  0.509685  0.000000  1
  Ir  Ir25  1  0.645435  0.135750  0.000000  1
  Ir  Ir26  1  0.000000  0.279647  0.000000  1
  Ir  Ir27  1  0.720353  0.720353  0.000000  1
  Ir  Ir28  1  0.279647  0.000000  0.000000  1
  Ir  Ir29  1  0.629077  0.807818  0.500000  1
  Ir  Ir30  1  0.192182  0.821260  0.500000  1
  Ir  Ir31  1  0.178740  0.370923  0.500000  1
  Ir  Ir32  1  0.370923  0.178740  0.500000  1
  Ir  Ir33  1  0.807818  0.629077  0.500000  1
  Ir  Ir34  1  0.821260  0.192182  0.500000  1
  Ir  Ir35  1  0.000000  0.000000  0.500000  1
