# generated using pymatgen
data_BaAcC12
_symmetry_space_group_name_H-M   'P 1'
_cell_length_a   4.33396000
_cell_length_b   4.33395997
_cell_length_c   10.46269900
_cell_angle_alpha   90.00000000
_cell_angle_beta   90.00000000
_cell_angle_gamma   119.99998497
_symmetry_Int_Tables_number   1
_chemical_formula_structural   BaAcC12
_chemical_formula_sum   'Ba1 Ac1 C12'
_cell_volume   170.19399122
_cell_formula_units_Z   1
loop_
 _symmetry_equiv_pos_site_id
 _symmetry_equiv_pos_as_xyz
  1  'x, y, z'
loop_
 _atom_site_type_symbol
 _atom_site_label
 _atom_site_symmetry_multiplicity
 _atom_site_fract_x
 _atom_site_fract_y
 _atom_site_fract_z
 _atom_site_occupancy
  Ba  Ba0  1  0.666667  0.333333  0.750000  1
  Ac  Ac1  1  0.333333  0.666667  0.250000  1
  C  C2  1  0.333376  0.999481  0.006291  1
  C  C3  1  0.666106  0.999481  0.006291  1
  C  C4  1  0.000519  0.333894  0.006291  1
  C  C5  1  0.666106  0.999481  0.493709  1
  C  C6  1  0.000519  0.666624  0.006291  1
  C  C7  1  0.333376  0.999481  0.493709  1
  C  C8  1  0.666106  0.666624  0.006291  1
  C  C9  1  0.000519  0.666624  0.493709  1
  C  C10  1  0.333376  0.333894  0.006291  1
  C  C11  1  0.000519  0.333894  0.493709  1
  C  C12  1  0.333376  0.333894  0.493709  1
  C  C13  1  0.666106  0.666624  0.493709  1
