# generated using pymatgen
data_DyTa(SnPt)2
_symmetry_space_group_name_H-M   'P 1'
_cell_length_a   6.45846600
_cell_length_b   4.54335900
_cell_length_c   9.12134600
_cell_angle_alpha   90.00000000
_cell_angle_beta   90.00000000
_cell_angle_gamma   90.00000000
_symmetry_Int_Tables_number   1
_chemical_formula_structural   DyTa(SnPt)2
_chemical_formula_sum   'Dy2 Ta2 Sn4 Pt4'
_cell_volume   267.64883805
_cell_formula_units_Z   2
loop_
 _symmetry_equiv_pos_site_id
 _symmetry_equiv_pos_as_xyz
  1  'x, y, z'
loop_
 _atom_site_type_symbol
 _atom_site_label
 _atom_site_symmetry_multiplicity
 _atom_site_fract_x
 _atom_site_fract_y
 _atom_site_fract_z
 _atom_site_occupancy
  Dy  Dy0  1  0.003551  0.000000  0.376420  1
  Dy  Dy1  1  0.503552  0.500001  0.623581  1
  Ta  Ta2  1  0.497330  0.500001  0.122531  1
  Ta  Ta3  1  0.997331  0.000000  0.877468  1
  Sn  Sn4  1  0.984912  0.500001  0.125194  1
  Sn  Sn5  1  0.510858  0.000000  0.371765  1
  Sn  Sn6  1  0.010858  0.500001  0.628237  1
  Sn  Sn7  1  0.484913  0.000000  0.874808  1
  Pt  Pt8  1  0.735204  0.000000  0.110003  1
  Pt  Pt9  1  0.268140  0.500001  0.354852  1
  Pt  Pt10  1  0.768141  0.000000  0.645149  1
  Pt  Pt11  1  0.235204  0.500001  0.889998  1
