# generated using pymatgen
data_La7Pr(Si3Pt)4
_symmetry_space_group_name_H-M   'P 1'
_cell_length_a   8.29837000
_cell_length_b   8.29837067
_cell_length_c   8.78772500
_cell_angle_alpha   90.00000000
_cell_angle_beta   90.00000000
_cell_angle_gamma   119.99999734
_symmetry_Int_Tables_number   1
_chemical_formula_structural   La7Pr(Si3Pt)4
_chemical_formula_sum   'La7 Pr1 Si12 Pt4'
_cell_volume   524.07413443
_cell_formula_units_Z   1
loop_
 _symmetry_equiv_pos_site_id
 _symmetry_equiv_pos_as_xyz
  1  'x, y, z'
loop_
 _atom_site_type_symbol
 _atom_site_label
 _atom_site_symmetry_multiplicity
 _atom_site_fract_x
 _atom_site_fract_y
 _atom_site_fract_z
 _atom_site_occupancy
  La  La0  1  0.000000  0.000000  0.750000  1
  La  La1  1  0.500939  0.499061  0.250000  1
  La  La2  1  0.500939  0.001881  0.250000  1
  La  La3  1  0.998119  0.499061  0.250000  1
  La  La4  1  0.499064  0.500936  0.750000  1
  La  La5  1  0.499064  0.998126  0.750000  1
  La  La6  1  0.001874  0.500936  0.750000  1
  Pr  Pr7  1  0.000000  0.000000  0.250000  1
  Si  Si8  1  0.165526  0.834474  0.500823  1
  Si  Si9  1  0.165526  0.331053  0.500823  1
  Si  Si10  1  0.668947  0.834474  0.500823  1
  Si  Si11  1  0.834489  0.165511  0.499085  1
  Si  Si12  1  0.834489  0.668978  0.499085  1
  Si  Si13  1  0.331022  0.165511  0.499085  1
  Si  Si14  1  0.834489  0.165511  0.000915  1
  Si  Si15  1  0.834489  0.668978  0.000915  1
  Si  Si16  1  0.331022  0.165511  0.000915  1
  Si  Si17  1  0.165526  0.834474  0.999177  1
  Si  Si18  1  0.165526  0.331053  0.999177  1
  Si  Si19  1  0.668947  0.834474  0.999177  1
  Pt  Pt20  1  0.333333  0.666667  0.495538  1
  Pt  Pt21  1  0.666667  0.333333  0.503326  1
  Pt  Pt22  1  0.666667  0.333333  0.996674  1
  Pt  Pt23  1  0.333333  0.666667  0.004462  1
