# generated using pymatgen
data_Y3In3Cu2Rh
_symmetry_space_group_name_H-M   'P 1'
_cell_length_a   7.55174400
_cell_length_b   7.55174474
_cell_length_c   3.91000800
_cell_angle_alpha   90.00000000
_cell_angle_beta   90.00000000
_cell_angle_gamma   119.99999676
_symmetry_Int_Tables_number   1
_chemical_formula_structural   Y3In3Cu2Rh
_chemical_formula_sum   'Y3 In3 Cu2 Rh1'
_cell_volume   193.10915021
_cell_formula_units_Z   1
loop_
 _symmetry_equiv_pos_site_id
 _symmetry_equiv_pos_as_xyz
  1  'x, y, z'
loop_
 _atom_site_type_symbol
 _atom_site_label
 _atom_site_symmetry_multiplicity
 _atom_site_fract_x
 _atom_site_fract_y
 _atom_site_fract_z
 _atom_site_occupancy
  Y  Y0  1  0.404327  0.987469  0.500000  1
  Y  Y1  1  0.012531  0.416858  0.500000  1
  Y  Y2  1  0.583142  0.595673  0.500000  1
  In  In3  1  0.749790  0.003910  0.000000  1
  In  In4  1  0.996090  0.745880  0.000000  1
  In  In5  1  0.254120  0.250210  0.000000  1
  Cu  Cu6  1  0.666667  0.333333  0.000000  1
  Cu  Cu7  1  0.000000  0.000000  0.500000  1
  Rh  Rh8  1  0.333333  0.666667  0.000000  1
