# generated using pymatgen
data_LaPAu2S3O16
_symmetry_space_group_name_H-M   'P 1'
_cell_length_a   6.71608663
_cell_length_b   6.42251135
_cell_length_c   9.12682753
_cell_angle_alpha   74.11682654
_cell_angle_beta   73.06316351
_cell_angle_gamma   87.52990322
_symmetry_Int_Tables_number   1
_chemical_formula_structural   LaPAu2S3O16
_chemical_formula_sum   'La1 P1 Au2 S3 O16'
_cell_volume   361.93750864
_cell_formula_units_Z   1
loop_
 _symmetry_equiv_pos_site_id
 _symmetry_equiv_pos_as_xyz
  1  'x, y, z'
loop_
 _atom_site_type_symbol
 _atom_site_label
 _atom_site_symmetry_multiplicity
 _atom_site_fract_x
 _atom_site_fract_y
 _atom_site_fract_z
 _atom_site_occupancy
  La  La0  1  0.000800  0.003851  0.986625  1
  P  P1  1  0.090494  0.591711  0.741858  1
  Au  Au2  1  0.999150  0.995981  0.500532  1
  Au  Au3  1  0.501434  0.501542  0.501475  1
  S  S4  1  0.592805  0.088580  0.740428  1
  S  S5  1  0.911181  0.409251  0.262345  1
  S  S6  1  0.405141  0.910050  0.256696  1
  O  O7  1  0.334570  0.635229  0.670203  1
  O  O8  1  0.633866  0.334287  0.671387  1
  O  O9  1  0.675479  0.364338  0.329191  1
  O  O10  1  0.370288  0.663886  0.329071  1
  O  O11  1  0.027953  0.725970  0.861445  1
  O  O12  1  0.700011  0.026472  0.862127  1
  O  O13  1  0.979647  0.289210  0.143512  1
  O  O14  1  0.291758  0.964988  0.138601  1
  O  O15  1  0.985201  0.675358  0.602547  1
  O  O16  1  0.684050  0.979620  0.605796  1
  O  O17  1  0.010165  0.324598  0.397948  1
  O  O18  1  0.313868  0.019073  0.391661  1
  O  O19  1  0.032852  0.349965  0.807049  1
  O  O20  1  0.371066  0.032063  0.793975  1
  O  O21  1  0.961891  0.641462  0.206396  1
  O  O22  1  0.626331  0.972514  0.199133  1
