# generated using pymatgen
data_Rb2MgTi(ZnP2)2
_symmetry_space_group_name_H-M   'P 1'
_cell_length_a   7.75959173
_cell_length_b   7.75959069
_cell_length_c   5.82236400
_cell_angle_alpha   90.00000000
_cell_angle_beta   90.00000000
_cell_angle_gamma   135.89399829
_symmetry_Int_Tables_number   1
_chemical_formula_structural   Rb2MgTi(ZnP2)2
_chemical_formula_sum   'Rb2 Mg1 Ti1 Zn2 P4'
_cell_volume   243.99380501
_cell_formula_units_Z   1
loop_
 _symmetry_equiv_pos_site_id
 _symmetry_equiv_pos_as_xyz
  1  'x, y, z'
loop_
 _atom_site_type_symbol
 _atom_site_label
 _atom_site_symmetry_multiplicity
 _atom_site_fract_x
 _atom_site_fract_y
 _atom_site_fract_z
 _atom_site_occupancy
  Rb  Rb0  1  0.500000  0.000000  0.253705  1
  Rb  Rb1  1  0.000000  0.500000  0.746295  1
  Mg  Mg2  1  0.500000  0.500000  0.500000  1
  Ti  Ti3  1  0.000000  0.000000  0.000000  1
  Zn  Zn4  1  0.500000  0.500000  0.000000  1
  Zn  Zn5  1  0.000000  0.000000  0.500000  1
  P  P6  1  0.666368  0.859837  0.763461  1
  P  P7  1  0.140163  0.333632  0.236539  1
  P  P8  1  0.859837  0.666368  0.236539  1
  P  P9  1  0.333632  0.140163  0.763461  1
