# generated using pymatgen
data_Nb4Ni4MoP4
_symmetry_space_group_name_H-M   'P 1'
_cell_length_a   7.23937459
_cell_length_b   7.23937453
_cell_length_c   7.23937499
_cell_angle_alpha   93.43604072
_cell_angle_beta   93.43604666
_cell_angle_gamma   151.65822888
_symmetry_Int_Tables_number   1
_chemical_formula_structural   Nb4Ni4MoP4
_chemical_formula_sum   'Nb4 Ni4 Mo1 P4'
_cell_volume   174.63404426
_cell_formula_units_Z   1
loop_
 _symmetry_equiv_pos_site_id
 _symmetry_equiv_pos_as_xyz
  1  'x, y, z'
loop_
 _atom_site_type_symbol
 _atom_site_label
 _atom_site_symmetry_multiplicity
 _atom_site_fract_x
 _atom_site_fract_y
 _atom_site_fract_z
 _atom_site_occupancy
  Nb  Nb0  1  0.804676  0.129420  0.934095  1
  Nb  Nb1  1  0.129420  0.195324  0.324744  1
  Nb  Nb2  1  0.870580  0.804676  0.675256  1
  Nb  Nb3  1  0.195324  0.870580  0.065905  1
  Ni  Ni4  1  0.914494  0.390424  0.304917  1
  Ni  Ni5  1  0.085506  0.609576  0.695083  1
  Ni  Ni6  1  0.609576  0.914494  0.524069  1
  Ni  Ni7  1  0.390424  0.085506  0.475931  1
  Mo  Mo8  1  0.500000  0.500000  0.000000  1
  P  P9  1  0.556276  0.243160  0.799437  1
  P  P10  1  0.243160  0.443724  0.686883  1
  P  P11  1  0.756840  0.556276  0.313117  1
  P  P12  1  0.443724  0.756840  0.200563  1
