# generated using pymatgen
data_Sr9Tm11Pb16
_symmetry_space_group_name_H-M   'P 1'
_cell_length_a   8.13700100
_cell_length_b   8.65459544
_cell_length_c   16.23004500
_cell_angle_alpha   90.00000000
_cell_angle_beta   90.00000000
_cell_angle_gamma   89.93012963
_symmetry_Int_Tables_number   1
_chemical_formula_structural   Sr9Tm11Pb16
_chemical_formula_sum   'Sr9 Tm11 Pb16'
_cell_volume   1142.95871042
_cell_formula_units_Z   1
loop_
 _symmetry_equiv_pos_site_id
 _symmetry_equiv_pos_as_xyz
  1  'x, y, z'
loop_
 _atom_site_type_symbol
 _atom_site_label
 _atom_site_symmetry_multiplicity
 _atom_site_fract_x
 _atom_site_fract_y
 _atom_site_fract_z
 _atom_site_occupancy
  Sr  Sr0  1  0.494838  0.677270  0.593716  1
  Sr  Sr1  1  0.994989  0.821446  0.906318  1
  Sr  Sr2  1  0.502647  0.320326  0.090815  1
  Sr  Sr3  1  0.002642  0.180608  0.411620  1
  Sr  Sr4  1  0.502647  0.320326  0.409185  1
  Sr  Sr5  1  0.002642  0.180608  0.088380  1
  Sr  Sr6  1  0.494838  0.677270  0.906284  1
  Sr  Sr7  1  0.994989  0.821446  0.593682  1
  Sr  Sr8  1  0.673712  0.011532  0.250000  1
  Tm  Tm9  1  0.670808  0.157470  0.626366  1
  Tm  Tm10  1  0.169954  0.343595  0.874615  1
  Tm  Tm11  1  0.330314  0.839302  0.120991  1
  Tm  Tm12  1  0.832022  0.661153  0.378932  1
  Tm  Tm13  1  0.330314  0.839302  0.379009  1
  Tm  Tm14  1  0.832022  0.661153  0.121068  1
  Tm  Tm15  1  0.670808  0.157470  0.873634  1
  Tm  Tm16  1  0.169954  0.343595  0.625385  1
  Tm  Tm17  1  0.832539  0.502991  0.750000  1
  Tm  Tm18  1  0.333170  0.998382  0.750000  1
  Tm  Tm19  1  0.171887  0.495699  0.250000  1
  Pb  Pb20  1  0.671949  0.954285  0.461522  1
  Pb  Pb21  1  0.173448  0.542665  0.043580  1
  Pb  Pb22  1  0.326207  0.042720  0.953796  1
  Pb  Pb23  1  0.825992  0.456767  0.545685  1
  Pb  Pb24  1  0.326207  0.042720  0.546204  1
  Pb  Pb25  1  0.825992  0.456767  0.954315  1
  Pb  Pb26  1  0.671949  0.954285  0.038478  1
  Pb  Pb27  1  0.173448  0.542665  0.456420  1
  Pb  Pb28  1  0.473471  0.363412  0.750000  1
  Pb  Pb29  1  0.974681  0.136019  0.750000  1
  Pb  Pb30  1  0.526192  0.629594  0.250000  1
  Pb  Pb31  1  0.038524  0.851504  0.250000  1
  Pb  Pb32  1  0.696710  0.857232  0.750000  1
  Pb  Pb33  1  0.196849  0.642086  0.750000  1
  Pb  Pb34  1  0.282060  0.137494  0.250000  1
  Pb  Pb35  1  0.808583  0.378841  0.250000  1
