# generated using pymatgen
data_Th4Fe(WN4)3
_symmetry_space_group_name_H-M   'P 1'
_cell_length_a   5.56492493
_cell_length_b   5.62548498
_cell_length_c   7.91983448
_cell_angle_alpha   89.80927098
_cell_angle_beta   90.09286390
_cell_angle_gamma   89.97698649
_symmetry_Int_Tables_number   1
_chemical_formula_structural   Th4Fe(WN4)3
_chemical_formula_sum   'Th4 Fe1 W3 N12'
_cell_volume   247.93187938
_cell_formula_units_Z   1
loop_
 _symmetry_equiv_pos_site_id
 _symmetry_equiv_pos_as_xyz
  1  'x, y, z'
loop_
 _atom_site_type_symbol
 _atom_site_label
 _atom_site_symmetry_multiplicity
 _atom_site_fract_x
 _atom_site_fract_y
 _atom_site_fract_z
 _atom_site_occupancy
  Th  Th0  1  0.501276  0.536325  0.239931  1
  Th  Th1  1  0.995099  0.049774  0.239158  1
  Th  Th2  1  0.498724  0.463675  0.760069  1
  Th  Th3  1  0.004901  0.950226  0.760842  1
  Fe  Fe4  1  0.000000  0.500000  0.000000  1
  W  W5  1  0.500000  0.000000  0.500000  1
  W  W6  1  0.000000  0.500000  0.500000  1
  W  W7  1  0.500000  0.000000  0.000000  1
  N  N8  1  0.427678  0.985674  0.251306  1
  N  N9  1  0.069130  0.485715  0.250616  1
  N  N10  1  0.572322  0.014326  0.748694  1
  N  N11  1  0.930870  0.514285  0.749384  1
  N  N12  1  0.793393  0.791617  0.035408  1
  N  N13  1  0.699155  0.298478  0.462303  1
  N  N14  1  0.201646  0.199455  0.537485  1
  N  N15  1  0.292351  0.706479  0.964089  1
  N  N16  1  0.206607  0.208383  0.964592  1
  N  N17  1  0.300845  0.701522  0.537697  1
  N  N18  1  0.798354  0.800545  0.462515  1
  N  N19  1  0.707649  0.293521  0.035911  1
