# generated using pymatgen
data_Rb3Tl5Cl16
_symmetry_space_group_name_H-M   'P 1'
_cell_length_a   7.91858700
_cell_length_b   10.83261619
_cell_length_c   10.37751667
_cell_angle_alpha   91.53745882
_cell_angle_beta   90.00000000
_cell_angle_gamma   90.00000000
_symmetry_Int_Tables_number   1
_chemical_formula_structural   Rb3Tl5Cl16
_chemical_formula_sum   'Rb3 Tl5 Cl16'
_cell_volume   889.85268037
_cell_formula_units_Z   1
loop_
 _symmetry_equiv_pos_site_id
 _symmetry_equiv_pos_as_xyz
  1  'x, y, z'
loop_
 _atom_site_type_symbol
 _atom_site_label
 _atom_site_symmetry_multiplicity
 _atom_site_fract_x
 _atom_site_fract_y
 _atom_site_fract_z
 _atom_site_occupancy
  Rb  Rb0  1  0.815599  0.750000  0.250000  1
  Rb  Rb1  1  0.185151  0.250000  0.750000  1
  Rb  Rb2  1  0.686563  0.250000  0.250000  1
  Tl  Tl3  1  0.750845  0.991682  0.811644  1
  Tl  Tl4  1  0.250155  0.501184  0.321093  1
  Tl  Tl5  1  0.250155  0.998816  0.178907  1
  Tl  Tl6  1  0.750845  0.508318  0.688356  1
  Tl  Tl7  1  0.326584  0.750000  0.750000  1
  Cl  Cl8  1  0.332145  0.319197  0.446010  1
  Cl  Cl9  1  0.505298  0.533695  0.188407  1
  Cl  Cl10  1  0.661969  0.684042  0.556028  1
  Cl  Cl11  1  0.332145  0.180803  0.053990  1
  Cl  Cl12  1  0.995307  0.035012  0.313602  1
  Cl  Cl13  1  0.661969  0.815958  0.943972  1
  Cl  Cl14  1  0.828736  0.321472  0.558175  1
  Cl  Cl15  1  0.009422  0.545357  0.816850  1
  Cl  Cl16  1  0.164721  0.683737  0.453927  1
  Cl  Cl17  1  0.995307  0.464988  0.186398  1
  Cl  Cl18  1  0.505298  0.966305  0.311593  1
  Cl  Cl19  1  0.828736  0.178528  0.941825  1
  Cl  Cl20  1  0.164721  0.816263  0.046073  1
  Cl  Cl21  1  0.009422  0.954643  0.683150  1
  Cl  Cl22  1  0.494452  0.475586  0.820328  1
  Cl  Cl23  1  0.494452  0.024414  0.679672  1
