# generated using pymatgen
data_Li4Ac3Sn3Bi
_symmetry_space_group_name_H-M   'P 1'
_cell_length_a   4.84083124
_cell_length_b   7.55693482
_cell_length_c   9.12974000
_cell_angle_alpha   114.44777024
_cell_angle_beta   105.37368834
_cell_angle_gamma   89.99999983
_symmetry_Int_Tables_number   1
_chemical_formula_structural   Li4Ac3Sn3Bi
_chemical_formula_sum   'Li4 Ac3 Sn3 Bi1'
_cell_volume   290.85887033
_cell_formula_units_Z   1
loop_
 _symmetry_equiv_pos_site_id
 _symmetry_equiv_pos_as_xyz
  1  'x, y, z'
loop_
 _atom_site_type_symbol
 _atom_site_label
 _atom_site_symmetry_multiplicity
 _atom_site_fract_x
 _atom_site_fract_y
 _atom_site_fract_z
 _atom_site_occupancy
  Li  Li0  1  0.328900  0.012898  0.657797  1
  Li  Li1  1  0.672196  0.979611  0.344394  1
  Li  Li2  1  0.328900  0.644899  0.657797  1
  Li  Li3  1  0.672196  0.364783  0.344394  1
  Ac  Ac4  1  0.872480  0.372480  0.744959  1
  Ac  Ac5  1  0.130359  0.630359  0.260720  1
  Ac  Ac6  1  0.996688  0.996688  0.993376  1
  Sn  Sn7  1  0.783692  0.783692  0.567385  1
  Sn  Sn8  1  0.500051  0.305907  0.000101  1
  Sn  Sn9  1  0.500051  0.694194  0.000101  1
  Bi  Bi10  1  0.214489  0.214489  0.428977  1
