# generated using pymatgen
data_Mg4BeAl(B2Rh5)2
_symmetry_space_group_name_H-M   'P 1'
_cell_length_a   9.32723100
_cell_length_b   2.91035200
_cell_length_c   9.32723100
_cell_angle_alpha   90.00000000
_cell_angle_beta   90.00000000
_cell_angle_gamma   90.00000000
_symmetry_Int_Tables_number   1
_chemical_formula_structural   Mg4BeAl(B2Rh5)2
_chemical_formula_sum   'Mg4 Be1 Al1 B4 Rh10'
_cell_volume   253.19258598
_cell_formula_units_Z   1
loop_
 _symmetry_equiv_pos_site_id
 _symmetry_equiv_pos_as_xyz
  1  'x, y, z'
loop_
 _atom_site_type_symbol
 _atom_site_label
 _atom_site_symmetry_multiplicity
 _atom_site_fract_x
 _atom_site_fract_y
 _atom_site_fract_z
 _atom_site_occupancy
  Mg  Mg0  1  0.325132  0.000000  0.176940  1
  Mg  Mg1  1  0.823060  0.000000  0.325132  1
  Mg  Mg2  1  0.176940  0.000000  0.674868  1
  Mg  Mg3  1  0.674868  0.000000  0.823060  1
  Be  Be4  1  0.500000  0.000000  0.500000  1
  Al  Al5  1  0.000000  0.000000  0.000000  1
  B  B6  1  0.621432  0.000000  0.133031  1
  B  B7  1  0.133031  0.000000  0.378568  1
  B  B8  1  0.866970  0.000000  0.621432  1
  B  B9  1  0.378568  0.000000  0.866970  1
  Rh  Rh10  1  0.500000  0.500001  0.000000  1
  Rh  Rh11  1  0.784668  0.500001  0.075617  1
  Rh  Rh12  1  0.075617  0.500001  0.215332  1
  Rh  Rh13  1  0.567544  0.500001  0.294193  1
  Rh  Rh14  1  0.294193  0.500001  0.432456  1
  Rh  Rh15  1  0.000000  0.500001  0.500000  1
  Rh  Rh16  1  0.705806  0.500001  0.567544  1
  Rh  Rh17  1  0.432456  0.500001  0.705806  1
  Rh  Rh18  1  0.924382  0.500001  0.784668  1
  Rh  Rh19  1  0.215332  0.500001  0.924382  1
