# generated using pymatgen
data_La2ThNi2
_symmetry_space_group_name_H-M   'P 1'
_cell_length_a   6.40357663
_cell_length_b   6.40357692
_cell_length_c   6.40357500
_cell_angle_alpha   145.12251588
_cell_angle_beta   119.72764505
_cell_angle_gamma   71.56345390
_symmetry_Int_Tables_number   1
_chemical_formula_structural   La2ThNi2
_chemical_formula_sum   'La2 Th1 Ni2'
_cell_volume   128.20411509
_cell_formula_units_Z   1
loop_
 _symmetry_equiv_pos_site_id
 _symmetry_equiv_pos_as_xyz
  1  'x, y, z'
loop_
 _atom_site_type_symbol
 _atom_site_label
 _atom_site_symmetry_multiplicity
 _atom_site_fract_x
 _atom_site_fract_y
 _atom_site_fract_z
 _atom_site_occupancy
  La  La0  1  0.688347  0.188347  0.500000  1
  La  La1  1  0.311653  0.811652  0.500000  1
  Th  Th2  1  0.000000  0.000000  0.000000  1
  Ni  Ni3  1  0.702306  0.500218  0.202525  1
  Ni  Ni4  1  0.297693  0.499782  0.797475  1
