# generated using pymatgen
data_Tm8Lu4CdCo4Os
_symmetry_space_group_name_H-M   'P 1'
_cell_length_a   8.14624569
_cell_length_b   8.14627655
_cell_length_c   8.14624481
_cell_angle_alpha   111.61366990
_cell_angle_beta   110.76883630
_cell_angle_gamma   106.08438389
_symmetry_Int_Tables_number   1
_chemical_formula_structural   Tm8Lu4CdCo4Os
_chemical_formula_sum   'Tm8 Lu4 Cd1 Co4 Os1'
_cell_volume   415.04664163
_cell_formula_units_Z   1
loop_
 _symmetry_equiv_pos_site_id
 _symmetry_equiv_pos_as_xyz
  1  'x, y, z'
loop_
 _atom_site_type_symbol
 _atom_site_label
 _atom_site_symmetry_multiplicity
 _atom_site_fract_x
 _atom_site_fract_y
 _atom_site_fract_z
 _atom_site_occupancy
  Tm  Tm0  1  0.417535  0.222954  0.194579  1
  Tm  Tm1  1  0.582465  0.777046  0.805421  1
  Tm  Tm2  1  0.028376  0.222954  0.805420  1
  Tm  Tm3  1  0.971624  0.777046  0.194580  1
  Tm  Tm4  1  0.181423  0.277908  0.459332  1
  Tm  Tm5  1  0.818577  0.722092  0.540668  1
  Tm  Tm6  1  0.181423  0.722092  0.903516  1
  Tm  Tm7  1  0.818577  0.277908  0.096484  1
  Lu  Lu8  1  0.314750  0.622445  0.307694  1
  Lu  Lu9  1  0.685250  0.377555  0.692306  1
  Lu  Lu10  1  0.314747  0.007059  0.692311  1
  Lu  Lu11  1  0.685253  0.992941  0.307689  1
  Cd  Cd12  1  0.500000  0.500000  0.000000  1
  Co  Co13  1  0.373984  0.000000  0.373984  1
  Co  Co14  1  0.626016  0.000000  0.626016  1
  Co  Co15  1  0.112915  0.612919  0.500003  1
  Co  Co16  1  0.887085  0.387081  0.499997  1
  Os  Os17  1  0.000000  0.000000  0.000000  1
