# generated using pymatgen
data_Ho3Tm2VMoO12
_symmetry_space_group_name_H-M   'P 1'
_cell_length_a   6.75248936
_cell_length_b   6.75248910
_cell_length_c   7.31284755
_cell_angle_alpha   74.05427614
_cell_angle_beta   74.05427495
_cell_angle_gamma   51.34731353
_symmetry_Int_Tables_number   1
_chemical_formula_structural   Ho3Tm2VMoO12
_chemical_formula_sum   'Ho3 Tm2 V1 Mo1 O12'
_cell_volume   248.00450993
_cell_formula_units_Z   1
loop_
 _symmetry_equiv_pos_site_id
 _symmetry_equiv_pos_as_xyz
  1  'x, y, z'
loop_
 _atom_site_type_symbol
 _atom_site_label
 _atom_site_symmetry_multiplicity
 _atom_site_fract_x
 _atom_site_fract_y
 _atom_site_fract_z
 _atom_site_occupancy
  Ho  Ho0  1  0.313814  0.308614  0.823071  1
  Ho  Ho1  1  0.691386  0.686186  0.176929  1
  Ho  Ho2  1  0.003198  0.996802  0.500000  1
  Tm  Tm3  1  0.313056  0.294909  0.362185  1
  Tm  Tm4  1  0.705091  0.686944  0.637815  1
  V  V5  1  0.749160  0.250840  0.000000  1
  Mo  Mo6  1  0.229387  0.770613  0.000000  1
  O  O7  1  0.897387  0.425980  0.916606  1
  O  O8  1  0.430754  0.898559  0.915965  1
  O  O9  1  0.101441  0.569246  0.084035  1
  O  O10  1  0.574020  0.102613  0.083394  1
  O  O11  1  0.101813  0.589779  0.572831  1
  O  O12  1  0.598155  0.089490  0.574393  1
  O  O13  1  0.910510  0.401845  0.425607  1
  O  O14  1  0.410221  0.898187  0.427169  1
  O  O15  1  0.988597  0.009681  0.809554  1
  O  O16  1  0.990319  0.011403  0.190446  1
  O  O17  1  0.496422  0.504730  0.808362  1
  O  O18  1  0.495270  0.503578  0.191638  1
