# generated using pymatgen
data_TaCd4Sb3O14
_symmetry_space_group_name_H-M   'P 1'
_cell_length_a   7.42045162
_cell_length_b   7.42045119
_cell_length_c   7.42045154
_cell_angle_alpha   59.60060009
_cell_angle_beta   59.60060412
_cell_angle_gamma   59.60060326
_symmetry_Int_Tables_number   1
_chemical_formula_structural   TaCd4Sb3O14
_chemical_formula_sum   'Ta1 Cd4 Sb3 O14'
_cell_volume   286.29617174
_cell_formula_units_Z   1
loop_
 _symmetry_equiv_pos_site_id
 _symmetry_equiv_pos_as_xyz
  1  'x, y, z'
loop_
 _atom_site_type_symbol
 _atom_site_label
 _atom_site_symmetry_multiplicity
 _atom_site_fract_x
 _atom_site_fract_y
 _atom_site_fract_z
 _atom_site_occupancy
  Ta  Ta0  1  0.625000  0.625000  0.625000  1
  Cd  Cd1  1  0.625000  0.125000  0.125000  1
  Cd  Cd2  1  0.125000  0.625000  0.125000  1
  Cd  Cd3  1  0.125000  0.125000  0.625000  1
  Cd  Cd4  1  0.125000  0.125000  0.125000  1
  Sb  Sb5  1  0.125000  0.625000  0.625000  1
  Sb  Sb6  1  0.625000  0.125000  0.625000  1
  Sb  Sb7  1  0.625000  0.625000  0.125000  1
  O  O8  1  0.692679  0.692679  0.306451  1
  O  O9  1  0.299860  0.299860  0.700006  1
  O  O10  1  0.692679  0.306451  0.692679  1
  O  O11  1  0.299860  0.700006  0.299860  1
  O  O12  1  0.306451  0.692679  0.692679  1
  O  O13  1  0.700006  0.299860  0.299860  1
  O  O14  1  0.557321  0.557321  0.943549  1
  O  O15  1  0.950140  0.950140  0.549994  1
  O  O16  1  0.557321  0.943549  0.557321  1
  O  O17  1  0.950140  0.549994  0.950140  1
  O  O18  1  0.943549  0.557321  0.557321  1
  O  O19  1  0.549994  0.950140  0.950140  1
  O  O20  1  0.251381  0.251381  0.251381  1
  O  O21  1  0.998619  0.998619  0.998619  1
