# generated using pymatgen
data_LiNd3Tl2CdPt2
_symmetry_space_group_name_H-M   'P 1'
_cell_length_a   8.09354823
_cell_length_b   8.09354794
_cell_length_c   3.82214500
_cell_angle_alpha   90.00000000
_cell_angle_beta   90.00000000
_cell_angle_gamma   120.56237665
_symmetry_Int_Tables_number   1
_chemical_formula_structural   LiNd3Tl2CdPt2
_chemical_formula_sum   'Li1 Nd3 Tl2 Cd1 Pt2'
_cell_volume   215.58900022
_cell_formula_units_Z   1
loop_
 _symmetry_equiv_pos_site_id
 _symmetry_equiv_pos_as_xyz
  1  'x, y, z'
loop_
 _atom_site_type_symbol
 _atom_site_label
 _atom_site_symmetry_multiplicity
 _atom_site_fract_x
 _atom_site_fract_y
 _atom_site_fract_z
 _atom_site_occupancy
  Li  Li0  1  0.998721  0.998721  0.500000  1
  Nd  Nd1  1  0.999883  0.578514  0.500000  1
  Nd  Nd2  1  0.578514  0.999883  0.500000  1
  Nd  Nd3  1  0.422040  0.422040  0.500000  1
  Tl  Tl4  1  0.997096  0.246237  0.000000  1
  Tl  Tl5  1  0.246237  0.997096  0.000000  1
  Cd  Cd6  1  0.750115  0.750115  0.000000  1
  Pt  Pt7  1  0.667403  0.339991  0.000000  1
  Pt  Pt8  1  0.339991  0.667403  0.000000  1
