# generated using pymatgen
data_Tb5Er14TmBi12
_symmetry_space_group_name_H-M   'P 1'
_cell_length_a   8.24274956
_cell_length_b   9.48850132
_cell_length_c   11.99904000
_cell_angle_alpha   89.98518166
_cell_angle_beta   90.02119376
_cell_angle_gamma   89.99847776
_symmetry_Int_Tables_number   1
_chemical_formula_structural   Tb5Er14TmBi12
_chemical_formula_sum   'Tb5 Er14 Tm1 Bi12'
_cell_volume   938.46090267
_cell_formula_units_Z   1
loop_
 _symmetry_equiv_pos_site_id
 _symmetry_equiv_pos_as_xyz
  1  'x, y, z'
loop_
 _atom_site_type_symbol
 _atom_site_label
 _atom_site_symmetry_multiplicity
 _atom_site_fract_x
 _atom_site_fract_y
 _atom_site_fract_z
 _atom_site_occupancy
  Tb  Tb0  1  0.192896  0.563639  0.440763  1
  Tb  Tb1  1  0.312710  0.250053  0.218755  1
  Tb  Tb2  1  0.812850  0.249996  0.281236  1
  Tb  Tb3  1  0.687322  0.750026  0.781422  1
  Tb  Tb4  1  0.187308  0.750247  0.718891  1
  Er  Er5  1  0.353443  0.750399  0.216300  1
  Er  Er6  1  0.852639  0.750376  0.283273  1
  Er  Er7  1  0.647227  0.249973  0.783508  1
  Er  Er8  1  0.147386  0.250265  0.716468  1
  Er  Er9  1  0.693046  0.565290  0.059246  1
  Er  Er10  1  0.192969  0.934945  0.440683  1
  Er  Er11  1  0.307009  0.065013  0.940845  1
  Er  Er12  1  0.807329  0.434936  0.559115  1
  Er  Er13  1  0.306837  0.434943  0.940648  1
  Er  Er14  1  0.806557  0.064821  0.559421  1
  Er  Er15  1  0.475613  0.249980  0.488311  1
  Er  Er16  1  0.975270  0.250138  0.011595  1
  Er  Er17  1  0.525148  0.750168  0.511899  1
  Er  Er18  1  0.024545  0.750045  0.988308  1
  Tm  Tm19  1  0.693153  0.935335  0.059138  1
  Bi  Bi20  1  0.406561  0.749886  0.958320  1
  Bi  Bi21  1  0.906119  0.750567  0.541912  1
  Bi  Bi22  1  0.593255  0.250399  0.041546  1
  Bi  Bi23  1  0.092776  0.248038  0.458673  1
  Bi  Bi24  1  0.565289  0.994672  0.325788  1
  Bi  Bi25  1  0.065088  0.505526  0.173857  1
  Bi  Bi26  1  0.434683  0.494526  0.674424  1
  Bi  Bi27  1  0.934631  0.005624  0.825848  1
  Bi  Bi28  1  0.434644  0.005620  0.674207  1
  Bi  Bi29  1  0.934473  0.494500  0.825940  1
  Bi  Bi30  1  0.565816  0.505517  0.325603  1
  Bi  Bi31  1  0.065412  0.994537  0.174056  1
