# generated using pymatgen
data_La5NiAu2
_symmetry_space_group_name_H-M   'P 1'
_cell_length_a   8.93799900
_cell_length_b   8.37419600
_cell_length_c   12.34384300
_cell_angle_alpha   90.00000000
_cell_angle_beta   90.00000000
_cell_angle_gamma   90.00000000
_symmetry_Int_Tables_number   1
_chemical_formula_structural   La5NiAu2
_chemical_formula_sum   'La20 Ni4 Au8'
_cell_volume   923.91881755
_cell_formula_units_Z   4
loop_
 _symmetry_equiv_pos_site_id
 _symmetry_equiv_pos_as_xyz
  1  'x, y, z'
loop_
 _atom_site_type_symbol
 _atom_site_label
 _atom_site_symmetry_multiplicity
 _atom_site_fract_x
 _atom_site_fract_y
 _atom_site_fract_z
 _atom_site_occupancy
  La  La0  1  0.162637  0.750000  0.209760  1
  La  La1  1  0.662637  0.250000  0.290240  1
  La  La2  1  0.837363  0.250000  0.790240  1
  La  La3  1  0.337363  0.750000  0.709760  1
  La  La4  1  0.456736  0.750000  0.007205  1
  La  La5  1  0.956736  0.250000  0.492795  1
  La  La6  1  0.543264  0.250000  0.992795  1
  La  La7  1  0.043264  0.750000  0.507205  1
  La  La8  1  0.619854  0.750000  0.300088  1
  La  La9  1  0.119854  0.250000  0.199912  1
  La  La10  1  0.380146  0.250000  0.699912  1
  La  La11  1  0.880146  0.750000  0.800088  1
  La  La12  1  0.822119  0.962407  0.076980  1
  La  La13  1  0.322119  0.037593  0.423020  1
  La  La14  1  0.177881  0.462407  0.923020  1
  La  La15  1  0.677881  0.537593  0.576980  1
  La  La16  1  0.177881  0.037593  0.923020  1
  La  La17  1  0.677881  0.962407  0.576980  1
  La  La18  1  0.822119  0.537593  0.076980  1
  La  La19  1  0.322119  0.462407  0.423020  1
  Ni  Ni20  1  0.437116  0.750000  0.490914  1
  Ni  Ni21  1  0.937116  0.250000  0.009086  1
  Ni  Ni22  1  0.562884  0.250000  0.509086  1
  Ni  Ni23  1  0.062884  0.750000  0.990914  1
  Au  Au24  1  0.923281  0.973414  0.325426  1
  Au  Au25  1  0.423281  0.026586  0.174574  1
  Au  Au26  1  0.076719  0.473414  0.674574  1
  Au  Au27  1  0.576719  0.526586  0.825426  1
  Au  Au28  1  0.076719  0.026586  0.674574  1
  Au  Au29  1  0.576719  0.973414  0.825426  1
  Au  Au30  1  0.923281  0.526586  0.325426  1
  Au  Au31  1  0.423281  0.473414  0.174574  1
