# generated using pymatgen
data_Y17Er3Cd3Ni2Au3
_symmetry_space_group_name_H-M   'P 1'
_cell_length_a   9.63611704
_cell_length_b   9.63586051
_cell_length_c   9.53588300
_cell_angle_alpha   90.00000000
_cell_angle_beta   90.00000000
_cell_angle_gamma   120.01418003
_symmetry_Int_Tables_number   1
_chemical_formula_structural   Y17Er3Cd3Ni2Au3
_chemical_formula_sum   'Y17 Er3 Cd3 Ni2 Au3'
_cell_volume   766.69396303
_cell_formula_units_Z   1
loop_
 _symmetry_equiv_pos_site_id
 _symmetry_equiv_pos_as_xyz
  1  'x, y, z'
loop_
 _atom_site_type_symbol
 _atom_site_label
 _atom_site_symmetry_multiplicity
 _atom_site_fract_x
 _atom_site_fract_y
 _atom_site_fract_z
 _atom_site_occupancy
  Y  Y0  1  0.000075  0.999918  0.458362  1
  Y  Y1  1  0.000075  0.999918  0.041638  1
  Y  Y2  1  0.456561  0.543383  0.750000  1
  Y  Y3  1  0.456641  0.913261  0.750000  1
  Y  Y4  1  0.086735  0.543385  0.750000  1
  Y  Y5  1  0.209556  0.790494  0.436401  1
  Y  Y6  1  0.209489  0.419007  0.436400  1
  Y  Y7  1  0.580996  0.790467  0.436407  1
  Y  Y8  1  0.790893  0.209128  0.559162  1
  Y  Y9  1  0.790900  0.581834  0.559144  1
  Y  Y10  1  0.418179  0.209096  0.559140  1
  Y  Y11  1  0.790893  0.209128  0.940838  1
  Y  Y12  1  0.790900  0.581834  0.940856  1
  Y  Y13  1  0.418179  0.209096  0.940860  1
  Y  Y14  1  0.209556  0.790494  0.063599  1
  Y  Y15  1  0.209489  0.419007  0.063600  1
  Y  Y16  1  0.580996  0.790467  0.063593  1
  Er  Er17  1  0.542043  0.457826  0.250000  1
  Er  Er18  1  0.542163  0.084258  0.250000  1
  Er  Er19  1  0.915724  0.457955  0.250000  1
  Cd  Cd20  1  0.109752  0.890267  0.750000  1
  Cd  Cd21  1  0.109745  0.219481  0.750000  1
  Cd  Cd22  1  0.780521  0.890243  0.750000  1
  Ni  Ni23  1  0.333325  0.666681  0.250000  1
  Ni  Ni24  1  0.666690  0.333301  0.750000  1
  Au  Au25  1  0.867248  0.132805  0.250000  1
  Au  Au26  1  0.867075  0.734406  0.250000  1
  Au  Au27  1  0.265602  0.132862  0.250000  1
