# generated using pymatgen
data_Np2C
_symmetry_space_group_name_H-M   'P 1'
_cell_length_a   5.92023500
_cell_length_b   5.92023533
_cell_length_c   8.85129200
_cell_angle_alpha   89.99950161
_cell_angle_beta   89.99950341
_cell_angle_gamma   119.99985848
_symmetry_Int_Tables_number   1
_chemical_formula_structural   Np2C
_chemical_formula_sum   'Np12 C6'
_cell_volume   268.66793408
_cell_formula_units_Z   6
loop_
 _symmetry_equiv_pos_site_id
 _symmetry_equiv_pos_as_xyz
  1  'x, y, z'
loop_
 _atom_site_type_symbol
 _atom_site_label
 _atom_site_symmetry_multiplicity
 _atom_site_fract_x
 _atom_site_fract_y
 _atom_site_fract_z
 _atom_site_occupancy
  Np  Np0  1  0.333526  0.000089  0.084436  1
  Np  Np1  1  0.666475  0.666537  0.084416  1
  Np  Np2  1  0.999960  0.333326  0.084428  1
  Np  Np3  1  0.666674  0.000040  0.415571  1
  Np  Np4  1  0.333463  0.333525  0.415584  1
  Np  Np5  1  0.999911  0.666474  0.415564  1
  Np  Np6  1  0.000090  0.333527  0.584436  1
  Np  Np7  1  0.666538  0.666475  0.584415  1
  Np  Np8  1  0.333327  0.999960  0.584429  1
  Np  Np9  1  0.000041  0.666674  0.915571  1
  Np  Np10  1  0.333524  0.333462  0.915584  1
  Np  Np11  1  0.666473  0.999910  0.915564  1
  C  C12  1  0.666668  0.333333  0.250000  1
  C  C13  1  0.333333  0.666668  0.750000  1
  C  C14  1  0.999958  0.000042  0.250000  1
  C  C15  1  0.333388  0.666612  0.250000  1
  C  C16  1  0.000042  0.999958  0.750000  1
  C  C17  1  0.666613  0.333388  0.750000  1
