# generated using pymatgen
data_Ti6Co16Si6Ge
_symmetry_space_group_name_H-M   'P 1'
_cell_length_a   7.86761340
_cell_length_b   7.86592565
_cell_length_c   7.86741038
_cell_angle_alpha   60.02615671
_cell_angle_beta   60.02525878
_cell_angle_gamma   60.02895112
_symmetry_Int_Tables_number   1
_chemical_formula_structural   Ti6Co16Si6Ge
_chemical_formula_sum   'Ti6 Co16 Si6 Ge1'
_cell_volume   344.48737235
_cell_formula_units_Z   1
loop_
 _symmetry_equiv_pos_site_id
 _symmetry_equiv_pos_as_xyz
  1  'x, y, z'
loop_
 _atom_site_type_symbol
 _atom_site_label
 _atom_site_symmetry_multiplicity
 _atom_site_fract_x
 _atom_site_fract_y
 _atom_site_fract_z
 _atom_site_occupancy
  Ti  Ti0  1  0.199824  0.800229  0.800211  1
  Ti  Ti1  1  0.800214  0.800236  0.199816  1
  Ti  Ti2  1  0.800176  0.199771  0.199789  1
  Ti  Ti3  1  0.199786  0.199764  0.800184  1
  Ti  Ti4  1  0.800196  0.199832  0.800202  1
  Ti  Ti5  1  0.199804  0.800168  0.199798  1
  Co  Co6  1  0.620736  0.620764  0.137713  1
  Co  Co7  1  0.166533  0.500445  0.166533  1
  Co  Co8  1  0.862265  0.379237  0.379272  1
  Co  Co9  1  0.499559  0.833468  0.833483  1
  Co  Co10  1  0.500441  0.166532  0.166517  1
  Co  Co11  1  0.833483  0.833471  0.499563  1
  Co  Co12  1  0.166517  0.166529  0.500437  1
  Co  Co13  1  0.137735  0.620763  0.620728  1
  Co  Co14  1  0.166520  0.166498  0.166529  1
  Co  Co15  1  0.379264  0.379236  0.862287  1
  Co  Co16  1  0.620754  0.620728  0.620758  1
  Co  Co17  1  0.379241  0.862254  0.379250  1
  Co  Co18  1  0.379246  0.379272  0.379242  1
  Co  Co19  1  0.833480  0.833502  0.833471  1
  Co  Co20  1  0.620759  0.137746  0.620750  1
  Co  Co21  1  0.833467  0.499555  0.833467  1
  Si  Si22  1  0.500000  0.000000  0.500000  1
  Si  Si23  1  0.500000  0.500000  0.000000  1
  Si  Si24  1  0.000000  0.000000  0.500000  1
  Si  Si25  1  0.000000  0.500000  0.000000  1
  Si  Si26  1  0.000000  0.500000  0.500000  1
  Si  Si27  1  0.500000  0.000000  0.000000  1
  Ge  Ge28  1  0.500000  0.500000  0.500000  1
