# generated using pymatgen
data_Ho3Er(Tm3Ru2)2
_symmetry_space_group_name_H-M   'P 1'
_cell_length_a   6.26285437
_cell_length_b   7.24569338
_cell_length_c   8.36631114
_cell_angle_alpha   96.85721107
_cell_angle_beta   112.05105718
_cell_angle_gamma   89.96211840
_symmetry_Int_Tables_number   1
_chemical_formula_structural   Ho3Er(Tm3Ru2)2
_chemical_formula_sum   'Ho3 Er1 Tm6 Ru4'
_cell_volume   348.96114919
_cell_formula_units_Z   1
loop_
 _symmetry_equiv_pos_site_id
 _symmetry_equiv_pos_as_xyz
  1  'x, y, z'
loop_
 _atom_site_type_symbol
 _atom_site_label
 _atom_site_symmetry_multiplicity
 _atom_site_fract_x
 _atom_site_fract_y
 _atom_site_fract_z
 _atom_site_occupancy
  Ho  Ho0  1  0.977368  0.415925  0.186652  1
  Ho  Ho1  1  0.209288  0.916064  0.186937  1
  Ho  Ho2  1  0.022521  0.584046  0.813254  1
  Er  Er3  1  0.790627  0.084053  0.812983  1
  Tm  Tm4  1  0.205859  0.184229  0.565583  1
  Tm  Tm5  1  0.640407  0.315654  0.434801  1
  Tm  Tm6  1  0.794306  0.815808  0.434579  1
  Tm  Tm7  1  0.359632  0.684360  0.565294  1
  Tm  Tm8  1  0.419239  0.249620  0.999728  1
  Tm  Tm9  1  0.580804  0.750382  0.000204  1
  Ru  Ru10  1  0.601743  0.423782  0.779240  1
  Ru  Ru11  1  0.822470  0.076622  0.220468  1
  Ru  Ru12  1  0.398310  0.576033  0.220791  1
  Ru  Ru13  1  0.177428  0.923425  0.779485  1
