# generated using pymatgen
data_Nb4Fe2PtSe12
_symmetry_space_group_name_H-M   'P 1'
_cell_length_a   7.41617605
_cell_length_b   7.41617623
_cell_length_c   19.58260059
_cell_angle_alpha   69.18853612
_cell_angle_beta   69.18853515
_cell_angle_gamma   26.35522931
_symmetry_Int_Tables_number   1
_chemical_formula_structural   Nb4Fe2PtSe12
_chemical_formula_sum   'Nb4 Fe2 Pt1 Se12'
_cell_volume   445.16494361
_cell_formula_units_Z   1
loop_
 _symmetry_equiv_pos_site_id
 _symmetry_equiv_pos_as_xyz
  1  'x, y, z'
loop_
 _atom_site_type_symbol
 _atom_site_label
 _atom_site_symmetry_multiplicity
 _atom_site_fract_x
 _atom_site_fract_y
 _atom_site_fract_z
 _atom_site_occupancy
  Nb  Nb0  1  0.622206  0.622206  0.849722  1
  Nb  Nb1  1  0.377794  0.377794  0.150278  1
  Nb  Nb2  1  0.745502  0.745502  0.590333  1
  Nb  Nb3  1  0.254498  0.254498  0.409667  1
  Fe  Fe4  1  0.228799  0.228799  0.715639  1
  Fe  Fe5  1  0.771201  0.771201  0.284361  1
  Pt  Pt6  1  0.000000  0.000000  0.000000  1
  Se  Se7  1  0.971952  0.971952  0.882940  1
  Se  Se8  1  0.028048  0.028048  0.117060  1
  Se  Se9  1  0.627785  0.627785  0.394709  1
  Se  Se10  1  0.372215  0.372215  0.605291  1
  Se  Se11  1  0.133826  0.133826  0.550758  1
  Se  Se12  1  0.866174  0.866174  0.449242  1
  Se  Se13  1  0.805694  0.805694  0.765175  1
  Se  Se14  1  0.194306  0.194306  0.234825  1
  Se  Se15  1  0.181617  0.181617  0.928393  1
  Se  Se16  1  0.818383  0.818383  0.071607  1
  Se  Se17  1  0.605885  0.605885  0.720083  1
  Se  Se18  1  0.394115  0.394115  0.279917  1
