# generated using pymatgen
data_SmEr2Fe(Co4P3)2
_symmetry_space_group_name_H-M   'P 1'
_cell_length_a   3.69539000
_cell_length_b   10.51722500
_cell_length_c   12.17765500
_cell_angle_alpha   90.00000000
_cell_angle_beta   90.00000000
_cell_angle_gamma   90.00000000
_symmetry_Int_Tables_number   1
_chemical_formula_structural   SmEr2Fe(Co4P3)2
_chemical_formula_sum   'Sm2 Er4 Fe2 Co16 P12'
_cell_volume   473.28758276
_cell_formula_units_Z   2
loop_
 _symmetry_equiv_pos_site_id
 _symmetry_equiv_pos_as_xyz
  1  'x, y, z'
loop_
 _atom_site_type_symbol
 _atom_site_label
 _atom_site_symmetry_multiplicity
 _atom_site_fract_x
 _atom_site_fract_y
 _atom_site_fract_z
 _atom_site_occupancy
  Sm  Sm0  1  0.750000  0.250000  0.477688  1
  Sm  Sm1  1  0.250000  0.750000  0.522312  1
  Er  Er2  1  0.250000  0.932339  0.795626  1
  Er  Er3  1  0.250000  0.567661  0.795626  1
  Er  Er4  1  0.750000  0.067661  0.204374  1
  Er  Er5  1  0.750000  0.432339  0.204374  1
  Fe  Fe6  1  0.250000  0.250000  0.843919  1
  Fe  Fe7  1  0.750000  0.750000  0.156081  1
  Co  Co8  1  0.250000  0.250000  0.295665  1
  Co  Co9  1  0.750000  0.750000  0.704335  1
  Co  Co10  1  0.750000  0.250000  0.013687  1
  Co  Co11  1  0.250000  0.750000  0.986313  1
  Co  Co12  1  0.250000  0.417094  0.005891  1
  Co  Co13  1  0.250000  0.082906  0.005891  1
  Co  Co14  1  0.750000  0.582906  0.994109  1
  Co  Co15  1  0.750000  0.917094  0.994109  1
  Co  Co16  1  0.250000  0.453741  0.570302  1
  Co  Co17  1  0.250000  0.046259  0.570302  1
  Co  Co18  1  0.750000  0.546259  0.429698  1
  Co  Co19  1  0.750000  0.953741  0.429698  1
  Co  Co20  1  0.250000  0.871179  0.289154  1
  Co  Co21  1  0.250000  0.628821  0.289154  1
  Co  Co22  1  0.750000  0.128821  0.710846  1
  Co  Co23  1  0.750000  0.371179  0.710846  1
  P  P24  1  0.250000  0.250000  0.117347  1
  P  P25  1  0.750000  0.750000  0.882653  1
  P  P26  1  0.250000  0.250000  0.659304  1
  P  P27  1  0.750000  0.750000  0.340696  1
  P  P28  1  0.250000  0.441103  0.382472  1
  P  P29  1  0.250000  0.058897  0.382472  1
  P  P30  1  0.750000  0.558897  0.617528  1
  P  P31  1  0.750000  0.941103  0.617528  1
  P  P32  1  0.250000  0.903105  0.107001  1
  P  P33  1  0.250000  0.596895  0.107001  1
  P  P34  1  0.750000  0.096895  0.892999  1
  P  P35  1  0.750000  0.403105  0.892999  1
