# generated using pymatgen
data_TbEuLuGa8Ag3
_symmetry_space_group_name_H-M   'P 1'
_cell_length_a   4.34115602
_cell_length_b   8.42485151
_cell_length_c   8.42485144
_cell_angle_alpha   69.33933073
_cell_angle_beta   75.06993657
_cell_angle_gamma   75.06992167
_symmetry_Int_Tables_number   1
_chemical_formula_structural   TbEuLuGa8Ag3
_chemical_formula_sum   'Tb1 Eu1 Lu1 Ga8 Ag3'
_cell_volume   273.79886358
_cell_formula_units_Z   1
loop_
 _symmetry_equiv_pos_site_id
 _symmetry_equiv_pos_as_xyz
  1  'x, y, z'
loop_
 _atom_site_type_symbol
 _atom_site_label
 _atom_site_symmetry_multiplicity
 _atom_site_fract_x
 _atom_site_fract_y
 _atom_site_fract_z
 _atom_site_occupancy
  Tb  Tb0  1  0.800072  0.199928  0.199928  1
  Eu  Eu1  1  0.499139  0.500861  0.500861  1
  Lu  Lu2  1  0.199077  0.800923  0.800923  1
  Ga  Ga3  1  0.354578  0.364191  0.926651  1
  Ga  Ga4  1  0.645793  0.637205  0.071211  1
  Ga  Ga5  1  0.354578  0.926651  0.364191  1
  Ga  Ga6  1  0.645793  0.071211  0.637205  1
  Ga  Ga7  1  0.160996  0.471387  0.206621  1
  Ga  Ga8  1  0.837869  0.530222  0.794038  1
  Ga  Ga9  1  0.160996  0.206621  0.471387  1
  Ga  Ga10  1  0.837869  0.794038  0.530222  1
  Ag  Ag11  1  0.501289  0.998711  0.998711  1
  Ag  Ag12  1  0.000975  0.804835  0.193215  1
  Ag  Ag13  1  0.000975  0.193215  0.804835  1
