# generated using pymatgen
data_Dy4Ho2Al24ZnRu7
_symmetry_space_group_name_H-M   'P 1'
_cell_length_a   8.84159824
_cell_length_b   8.84159726
_cell_length_c   9.53513707
_cell_angle_alpha   90.01786361
_cell_angle_beta   89.98213956
_cell_angle_gamma   119.96920896
_symmetry_Int_Tables_number   1
_chemical_formula_structural   Dy4Ho2Al24ZnRu7
_chemical_formula_sum   'Dy4 Ho2 Al24 Zn1 Ru7'
_cell_volume   645.73409017
_cell_formula_units_Z   1
loop_
 _symmetry_equiv_pos_site_id
 _symmetry_equiv_pos_as_xyz
  1  'x, y, z'
loop_
 _atom_site_type_symbol
 _atom_site_label
 _atom_site_symmetry_multiplicity
 _atom_site_fract_x
 _atom_site_fract_y
 _atom_site_fract_z
 _atom_site_occupancy
  Dy  Dy0  1  0.193009  0.385953  0.247434  1
  Dy  Dy1  1  0.806991  0.614047  0.752566  1
  Dy  Dy2  1  0.614047  0.806991  0.247434  1
  Dy  Dy3  1  0.385953  0.193009  0.752566  1
  Ho  Ho4  1  0.194387  0.805613  0.253337  1
  Ho  Ho5  1  0.805613  0.194387  0.746663  1
  Al  Al6  1  0.328902  0.671098  0.021202  1
  Al  Al7  1  0.671098  0.328902  0.978798  1
  Al  Al8  1  0.666359  0.333641  0.516043  1
  Al  Al9  1  0.333641  0.666359  0.483957  1
  Al  Al10  1  0.162119  0.324331  0.576657  1
  Al  Al11  1  0.837881  0.675669  0.423343  1
  Al  Al12  1  0.675669  0.837881  0.576657  1
  Al  Al13  1  0.849695  0.678024  0.081860  1
  Al  Al14  1  0.324331  0.162119  0.423343  1
  Al  Al15  1  0.150305  0.321976  0.918140  1
  Al  Al16  1  0.162433  0.837567  0.578215  1
  Al  Al17  1  0.321976  0.150305  0.081860  1
  Al  Al18  1  0.837567  0.162433  0.421785  1
  Al  Al19  1  0.678024  0.849695  0.918140  1
  Al  Al20  1  0.837182  0.162818  0.078125  1
  Al  Al21  1  0.162818  0.837182  0.921875  1
  Al  Al22  1  0.561093  0.121240  0.248464  1
  Al  Al23  1  0.438907  0.878760  0.751536  1
  Al  Al24  1  0.878760  0.438907  0.248464  1
  Al  Al25  1  0.121240  0.561093  0.751536  1
  Al  Al26  1  0.563674  0.436326  0.254714  1
  Al  Al27  1  0.436326  0.563674  0.745286  1
  Al  Al28  1  0.999265  0.000735  0.250379  1
  Al  Al29  1  0.000735  0.999265  0.749621  1
  Zn  Zn30  1  0.500000  0.500000  0.000000  1
  Ru  Ru31  1  0.500000  0.000000  0.000000  1
  Ru  Ru32  1  0.000000  0.500000  0.000000  1
  Ru  Ru33  1  0.500000  0.000000  0.500000  1
  Ru  Ru34  1  0.000000  0.500000  0.500000  1
  Ru  Ru35  1  0.500000  0.500000  0.500000  1
  Ru  Ru36  1  0.000000  0.000000  0.000000  1
  Ru  Ru37  1  0.000000  0.000000  0.500000  1
