# generated using pymatgen
data_Tb4EuDy2NiI12
_symmetry_space_group_name_H-M   'P 1'
_cell_length_a   9.79235847
_cell_length_b   9.79443285
_cell_length_c   9.79365228
_cell_angle_alpha   106.55084519
_cell_angle_beta   106.54564355
_cell_angle_gamma   106.55109117
_symmetry_Int_Tables_number   1
_chemical_formula_structural   Tb4EuDy2NiI12
_chemical_formula_sum   'Tb4 Eu1 Dy2 Ni1 I12'
_cell_volume   791.69357139
_cell_formula_units_Z   1
loop_
 _symmetry_equiv_pos_site_id
 _symmetry_equiv_pos_as_xyz
  1  'x, y, z'
loop_
 _atom_site_type_symbol
 _atom_site_label
 _atom_site_symmetry_multiplicity
 _atom_site_fract_x
 _atom_site_fract_y
 _atom_site_fract_z
 _atom_site_occupancy
  Tb  Tb0  1  0.976547  0.707479  0.905851  1
  Tb  Tb1  1  0.093942  0.023290  0.292501  1
  Tb  Tb2  1  0.292492  0.094065  0.023226  1
  Tb  Tb3  1  0.023176  0.292429  0.093918  1
  Eu  Eu4  1  0.499991  0.499996  0.499990  1
  Dy  Dy5  1  0.906078  0.976663  0.708059  1
  Dy  Dy6  1  0.708028  0.906173  0.976590  1
  Ni  Ni7  1  0.999703  0.999898  0.999755  1
  I  I8  1  0.926059  0.321190  0.776553  1
  I  I9  1  0.776606  0.926086  0.321364  1
  I  I10  1  0.321622  0.776715  0.926126  1
  I  I11  1  0.073904  0.678570  0.223328  1
  I  I12  1  0.222979  0.073797  0.678539  1
  I  I13  1  0.678522  0.222983  0.073801  1
  I  I14  1  0.547093  0.859067  0.626051  1
  I  I15  1  0.625788  0.547038  0.859040  1
  I  I16  1  0.858955  0.626041  0.546792  1
  I  I17  1  0.453242  0.141057  0.374198  1
  I  I18  1  0.374211  0.453256  0.141068  1
  I  I19  1  0.141061  0.374209  0.453251  1
