# generated using pymatgen
data_Zr6Zn16AsAu7
_symmetry_space_group_name_H-M   'P 1'
_cell_length_a   8.94204902
_cell_length_b   8.95058248
_cell_length_c   8.95058400
_cell_angle_alpha   60.00000178
_cell_angle_beta   59.96842852
_cell_angle_gamma   59.96842328
_symmetry_Int_Tables_number   1
_chemical_formula_structural   Zr6Zn16AsAu7
_chemical_formula_sum   'Zr6 Zn16 As1 Au7'
_cell_volume   506.31092359
_cell_formula_units_Z   1
loop_
 _symmetry_equiv_pos_site_id
 _symmetry_equiv_pos_as_xyz
  1  'x, y, z'
loop_
 _atom_site_type_symbol
 _atom_site_label
 _atom_site_symmetry_multiplicity
 _atom_site_fract_x
 _atom_site_fract_y
 _atom_site_fract_z
 _atom_site_occupancy
  Zr  Zr0  1  0.711519  0.288556  0.288556  1
  Zr  Zr1  1  0.288568  0.709851  0.709851  1
  Zr  Zr2  1  0.288568  0.709851  0.291730  1
  Zr  Zr3  1  0.711519  0.288556  0.711370  1
  Zr  Zr4  1  0.288568  0.291730  0.709851  1
  Zr  Zr5  1  0.711519  0.711370  0.288556  1
  Zn  Zn6  1  0.367960  0.877346  0.877346  1
  Zn  Zn7  1  0.498349  0.998718  0.998718  1
  Zn  Zn8  1  0.999208  0.499966  0.499966  1
  Zn  Zn9  1  0.999208  0.499966  0.000860  1
  Zn  Zn10  1  0.498349  0.998718  0.504216  1
  Zn  Zn11  1  0.999208  0.000860  0.499966  1
  Zn  Zn12  1  0.498349  0.504216  0.998718  1
  Zn  Zn13  1  0.335741  0.335846  0.335846  1
  Zn  Zn14  1  0.662783  0.664949  0.664949  1
  Zn  Zn15  1  0.335741  0.335846  0.992570  1
  Zn  Zn16  1  0.335741  0.992570  0.335846  1
  Zn  Zn17  1  0.662783  0.664949  0.007317  1
  Zn  Zn18  1  0.662783  0.007317  0.664949  1
  Zn  Zn19  1  0.992167  0.335945  0.335945  1
  Zn  Zn20  1  0.006499  0.664500  0.664500  1
  Zn  Zn21  1  0.001935  0.999355  0.999355  1
  As  As22  1  0.503086  0.498971  0.498971  1
  Au  Au23  1  0.124402  0.119411  0.119411  1
  Au  Au24  1  0.877739  0.878298  0.878298  1
  Au  Au25  1  0.124402  0.119411  0.636778  1
  Au  Au26  1  0.124402  0.636778  0.119411  1
  Au  Au27  1  0.877739  0.878298  0.365664  1
  Au  Au28  1  0.877739  0.365664  0.878298  1
  Au  Au29  1  0.633426  0.122192  0.122192  1
