# generated using pymatgen
data_SmYFe2I
_symmetry_space_group_name_H-M   'P 1'
_cell_length_a   3.96355300
_cell_length_b   3.96355224
_cell_length_c   17.41962800
_cell_angle_alpha   90.00000000
_cell_angle_beta   90.00000000
_cell_angle_gamma   119.99999799
_symmetry_Int_Tables_number   1
_chemical_formula_structural   SmYFe2I
_chemical_formula_sum   'Sm2 Y2 Fe4 I2'
_cell_volume   236.99477621
_cell_formula_units_Z   2
loop_
 _symmetry_equiv_pos_site_id
 _symmetry_equiv_pos_as_xyz
  1  'x, y, z'
loop_
 _atom_site_type_symbol
 _atom_site_label
 _atom_site_symmetry_multiplicity
 _atom_site_fract_x
 _atom_site_fract_y
 _atom_site_fract_z
 _atom_site_occupancy
  Sm  Sm0  1  0.000000  0.000000  0.607819  1
  Sm  Sm1  1  0.000000  0.000000  0.392181  1
  Y  Y2  1  0.000000  0.000000  0.104345  1
  Y  Y3  1  0.000000  0.000000  0.895655  1
  Fe  Fe4  1  0.333333  0.666667  0.503881  1
  Fe  Fe5  1  0.666667  0.333333  0.496119  1
  Fe  Fe6  1  0.666667  0.333333  0.005369  1
  Fe  Fe7  1  0.333333  0.666667  0.994631  1
  I  I8  1  0.333333  0.666667  0.245815  1
  I  I9  1  0.666667  0.333333  0.754185  1
