# generated using pymatgen
data_Ho5Er3Re2(OsC4)2
_symmetry_space_group_name_H-M   'P 1'
_cell_length_a   5.07508800
_cell_length_b   6.50987025
_cell_length_c   9.76710867
_cell_angle_alpha   89.76169984
_cell_angle_beta   90.00000000
_cell_angle_gamma   90.00000000
_symmetry_Int_Tables_number   1
_chemical_formula_structural   Ho5Er3Re2(OsC4)2
_chemical_formula_sum   'Ho5 Er3 Re2 Os2 C8'
_cell_volume   322.68455062
_cell_formula_units_Z   1
loop_
 _symmetry_equiv_pos_site_id
 _symmetry_equiv_pos_as_xyz
  1  'x, y, z'
loop_
 _atom_site_type_symbol
 _atom_site_label
 _atom_site_symmetry_multiplicity
 _atom_site_fract_x
 _atom_site_fract_y
 _atom_site_fract_z
 _atom_site_occupancy
  Ho  Ho0  1  0.250000  0.179372  0.943983  1
  Ho  Ho1  1  0.250000  0.531607  0.216374  1
  Ho  Ho2  1  0.750000  0.468566  0.783619  1
  Ho  Ho3  1  0.750000  0.970074  0.714395  1
  Ho  Ho4  1  0.250000  0.029716  0.285772  1
  Er  Er5  1  0.250000  0.677689  0.555311  1
  Er  Er6  1  0.750000  0.322421  0.444570  1
  Er  Er7  1  0.750000  0.821305  0.056446  1
  Re  Re8  1  0.250000  0.721627  0.866274  1
  Re  Re9  1  0.750000  0.278286  0.133871  1
  Os  Os10  1  0.750000  0.776672  0.366368  1
  Os  Os11  1  0.250000  0.223265  0.633472  1
  C  C12  1  0.250000  0.456104  0.759074  1
  C  C13  1  0.750000  0.544254  0.240444  1
  C  C14  1  0.750000  0.043859  0.258904  1
  C  C15  1  0.250000  0.955843  0.740923  1
  C  C16  1  0.250000  0.823686  0.052687  1
  C  C17  1  0.750000  0.175682  0.947615  1
  C  C18  1  0.750000  0.673999  0.552332  1
  C  C19  1  0.250000  0.325974  0.447568  1
