# generated using pymatgen
data_CeHoTc2F14
_symmetry_space_group_name_H-M   'P 1'
_cell_length_a   5.69004000
_cell_length_b   9.02945405
_cell_length_c   12.16133115
_cell_angle_alpha   62.57995585
_cell_angle_beta   90.00000000
_cell_angle_gamma   90.00000000
_symmetry_Int_Tables_number   1
_chemical_formula_structural   CeHoTc2F14
_chemical_formula_sum   'Ce2 Ho2 Tc4 F28'
_cell_volume   554.62801832
_cell_formula_units_Z   2
loop_
 _symmetry_equiv_pos_site_id
 _symmetry_equiv_pos_as_xyz
  1  'x, y, z'
loop_
 _atom_site_type_symbol
 _atom_site_label
 _atom_site_symmetry_multiplicity
 _atom_site_fract_x
 _atom_site_fract_y
 _atom_site_fract_z
 _atom_site_occupancy
  Ce  Ce0  1  0.758221  0.808062  0.765245  1
  Ce  Ce1  1  0.258221  0.191938  0.734755  1
  Ho  Ho2  1  0.241019  0.184580  0.235767  1
  Ho  Ho3  1  0.741019  0.815420  0.264233  1
  Tc  Tc4  1  0.755667  0.268279  0.964819  1
  Tc  Tc5  1  0.255667  0.731721  0.535181  1
  Tc  Tc6  1  0.241649  0.722897  0.050088  1
  Tc  Tc7  1  0.741649  0.277103  0.449912  1
  F  F8  1  0.444253  0.706588  0.924893  1
  F  F9  1  0.944253  0.293412  0.575107  1
  F  F10  1  0.550896  0.291197  0.085475  1
  F  F11  1  0.050896  0.708803  0.414525  1
  F  F12  1  0.457453  0.282511  0.541675  1
  F  F13  1  0.957453  0.717489  0.958325  1
  F  F14  1  0.547034  0.724352  0.448029  1
  F  F15  1  0.047034  0.275648  0.051971  1
  F  F16  1  0.771280  0.513012  0.864624  1
  F  F17  1  0.271280  0.486988  0.635376  1
  F  F18  1  0.231087  0.478023  0.144217  1
  F  F19  1  0.731087  0.521977  0.355783  1
  F  F20  1  0.754864  0.023918  0.057418  1
  F  F21  1  0.254864  0.976082  0.442582  1
  F  F22  1  0.242247  0.966659  0.951761  1
  F  F23  1  0.742247  0.033341  0.548239  1
  F  F24  1  0.977063  0.729294  0.632724  1
  F  F25  1  0.477063  0.270706  0.867276  1
  F  F26  1  0.016779  0.269314  0.354230  1
  F  F27  1  0.516779  0.730686  0.145770  1
  F  F28  1  0.038043  0.745071  0.173442  1
  F  F29  1  0.538043  0.254929  0.326558  1
  F  F30  1  0.949401  0.251923  0.835135  1
  F  F31  1  0.449401  0.748077  0.664865  1
  F  F32  1  0.429354  0.976406  0.233738  1
  F  F33  1  0.929354  0.023594  0.266262  1
  F  F34  1  0.593691  0.032616  0.770463  1
  F  F35  1  0.093691  0.967384  0.729537  1
