# generated using pymatgen
data_YTm3Lu2FeSb2
_symmetry_space_group_name_H-M   'P 1'
_cell_length_a   8.07273709
_cell_length_b   8.08895647
_cell_length_c   4.11626400
_cell_angle_alpha   90.00000000
_cell_angle_beta   90.00000000
_cell_angle_gamma   120.06647697
_symmetry_Int_Tables_number   1
_chemical_formula_structural   YTm3Lu2FeSb2
_chemical_formula_sum   'Y1 Tm3 Lu2 Fe1 Sb2'
_cell_volume   232.62471324
_cell_formula_units_Z   1
loop_
 _symmetry_equiv_pos_site_id
 _symmetry_equiv_pos_as_xyz
  1  'x, y, z'
loop_
 _atom_site_type_symbol
 _atom_site_label
 _atom_site_symmetry_multiplicity
 _atom_site_fract_x
 _atom_site_fract_y
 _atom_site_fract_z
 _atom_site_occupancy
  Y  Y0  1  0.000000  0.604309  0.500000  1
  Tm  Tm1  1  0.000000  0.233618  0.000000  1
  Tm  Tm2  1  0.393499  0.392863  0.500000  1
  Tm  Tm3  1  0.606501  0.999363  0.500000  1
  Lu  Lu4  1  0.232837  0.000331  0.000000  1
  Lu  Lu5  1  0.767163  0.767494  0.000000  1
  Fe  Fe6  1  0.000000  0.003284  0.500000  1
  Sb  Sb7  1  0.335933  0.667336  0.000000  1
  Sb  Sb8  1  0.664067  0.331403  0.000000  1
