# generated using pymatgen
data_Ce10SnGe2Sb5
_symmetry_space_group_name_H-M   'P 1'
_cell_length_a   9.50988105
_cell_length_b   9.50987992
_cell_length_c   6.43473100
_cell_angle_alpha   90.00000000
_cell_angle_beta   90.00000000
_cell_angle_gamma   119.98813169
_symmetry_Int_Tables_number   1
_chemical_formula_structural   Ce10SnGe2Sb5
_chemical_formula_sum   'Ce10 Sn1 Ge2 Sb5'
_cell_volume   504.03775929
_cell_formula_units_Z   1
loop_
 _symmetry_equiv_pos_site_id
 _symmetry_equiv_pos_as_xyz
  1  'x, y, z'
loop_
 _atom_site_type_symbol
 _atom_site_label
 _atom_site_symmetry_multiplicity
 _atom_site_fract_x
 _atom_site_fract_y
 _atom_site_fract_z
 _atom_site_occupancy
  Ce  Ce0  1  0.665853  0.332665  0.999553  1
  Ce  Ce1  1  0.332665  0.665853  0.999553  1
  Ce  Ce2  1  0.332665  0.665853  0.500447  1
  Ce  Ce3  1  0.665853  0.332665  0.500447  1
  Ce  Ce4  1  0.739793  0.739793  0.750000  1
  Ce  Ce5  1  0.262812  0.998289  0.750000  1
  Ce  Ce6  1  0.998289  0.262812  0.750000  1
  Ce  Ce7  1  0.262795  0.262795  0.250000  1
  Ce  Ce8  1  0.738856  0.999746  0.250000  1
  Ce  Ce9  1  0.999746  0.738856  0.250000  1
  Sn  Sn10  1  0.383134  0.383134  0.750000  1
  Ge  Ge11  1  0.001686  0.001686  0.998929  1
  Ge  Ge12  1  0.001686  0.001686  0.501071  1
  Sb  Sb13  1  0.615687  0.999248  0.750000  1
  Sb  Sb14  1  0.999248  0.615687  0.750000  1
  Sb  Sb15  1  0.615038  0.615038  0.250000  1
  Sb  Sb16  1  0.384105  0.000090  0.250000  1
  Sb  Sb17  1  0.000090  0.384105  0.250000  1
