# generated using pymatgen
data_LiDy9(Ni2Au)2
_symmetry_space_group_name_H-M   'P 1'
_cell_length_a   8.39408355
_cell_length_b   8.39408402
_cell_length_c   8.39408300
_cell_angle_alpha   126.53668701
_cell_angle_beta   126.53668938
_cell_angle_gamma   79.00783061
_symmetry_Int_Tables_number   1
_chemical_formula_structural   LiDy9(Ni2Au)2
_chemical_formula_sum   'Li1 Dy9 Ni4 Au2'
_cell_volume   369.33844212
_cell_formula_units_Z   1
loop_
 _symmetry_equiv_pos_site_id
 _symmetry_equiv_pos_as_xyz
  1  'x, y, z'
loop_
 _atom_site_type_symbol
 _atom_site_label
 _atom_site_symmetry_multiplicity
 _atom_site_fract_x
 _atom_site_fract_y
 _atom_site_fract_z
 _atom_site_occupancy
  Li  Li0  1  0.000000  0.000000  0.000000  1
  Dy  Dy1  1  0.500000  0.500000  0.000000  1
  Dy  Dy2  1  0.816085  0.283347  0.830303  1
  Dy  Dy3  1  0.183915  0.716653  0.169697  1
  Dy  Dy4  1  0.453043  0.985782  0.169697  1
  Dy  Dy5  1  0.283347  0.453043  0.467261  1
  Dy  Dy6  1  0.014218  0.183915  0.467261  1
  Dy  Dy7  1  0.546957  0.014218  0.830303  1
  Dy  Dy8  1  0.716653  0.546957  0.532739  1
  Dy  Dy9  1  0.985782  0.816085  0.532739  1
  Ni  Ni10  1  0.133693  0.618573  0.752265  1
  Ni  Ni11  1  0.866307  0.381427  0.247735  1
  Ni  Ni12  1  0.618573  0.866307  0.484880  1
  Ni  Ni13  1  0.381427  0.133693  0.515120  1
  Au  Au14  1  0.254299  0.254299  0.000000  1
  Au  Au15  1  0.745701  0.745701  0.000000  1
