# generated using pymatgen
data_Zr3MnAl3Pd2
_symmetry_space_group_name_H-M   'P 1'
_cell_length_a   7.27549700
_cell_length_b   7.27549619
_cell_length_c   6.83053200
_cell_angle_alpha   90.00000000
_cell_angle_beta   90.00000000
_cell_angle_gamma   120.00000037
_symmetry_Int_Tables_number   1
_chemical_formula_structural   Zr3MnAl3Pd2
_chemical_formula_sum   'Zr6 Mn2 Al6 Pd4'
_cell_volume   313.11973719
_cell_formula_units_Z   2
loop_
 _symmetry_equiv_pos_site_id
 _symmetry_equiv_pos_as_xyz
  1  'x, y, z'
loop_
 _atom_site_type_symbol
 _atom_site_label
 _atom_site_symmetry_multiplicity
 _atom_site_fract_x
 _atom_site_fract_y
 _atom_site_fract_z
 _atom_site_occupancy
  Zr  Zr0  1  0.752096  0.060132  0.000000  1
  Zr  Zr1  1  0.308035  0.247904  0.000000  1
  Zr  Zr2  1  0.939868  0.691965  0.000000  1
  Zr  Zr3  1  0.308900  0.248124  0.500000  1
  Zr  Zr4  1  0.751876  0.060777  0.500000  1
  Zr  Zr5  1  0.939223  0.691100  0.500000  1
  Mn  Mn6  1  0.000000  0.000000  0.250334  1
  Mn  Mn7  1  0.000000  0.000000  0.749666  1
  Al  Al8  1  0.599423  0.665244  0.749998  1
  Al  Al9  1  0.065823  0.400577  0.749998  1
  Al  Al10  1  0.334756  0.934177  0.749998  1
  Al  Al11  1  0.599423  0.665244  0.250002  1
  Al  Al12  1  0.065823  0.400577  0.250002  1
  Al  Al13  1  0.334756  0.934177  0.250002  1
  Pd  Pd14  1  0.333333  0.666667  0.000000  1
  Pd  Pd15  1  0.333333  0.666667  0.500000  1
  Pd  Pd16  1  0.666667  0.333333  0.751387  1
  Pd  Pd17  1  0.666667  0.333333  0.248613  1
