# generated using pymatgen
data_LaDy16Er3Sn16
_symmetry_space_group_name_H-M   'P 1'
_cell_length_a   8.06052266
_cell_length_b   8.18026487
_cell_length_c   15.47449800
_cell_angle_alpha   90.03112643
_cell_angle_beta   89.67752785
_cell_angle_gamma   89.85388172
_symmetry_Int_Tables_number   1
_chemical_formula_structural   LaDy16Er3Sn16
_chemical_formula_sum   'La1 Dy16 Er3 Sn16'
_cell_volume   1020.32559353
_cell_formula_units_Z   1
loop_
 _symmetry_equiv_pos_site_id
 _symmetry_equiv_pos_as_xyz
  1  'x, y, z'
loop_
 _atom_site_type_symbol
 _atom_site_label
 _atom_site_symmetry_multiplicity
 _atom_site_fract_x
 _atom_site_fract_y
 _atom_site_fract_z
 _atom_site_occupancy
  La  La0  1  0.016093  0.179092  0.904500  1
  Dy  Dy1  1  0.366500  0.836437  0.876823  1
  Dy  Dy2  1  0.868506  0.663293  0.620531  1
  Dy  Dy3  1  0.630314  0.161803  0.377642  1
  Dy  Dy4  1  0.133854  0.337573  0.123344  1
  Dy  Dy5  1  0.633892  0.162611  0.123735  1
  Dy  Dy6  1  0.131301  0.338319  0.378003  1
  Dy  Dy7  1  0.369973  0.838464  0.621648  1
  Dy  Dy8  1  0.866621  0.661728  0.877640  1
  Dy  Dy9  1  0.521884  0.322530  0.902972  1
  Dy  Dy10  1  0.024382  0.178902  0.598489  1
  Dy  Dy11  1  0.477638  0.678617  0.401770  1
  Dy  Dy12  1  0.980046  0.820000  0.098000  1
  Dy  Dy13  1  0.479333  0.678522  0.097782  1
  Dy  Dy14  1  0.977241  0.821596  0.402025  1
  Dy  Dy15  1  0.521680  0.322480  0.595852  1
  Dy  Dy16  1  0.199385  0.502784  0.748817  1
  Er  Er17  1  0.699274  0.996260  0.748635  1
  Er  Er18  1  0.800535  0.497034  0.250559  1
  Er  Er19  1  0.301119  0.002841  0.250513  1
  Sn  Sn20  1  0.299254  0.033852  0.044569  1
  Sn  Sn21  1  0.791087  0.463425  0.457279  1
  Sn  Sn22  1  0.709887  0.966328  0.542048  1
  Sn  Sn23  1  0.208651  0.539904  0.959146  1
  Sn  Sn24  1  0.698861  0.956320  0.960212  1
  Sn  Sn25  1  0.208744  0.538025  0.541188  1
  Sn  Sn26  1  0.291132  0.036117  0.457637  1
  Sn  Sn27  1  0.793037  0.463696  0.042968  1
  Sn  Sn28  1  0.565451  0.619191  0.749395  1
  Sn  Sn29  1  0.065035  0.879026  0.749024  1
  Sn  Sn30  1  0.434979  0.382293  0.250554  1
  Sn  Sn31  1  0.935490  0.118465  0.250961  1
  Sn  Sn32  1  0.334706  0.148298  0.749100  1
  Sn  Sn33  1  0.825802  0.353883  0.746779  1
  Sn  Sn34  1  0.669392  0.850869  0.249861  1
  Sn  Sn35  1  0.168925  0.649427  0.250001  1
