# generated using pymatgen
data_La5(SiC)2
_symmetry_space_group_name_H-M   'P 1'
_cell_length_a   8.15707700
_cell_length_b   12.90059600
_cell_length_c   4.31097600
_cell_angle_alpha   90.00000000
_cell_angle_beta   90.00000000
_cell_angle_gamma   90.00000000
_symmetry_Int_Tables_number   1
_chemical_formula_structural   La5(SiC)2
_chemical_formula_sum   'La10 Si4 C4'
_cell_volume   453.64898330
_cell_formula_units_Z   2
loop_
 _symmetry_equiv_pos_site_id
 _symmetry_equiv_pos_as_xyz
  1  'x, y, z'
loop_
 _atom_site_type_symbol
 _atom_site_label
 _atom_site_symmetry_multiplicity
 _atom_site_fract_x
 _atom_site_fract_y
 _atom_site_fract_z
 _atom_site_occupancy
  La  La0  1  0.500000  0.000000  0.000000  1
  La  La1  1  0.176315  0.213109  0.000000  1
  La  La2  1  0.676316  0.286891  0.000000  1
  La  La3  1  0.000000  0.500000  0.000000  1
  La  La4  1  0.323685  0.713109  0.000000  1
  La  La5  1  0.823685  0.786891  0.000000  1
  La  La6  1  0.833132  0.061313  0.499998  1
  La  La7  1  0.333132  0.438687  0.499998  1
  La  La8  1  0.666869  0.561313  0.499998  1
  La  La9  1  0.166869  0.938687  0.499998  1
  Si  Si10  1  0.455839  0.170420  0.499998  1
  Si  Si11  1  0.955839  0.329580  0.499998  1
  Si  Si12  1  0.044160  0.670420  0.499998  1
  Si  Si13  1  0.544162  0.829580  0.499998  1
  C  C14  1  0.042154  0.046348  0.000000  1
  C  C15  1  0.542153  0.453652  0.000000  1
  C  C16  1  0.457846  0.546348  0.000000  1
  C  C17  1  0.957847  0.953652  0.000000  1
