# generated using pymatgen
data_Li3PrSm2Si2Bi
_symmetry_space_group_name_H-M   'P 1'
_cell_length_a   7.34854359
_cell_length_b   7.34854356
_cell_length_c   4.42720600
_cell_angle_alpha   90.00000000
_cell_angle_beta   90.00000000
_cell_angle_gamma   120.43419869
_symmetry_Int_Tables_number   1
_chemical_formula_structural   Li3PrSm2Si2Bi
_chemical_formula_sum   'Li3 Pr1 Sm2 Si2 Bi1'
_cell_volume   206.13231285
_cell_formula_units_Z   1
loop_
 _symmetry_equiv_pos_site_id
 _symmetry_equiv_pos_as_xyz
  1  'x, y, z'
loop_
 _atom_site_type_symbol
 _atom_site_label
 _atom_site_symmetry_multiplicity
 _atom_site_fract_x
 _atom_site_fract_y
 _atom_site_fract_z
 _atom_site_occupancy
  Li  Li0  1  0.244366  0.999210  0.500000  1
  Li  Li1  1  0.756968  0.756968  0.500000  1
  Li  Li2  1  0.999210  0.244366  0.500000  1
  Pr  Pr3  1  0.452068  0.452068  0.000000  1
  Sm  Sm4  1  0.000275  0.550143  0.000000  1
  Sm  Sm5  1  0.550143  0.000275  0.000000  1
  Si  Si6  1  0.330401  0.670497  0.500000  1
  Si  Si7  1  0.670497  0.330401  0.500000  1
  Bi  Bi8  1  0.996071  0.996071  0.000000  1
