# generated using pymatgen
data_Tb2Sm2AsI6
_symmetry_space_group_name_H-M   'P 1'
_cell_length_a   4.30189600
_cell_length_b   14.07970300
_cell_length_c   14.83698800
_cell_angle_alpha   90.00000000
_cell_angle_beta   90.00000000
_cell_angle_gamma   90.00000000
_symmetry_Int_Tables_number   1
_chemical_formula_structural   Tb2Sm2AsI6
_chemical_formula_sum   'Tb4 Sm4 As2 I12'
_cell_volume   898.66772828
_cell_formula_units_Z   2
loop_
 _symmetry_equiv_pos_site_id
 _symmetry_equiv_pos_as_xyz
  1  'x, y, z'
loop_
 _atom_site_type_symbol
 _atom_site_label
 _atom_site_symmetry_multiplicity
 _atom_site_fract_x
 _atom_site_fract_y
 _atom_site_fract_z
 _atom_site_occupancy
  Tb  Tb0  1  0.500000  0.114850  0.347519  1
  Tb  Tb1  1  0.500000  0.885150  0.652481  1
  Tb  Tb2  1  0.500000  0.614850  0.152481  1
  Tb  Tb3  1  0.500000  0.385150  0.847519  1
  Sm  Sm4  1  0.000000  0.111192  0.574314  1
  Sm  Sm5  1  0.000000  0.888808  0.425686  1
  Sm  Sm6  1  0.000000  0.611192  0.925686  1
  Sm  Sm7  1  0.000000  0.388808  0.074314  1
  As  As8  1  0.500000  0.000000  0.500000  1
  As  As9  1  0.500000  0.500000  0.000000  1
  I  I10  1  0.500000  0.243331  0.162680  1
  I  I11  1  0.500000  0.756669  0.837320  1
  I  I12  1  0.500000  0.743331  0.337320  1
  I  I13  1  0.500000  0.256669  0.662680  1
  I  I14  1  0.000000  0.257987  0.411964  1
  I  I15  1  0.000000  0.742013  0.588036  1
  I  I16  1  0.000000  0.757987  0.088036  1
  I  I17  1  0.000000  0.242013  0.911964  1
  I  I18  1  0.000000  0.002257  0.240761  1
  I  I19  1  0.000000  0.997743  0.759239  1
  I  I20  1  0.000000  0.502257  0.259239  1
  I  I21  1  0.000000  0.497743  0.740761  1
