# generated using pymatgen
data_Ac2YbInSn4
_symmetry_space_group_name_H-M   'P 1'
_cell_length_a   6.82909676
_cell_length_b   6.82909707
_cell_length_c   10.75166874
_cell_angle_alpha   90.14813673
_cell_angle_beta   90.14813994
_cell_angle_gamma   102.34833889
_symmetry_Int_Tables_number   1
_chemical_formula_structural   Ac2YbInSn4
_chemical_formula_sum   'Ac4 Yb2 In2 Sn8'
_cell_volume   489.81660728
_cell_formula_units_Z   2
loop_
 _symmetry_equiv_pos_site_id
 _symmetry_equiv_pos_as_xyz
  1  'x, y, z'
loop_
 _atom_site_type_symbol
 _atom_site_label
 _atom_site_symmetry_multiplicity
 _atom_site_fract_x
 _atom_site_fract_y
 _atom_site_fract_z
 _atom_site_occupancy
  Ac  Ac0  1  0.296366  0.703634  0.500000  1
  Ac  Ac1  1  0.294846  0.705154  0.000000  1
  Ac  Ac2  1  0.703634  0.296366  0.500000  1
  Ac  Ac3  1  0.705154  0.294846  0.000000  1
  Yb  Yb4  1  0.135548  0.135548  0.253452  1
  Yb  Yb5  1  0.864452  0.864452  0.746548  1
  In  In6  1  0.815040  0.815040  0.043021  1
  In  In7  1  0.184960  0.184960  0.956979  1
  Sn  Sn8  1  0.988144  0.577564  0.248699  1
  Sn  Sn9  1  0.422436  0.011856  0.751301  1
  Sn  Sn10  1  0.011856  0.422436  0.751301  1
  Sn  Sn11  1  0.577564  0.988144  0.248699  1
  Sn  Sn12  1  0.816080  0.816080  0.452489  1
  Sn  Sn13  1  0.183920  0.183920  0.547511  1
  Sn  Sn14  1  0.521837  0.521837  0.248650  1
  Sn  Sn15  1  0.478163  0.478163  0.751350  1
