# generated using pymatgen
data_Cd3BiIrRh3O14
_symmetry_space_group_name_H-M   'P 1'
_cell_length_a   7.28442852
_cell_length_b   7.28442934
_cell_length_c   7.28442829
_cell_angle_alpha   59.20676302
_cell_angle_beta   59.20675605
_cell_angle_gamma   59.20675437
_symmetry_Int_Tables_number   1
_chemical_formula_structural   Cd3BiIrRh3O14
_chemical_formula_sum   'Cd3 Bi1 Ir1 Rh3 O14'
_cell_volume   268.38055179
_cell_formula_units_Z   1
loop_
 _symmetry_equiv_pos_site_id
 _symmetry_equiv_pos_as_xyz
  1  'x, y, z'
loop_
 _atom_site_type_symbol
 _atom_site_label
 _atom_site_symmetry_multiplicity
 _atom_site_fract_x
 _atom_site_fract_y
 _atom_site_fract_z
 _atom_site_occupancy
  Cd  Cd0  1  0.125000  0.625000  0.125000  1
  Cd  Cd1  1  0.625000  0.125000  0.125000  1
  Cd  Cd2  1  0.125000  0.125000  0.625000  1
  Bi  Bi3  1  0.125000  0.125000  0.125000  1
  Ir  Ir4  1  0.625000  0.625000  0.625000  1
  Rh  Rh5  1  0.625000  0.625000  0.125000  1
  Rh  Rh6  1  0.125000  0.625000  0.625000  1
  Rh  Rh7  1  0.625000  0.125000  0.625000  1
  O  O8  1  0.251451  0.251451  0.251451  1
  O  O9  1  0.291586  0.711718  0.291586  1
  O  O10  1  0.958414  0.958414  0.538282  1
  O  O11  1  0.553200  0.945235  0.553200  1
  O  O12  1  0.696800  0.696800  0.304765  1
  O  O13  1  0.945235  0.553200  0.553200  1
  O  O14  1  0.696800  0.304765  0.696800  1
  O  O15  1  0.291586  0.291586  0.711718  1
  O  O16  1  0.711718  0.291586  0.291586  1
  O  O17  1  0.304765  0.696800  0.696800  1
  O  O18  1  0.958414  0.538282  0.958414  1
  O  O19  1  0.553200  0.553200  0.945235  1
  O  O20  1  0.998549  0.998549  0.998549  1
  O  O21  1  0.538282  0.958414  0.958414  1
