# generated using pymatgen
data_YbV2O4
_symmetry_space_group_name_H-M   'P 1'
_cell_length_a   3.07211900
_cell_length_b   9.22206100
_cell_length_c   10.74178600
_cell_angle_alpha   90.00000000
_cell_angle_beta   90.00000000
_cell_angle_gamma   90.00000000
_symmetry_Int_Tables_number   1
_chemical_formula_structural   YbV2O4
_chemical_formula_sum   'Yb4 V8 O16'
_cell_volume   304.32842674
_cell_formula_units_Z   4
loop_
 _symmetry_equiv_pos_site_id
 _symmetry_equiv_pos_as_xyz
  1  'x, y, z'
loop_
 _atom_site_type_symbol
 _atom_site_label
 _atom_site_symmetry_multiplicity
 _atom_site_fract_x
 _atom_site_fract_y
 _atom_site_fract_z
 _atom_site_occupancy
  Yb  Yb0  1  0.250000  0.255031  0.153389  1
  Yb  Yb1  1  0.750000  0.744969  0.846611  1
  Yb  Yb2  1  0.250000  0.755031  0.346611  1
  Yb  Yb3  1  0.750000  0.244969  0.653389  1
  V  V4  1  0.250000  0.434307  0.386756  1
  V  V5  1  0.750000  0.565693  0.613244  1
  V  V6  1  0.250000  0.934307  0.113244  1
  V  V7  1  0.750000  0.065693  0.886756  1
  V  V8  1  0.250000  0.417697  0.895914  1
  V  V9  1  0.750000  0.582303  0.104086  1
  V  V10  1  0.250000  0.917697  0.604086  1
  V  V11  1  0.750000  0.082303  0.395914  1
  O  O12  1  0.250000  0.208142  0.829619  1
  O  O13  1  0.750000  0.791858  0.170381  1
  O  O14  1  0.250000  0.708142  0.670381  1
  O  O15  1  0.750000  0.291858  0.329619  1
  O  O16  1  0.250000  0.120700  0.526567  1
  O  O17  1  0.750000  0.879300  0.473433  1
  O  O18  1  0.250000  0.620700  0.973433  1
  O  O19  1  0.750000  0.379300  0.026567  1
  O  O20  1  0.250000  0.024472  0.283263  1
  O  O21  1  0.750000  0.975528  0.716737  1
  O  O22  1  0.250000  0.524472  0.216737  1
  O  O23  1  0.750000  0.475528  0.783263  1
  O  O24  1  0.250000  0.418212  0.573951  1
  O  O25  1  0.750000  0.581788  0.426049  1
  O  O26  1  0.250000  0.918212  0.926049  1
  O  O27  1  0.750000  0.081788  0.073951  1
