# generated using pymatgen
data_Ac2Nd(SnPd)3
_symmetry_space_group_name_H-M   'P 1'
_cell_length_a   7.79122400
_cell_length_b   7.85750609
_cell_length_c   4.27937500
_cell_angle_alpha   90.00000000
_cell_angle_beta   90.00000000
_cell_angle_gamma   119.72135402
_symmetry_Int_Tables_number   1
_chemical_formula_structural   Ac2Nd(SnPd)3
_chemical_formula_sum   'Ac2 Nd1 Sn3 Pd3'
_cell_volume   227.51706682
_cell_formula_units_Z   1
loop_
 _symmetry_equiv_pos_site_id
 _symmetry_equiv_pos_as_xyz
  1  'x, y, z'
loop_
 _atom_site_type_symbol
 _atom_site_label
 _atom_site_symmetry_multiplicity
 _atom_site_fract_x
 _atom_site_fract_y
 _atom_site_fract_z
 _atom_site_occupancy
  Ac  Ac0  1  0.001173  0.585699  0.000000  1
  Ac  Ac1  1  0.415474  0.414301  0.000000  1
  Nd  Nd2  1  0.589509  0.000000  0.000000  1
  Sn  Sn3  1  0.752833  0.761448  0.500000  1
  Sn  Sn4  1  0.991385  0.238552  0.500000  1
  Sn  Sn5  1  0.251464  0.000000  0.500000  1
  Pd  Pd6  1  0.663903  0.326323  0.500000  1
  Pd  Pd7  1  0.996680  0.000000  0.000000  1
  Pd  Pd8  1  0.337579  0.673677  0.500000  1
