# generated using pymatgen
data_Dy8Co3Si12Ir
_symmetry_space_group_name_H-M   'P 1'
_cell_length_a   8.02874800
_cell_length_b   8.02874970
_cell_length_c   7.90729200
_cell_angle_alpha   89.99994291
_cell_angle_beta   90.00000000
_cell_angle_gamma   119.99996004
_symmetry_Int_Tables_number   1
_chemical_formula_structural   Dy8Co3Si12Ir
_chemical_formula_sum   'Dy8 Co3 Si12 Ir1'
_cell_volume   441.42236054
_cell_formula_units_Z   1
loop_
 _symmetry_equiv_pos_site_id
 _symmetry_equiv_pos_as_xyz
  1  'x, y, z'
loop_
 _atom_site_type_symbol
 _atom_site_label
 _atom_site_symmetry_multiplicity
 _atom_site_fract_x
 _atom_site_fract_y
 _atom_site_fract_z
 _atom_site_occupancy
  Dy  Dy0  1  0.000000  0.000000  0.247780  1
  Dy  Dy1  1  0.000000  0.000000  0.751966  1
  Dy  Dy2  1  0.012766  0.506383  0.248590  1
  Dy  Dy3  1  0.493617  0.506382  0.248589  1
  Dy  Dy4  1  0.504496  0.008991  0.749941  1
  Dy  Dy5  1  0.493617  0.987234  0.248589  1
  Dy  Dy6  1  0.504496  0.495505  0.749940  1
  Dy  Dy7  1  0.991009  0.495504  0.749941  1
  Co  Co8  1  0.333333  0.666667  0.968681  1
  Co  Co9  1  0.333333  0.666667  0.530084  1
  Co  Co10  1  0.666667  0.333334  0.032945  1
  Si  Si11  1  0.171192  0.342384  0.999882  1
  Si  Si12  1  0.657616  0.828808  0.999881  1
  Si  Si13  1  0.172212  0.344422  0.499449  1
  Si  Si14  1  0.343371  0.171685  0.999168  1
  Si  Si15  1  0.171192  0.828807  0.999882  1
  Si  Si16  1  0.655578  0.827788  0.499448  1
  Si  Si17  1  0.828314  0.656629  0.999168  1
  Si  Si18  1  0.330934  0.165467  0.501448  1
  Si  Si19  1  0.172212  0.827788  0.499449  1
  Si  Si20  1  0.834533  0.669066  0.501449  1
  Si  Si21  1  0.828314  0.171685  0.999168  1
  Si  Si22  1  0.834533  0.165467  0.501449  1
  Ir  Ir23  1  0.666667  0.333333  0.473114  1
