# generated using pymatgen
data_Th4Pd3RhPb2
_symmetry_space_group_name_H-M   'P 1'
_cell_length_a   8.01195158
_cell_length_b   8.01195236
_cell_length_c   3.81537000
_cell_angle_alpha   90.00000000
_cell_angle_beta   90.00000000
_cell_angle_gamma   90.00470557
_symmetry_Int_Tables_number   1
_chemical_formula_structural   Th4Pd3RhPb2
_chemical_formula_sum   'Th4 Pd3 Rh1 Pb2'
_cell_volume   244.91384319
_cell_formula_units_Z   1
loop_
 _symmetry_equiv_pos_site_id
 _symmetry_equiv_pos_as_xyz
  1  'x, y, z'
loop_
 _atom_site_type_symbol
 _atom_site_label
 _atom_site_symmetry_multiplicity
 _atom_site_fract_x
 _atom_site_fract_y
 _atom_site_fract_z
 _atom_site_occupancy
  Th  Th0  1  0.666083  0.175000  0.500000  1
  Th  Th1  1  0.181326  0.318674  0.500000  1
  Th  Th2  1  0.827817  0.672183  0.500000  1
  Th  Th3  1  0.325000  0.833917  0.500000  1
  Pd  Pd4  1  0.126206  0.625254  0.000000  1
  Pd  Pd5  1  0.627364  0.872636  0.000000  1
  Pd  Pd6  1  0.874746  0.373794  0.000000  1
  Rh  Rh7  1  0.373110  0.126890  0.000000  1
  Pb  Pb8  1  0.999251  0.000901  0.000000  1
  Pb  Pb9  1  0.499099  0.500749  0.000000  1
