# generated using pymatgen
data_NdDyErGa8Ag3
_symmetry_space_group_name_H-M   'P 1'
_cell_length_a   4.36143493
_cell_length_b   8.40138947
_cell_length_c   8.40139002
_cell_angle_alpha   69.17949988
_cell_angle_beta   74.95567106
_cell_angle_gamma   74.95566412
_symmetry_Int_Tables_number   1
_chemical_formula_structural   NdDyErGa8Ag3
_chemical_formula_sum   'Nd1 Dy1 Er1 Ga8 Ag3'
_cell_volume   273.06492345
_cell_formula_units_Z   1
loop_
 _symmetry_equiv_pos_site_id
 _symmetry_equiv_pos_as_xyz
  1  'x, y, z'
loop_
 _atom_site_type_symbol
 _atom_site_label
 _atom_site_symmetry_multiplicity
 _atom_site_fract_x
 _atom_site_fract_y
 _atom_site_fract_z
 _atom_site_occupancy
  Nd  Nd0  1  0.500123  0.499877  0.499877  1
  Dy  Dy1  1  0.200151  0.799849  0.799849  1
  Er  Er2  1  0.800004  0.199996  0.199996  1
  Ga  Ga3  1  0.355722  0.360613  0.927944  1
  Ga  Ga4  1  0.644183  0.638990  0.072644  1
  Ga  Ga5  1  0.355722  0.927944  0.360613  1
  Ga  Ga6  1  0.644183  0.072644  0.638990  1
  Ga  Ga7  1  0.160766  0.471501  0.206967  1
  Ga  Ga8  1  0.839584  0.527991  0.792840  1
  Ga  Ga9  1  0.160766  0.206967  0.471501  1
  Ga  Ga10  1  0.839584  0.792840  0.527991  1
  Ag  Ag11  1  0.499748  0.000252  0.000252  1
  Ag  Ag12  1  0.999732  0.806644  0.193891  1
  Ag  Ag13  1  0.999732  0.193891  0.806644  1
