# generated using pymatgen
data_YbSm6NiI12
_symmetry_space_group_name_H-M   'P 1'
_cell_length_a   9.91192733
_cell_length_b   9.91192641
_cell_length_c   9.91192732
_cell_angle_alpha   107.14838293
_cell_angle_beta   107.14837885
_cell_angle_gamma   107.14837203
_symmetry_Int_Tables_number   1
_chemical_formula_structural   YbSm6NiI12
_chemical_formula_sum   'Yb1 Sm6 Ni1 I12'
_cell_volume   807.69332981
_cell_formula_units_Z   1
loop_
 _symmetry_equiv_pos_site_id
 _symmetry_equiv_pos_as_xyz
  1  'x, y, z'
loop_
 _atom_site_type_symbol
 _atom_site_label
 _atom_site_symmetry_multiplicity
 _atom_site_fract_x
 _atom_site_fract_y
 _atom_site_fract_z
 _atom_site_occupancy
  Yb  Yb0  1  0.500000  0.500000  0.500000  1
  Sm  Sm1  1  0.973965  0.901869  0.701094  1
  Sm  Sm2  1  0.026035  0.098131  0.298906  1
  Sm  Sm3  1  0.098131  0.298906  0.026035  1
  Sm  Sm4  1  0.298906  0.026035  0.098131  1
  Sm  Sm5  1  0.901869  0.701094  0.973965  1
  Sm  Sm6  1  0.701094  0.973965  0.901869  1
  Ni  Ni7  1  0.000000  0.000000  0.000000  1
  I  I8  1  0.538560  0.616759  0.843722  1
  I  I9  1  0.461440  0.383241  0.156278  1
  I  I10  1  0.320089  0.926392  0.775028  1
  I  I11  1  0.383241  0.156278  0.461440  1
  I  I12  1  0.926392  0.775028  0.320089  1
  I  I13  1  0.679911  0.073608  0.224972  1
  I  I14  1  0.073608  0.224972  0.679911  1
  I  I15  1  0.775028  0.320089  0.926392  1
  I  I16  1  0.224972  0.679911  0.073608  1
  I  I17  1  0.843722  0.538560  0.616759  1
  I  I18  1  0.156278  0.461440  0.383241  1
  I  I19  1  0.616759  0.843722  0.538560  1
