# generated using pymatgen
data_Ta3AlCoSiC
_symmetry_space_group_name_H-M   'P 1'
_cell_length_a   8.14696600
_cell_length_b   8.14696707
_cell_length_c   8.13768165
_cell_angle_alpha   120.03775249
_cell_angle_beta   90.00000000
_cell_angle_gamma   120.00000379
_symmetry_Int_Tables_number   1
_chemical_formula_structural   Ta3AlCoSiC
_chemical_formula_sum   'Ta12 Al4 Co4 Si4 C4'
_cell_volume   381.70643470
_cell_formula_units_Z   4
loop_
 _symmetry_equiv_pos_site_id
 _symmetry_equiv_pos_as_xyz
  1  'x, y, z'
loop_
 _atom_site_type_symbol
 _atom_site_label
 _atom_site_symmetry_multiplicity
 _atom_site_fract_x
 _atom_site_fract_y
 _atom_site_fract_z
 _atom_site_occupancy
  Ta  Ta0  1  0.436517  0.751768  0.067016  1
  Ta  Ta1  1  0.815250  0.751768  0.067016  1
  Ta  Ta2  1  0.815250  0.130500  0.067016  1
  Ta  Ta3  1  0.563015  0.249809  0.312823  1
  Ta  Ta4  1  0.563015  0.626028  0.312823  1
  Ta  Ta5  1  0.186795  0.249809  0.312824  1
  Ta  Ta6  1  0.437207  0.750096  0.687302  1
  Ta  Ta7  1  0.812888  0.750096  0.687302  1
  Ta  Ta8  1  0.437207  0.374413  0.687302  1
  Ta  Ta9  1  0.567374  0.254634  0.941892  1
  Ta  Ta10  1  0.187259  0.254634  0.941893  1
  Ta  Ta11  1  0.187259  0.874518  0.941893  1
  Al  Al12  1  0.206943  0.913886  0.620828  1
  Al  Al13  1  0.120232  0.413609  0.706986  1
  Al  Al14  1  0.793377  0.086754  0.706986  1
  Al  Al15  1  0.793377  0.413609  0.706987  1
  Co  Co16  1  0.006174  0.512349  0.018523  1
  Co  Co17  1  0.996315  0.989277  0.485592  1
  Co  Co18  1  0.492962  0.989277  0.485592  1
  Co  Co19  1  0.996315  0.492630  0.485592  1
  Si  Si20  1  0.210088  0.583764  0.293853  1
  Si  Si21  1  0.873677  0.583764  0.293853  1
  Si  Si22  1  0.210088  0.920176  0.293853  1
  Si  Si23  1  0.791834  0.083667  0.375501  1
  C  C24  1  0.998417  0.999159  0.999901  1
  C  C25  1  0.500742  0.999159  0.999901  1
  C  C26  1  0.500742  0.501484  0.999901  1
  C  C27  1  0.499685  0.499371  0.499056  1
