# generated using pymatgen
data_LaY7(Si4W3)4
_symmetry_space_group_name_H-M   'P 1'
_cell_length_a   6.81028894
_cell_length_b   6.97043852
_cell_length_c   12.95534446
_cell_angle_alpha   89.79772900
_cell_angle_beta   90.03948315
_cell_angle_gamma   89.95219960
_symmetry_Int_Tables_number   1
_chemical_formula_structural   LaY7(Si4W3)4
_chemical_formula_sum   'La1 Y7 Si16 W12'
_cell_volume   614.99508077
_cell_formula_units_Z   1
loop_
 _symmetry_equiv_pos_site_id
 _symmetry_equiv_pos_as_xyz
  1  'x, y, z'
loop_
 _atom_site_type_symbol
 _atom_site_label
 _atom_site_symmetry_multiplicity
 _atom_site_fract_x
 _atom_site_fract_y
 _atom_site_fract_z
 _atom_site_occupancy
  La  La0  1  0.997819  0.834228  0.591623  1
  Y  Y1  1  0.495844  0.667433  0.593719  1
  Y  Y2  1  0.996100  0.832438  0.906417  1
  Y  Y3  1  0.504563  0.332228  0.093754  1
  Y  Y4  1  0.004743  0.166401  0.405663  1
  Y  Y5  1  0.504576  0.333202  0.405307  1
  Y  Y6  1  0.003983  0.168048  0.093748  1
  Y  Y7  1  0.495731  0.667296  0.907867  1
  Si  Si8  1  0.657866  0.957340  0.450684  1
  Si  Si9  1  0.161035  0.543072  0.047582  1
  Si  Si10  1  0.338494  0.042768  0.953467  1
  Si  Si11  1  0.837077  0.451985  0.546934  1
  Si  Si12  1  0.344644  0.046273  0.546503  1
  Si  Si13  1  0.839515  0.457775  0.952851  1
  Si  Si14  1  0.661343  0.957168  0.047331  1
  Si  Si15  1  0.161726  0.540021  0.450440  1
  Si  Si16  1  0.463439  0.369791  0.750621  1
  Si  Si17  1  0.963062  0.134018  0.751861  1
  Si  Si18  1  0.536007  0.630581  0.249232  1
  Si  Si19  1  0.036209  0.868835  0.249898  1
  Si  Si20  1  0.692910  0.869378  0.751773  1
  Si  Si21  1  0.198701  0.628813  0.751798  1
  Si  Si22  1  0.303609  0.131872  0.249547  1
  Si  Si23  1  0.803247  0.367557  0.249603  1
  W  W24  1  0.666200  0.164841  0.627069  1
  W  W25  1  0.168699  0.336809  0.875593  1
  W  W26  1  0.331903  0.836438  0.125742  1
  W  W27  1  0.830845  0.661650  0.372749  1
  W  W28  1  0.332959  0.836256  0.373188  1
  W  W29  1  0.832190  0.663021  0.125554  1
  W  W30  1  0.666739  0.164787  0.875209  1
  W  W31  1  0.168228  0.336767  0.626485  1
  W  W32  1  0.833556  0.497991  0.750483  1
  W  W33  1  0.334488  0.003580  0.751163  1
  W  W34  1  0.165938  0.501025  0.249490  1
  W  W35  1  0.666011  0.998312  0.249050  1
