# generated using pymatgen
data_Mg4Ge2PdPt9
_symmetry_space_group_name_H-M   'P 1'
_cell_length_a   4.05508800
_cell_length_b   5.59815304
_cell_length_c   10.91915118
_cell_angle_alpha   89.75330005
_cell_angle_beta   90.00000000
_cell_angle_gamma   90.00000000
_symmetry_Int_Tables_number   1
_chemical_formula_structural   Mg4Ge2PdPt9
_chemical_formula_sum   'Mg4 Ge2 Pd1 Pt9'
_cell_volume   247.87338819
_cell_formula_units_Z   1
loop_
 _symmetry_equiv_pos_site_id
 _symmetry_equiv_pos_as_xyz
  1  'x, y, z'
loop_
 _atom_site_type_symbol
 _atom_site_label
 _atom_site_symmetry_multiplicity
 _atom_site_fract_x
 _atom_site_fract_y
 _atom_site_fract_z
 _atom_site_occupancy
  Mg  Mg0  1  0.500000  0.180613  0.139855  1
  Mg  Mg1  1  0.500000  0.819387  0.860145  1
  Mg  Mg2  1  0.500000  0.321281  0.639656  1
  Mg  Mg3  1  0.500000  0.678719  0.360344  1
  Ge  Ge4  1  0.000000  0.000000  0.500000  1
  Ge  Ge5  1  0.000000  0.500000  0.000000  1
  Pd  Pd6  1  0.000000  0.500000  0.500000  1
  Pt  Pt7  1  0.500000  0.192546  0.391675  1
  Pt  Pt8  1  0.500000  0.807454  0.608325  1
  Pt  Pt9  1  0.500000  0.306303  0.891610  1
  Pt  Pt10  1  0.500000  0.693697  0.108390  1
  Pt  Pt11  1  0.000000  0.435353  0.242227  1
  Pt  Pt12  1  0.000000  0.564647  0.757773  1
  Pt  Pt13  1  0.000000  0.064562  0.741949  1
  Pt  Pt14  1  0.000000  0.935438  0.258051  1
  Pt  Pt15  1  0.000000  0.000000  0.000000  1
