# generated using pymatgen
data_Pr3Bi(SO6)2
_symmetry_space_group_name_H-M   'P 1'
_cell_length_a   4.28729829
_cell_length_b   7.48287740
_cell_length_c   8.34392883
_cell_angle_alpha   106.19455934
_cell_angle_beta   90.49678445
_cell_angle_gamma   106.39515470
_symmetry_Int_Tables_number   1
_chemical_formula_structural   Pr3Bi(SO6)2
_chemical_formula_sum   'Pr3 Bi1 S2 O12'
_cell_volume   245.49784352
_cell_formula_units_Z   1
loop_
 _symmetry_equiv_pos_site_id
 _symmetry_equiv_pos_as_xyz
  1  'x, y, z'
loop_
 _atom_site_type_symbol
 _atom_site_label
 _atom_site_symmetry_multiplicity
 _atom_site_fract_x
 _atom_site_fract_y
 _atom_site_fract_z
 _atom_site_occupancy
  Pr  Pr0  1  0.326576  0.670866  0.415235  1
  Pr  Pr1  1  0.339317  0.669088  0.919868  1
  Pr  Pr2  1  0.658348  0.330262  0.082349  1
  Bi  Bi3  1  0.676264  0.355154  0.588780  1
  S  S4  1  0.941786  0.996683  0.752705  1
  S  S5  1  0.056559  0.997867  0.245811  1
  O  O6  1  0.764430  0.507188  0.872409  1
  O  O7  1  0.231480  0.494161  0.123855  1
  O  O8  1  0.268934  0.499534  0.623955  1
  O  O9  1  0.742970  0.510162  0.382526  1
  O  O10  1  0.737100  0.985355  0.603266  1
  O  O11  1  0.253873  0.994696  0.392249  1
  O  O12  1  0.733494  0.997962  0.897098  1
  O  O13  1  0.265846  0.994540  0.101743  1
  O  O14  1  0.217052  0.179215  0.800188  1
  O  O15  1  0.770513  0.818408  0.198530  1
  O  O16  1  0.057768  0.820828  0.715013  1
  O  O17  1  0.957690  0.178032  0.284420  1
