# generated using pymatgen
data_CeSmTh2(CdPt2)2
_symmetry_space_group_name_H-M   'P 1'
_cell_length_a   7.94067614
_cell_length_b   7.94418057
_cell_length_c   3.79292500
_cell_angle_alpha   90.00000000
_cell_angle_beta   90.00000000
_cell_angle_gamma   90.50901339
_symmetry_Int_Tables_number   1
_chemical_formula_structural   CeSmTh2(CdPt2)2
_chemical_formula_sum   'Ce1 Sm1 Th2 Cd2 Pt4'
_cell_volume   239.25647925
_cell_formula_units_Z   1
loop_
 _symmetry_equiv_pos_site_id
 _symmetry_equiv_pos_as_xyz
  1  'x, y, z'
loop_
 _atom_site_type_symbol
 _atom_site_label
 _atom_site_symmetry_multiplicity
 _atom_site_fract_x
 _atom_site_fract_y
 _atom_site_fract_z
 _atom_site_occupancy
  Ce  Ce0  1  0.672924  0.171333  0.500000  1
  Sm  Sm1  1  0.827487  0.671173  0.500000  1
  Th  Th2  1  0.167753  0.330049  0.500000  1
  Th  Th3  1  0.332066  0.828991  0.500000  1
  Cd  Cd4  1  0.506346  0.498582  0.000000  1
  Cd  Cd5  1  0.995120  0.996375  0.000000  1
  Pt  Pt6  1  0.624132  0.875404  0.000000  1
  Pt  Pt7  1  0.135257  0.629309  0.000000  1
  Pt  Pt8  1  0.872725  0.364754  0.000000  1
  Pt  Pt9  1  0.366190  0.134029  0.000000  1
