# generated using pymatgen
data_Ce2IrRhPb
_symmetry_space_group_name_H-M   'P 1'
_cell_length_a   7.81007400
_cell_length_b   7.80888600
_cell_length_c   3.69266500
_cell_angle_alpha   90.00000000
_cell_angle_beta   90.00000000
_cell_angle_gamma   90.00000000
_symmetry_Int_Tables_number   1
_chemical_formula_structural   Ce2IrRhPb
_chemical_formula_sum   'Ce4 Ir2 Rh2 Pb2'
_cell_volume   225.20817000
_cell_formula_units_Z   2
loop_
 _symmetry_equiv_pos_site_id
 _symmetry_equiv_pos_as_xyz
  1  'x, y, z'
loop_
 _atom_site_type_symbol
 _atom_site_label
 _atom_site_symmetry_multiplicity
 _atom_site_fract_x
 _atom_site_fract_y
 _atom_site_fract_z
 _atom_site_occupancy
  Ce  Ce0  1  0.332210  0.173668  0.499999  1
  Ce  Ce1  1  0.832210  0.326331  0.499999  1
  Ce  Ce2  1  0.172490  0.665938  0.499999  1
  Ce  Ce3  1  0.672490  0.834061  0.499999  1
  Ir  Ir4  1  0.628470  0.127666  0.000000  1
  Ir  Ir5  1  0.128471  0.372334  0.000000  1
  Rh  Rh6  1  0.862644  0.637585  0.000000  1
  Rh  Rh7  1  0.362644  0.862414  0.000000  1
  Pb  Pb8  1  0.004185  0.996545  0.000000  1
  Pb  Pb9  1  0.504185  0.503455  0.000000  1
