# generated using pymatgen
data_LuSc2Ga5Ir
_symmetry_space_group_name_H-M   'P 1'
_cell_length_a   6.78741122
_cell_length_b   6.72046585
_cell_length_c   4.14376600
_cell_angle_alpha   90.00000000
_cell_angle_beta   90.00000000
_cell_angle_gamma   119.67427026
_symmetry_Int_Tables_number   1
_chemical_formula_structural   LuSc2Ga5Ir
_chemical_formula_sum   'Lu1 Sc2 Ga5 Ir1'
_cell_volume   164.22736653
_cell_formula_units_Z   1
loop_
 _symmetry_equiv_pos_site_id
 _symmetry_equiv_pos_as_xyz
  1  'x, y, z'
loop_
 _atom_site_type_symbol
 _atom_site_label
 _atom_site_symmetry_multiplicity
 _atom_site_fract_x
 _atom_site_fract_y
 _atom_site_fract_z
 _atom_site_occupancy
  Lu  Lu0  1  0.000000  0.583838  0.500000  1
  Sc  Sc1  1  0.586848  0.998470  0.500000  1
  Sc  Sc2  1  0.413152  0.411622  0.500000  1
  Ga  Ga3  1  0.241918  0.000359  0.000000  1
  Ga  Ga4  1  0.000000  0.242703  0.000000  1
  Ga  Ga5  1  0.659163  0.328000  0.000000  1
  Ga  Ga6  1  0.340837  0.668837  0.000000  1
  Ga  Ga7  1  0.758082  0.758441  0.000000  1
  Ir  Ir8  1  0.000000  0.007730  0.500000  1
