# generated using pymatgen
data_ZnCr2PbO8
_symmetry_space_group_name_H-M   'P 1'
_cell_length_a   5.23367378
_cell_length_b   7.30195760
_cell_length_c   5.23367355
_cell_angle_alpha   91.06622653
_cell_angle_beta   114.44620808
_cell_angle_gamma   88.93378109
_symmetry_Int_Tables_number   1
_chemical_formula_structural   ZnCr2PbO8
_chemical_formula_sum   'Zn1 Cr2 Pb1 O8'
_cell_volume   182.03491347
_cell_formula_units_Z   1
loop_
 _symmetry_equiv_pos_site_id
 _symmetry_equiv_pos_as_xyz
  1  'x, y, z'
loop_
 _atom_site_type_symbol
 _atom_site_label
 _atom_site_symmetry_multiplicity
 _atom_site_fract_x
 _atom_site_fract_y
 _atom_site_fract_z
 _atom_site_occupancy
  Zn  Zn0  1  0.000000  0.500000  0.000000  1
  Cr  Cr1  1  0.637992  0.726825  0.362008  1
  Cr  Cr2  1  0.362008  0.273175  0.637992  1
  Pb  Pb3  1  0.000000  0.000000  0.000000  1
  O  O4  1  0.282795  0.710048  0.222869  1
  O  O5  1  0.717205  0.289952  0.777131  1
  O  O6  1  0.222869  0.289952  0.282795  1
  O  O7  1  0.777131  0.710048  0.717205  1
  O  O8  1  0.714951  0.931074  0.285049  1
  O  O9  1  0.230518  0.435488  0.769482  1
  O  O10  1  0.285049  0.068926  0.714951  1
  O  O11  1  0.769482  0.564512  0.230518  1
