# generated using pymatgen
data_Ba2EuB2Pt7
_symmetry_space_group_name_H-M   'P 1'
_cell_length_a   8.66714734
_cell_length_b   8.66714746
_cell_length_c   8.66714839
_cell_angle_alpha   38.24037259
_cell_angle_beta   38.24037316
_cell_angle_gamma   38.24036890
_symmetry_Int_Tables_number   1
_chemical_formula_structural   Ba2EuB2Pt7
_chemical_formula_sum   'Ba2 Eu1 B2 Pt7'
_cell_volume   224.00287223
_cell_formula_units_Z   1
loop_
 _symmetry_equiv_pos_site_id
 _symmetry_equiv_pos_as_xyz
  1  'x, y, z'
loop_
 _atom_site_type_symbol
 _atom_site_label
 _atom_site_symmetry_multiplicity
 _atom_site_fract_x
 _atom_site_fract_y
 _atom_site_fract_z
 _atom_site_occupancy
  Ba  Ba0  1  0.856930  0.856930  0.856930  1
  Ba  Ba1  1  0.143070  0.143070  0.143070  1
  Eu  Eu2  1  0.000000  0.000000  0.000000  1
  B  B3  1  0.669500  0.669500  0.669500  1
  B  B4  1  0.330500  0.330500  0.330500  1
  Pt  Pt5  1  0.440081  0.934034  0.440081  1
  Pt  Pt6  1  0.440081  0.440081  0.934034  1
  Pt  Pt7  1  0.934034  0.440081  0.440081  1
  Pt  Pt8  1  0.559919  0.065966  0.559919  1
  Pt  Pt9  1  0.559919  0.559919  0.065966  1
  Pt  Pt10  1  0.065966  0.559919  0.559919  1
  Pt  Pt11  1  0.500000  0.500000  0.500000  1
