# generated using pymatgen
data_Nb12AlZn6GaN4
_symmetry_space_group_name_H-M   'P 1'
_cell_length_a   7.03704940
_cell_length_b   7.03850465
_cell_length_c   7.03909600
_cell_angle_alpha   89.93939624
_cell_angle_beta   90.03708660
_cell_angle_gamma   89.94136261
_symmetry_Int_Tables_number   1
_chemical_formula_structural   Nb12AlZn6GaN4
_chemical_formula_sum   'Nb12 Al1 Zn6 Ga1 N4'
_cell_volume   348.64812016
_cell_formula_units_Z   1
loop_
 _symmetry_equiv_pos_site_id
 _symmetry_equiv_pos_as_xyz
  1  'x, y, z'
loop_
 _atom_site_type_symbol
 _atom_site_label
 _atom_site_symmetry_multiplicity
 _atom_site_fract_x
 _atom_site_fract_y
 _atom_site_fract_z
 _atom_site_occupancy
  Nb  Nb0  1  0.792576  0.957705  0.372961  1
  Nb  Nb1  1  0.708252  0.042795  0.876228  1
  Nb  Nb2  1  0.207518  0.457393  0.126617  1
  Nb  Nb3  1  0.292222  0.543144  0.623822  1
  Nb  Nb4  1  0.957583  0.373590  0.792201  1
  Nb  Nb5  1  0.042424  0.874778  0.708051  1
  Nb  Nb6  1  0.456960  0.125340  0.207520  1
  Nb  Nb7  1  0.543116  0.624588  0.292789  1
  Nb  Nb8  1  0.372970  0.792768  0.957733  1
  Nb  Nb9  1  0.876108  0.708402  0.042703  1
  Nb  Nb10  1  0.124729  0.208228  0.456975  1
  Nb  Nb11  1  0.625875  0.292943  0.542661  1
  Al  Al12  1  0.073210  0.072968  0.072354  1
  Zn  Zn13  1  0.182353  0.821752  0.322585  1
  Zn  Zn14  1  0.323444  0.179439  0.819072  1
  Zn  Zn15  1  0.818062  0.320716  0.176793  1
  Zn  Zn16  1  0.676084  0.679605  0.681531  1
  Zn  Zn17  1  0.570674  0.429152  0.928419  1
  Zn  Zn18  1  0.429397  0.929083  0.571565  1
  Ga  Ga19  1  0.927386  0.572316  0.428360  1
  N  N20  1  0.874185  0.122933  0.624138  1
  N  N21  1  0.622646  0.873787  0.123991  1
  N  N22  1  0.125431  0.622230  0.874780  1
  N  N23  1  0.376794  0.374348  0.376149  1
