# generated using pymatgen
data_Tb3Al2Ga3Ni
_symmetry_space_group_name_H-M   'P 1'
_cell_length_a   6.90895726
_cell_length_b   6.90895840
_cell_length_c   4.27860900
_cell_angle_alpha   90.00000000
_cell_angle_beta   90.00000000
_cell_angle_gamma   119.70651271
_symmetry_Int_Tables_number   1
_chemical_formula_structural   Tb3Al2Ga3Ni
_chemical_formula_sum   'Tb3 Al2 Ga3 Ni1'
_cell_volume   177.39243879
_cell_formula_units_Z   1
loop_
 _symmetry_equiv_pos_site_id
 _symmetry_equiv_pos_as_xyz
  1  'x, y, z'
loop_
 _atom_site_type_symbol
 _atom_site_label
 _atom_site_symmetry_multiplicity
 _atom_site_fract_x
 _atom_site_fract_y
 _atom_site_fract_z
 _atom_site_occupancy
  Tb  Tb0  1  0.593501  0.998615  0.500000  1
  Tb  Tb1  1  0.408109  0.408109  0.500000  1
  Tb  Tb2  1  0.998615  0.593501  0.500000  1
  Al  Al3  1  0.230187  0.001169  0.000000  1
  Al  Al4  1  0.001169  0.230187  0.000000  1
  Ga  Ga5  1  0.666742  0.330659  0.000000  1
  Ga  Ga6  1  0.330659  0.666742  0.000000  1
  Ga  Ga7  1  0.764759  0.764759  0.000000  1
  Ni  Ni8  1  0.006257  0.006257  0.500000  1
