# generated using pymatgen
data_Tb6Dy5Tm5(CdPt)4
_symmetry_space_group_name_H-M   'P 1'
_cell_length_a   9.65877703
_cell_length_b   9.66083349
_cell_length_c   9.66083411
_cell_angle_alpha   60.07492239
_cell_angle_beta   60.00703752
_cell_angle_gamma   60.00703810
_symmetry_Int_Tables_number   1
_chemical_formula_structural   Tb6Dy5Tm5(CdPt)4
_chemical_formula_sum   'Tb6 Dy5 Tm5 Cd4 Pt4'
_cell_volume   637.86373752
_cell_formula_units_Z   1
loop_
 _symmetry_equiv_pos_site_id
 _symmetry_equiv_pos_as_xyz
  1  'x, y, z'
loop_
 _atom_site_type_symbol
 _atom_site_label
 _atom_site_symmetry_multiplicity
 _atom_site_fract_x
 _atom_site_fract_y
 _atom_site_fract_z
 _atom_site_occupancy
  Tb  Tb0  1  0.934672  0.565328  0.565328  1
  Tb  Tb1  1  0.561661  0.938339  0.938339  1
  Tb  Tb2  1  0.563181  0.936728  0.563860  1
  Tb  Tb3  1  0.936231  0.563860  0.936728  1
  Tb  Tb4  1  0.563181  0.563860  0.936728  1
  Tb  Tb5  1  0.936231  0.936728  0.563860  1
  Dy  Dy6  1  0.349458  0.352530  0.352530  1
  Dy  Dy7  1  0.352617  0.355787  0.938980  1
  Dy  Dy8  1  0.352617  0.938980  0.355787  1
  Dy  Dy9  1  0.945482  0.352530  0.352530  1
  Dy  Dy10  1  0.811052  0.188948  0.188948  1
  Tm  Tm11  1  0.186994  0.813006  0.813006  1
  Tm  Tm12  1  0.189551  0.811971  0.187213  1
  Tm  Tm13  1  0.811265  0.187213  0.811971  1
  Tm  Tm14  1  0.189551  0.187213  0.811971  1
  Tm  Tm15  1  0.811265  0.811971  0.187213  1
  Cd  Cd16  1  0.582271  0.580644  0.580644  1
  Cd  Cd17  1  0.582138  0.580785  0.254939  1
  Cd  Cd18  1  0.582138  0.254939  0.580785  1
  Cd  Cd19  1  0.256442  0.580644  0.580644  1
  Pt  Pt20  1  0.147029  0.141668  0.141668  1
  Pt  Pt21  1  0.142670  0.141138  0.573523  1
  Pt  Pt22  1  0.142670  0.573523  0.141138  1
  Pt  Pt23  1  0.569637  0.141668  0.141668  1
