# generated using pymatgen
data_La3PrNb4F28
_symmetry_space_group_name_H-M   'P 1'
_cell_length_a   5.87324321
_cell_length_b   9.42288350
_cell_length_c   12.64006529
_cell_angle_alpha   62.95600048
_cell_angle_beta   90.00490893
_cell_angle_gamma   89.97570015
_symmetry_Int_Tables_number   1
_chemical_formula_structural   La3PrNb4F28
_chemical_formula_sum   'La3 Pr1 Nb4 F28'
_cell_volume   623.04849915
_cell_formula_units_Z   1
loop_
 _symmetry_equiv_pos_site_id
 _symmetry_equiv_pos_as_xyz
  1  'x, y, z'
loop_
 _atom_site_type_symbol
 _atom_site_label
 _atom_site_symmetry_multiplicity
 _atom_site_fract_x
 _atom_site_fract_y
 _atom_site_fract_z
 _atom_site_occupancy
  La  La0  1  0.755928  0.808451  0.769404  1
  La  La1  1  0.255918  0.190932  0.730709  1
  La  La2  1  0.243613  0.188896  0.231076  1
  Pr  Pr3  1  0.743942  0.807890  0.269298  1
  Nb  Nb4  1  0.752287  0.271910  0.956428  1
  Nb  Nb5  1  0.252472  0.726954  0.543089  1
  Nb  Nb6  1  0.247448  0.726769  0.045464  1
  Nb  Nb7  1  0.747411  0.274529  0.454999  1
  F  F8  1  0.454373  0.708493  0.922871  1
  F  F9  1  0.954579  0.292218  0.577614  1
  F  F10  1  0.544974  0.291235  0.078185  1
  F  F11  1  0.042783  0.709758  0.420723  1
  F  F12  1  0.466068  0.284933  0.547164  1
  F  F13  1  0.966618  0.715446  0.952973  1
  F  F14  1  0.534725  0.716565  0.450564  1
  F  F15  1  0.034298  0.284380  0.047473  1
  F  F16  1  0.761885  0.505298  0.862380  1
  F  F17  1  0.262233  0.494060  0.637402  1
  F  F18  1  0.238474  0.493825  0.138150  1
  F  F19  1  0.738965  0.508414  0.361682  1
  F  F20  1  0.761561  0.040022  0.052815  1
  F  F21  1  0.261745  0.958887  0.449085  1
  F  F22  1  0.238147  0.958514  0.949827  1
  F  F23  1  0.737996  0.042676  0.549988  1
  F  F24  1  0.979555  0.731813  0.640614  1
  F  F25  1  0.478657  0.268241  0.859003  1
  F  F26  1  0.021226  0.268604  0.358442  1
  F  F27  1  0.521859  0.732771  0.142492  1
  F  F28  1  0.041096  0.749326  0.167813  1
  F  F29  1  0.543144  0.251562  0.332505  1
  F  F30  1  0.956684  0.251426  0.832923  1
  F  F31  1  0.456631  0.748320  0.666578  1
  F  F32  1  0.424288  0.970661  0.231942  1
  F  F33  1  0.920842  0.026483  0.268203  1
  F  F34  1  0.578997  0.028219  0.768464  1
  F  F35  1  0.078583  0.971521  0.731657  1
