# generated using pymatgen
data_Hf10BN8
_symmetry_space_group_name_H-M   'P 1'
_cell_length_a   5.59554443
_cell_length_b   5.58996324
_cell_length_c   8.55452910
_cell_angle_alpha   70.89127160
_cell_angle_beta   70.83182107
_cell_angle_gamma   80.42903219
_symmetry_Int_Tables_number   1
_chemical_formula_structural   Hf10BN8
_chemical_formula_sum   'Hf10 B1 N8'
_cell_volume   238.29661356
_cell_formula_units_Z   1
loop_
 _symmetry_equiv_pos_site_id
 _symmetry_equiv_pos_as_xyz
  1  'x, y, z'
loop_
 _atom_site_type_symbol
 _atom_site_label
 _atom_site_symmetry_multiplicity
 _atom_site_fract_x
 _atom_site_fract_y
 _atom_site_fract_z
 _atom_site_occupancy
  Hf  Hf0  1  0.637951  0.255175  0.949936  1
  Hf  Hf1  1  0.949417  0.740657  0.847971  1
  Hf  Hf2  1  0.050583  0.259343  0.152029  1
  Hf  Hf3  1  0.362049  0.744825  0.050064  1
  Hf  Hf4  1  0.450491  0.248116  0.347287  1
  Hf  Hf5  1  0.745600  0.746357  0.252943  1
  Hf  Hf6  1  0.851730  0.248257  0.552331  1
  Hf  Hf7  1  0.148270  0.751743  0.447669  1
  Hf  Hf8  1  0.254400  0.253643  0.747057  1
  Hf  Hf9  1  0.549509  0.751884  0.652713  1
  B  B10  1  0.500000  0.500000  0.500000  1
  N  N11  1  0.604546  0.997772  0.801966  1
  N  N12  1  0.299330  0.503126  0.901091  1
  N  N13  1  0.395454  0.002228  0.198034  1
  N  N14  1  0.700670  0.496874  0.098909  1
  N  N15  1  0.799915  0.003584  0.400071  1
  N  N16  1  0.101634  0.499029  0.299155  1
  N  N17  1  0.200085  0.996416  0.599929  1
  N  N18  1  0.898366  0.500971  0.700845  1
