# generated using pymatgen
data_Er3Zr(MoN2)4
_symmetry_space_group_name_H-M   'P 1'
_cell_length_a   3.15640100
_cell_length_b   5.64674055
_cell_length_c   10.53563160
_cell_angle_alpha   90.23192703
_cell_angle_beta   90.00000000
_cell_angle_gamma   90.00000000
_symmetry_Int_Tables_number   1
_chemical_formula_structural   Er3Zr(MoN2)4
_chemical_formula_sum   'Er3 Zr1 Mo4 N8'
_cell_volume   187.77900112
_cell_formula_units_Z   1
loop_
 _symmetry_equiv_pos_site_id
 _symmetry_equiv_pos_as_xyz
  1  'x, y, z'
loop_
 _atom_site_type_symbol
 _atom_site_label
 _atom_site_symmetry_multiplicity
 _atom_site_fract_x
 _atom_site_fract_y
 _atom_site_fract_z
 _atom_site_occupancy
  Er  Er0  1  0.250000  0.581072  0.646862  1
  Er  Er1  1  0.750000  0.918720  0.147337  1
  Er  Er2  1  0.750000  0.419599  0.352229  1
  Zr  Zr3  1  0.250000  0.082594  0.849671  1
  Mo  Mo4  1  0.250000  0.429827  0.092054  1
  Mo  Mo5  1  0.250000  0.931077  0.405982  1
  Mo  Mo6  1  0.750000  0.566396  0.908649  1
  Mo  Mo7  1  0.750000  0.070027  0.593913  1
  N  N8  1  0.250000  0.165676  0.246403  1
  N  N9  1  0.250000  0.662711  0.250075  1
  N  N10  1  0.750000  0.845921  0.758099  1
  N  N11  1  0.750000  0.327416  0.752506  1
  N  N12  1  0.250000  0.768893  0.991776  1
  N  N13  1  0.250000  0.262416  0.506447  1
  N  N14  1  0.750000  0.231497  0.000929  1
  N  N15  1  0.750000  0.736158  0.497068  1
