# generated using pymatgen
data_Y8Lu2(PtRh)3
_symmetry_space_group_name_H-M   'P 1'
_cell_length_a   11.01651377
_cell_length_b   11.01100100
_cell_length_c   6.35030100
_cell_angle_alpha   90.00000000
_cell_angle_beta   90.05330923
_cell_angle_gamma   90.00000000
_symmetry_Int_Tables_number   1
_chemical_formula_structural   Y8Lu2(PtRh)3
_chemical_formula_sum   'Y16 Lu4 Pt6 Rh6'
_cell_volume   770.30923890
_cell_formula_units_Z   2
loop_
 _symmetry_equiv_pos_site_id
 _symmetry_equiv_pos_as_xyz
  1  'x, y, z'
loop_
 _atom_site_type_symbol
 _atom_site_label
 _atom_site_symmetry_multiplicity
 _atom_site_fract_x
 _atom_site_fract_y
 _atom_site_fract_z
 _atom_site_occupancy
  Y  Y0  1  0.292359  0.089093  0.376537  1
  Y  Y1  1  0.292359  0.910907  0.876537  1
  Y  Y2  1  0.707324  0.087099  0.875551  1
  Y  Y3  1  0.707324  0.912901  0.375551  1
  Y  Y4  1  0.585256  0.789915  0.875649  1
  Y  Y5  1  0.585256  0.210085  0.375649  1
  Y  Y6  1  0.411144  0.790869  0.379638  1
  Y  Y7  1  0.411144  0.209131  0.879638  1
  Y  Y8  1  0.211041  0.413032  0.621500  1
  Y  Y9  1  0.211041  0.586968  0.121500  1
  Y  Y10  1  0.792205  0.412735  0.123021  1
  Y  Y11  1  0.792205  0.587265  0.623021  1
  Y  Y12  1  0.913597  0.707385  0.123856  1
  Y  Y13  1  0.913597  0.292615  0.623856  1
  Y  Y14  1  0.089725  0.707636  0.624020  1
  Y  Y15  1  0.089725  0.292364  0.124020  1
  Lu  Lu16  1  0.999799  0.999611  0.499894  1
  Lu  Lu17  1  0.999799  0.000389  0.999894  1
  Lu  Lu18  1  0.498323  0.499097  0.000162  1
  Lu  Lu19  1  0.498323  0.500903  0.500162  1
  Pt  Pt20  1  0.849241  0.150276  0.250202  1
  Pt  Pt21  1  0.849241  0.849724  0.750202  1
  Pt  Pt22  1  0.150164  0.150394  0.749781  1
  Pt  Pt23  1  0.150164  0.849606  0.249781  1
  Pt  Pt24  1  0.650426  0.349307  0.750054  1
  Pt  Pt25  1  0.650426  0.650693  0.250054  1
  Rh  Rh26  1  0.348911  0.348845  0.250290  1
  Rh  Rh27  1  0.348911  0.651155  0.750290  1
  Rh  Rh28  1  0.499892  0.000199  0.125249  1
  Rh  Rh29  1  0.499892  0.999801  0.625249  1
  Rh  Rh30  1  0.000594  0.500247  0.874597  1
  Rh  Rh31  1  0.000594  0.499753  0.374597  1
