# generated using pymatgen
data_Li8Y7Ho(Sn3Bi)2
_symmetry_space_group_name_H-M   'P 1'
_cell_length_a   9.43811949
_cell_length_b   9.43744364
_cell_length_c   7.30654001
_cell_angle_alpha   89.99967196
_cell_angle_beta   90.10997395
_cell_angle_gamma   119.99730702
_symmetry_Int_Tables_number   1
_chemical_formula_structural   Li8Y7Ho(Sn3Bi)2
_chemical_formula_sum   'Li8 Y7 Ho1 Sn6 Bi2'
_cell_volume   563.62852186
_cell_formula_units_Z   1
loop_
 _symmetry_equiv_pos_site_id
 _symmetry_equiv_pos_as_xyz
  1  'x, y, z'
loop_
 _atom_site_type_symbol
 _atom_site_label
 _atom_site_symmetry_multiplicity
 _atom_site_fract_x
 _atom_site_fract_y
 _atom_site_fract_z
 _atom_site_occupancy
  Li  Li0  1  0.167730  0.333990  0.282610  1
  Li  Li1  1  0.167724  0.833737  0.282606  1
  Li  Li2  1  0.665107  0.832550  0.286069  1
  Li  Li3  1  0.829117  0.664602  0.787411  1
  Li  Li4  1  0.829116  0.164523  0.787418  1
  Li  Li5  1  0.337897  0.168948  0.791586  1
  Li  Li6  1  0.337979  0.668989  0.669351  1
  Li  Li7  1  0.665331  0.332660  0.173302  1
  Y  Y8  1  0.516841  0.026486  0.491014  1
  Y  Y9  1  0.516843  0.490362  0.491007  1
  Y  Y10  1  0.972149  0.486075  0.489080  1
  Y  Y11  1  0.492971  0.978265  0.996938  1
  Y  Y12  1  0.492973  0.514705  0.996946  1
  Y  Y13  1  0.017683  0.508840  0.999168  1
  Y  Y14  1  0.994850  0.997425  0.494875  1
  Ho  Ho15  1  0.995176  0.997590  0.005550  1
  Sn  Sn16  1  0.667281  0.833641  0.733061  1
  Sn  Sn17  1  0.834182  0.667483  0.231670  1
  Sn  Sn18  1  0.834190  0.166699  0.231681  1
  Sn  Sn19  1  0.332660  0.166323  0.231366  1
  Sn  Sn20  1  0.332538  0.666268  0.260187  1
  Sn  Sn21  1  0.667484  0.333749  0.760477  1
  Bi  Bi22  1  0.166090  0.333128  0.734300  1
  Bi  Bi23  1  0.166088  0.832962  0.734297  1
