# generated using pymatgen
data_TbTmPa4(Al3Os)8
_symmetry_space_group_name_H-M   'P 1'
_cell_length_a   8.85066408
_cell_length_b   8.85066499
_cell_length_c   9.45537700
_cell_angle_alpha   90.00000000
_cell_angle_beta   90.00000000
_cell_angle_gamma   119.67775862
_symmetry_Int_Tables_number   1
_chemical_formula_structural   TbTmPa4(Al3Os)8
_chemical_formula_sum   'Tb1 Tm1 Pa4 Al24 Os8'
_cell_volume   643.52038453
_cell_formula_units_Z   1
loop_
 _symmetry_equiv_pos_site_id
 _symmetry_equiv_pos_as_xyz
  1  'x, y, z'
loop_
 _atom_site_type_symbol
 _atom_site_label
 _atom_site_symmetry_multiplicity
 _atom_site_fract_x
 _atom_site_fract_y
 _atom_site_fract_z
 _atom_site_occupancy
  Tb  Tb0  1  0.196007  0.803993  0.250000  1
  Tm  Tm1  1  0.801481  0.198519  0.750000  1
  Pa  Pa2  1  0.199076  0.393319  0.250000  1
  Pa  Pa3  1  0.800492  0.606218  0.750000  1
  Pa  Pa4  1  0.606681  0.800924  0.250000  1
  Pa  Pa5  1  0.393782  0.199508  0.750000  1
  Al  Al6  1  0.331626  0.668374  0.018714  1
  Al  Al7  1  0.668802  0.331198  0.980509  1
  Al  Al8  1  0.668802  0.331198  0.519491  1
  Al  Al9  1  0.331626  0.668374  0.481286  1
  Al  Al10  1  0.161208  0.324494  0.577971  1
  Al  Al11  1  0.838022  0.674781  0.422287  1
  Al  Al12  1  0.675506  0.838792  0.577971  1
  Al  Al13  1  0.838022  0.674781  0.077713  1
  Al  Al14  1  0.325219  0.161978  0.422287  1
  Al  Al15  1  0.161208  0.324494  0.922029  1
  Al  Al16  1  0.162671  0.837329  0.580199  1
  Al  Al17  1  0.325219  0.161978  0.077713  1
  Al  Al18  1  0.837537  0.162463  0.420856  1
  Al  Al19  1  0.675506  0.838792  0.922029  1
  Al  Al20  1  0.837537  0.162463  0.079144  1
  Al  Al21  1  0.162671  0.837329  0.919801  1
  Al  Al22  1  0.560829  0.122786  0.250000  1
  Al  Al23  1  0.439942  0.877939  0.750000  1
  Al  Al24  1  0.877214  0.439171  0.250000  1
  Al  Al25  1  0.122061  0.560058  0.750000  1
  Al  Al26  1  0.564417  0.435583  0.250000  1
  Al  Al27  1  0.435490  0.564510  0.750000  1
  Al  Al28  1  0.999290  0.000710  0.250000  1
  Al  Al29  1  0.999496  0.000504  0.750000  1
  Os  Os30  1  0.500942  0.000279  0.999521  1
  Os  Os31  1  0.999721  0.499058  0.999521  1
  Os  Os32  1  0.500942  0.000279  0.500479  1
  Os  Os33  1  0.500332  0.499668  0.999605  1
  Os  Os34  1  0.999721  0.499058  0.500479  1
  Os  Os35  1  0.500332  0.499668  0.500395  1
  Os  Os36  1  0.000284  0.999716  0.000109  1
  Os  Os37  1  0.000284  0.999716  0.499891  1
