# generated using pymatgen
data_Er3Tm(B6Ru)2
_symmetry_space_group_name_H-M   'P 1'
_cell_length_a   3.62868100
_cell_length_b   9.08807636
_cell_length_c   11.45939800
_cell_angle_alpha   90.01636126
_cell_angle_beta   90.00000000
_cell_angle_gamma   90.00000000
_symmetry_Int_Tables_number   1
_chemical_formula_structural   Er3Tm(B6Ru)2
_chemical_formula_sum   'Er6 Tm2 B24 Ru4'
_cell_volume   377.90491809
_cell_formula_units_Z   2
loop_
 _symmetry_equiv_pos_site_id
 _symmetry_equiv_pos_as_xyz
  1  'x, y, z'
loop_
 _atom_site_type_symbol
 _atom_site_label
 _atom_site_symmetry_multiplicity
 _atom_site_fract_x
 _atom_site_fract_y
 _atom_site_fract_z
 _atom_site_occupancy
  Er  Er0  1  0.000000  0.322116  0.413877  1
  Er  Er1  1  0.000000  0.677884  0.586123  1
  Er  Er2  1  0.000000  0.821716  0.085991  1
  Er  Er3  1  0.000000  0.178284  0.914009  1
  Er  Er4  1  0.000000  0.943719  0.372447  1
  Er  Er5  1  0.000000  0.056281  0.627554  1
  Tm  Tm6  1  0.000000  0.443709  0.127362  1
  Tm  Tm7  1  0.000000  0.556291  0.872637  1
  B  B8  1  0.500000  0.553659  0.433248  1
  B  B9  1  0.500000  0.446341  0.566752  1
  B  B10  1  0.500000  0.053984  0.066540  1
  B  B11  1  0.500000  0.946016  0.933460  1
  B  B12  1  0.500000  0.748022  0.420070  1
  B  B13  1  0.500000  0.251978  0.579930  1
  B  B14  1  0.500000  0.248730  0.079750  1
  B  B15  1  0.500000  0.751270  0.920250  1
  B  B16  1  0.500000  0.791163  0.265945  1
  B  B17  1  0.500000  0.208837  0.734055  1
  B  B18  1  0.500000  0.291762  0.233642  1
  B  B19  1  0.500000  0.708237  0.766358  1
  B  B20  1  0.500000  0.631137  0.184674  1
  B  B21  1  0.500000  0.368863  0.815326  1
  B  B22  1  0.500000  0.131756  0.314941  1
  B  B23  1  0.500000  0.868244  0.685059  1
  B  B24  1  0.500000  0.982799  0.212739  1
  B  B25  1  0.500000  0.017201  0.787261  1
  B  B26  1  0.500000  0.482421  0.286815  1
  B  B27  1  0.500000  0.517579  0.713185  1
  B  B28  1  0.500000  0.606577  0.029499  1
  B  B29  1  0.500000  0.393423  0.970501  1
  B  B30  1  0.500000  0.107973  0.470163  1
  B  B31  1  0.500000  0.892027  0.529837  1
  Ru  Ru32  1  0.000000  0.637305  0.320861  1
  Ru  Ru33  1  0.000000  0.362695  0.679139  1
  Ru  Ru34  1  0.000000  0.138090  0.178665  1
  Ru  Ru35  1  0.000000  0.861910  0.821335  1
