# generated using pymatgen
data_Sc8Ti9Al2Si16W
_symmetry_space_group_name_H-M   'P 1'
_cell_length_a   6.61885419
_cell_length_b   6.83334981
_cell_length_c   13.01101800
_cell_angle_alpha   90.00000000
_cell_angle_beta   90.00000000
_cell_angle_gamma   90.74137821
_symmetry_Int_Tables_number   1
_chemical_formula_structural   Sc8Ti9Al2Si16W
_chemical_formula_sum   'Sc8 Ti9 Al2 Si16 W1'
_cell_volume   588.42536698
_cell_formula_units_Z   1
loop_
 _symmetry_equiv_pos_site_id
 _symmetry_equiv_pos_as_xyz
  1  'x, y, z'
loop_
 _atom_site_type_symbol
 _atom_site_label
 _atom_site_symmetry_multiplicity
 _atom_site_fract_x
 _atom_site_fract_y
 _atom_site_fract_z
 _atom_site_occupancy
  Sc  Sc0  1  0.504065  0.674679  0.593425  1
  Sc  Sc1  1  0.999733  0.827269  0.906078  1
  Sc  Sc2  1  0.497944  0.324197  0.094943  1
  Sc  Sc3  1  0.999462  0.171265  0.404133  1
  Sc  Sc4  1  0.497944  0.324197  0.405057  1
  Sc  Sc5  1  0.999462  0.171265  0.095867  1
  Sc  Sc6  1  0.504065  0.674679  0.906575  1
  Sc  Sc7  1  0.999733  0.827269  0.593922  1
  Ti  Ti8  1  0.668901  0.174612  0.626146  1
  Ti  Ti9  1  0.157630  0.322672  0.873189  1
  Ti  Ti10  1  0.332401  0.826664  0.127618  1
  Ti  Ti11  1  0.839208  0.678382  0.372944  1
  Ti  Ti12  1  0.332401  0.826664  0.372382  1
  Ti  Ti13  1  0.839208  0.678382  0.127056  1
  Ti  Ti14  1  0.668901  0.174612  0.873854  1
  Ti  Ti15  1  0.157630  0.322672  0.626811  1
  Ti  Ti16  1  0.337358  0.008101  0.750000  1
  Al  Al17  1  0.835714  0.501484  0.750000  1
  Al  Al18  1  0.162352  0.500483  0.250000  1
  Si  Si19  1  0.665195  0.964369  0.458413  1
  Si  Si20  1  0.169582  0.539675  0.033595  1
  Si  Si21  1  0.334509  0.035422  0.959300  1
  Si  Si22  1  0.832398  0.459202  0.532461  1
  Si  Si23  1  0.334509  0.035422  0.540700  1
  Si  Si24  1  0.832398  0.459202  0.967539  1
  Si  Si25  1  0.665195  0.964369  0.041587  1
  Si  Si26  1  0.169582  0.539675  0.466405  1
  Si  Si27  1  0.458246  0.375668  0.750000  1
  Si  Si28  1  0.965865  0.102267  0.750000  1
  Si  Si29  1  0.540632  0.622757  0.250000  1
  Si  Si30  1  0.033649  0.894177  0.250000  1
  Si  Si31  1  0.698423  0.869917  0.750000  1
  Si  Si32  1  0.217814  0.636093  0.750000  1
  Si  Si33  1  0.300502  0.132567  0.250000  1
  Si  Si34  1  0.786064  0.364801  0.250000  1
  W  W35  1  0.661326  0.994872  0.250000  1
