# generated using pymatgen
data_Dy2Y2HoP12Ru19
_symmetry_space_group_name_H-M   'P 1'
_cell_length_a   12.53543400
_cell_length_b   12.53130650
_cell_length_c   3.97887600
_cell_angle_alpha   90.00000000
_cell_angle_beta   90.00000000
_cell_angle_gamma   120.01089625
_symmetry_Int_Tables_number   1
_chemical_formula_structural   Dy2Y2HoP12Ru19
_chemical_formula_sum   'Dy2 Y2 Ho1 P12 Ru19'
_cell_volume   541.22651944
_cell_formula_units_Z   1
loop_
 _symmetry_equiv_pos_site_id
 _symmetry_equiv_pos_as_xyz
  1  'x, y, z'
loop_
 _atom_site_type_symbol
 _atom_site_label
 _atom_site_symmetry_multiplicity
 _atom_site_fract_x
 _atom_site_fract_y
 _atom_site_fract_z
 _atom_site_occupancy
  Dy  Dy0  1  0.666586  0.333351  0.000000  1
  Dy  Dy1  1  0.333234  0.666649  0.000000  1
  Y  Y2  1  0.999949  0.183412  0.500000  1
  Y  Y3  1  0.816537  0.816588  0.500000  1
  Ho  Ho4  1  0.183290  0.000000  0.500000  1
  P  P5  1  0.000508  0.815635  0.000000  1
  P  P6  1  0.184873  0.184365  0.000000  1
  P  P7  1  0.815503  0.000000  0.000000  1
  P  P8  1  0.693672  0.171465  0.500000  1
  P  P9  1  0.828510  0.522427  0.500000  1
  P  P10  1  0.477514  0.306083  0.500000  1
  P  P11  1  0.171431  0.693917  0.500000  1
  P  P12  1  0.522207  0.828535  0.500000  1
  P  P13  1  0.306081  0.477573  0.500000  1
  P  P14  1  0.000073  0.372939  0.000000  1
  P  P15  1  0.627134  0.627061  0.000000  1
  P  P16  1  0.372660  0.000000  0.000000  1
  Ru  Ru17  1  0.000087  0.554693  0.000000  1
  Ru  Ru18  1  0.445393  0.445307  0.000000  1
  Ru  Ru19  1  0.554473  0.000000  0.000000  1
  Ru  Ru20  1  0.000235  0.716995  0.500000  1
  Ru  Ru21  1  0.283239  0.283005  0.500000  1
  Ru  Ru22  1  0.716571  0.000000  0.500000  1
  Ru  Ru23  1  0.807410  0.184876  0.000000  1
  Ru  Ru24  1  0.815239  0.622720  0.000000  1
  Ru  Ru25  1  0.377046  0.192030  0.000000  1
  Ru  Ru26  1  0.185016  0.807970  0.000000  1
  Ru  Ru27  1  0.622535  0.815124  0.000000  1
  Ru  Ru28  1  0.192519  0.377280  0.000000  1
  Ru  Ru29  1  0.874204  0.366294  0.500000  1
  Ru  Ru30  1  0.633765  0.507982  0.500000  1
  Ru  Ru31  1  0.491970  0.125798  0.500000  1
  Ru  Ru32  1  0.366173  0.874202  0.500000  1
  Ru  Ru33  1  0.507911  0.633706  0.500000  1
  Ru  Ru34  1  0.125782  0.492018  0.500000  1
  Ru  Ru35  1  0.000666  0.000000  0.000000  1
