# generated using pymatgen
data_K3Tc2(As3Rh2)2
_symmetry_space_group_name_H-M   'P 1'
_cell_length_a   9.32726115
_cell_length_b   9.33069979
_cell_length_c   9.33069903
_cell_angle_alpha   154.61818618
_cell_angle_beta   87.57412999
_cell_angle_gamma   97.98368047
_symmetry_Int_Tables_number   1
_chemical_formula_structural   K3Tc2(As3Rh2)2
_chemical_formula_sum   'K3 Tc2 As6 Rh4'
_cell_volume   338.03101247
_cell_formula_units_Z   1
loop_
 _symmetry_equiv_pos_site_id
 _symmetry_equiv_pos_as_xyz
  1  'x, y, z'
loop_
 _atom_site_type_symbol
 _atom_site_label
 _atom_site_symmetry_multiplicity
 _atom_site_fract_x
 _atom_site_fract_y
 _atom_site_fract_z
 _atom_site_occupancy
  K  K0  1  0.331695  0.331643  0.000052  1
  K  K1  1  0.667647  0.666826  0.000822  1
  K  K2  1  0.001524  0.001487  0.000037  1
  Tc  Tc3  1  0.586501  0.835418  0.751082  1
  Tc  Tc4  1  0.249239  0.497956  0.751282  1
  As  As5  1  0.315229  0.666571  0.648658  1
  As  As6  1  0.685098  0.333491  0.351607  1
  As  As7  1  0.984018  0.335249  0.648768  1
  As  As8  1  0.351868  0.000076  0.351792  1
  As  As9  1  0.015483  0.666635  0.348850  1
  As  As10  1  0.646602  0.997999  0.648604  1
  Rh  Rh11  1  0.751399  0.503194  0.248205  1
  Rh  Rh12  1  0.078586  0.830156  0.248430  1
  Rh  Rh13  1  0.416193  0.166657  0.249536  1
  Rh  Rh14  1  0.918917  0.166642  0.752276  1
