# generated using pymatgen
data_Zr13Al9CoRh7
_symmetry_space_group_name_H-M   'P 1'
_cell_length_a   9.16911331
_cell_length_b   9.16911306
_cell_length_c   9.16911343
_cell_angle_alpha   59.68348958
_cell_angle_beta   59.68349177
_cell_angle_gamma   59.68349538
_symmetry_Int_Tables_number   1
_chemical_formula_structural   Zr13Al9CoRh7
_chemical_formula_sum   'Zr13 Al9 Co1 Rh7'
_cell_volume   541.16921492
_cell_formula_units_Z   1
loop_
 _symmetry_equiv_pos_site_id
 _symmetry_equiv_pos_as_xyz
  1  'x, y, z'
loop_
 _atom_site_type_symbol
 _atom_site_label
 _atom_site_symmetry_multiplicity
 _atom_site_fract_x
 _atom_site_fract_y
 _atom_site_fract_z
 _atom_site_occupancy
  Zr  Zr0  1  0.201327  0.201327  0.796196  1
  Zr  Zr1  1  0.796196  0.201327  0.201327  1
  Zr  Zr2  1  0.201327  0.796196  0.201327  1
  Zr  Zr3  1  0.806339  0.806339  0.175839  1
  Zr  Zr4  1  0.175839  0.806339  0.806339  1
  Zr  Zr5  1  0.806339  0.175839  0.806339  1
  Zr  Zr6  1  0.378441  0.378441  0.378441  1
  Zr  Zr7  1  0.379325  0.865642  0.379325  1
  Zr  Zr8  1  0.865642  0.379325  0.379325  1
  Zr  Zr9  1  0.379325  0.379325  0.865642  1
  Zr  Zr10  1  0.838504  0.491140  0.838504  1
  Zr  Zr11  1  0.491140  0.838504  0.838504  1
  Zr  Zr12  1  0.838504  0.838504  0.491140  1
  Al  Al13  1  0.157606  0.157606  0.157606  1
  Al  Al14  1  0.162066  0.516851  0.162066  1
  Al  Al15  1  0.516851  0.162066  0.162066  1
  Al  Al16  1  0.162066  0.162066  0.516851  1
  Al  Al17  1  0.617493  0.617493  0.617493  1
  Al  Al18  1  0.619262  0.148200  0.619262  1
  Al  Al19  1  0.148200  0.619262  0.619262  1
  Al  Al20  1  0.619262  0.619262  0.148200  1
  Al  Al21  1  0.828605  0.828605  0.828605  1
  Co  Co22  1  0.002914  0.002914  0.002914  1
  Rh  Rh23  1  0.005890  0.005890  0.500256  1
  Rh  Rh24  1  0.500256  0.005890  0.005890  1
  Rh  Rh25  1  0.005890  0.500256  0.005890  1
  Rh  Rh26  1  0.493238  0.493238  0.008294  1
  Rh  Rh27  1  0.008294  0.493238  0.493238  1
  Rh  Rh28  1  0.493238  0.008294  0.493238  1
  Rh  Rh29  1  0.500624  0.500624  0.500624  1
