# generated using pymatgen
data_La3Pr2PPb3
_symmetry_space_group_name_H-M   'P 1'
_cell_length_a   9.63262101
_cell_length_b   9.63334519
_cell_length_c   7.24787700
_cell_angle_alpha   90.00000000
_cell_angle_beta   90.00000000
_cell_angle_gamma   120.00248817
_symmetry_Int_Tables_number   1
_chemical_formula_structural   La3Pr2PPb3
_chemical_formula_sum   'La6 Pr4 P2 Pb6'
_cell_volume   582.44128704
_cell_formula_units_Z   2
loop_
 _symmetry_equiv_pos_site_id
 _symmetry_equiv_pos_as_xyz
  1  'x, y, z'
loop_
 _atom_site_type_symbol
 _atom_site_label
 _atom_site_symmetry_multiplicity
 _atom_site_fract_x
 _atom_site_fract_y
 _atom_site_fract_z
 _atom_site_occupancy
  La  La0  1  0.762591  0.762619  0.250000  1
  La  La1  1  0.237409  0.000028  0.250000  1
  La  La2  1  0.000000  0.237368  0.250000  1
  La  La3  1  0.237409  0.237381  0.750000  1
  La  La4  1  0.762591  0.999972  0.750000  1
  La  La5  1  0.000000  0.762632  0.750000  1
  Pr  Pr6  1  0.666672  0.333336  0.500000  1
  Pr  Pr7  1  0.333328  0.666664  0.500000  1
  Pr  Pr8  1  0.333328  0.666664  0.000000  1
  Pr  Pr9  1  0.666672  0.333336  0.000000  1
  P  P10  1  0.000000  0.000000  0.500000  1
  P  P11  1  0.000000  0.000000  0.000000  1
  Pb  Pb12  1  0.402406  0.402404  0.250000  1
  Pb  Pb13  1  0.597594  0.999998  0.250000  1
  Pb  Pb14  1  0.000000  0.597592  0.250000  1
  Pb  Pb15  1  0.597594  0.597596  0.750000  1
  Pb  Pb16  1  0.402406  0.000002  0.750000  1
  Pb  Pb17  1  0.000000  0.402408  0.750000  1
