# generated using pymatgen
data_Tm20Fe3CoSb8
_symmetry_space_group_name_H-M   'P 1'
_cell_length_a   7.75504091
_cell_length_b   8.74563900
_cell_length_c   12.04397949
_cell_angle_alpha   90.00000000
_cell_angle_beta   90.09905561
_cell_angle_gamma   90.00000000
_symmetry_Int_Tables_number   1
_chemical_formula_structural   Tm20Fe3CoSb8
_chemical_formula_sum   'Tm20 Fe3 Co1 Sb8'
_cell_volume   816.85504897
_cell_formula_units_Z   1
loop_
 _symmetry_equiv_pos_site_id
 _symmetry_equiv_pos_as_xyz
  1  'x, y, z'
loop_
 _atom_site_type_symbol
 _atom_site_label
 _atom_site_symmetry_multiplicity
 _atom_site_fract_x
 _atom_site_fract_y
 _atom_site_fract_z
 _atom_site_occupancy
  Tm  Tm0  1  0.157373  0.750000  0.205509  1
  Tm  Tm1  1  0.656001  0.250000  0.293996  1
  Tm  Tm2  1  0.844150  0.250000  0.795875  1
  Tm  Tm3  1  0.345254  0.750000  0.703975  1
  Tm  Tm4  1  0.450315  0.750000  0.996755  1
  Tm  Tm5  1  0.947565  0.250000  0.504192  1
  Tm  Tm6  1  0.550003  0.250000  0.003926  1
  Tm  Tm7  1  0.051137  0.750000  0.496198  1
  Tm  Tm8  1  0.621876  0.750000  0.307765  1
  Tm  Tm9  1  0.121927  0.250000  0.191233  1
  Tm  Tm10  1  0.378433  0.250000  0.692009  1
  Tm  Tm11  1  0.876538  0.750000  0.808110  1
  Tm  Tm12  1  0.824639  0.965025  0.064208  1
  Tm  Tm13  1  0.325183  0.033896  0.436507  1
  Tm  Tm14  1  0.176881  0.462282  0.935251  1
  Tm  Tm15  1  0.675745  0.536691  0.563922  1
  Tm  Tm16  1  0.176881  0.037718  0.935251  1
  Tm  Tm17  1  0.675745  0.963309  0.563922  1
  Tm  Tm18  1  0.824639  0.534975  0.064208  1
  Tm  Tm19  1  0.325183  0.466104  0.436507  1
  Fe  Fe20  1  0.427224  0.750000  0.488238  1
  Fe  Fe21  1  0.929997  0.250000  0.010263  1
  Fe  Fe22  1  0.570849  0.250000  0.509963  1
  Co  Co23  1  0.067950  0.750000  0.990965  1
  Sb  Sb24  1  0.930059  0.993153  0.328198  1
  Sb  Sb25  1  0.429546  0.007164  0.171911  1
  Sb  Sb26  1  0.070112  0.492954  0.672229  1
  Sb  Sb27  1  0.569539  0.507140  0.828288  1
  Sb  Sb28  1  0.070112  0.007046  0.672229  1
  Sb  Sb29  1  0.569539  0.992860  0.828288  1
  Sb  Sb30  1  0.930059  0.506847  0.328198  1
  Sb  Sb31  1  0.429546  0.492836  0.171911  1
