# generated using pymatgen
data_Tm19LuBi12
_symmetry_space_group_name_H-M   'P 1'
_cell_length_a   8.16409822
_cell_length_b   9.44309405
_cell_length_c   11.88177715
_cell_angle_alpha   89.99474025
_cell_angle_beta   90.03319820
_cell_angle_gamma   90.00036450
_symmetry_Int_Tables_number   1
_chemical_formula_structural   Tm19LuBi12
_chemical_formula_sum   'Tm19 Lu1 Bi12'
_cell_volume   916.01769724
_cell_formula_units_Z   1
loop_
 _symmetry_equiv_pos_site_id
 _symmetry_equiv_pos_as_xyz
  1  'x, y, z'
loop_
 _atom_site_type_symbol
 _atom_site_label
 _atom_site_symmetry_multiplicity
 _atom_site_fract_x
 _atom_site_fract_y
 _atom_site_fract_z
 _atom_site_occupancy
  Tm  Tm0  1  0.353893  0.749645  0.216797  1
  Tm  Tm1  1  0.853032  0.749463  0.282847  1
  Tm  Tm2  1  0.646263  0.249714  0.783021  1
  Tm  Tm3  1  0.146451  0.249823  0.716920  1
  Tm  Tm4  1  0.192173  0.934914  0.440765  1
  Tm  Tm5  1  0.308176  0.065215  0.941048  1
  Tm  Tm6  1  0.807731  0.434956  0.559118  1
  Tm  Tm7  1  0.307509  0.434959  0.940787  1
  Tm  Tm8  1  0.807852  0.065097  0.559228  1
  Tm  Tm9  1  0.692243  0.935004  0.059050  1
  Tm  Tm10  1  0.192183  0.565075  0.440772  1
  Tm  Tm11  1  0.476436  0.249847  0.488716  1
  Tm  Tm12  1  0.976243  0.249989  0.011190  1
  Tm  Tm13  1  0.523556  0.749964  0.511131  1
  Tm  Tm14  1  0.023096  0.749702  0.988928  1
  Tm  Tm15  1  0.313572  0.249966  0.217886  1
  Tm  Tm16  1  0.813771  0.249977  0.282140  1
  Tm  Tm17  1  0.686242  0.749710  0.782296  1
  Tm  Tm18  1  0.186253  0.749952  0.717970  1
  Lu  Lu19  1  0.692494  0.566664  0.059207  1
  Bi  Bi20  1  0.405435  0.749628  0.957542  1
  Bi  Bi21  1  0.905362  0.750057  0.542467  1
  Bi  Bi22  1  0.595142  0.251846  0.042865  1
  Bi  Bi23  1  0.094595  0.249999  0.457444  1
  Bi  Bi24  1  0.566415  0.996004  0.325535  1
  Bi  Bi25  1  0.066169  0.503757  0.174237  1
  Bi  Bi26  1  0.433842  0.496058  0.674412  1
  Bi  Bi27  1  0.933547  0.003758  0.825771  1
  Bi  Bi28  1  0.433666  0.003728  0.674362  1
  Bi  Bi29  1  0.933802  0.495900  0.825764  1
  Bi  Bi30  1  0.566537  0.503734  0.325547  1
  Bi  Bi31  1  0.066320  0.995896  0.174236  1
