# generated using pymatgen
data_YEr15(MgSn4)4
_symmetry_space_group_name_H-M   'P 1'
_cell_length_a   7.62835900
_cell_length_b   8.19529000
_cell_length_c   15.19411101
_cell_angle_alpha   90.00278275
_cell_angle_beta   89.99816732
_cell_angle_gamma   90.00120215
_symmetry_Int_Tables_number   1
_chemical_formula_structural   YEr15(MgSn4)4
_chemical_formula_sum   'Y1 Er15 Mg4 Sn16'
_cell_volume   949.88437503
_cell_formula_units_Z   1
loop_
 _symmetry_equiv_pos_site_id
 _symmetry_equiv_pos_as_xyz
  1  'x, y, z'
loop_
 _atom_site_type_symbol
 _atom_site_label
 _atom_site_symmetry_multiplicity
 _atom_site_fract_x
 _atom_site_fract_y
 _atom_site_fract_z
 _atom_site_occupancy
  Y  Y0  1  0.998886  0.184778  0.090645  1
  Er  Er1  1  0.001046  0.815154  0.909334  1
  Er  Er2  1  0.501068  0.684826  0.909354  1
  Er  Er3  1  0.001038  0.815159  0.590633  1
  Er  Er4  1  0.498945  0.315205  0.090643  1
  Er  Er5  1  0.998956  0.184834  0.409314  1
  Er  Er6  1  0.498950  0.315165  0.409359  1
  Er  Er7  1  0.501040  0.684835  0.590629  1
  Er  Er8  1  0.335114  0.169015  0.628740  1
  Er  Er9  1  0.664913  0.830971  0.371266  1
  Er  Er10  1  0.164894  0.669023  0.371257  1
  Er  Er11  1  0.664820  0.830906  0.128756  1
  Er  Er12  1  0.835069  0.331011  0.628736  1
  Er  Er13  1  0.335078  0.169002  0.871261  1
  Er  Er14  1  0.835057  0.331028  0.871216  1
  Er  Er15  1  0.164915  0.669034  0.128740  1
  Mg  Mg16  1  0.159289  0.505432  0.749998  1
  Mg  Mg17  1  0.840688  0.494612  0.250016  1
  Mg  Mg18  1  0.340727  0.005419  0.250011  1
  Mg  Mg19  1  0.659283  0.994568  0.750001  1
  Sn  Sn20  1  0.021423  0.091713  0.749995  1
  Sn  Sn21  1  0.978532  0.908114  0.250075  1
  Sn  Sn22  1  0.478585  0.591717  0.249994  1
  Sn  Sn23  1  0.521426  0.408290  0.749992  1
  Sn  Sn24  1  0.182648  0.463029  0.538476  1
  Sn  Sn25  1  0.817360  0.536982  0.461540  1
  Sn  Sn26  1  0.317348  0.963020  0.461542  1
  Sn  Sn27  1  0.817296  0.537150  0.038422  1
  Sn  Sn28  1  0.682627  0.036974  0.538470  1
  Sn  Sn29  1  0.182706  0.463152  0.961499  1
  Sn  Sn30  1  0.682509  0.036927  0.961485  1
  Sn  Sn31  1  0.317691  0.962820  0.038392  1
  Sn  Sn32  1  0.302636  0.846708  0.750002  1
  Sn  Sn33  1  0.697227  0.153256  0.250074  1
  Sn  Sn34  1  0.197571  0.346881  0.250137  1
  Sn  Sn35  1  0.802639  0.653292  0.749996  1
