# generated using pymatgen
data_Tm4Al18(NiRu)3
_symmetry_space_group_name_H-M   'P 1'
_cell_length_a   7.48498342
_cell_length_b   7.48497760
_cell_length_c   9.37385448
_cell_angle_alpha   89.85177430
_cell_angle_beta   89.85181071
_cell_angle_gamma   119.94323874
_symmetry_Int_Tables_number   1
_chemical_formula_structural   Tm4Al18(NiRu)3
_chemical_formula_sum   'Tm4 Al18 Ni3 Ru3'
_cell_volume   455.06402285
_cell_formula_units_Z   1
loop_
 _symmetry_equiv_pos_site_id
 _symmetry_equiv_pos_as_xyz
  1  'x, y, z'
loop_
 _atom_site_type_symbol
 _atom_site_label
 _atom_site_symmetry_multiplicity
 _atom_site_fract_x
 _atom_site_fract_y
 _atom_site_fract_z
 _atom_site_occupancy
  Tm  Tm0  1  0.996555  0.668446  0.250231  1
  Tm  Tm1  1  0.007627  0.335282  0.750019  1
  Tm  Tm2  1  0.664717  0.992373  0.249981  1
  Tm  Tm3  1  0.331554  0.003444  0.749769  1
  Al  Al4  1  0.120137  0.119327  0.248899  1
  Al  Al5  1  0.880673  0.879863  0.751101  1
  Al  Al6  1  0.995551  0.332280  0.073407  1
  Al  Al7  1  0.998011  0.666757  0.926392  1
  Al  Al8  1  0.999247  0.666700  0.573876  1
  Al  Al9  1  0.333300  0.000753  0.426124  1
  Al  Al10  1  0.000534  0.331728  0.425740  1
  Al  Al11  1  0.668272  0.999466  0.574260  1
  Al  Al12  1  0.667720  0.004449  0.926593  1
  Al  Al13  1  0.333243  0.001989  0.073608  1
  Al  Al14  1  0.332660  0.331761  0.547927  1
  Al  Al15  1  0.668239  0.667340  0.452073  1
  Al  Al16  1  0.667842  0.669057  0.048473  1
  Al  Al17  1  0.330943  0.332158  0.951527  1
  Al  Al18  1  0.337542  0.546779  0.249204  1
  Al  Al19  1  0.663406  0.449373  0.752602  1
  Al  Al20  1  0.550627  0.336594  0.247398  1
  Al  Al21  1  0.453221  0.662458  0.750796  1
  Ni  Ni22  1  0.671120  0.328879  0.000000  1
  Ni  Ni23  1  0.999459  0.000541  0.000000  1
  Ni  Ni24  1  0.000506  0.999496  0.500000  1
  Ru  Ru25  1  0.326488  0.673512  0.000000  1
  Ru  Ru26  1  0.327911  0.672090  0.500000  1
  Ru  Ru27  1  0.672895  0.327106  0.500000  1
