# generated using pymatgen
data_YEr(Zr4Sn3)2
_symmetry_space_group_name_H-M   'P 1'
_cell_length_a   8.68687574
_cell_length_b   8.68687474
_cell_length_c   5.91521900
_cell_angle_alpha   90.00000000
_cell_angle_beta   90.00000000
_cell_angle_gamma   121.14220642
_symmetry_Int_Tables_number   1
_chemical_formula_structural   YEr(Zr4Sn3)2
_chemical_formula_sum   'Y1 Er1 Zr8 Sn6'
_cell_volume   382.04462887
_cell_formula_units_Z   1
loop_
 _symmetry_equiv_pos_site_id
 _symmetry_equiv_pos_as_xyz
  1  'x, y, z'
loop_
 _atom_site_type_symbol
 _atom_site_label
 _atom_site_symmetry_multiplicity
 _atom_site_fract_x
 _atom_site_fract_y
 _atom_site_fract_z
 _atom_site_occupancy
  Y  Y0  1  0.230238  0.230238  0.750000  1
  Er  Er1  1  0.769140  0.769140  0.250000  1
  Zr  Zr2  1  0.000450  0.253001  0.250000  1
  Zr  Zr3  1  0.747165  0.999176  0.750000  1
  Zr  Zr4  1  0.333941  0.666046  0.499879  1
  Zr  Zr5  1  0.253001  0.000450  0.250000  1
  Zr  Zr6  1  0.666046  0.333941  0.499879  1
  Zr  Zr7  1  0.999176  0.747165  0.750000  1
  Zr  Zr8  1  0.333941  0.666046  0.000121  1
  Zr  Zr9  1  0.666046  0.333941  0.000121  1
  Sn  Sn10  1  0.609405  0.609405  0.750000  1
  Sn  Sn11  1  0.392949  0.996397  0.750000  1
  Sn  Sn12  1  0.607904  0.002942  0.250000  1
  Sn  Sn13  1  0.996397  0.392949  0.750000  1
  Sn  Sn14  1  0.391259  0.391259  0.250000  1
  Sn  Sn15  1  0.002942  0.607904  0.250000  1
