# generated using pymatgen
data_HfZr3ZnPd
_symmetry_space_group_name_H-M   'P 1'
_cell_length_a   3.28298700
_cell_length_b   3.28298700
_cell_length_c   11.27732900
_cell_angle_alpha   90.00000000
_cell_angle_beta   90.00000000
_cell_angle_gamma   90.00000000
_symmetry_Int_Tables_number   1
_chemical_formula_structural   HfZr3ZnPd
_chemical_formula_sum   'Hf1 Zr3 Zn1 Pd1'
_cell_volume   121.54709304
_cell_formula_units_Z   1
loop_
 _symmetry_equiv_pos_site_id
 _symmetry_equiv_pos_as_xyz
  1  'x, y, z'
loop_
 _atom_site_type_symbol
 _atom_site_label
 _atom_site_symmetry_multiplicity
 _atom_site_fract_x
 _atom_site_fract_y
 _atom_site_fract_z
 _atom_site_occupancy
  Hf  Hf0  1  0.000000  0.000000  0.343724  1
  Zr  Zr1  1  0.500000  0.500000  0.160918  1
  Zr  Zr2  1  0.000000  0.000000  0.657102  1
  Zr  Zr3  1  0.500000  0.500000  0.845034  1
  Zn  Zn4  1  0.000000  0.000000  0.002171  1
  Pd  Pd5  1  0.500000  0.500000  0.491051  1
