# generated using pymatgen
data_Ba4Ti2PdO10
_symmetry_space_group_name_H-M   'P 1'
_cell_length_a   7.38557457
_cell_length_b   7.38557492
_cell_length_c   13.28381700
_cell_angle_alpha   90.00000000
_cell_angle_beta   90.00000000
_cell_angle_gamma   133.31818531
_symmetry_Int_Tables_number   1
_chemical_formula_structural   Ba4Ti2PdO10
_chemical_formula_sum   'Ba8 Ti4 Pd2 O20'
_cell_volume   527.17807162
_cell_formula_units_Z   2
loop_
 _symmetry_equiv_pos_site_id
 _symmetry_equiv_pos_as_xyz
  1  'x, y, z'
loop_
 _atom_site_type_symbol
 _atom_site_label
 _atom_site_symmetry_multiplicity
 _atom_site_fract_x
 _atom_site_fract_y
 _atom_site_fract_z
 _atom_site_occupancy
  Ba  Ba0  1  0.470598  0.529402  0.141131  1
  Ba  Ba1  1  0.233811  0.766189  0.898656  1
  Ba  Ba2  1  0.733811  0.266189  0.601344  1
  Ba  Ba3  1  0.029402  0.970598  0.641131  1
  Ba  Ba4  1  0.970598  0.029402  0.358869  1
  Ba  Ba5  1  0.266189  0.733811  0.398656  1
  Ba  Ba6  1  0.529402  0.470598  0.858869  1
  Ba  Ba7  1  0.766189  0.233811  0.101344  1
  Ti  Ti8  1  0.137530  0.862470  0.155047  1
  Ti  Ti9  1  0.362470  0.637530  0.655047  1
  Ti  Ti10  1  0.862470  0.137530  0.844953  1
  Ti  Ti11  1  0.637530  0.362470  0.344953  1
  Pd  Pd12  1  0.000000  0.000000  0.000000  1
  Pd  Pd13  1  0.500000  0.500000  0.500000  1
  O  O14  1  0.536028  0.463972  0.650866  1
  O  O15  1  0.730340  0.269660  0.857810  1
  O  O16  1  0.382736  0.166728  0.460637  1
  O  O17  1  0.882736  0.666728  0.039363  1
  O  O18  1  0.623661  0.876339  0.750000  1
  O  O19  1  0.123661  0.376339  0.750000  1
  O  O20  1  0.269660  0.730340  0.142190  1
  O  O21  1  0.036028  0.963972  0.849134  1
  O  O22  1  0.376339  0.123661  0.250000  1
  O  O23  1  0.833272  0.617264  0.460637  1
  O  O24  1  0.769660  0.230340  0.357810  1
  O  O25  1  0.463972  0.536028  0.349134  1
  O  O26  1  0.876339  0.623661  0.250000  1
  O  O27  1  0.117264  0.333272  0.960637  1
  O  O28  1  0.617264  0.833272  0.539363  1
  O  O29  1  0.230340  0.769660  0.642190  1
  O  O30  1  0.666728  0.882736  0.960637  1
  O  O31  1  0.166728  0.382736  0.539363  1
  O  O32  1  0.963972  0.036028  0.150866  1
  O  O33  1  0.333272  0.117264  0.039363  1
