# generated using pymatgen
data_Y3Ho3Tm2(CdIr)2
_symmetry_space_group_name_H-M   'P 1'
_cell_length_a   9.61307871
_cell_length_b   9.60990417
_cell_length_c   9.60990352
_cell_angle_alpha   60.02184929
_cell_angle_beta   59.98906813
_cell_angle_gamma   59.98906738
_symmetry_Int_Tables_number   1
_chemical_formula_structural   Y3Ho3Tm2(CdIr)2
_chemical_formula_sum   'Y6 Ho6 Tm4 Cd4 Ir4'
_cell_volume   627.74814811
_cell_formula_units_Z   2
loop_
 _symmetry_equiv_pos_site_id
 _symmetry_equiv_pos_as_xyz
  1  'x, y, z'
loop_
 _atom_site_type_symbol
 _atom_site_label
 _atom_site_symmetry_multiplicity
 _atom_site_fract_x
 _atom_site_fract_y
 _atom_site_fract_z
 _atom_site_occupancy
  Y  Y0  1  0.939020  0.560980  0.560980  1
  Y  Y1  1  0.560980  0.939020  0.939020  1
  Y  Y2  1  0.560995  0.939005  0.560995  1
  Y  Y3  1  0.939005  0.560995  0.939005  1
  Y  Y4  1  0.560995  0.560995  0.939005  1
  Y  Y5  1  0.939005  0.939005  0.560995  1
  Ho  Ho6  1  0.348555  0.348874  0.348874  1
  Ho  Ho7  1  0.348874  0.348555  0.953699  1
  Ho  Ho8  1  0.348874  0.953699  0.348555  1
  Ho  Ho9  1  0.953699  0.348874  0.348874  1
  Ho  Ho10  1  0.811380  0.188620  0.188620  1
  Ho  Ho11  1  0.188620  0.811380  0.811380  1
  Tm  Tm12  1  0.188756  0.811244  0.188756  1
  Tm  Tm13  1  0.811244  0.188756  0.811244  1
  Tm  Tm14  1  0.188756  0.188756  0.811244  1
  Tm  Tm15  1  0.811244  0.811244  0.188756  1
  Cd  Cd16  1  0.580662  0.580549  0.580549  1
  Cd  Cd17  1  0.580549  0.580662  0.258243  1
  Cd  Cd18  1  0.580549  0.258243  0.580662  1
  Cd  Cd19  1  0.258243  0.580549  0.580549  1
  Ir  Ir20  1  0.141838  0.141292  0.141292  1
  Ir  Ir21  1  0.141292  0.141838  0.575578  1
  Ir  Ir22  1  0.141292  0.575578  0.141838  1
  Ir  Ir23  1  0.575578  0.141292  0.141292  1
