# generated using pymatgen
data_CoSbRhF12
_symmetry_space_group_name_H-M   'P 1'
_cell_length_a   5.29495369
_cell_length_b   5.64348062
_cell_length_c   9.20591000
_cell_angle_alpha   72.83343912
_cell_angle_beta   87.88424223
_cell_angle_gamma   62.27335922
_symmetry_Int_Tables_number   1
_chemical_formula_structural   CoSbRhF12
_chemical_formula_sum   'Co1 Sb1 Rh1 F12'
_cell_volume   231.01094243
_cell_formula_units_Z   1
loop_
 _symmetry_equiv_pos_site_id
 _symmetry_equiv_pos_as_xyz
  1  'x, y, z'
loop_
 _atom_site_type_symbol
 _atom_site_label
 _atom_site_symmetry_multiplicity
 _atom_site_fract_x
 _atom_site_fract_y
 _atom_site_fract_z
 _atom_site_occupancy
  Co  Co0  1  0.499386  0.502559  0.495508  1
  Sb  Sb1  1  0.224986  0.995109  0.753354  1
  Rh  Rh2  1  0.776567  0.999595  0.253223  1
  F  F3  1  0.950236  0.228580  0.199505  1
  F  F4  1  0.049964  0.761383  0.796613  1
  F  F5  1  0.004151  0.762427  0.142958  1
  F  F6  1  0.460316  0.773978  0.621710  1
  F  F7  1  0.535575  0.241248  0.375271  1
  F  F8  1  0.938194  0.243812  0.569246  1
  F  F9  1  0.071811  0.752303  0.432485  1
  F  F10  1  0.404081  0.238665  0.672716  1
  F  F11  1  0.593267  0.758767  0.324845  1
  F  F12  1  0.519645  0.776270  0.917981  1
  F  F13  1  0.490226  0.221904  0.087500  1
  F  F14  1  0.981594  0.243404  0.857086  1
