# generated using pymatgen
data_YbPr7(US5)4
_symmetry_space_group_name_H-M   'P 1'
_cell_length_a   7.54933422
_cell_length_b   8.11047388
_cell_length_c   11.97317091
_cell_angle_alpha   89.93264923
_cell_angle_beta   89.92136956
_cell_angle_gamma   89.96021817
_symmetry_Int_Tables_number   1
_chemical_formula_structural   YbPr7(US5)4
_chemical_formula_sum   'Yb1 Pr7 U4 S20'
_cell_volume   733.10005391
_cell_formula_units_Z   1
loop_
 _symmetry_equiv_pos_site_id
 _symmetry_equiv_pos_as_xyz
  1  'x, y, z'
loop_
 _atom_site_type_symbol
 _atom_site_label
 _atom_site_symmetry_multiplicity
 _atom_site_fract_x
 _atom_site_fract_y
 _atom_site_fract_z
 _atom_site_occupancy
  Yb  Yb0  1  0.521337  0.500048  0.322102  1
  Pr  Pr1  1  0.975967  0.000191  0.823277  1
  Pr  Pr2  1  0.475941  0.000041  0.675156  1
  Pr  Pr3  1  0.023648  0.499823  0.178947  1
  Pr  Pr4  1  0.475949  0.499992  0.674177  1
  Pr  Pr5  1  0.026003  0.000167  0.177785  1
  Pr  Pr6  1  0.523703  0.999331  0.323135  1
  Pr  Pr7  1  0.974990  0.500195  0.823762  1
  U  U8  1  0.070326  0.749377  0.489397  1
  U  U9  1  0.430665  0.749236  0.992520  1
  U  U10  1  0.928300  0.251122  0.506904  1
  U  U11  1  0.568732  0.251233  0.011040  1
  S  S12  1  0.841383  0.958324  0.593663  1
  S  S13  1  0.659117  0.541514  0.093525  1
  S  S14  1  0.160111  0.458643  0.407062  1
  S  S15  1  0.340878  0.041219  0.906059  1
  S  S16  1  0.160206  0.041696  0.406904  1
  S  S17  1  0.340324  0.458640  0.905588  1
  S  S18  1  0.841283  0.542333  0.594522  1
  S  S19  1  0.660503  0.958192  0.093548  1
  S  S20  1  0.834264  0.750998  0.315165  1
  S  S21  1  0.668349  0.750177  0.814401  1
  S  S22  1  0.167300  0.250173  0.685098  1
  S  S23  1  0.330759  0.248506  0.185320  1
  S  S24  1  0.451492  0.750559  0.499010  1
  S  S25  1  0.047951  0.749690  0.998777  1
  S  S26  1  0.548949  0.249730  0.501553  1
  S  S27  1  0.951729  0.249796  0.001070  1
  S  S28  1  0.194288  0.749797  0.712210  1
  S  S29  1  0.305905  0.749548  0.213327  1
  S  S30  1  0.804881  0.249507  0.286854  1
  S  S31  1  0.694767  0.250202  0.788146  1
