# generated using pymatgen
data_La3Be2Pt7
_symmetry_space_group_name_H-M   'P 1'
_cell_length_a   8.72896051
_cell_length_b   8.72896091
_cell_length_c   8.72896163
_cell_angle_alpha   37.10787429
_cell_angle_beta   37.10787181
_cell_angle_gamma   37.10787552
_symmetry_Int_Tables_number   1
_chemical_formula_structural   La3Be2Pt7
_chemical_formula_sum   'La3 Be2 Pt7'
_cell_volume   216.95983520
_cell_formula_units_Z   1
loop_
 _symmetry_equiv_pos_site_id
 _symmetry_equiv_pos_as_xyz
  1  'x, y, z'
loop_
 _atom_site_type_symbol
 _atom_site_label
 _atom_site_symmetry_multiplicity
 _atom_site_fract_x
 _atom_site_fract_y
 _atom_site_fract_z
 _atom_site_occupancy
  La  La0  1  0.357884  0.357884  0.357884  1
  La  La1  1  0.500000  0.500000  0.500000  1
  La  La2  1  0.642115  0.642115  0.642115  1
  Be  Be3  1  0.167474  0.167474  0.167474  1
  Be  Be4  1  0.832526  0.832526  0.832526  1
  Pt  Pt5  1  0.000000  0.000000  0.000000  1
  Pt  Pt6  1  0.571602  0.071178  0.071179  1
  Pt  Pt7  1  0.071178  0.571602  0.071179  1
  Pt  Pt8  1  0.928822  0.928822  0.428397  1
  Pt  Pt9  1  0.071178  0.071178  0.571603  1
  Pt  Pt10  1  0.928822  0.428398  0.928821  1
  Pt  Pt11  1  0.428398  0.928822  0.928821  1
