# generated using pymatgen
data_Tm5TlInBi
_symmetry_space_group_name_H-M   'P 1'
_cell_length_a   6.52816300
_cell_length_b   8.97288203
_cell_length_c   8.94387100
_cell_angle_alpha   120.10735383
_cell_angle_beta   90.00000000
_cell_angle_gamma   90.00001277
_symmetry_Int_Tables_number   1
_chemical_formula_structural   Tm5TlInBi
_chemical_formula_sum   'Tm10 Tl2 In2 Bi2'
_cell_volume   453.21918195
_cell_formula_units_Z   2
loop_
 _symmetry_equiv_pos_site_id
 _symmetry_equiv_pos_as_xyz
  1  'x, y, z'
loop_
 _atom_site_type_symbol
 _atom_site_label
 _atom_site_symmetry_multiplicity
 _atom_site_fract_x
 _atom_site_fract_y
 _atom_site_fract_z
 _atom_site_occupancy
  Tm  Tm0  1  0.500083  0.329171  0.655656  1
  Tm  Tm1  1  0.500083  0.673516  0.344344  1
  Tm  Tm2  1  0.999917  0.673516  0.344345  1
  Tm  Tm3  1  0.999917  0.329170  0.655655  1
  Tm  Tm4  1  0.749999  0.233018  0.000000  1
  Tm  Tm5  1  0.750001  0.767370  0.758309  1
  Tm  Tm6  1  0.750001  0.009061  0.241691  1
  Tm  Tm7  1  0.250001  0.767091  0.000000  1
  Tm  Tm8  1  0.250000  0.232035  0.243123  1
  Tm  Tm9  1  0.250000  0.988912  0.756877  1
  Tl  Tl10  1  0.749999  0.399934  0.396020  1
  Tl  Tl11  1  0.749999  0.003916  0.603980  1
  In  In12  1  0.250000  0.600075  0.604071  1
  In  In13  1  0.250000  0.996001  0.395929  1
  Bi  Bi14  1  0.750001  0.606422  0.000000  1
  Bi  Bi15  1  0.250000  0.390793  0.000000  1
