# generated using pymatgen
data_Nd2Zn14Ru3
_symmetry_space_group_name_H-M   'P 1'
_cell_length_a   6.86870352
_cell_length_b   6.86870318
_cell_length_c   6.86870366
_cell_angle_alpha   97.86388633
_cell_angle_beta   82.13610991
_cell_angle_gamma   97.86389034
_symmetry_Int_Tables_number   1
_chemical_formula_structural   Nd2Zn14Ru3
_chemical_formula_sum   'Nd2 Zn14 Ru3'
_cell_volume   315.68138663
_cell_formula_units_Z   1
loop_
 _symmetry_equiv_pos_site_id
 _symmetry_equiv_pos_as_xyz
  1  'x, y, z'
loop_
 _atom_site_type_symbol
 _atom_site_label
 _atom_site_symmetry_multiplicity
 _atom_site_fract_x
 _atom_site_fract_y
 _atom_site_fract_z
 _atom_site_occupancy
  Nd  Nd0  1  0.329160  0.670840  0.329161  1
  Nd  Nd1  1  0.670840  0.329160  0.670840  1
  Zn  Zn2  1  0.709791  0.709790  0.000000  1
  Zn  Zn3  1  0.290209  0.290209  0.000000  1
  Zn  Zn4  1  0.102670  0.897330  0.102671  1
  Zn  Zn5  1  0.652214  0.347785  0.157371  1
  Zn  Zn6  1  0.000000  0.290209  0.290209  1
  Zn  Zn7  1  0.709791  0.000000  0.290209  1
  Zn  Zn8  1  0.347786  0.157371  0.347785  1
  Zn  Zn9  1  0.842630  0.652215  0.347786  1
  Zn  Zn10  1  0.652214  0.842629  0.652215  1
  Zn  Zn11  1  0.157371  0.347786  0.652215  1
  Zn  Zn12  1  0.290210  0.000000  0.709790  1
  Zn  Zn13  1  0.000000  0.709791  0.709791  1
  Zn  Zn14  1  0.347786  0.652215  0.842629  1
  Zn  Zn15  1  0.897329  0.102671  0.897330  1
  Ru  Ru16  1  0.999999  0.500000  0.000000  1
  Ru  Ru17  1  0.500000  0.000000  0.000000  1
  Ru  Ru18  1  0.000000  0.000000  0.500000  1
