# generated using pymatgen
data_Y2LuHg5
_symmetry_space_group_name_H-M   'P 1'
_cell_length_a   6.34944237
_cell_length_b   6.34944267
_cell_length_c   10.13336200
_cell_angle_alpha   90.00000000
_cell_angle_beta   90.00000000
_cell_angle_gamma   105.11751483
_symmetry_Int_Tables_number   1
_chemical_formula_structural   Y2LuHg5
_chemical_formula_sum   'Y4 Lu2 Hg10'
_cell_volume   394.39270485
_cell_formula_units_Z   2
loop_
 _symmetry_equiv_pos_site_id
 _symmetry_equiv_pos_as_xyz
  1  'x, y, z'
loop_
 _atom_site_type_symbol
 _atom_site_label
 _atom_site_symmetry_multiplicity
 _atom_site_fract_x
 _atom_site_fract_y
 _atom_site_fract_z
 _atom_site_occupancy
  Y  Y0  1  0.215626  0.784374  0.500000  1
  Y  Y1  1  0.215626  0.784374  0.000000  1
  Y  Y2  1  0.784374  0.215626  0.500000  1
  Y  Y3  1  0.784374  0.215626  0.000000  1
  Lu  Lu4  1  0.566678  0.566678  0.250000  1
  Lu  Lu5  1  0.433322  0.433322  0.750000  1
  Hg  Hg6  1  0.964527  0.964527  0.250000  1
  Hg  Hg7  1  0.035473  0.035473  0.750000  1
  Hg  Hg8  1  0.295993  0.295993  0.028788  1
  Hg  Hg9  1  0.704007  0.704007  0.971212  1
  Hg  Hg10  1  0.295993  0.295993  0.471212  1
  Hg  Hg11  1  0.704007  0.704007  0.528788  1
  Hg  Hg12  1  0.476300  0.037513  0.250000  1
  Hg  Hg13  1  0.962487  0.523700  0.750000  1
  Hg  Hg14  1  0.523700  0.962487  0.750000  1
  Hg  Hg15  1  0.037513  0.476300  0.250000  1
