# generated using pymatgen
data_Y5Tm3Sc12Si15P
_symmetry_space_group_name_H-M   'P 1'
_cell_length_a   7.07686397
_cell_length_b   7.35636580
_cell_length_c   13.94150178
_cell_angle_alpha   89.96579516
_cell_angle_beta   89.98305228
_cell_angle_gamma   90.18692810
_symmetry_Int_Tables_number   1
_chemical_formula_structural   Y5Tm3Sc12Si15P
_chemical_formula_sum   'Y5 Tm3 Sc12 Si15 P1'
_cell_volume   725.79055869
_cell_formula_units_Z   1
loop_
 _symmetry_equiv_pos_site_id
 _symmetry_equiv_pos_as_xyz
  1  'x, y, z'
loop_
 _atom_site_type_symbol
 _atom_site_label
 _atom_site_symmetry_multiplicity
 _atom_site_fract_x
 _atom_site_fract_y
 _atom_site_fract_z
 _atom_site_occupancy
  Y  Y0  1  0.009731  0.175005  0.096467  1
  Y  Y1  1  0.991274  0.826668  0.900361  1
  Y  Y2  1  0.490385  0.675144  0.904309  1
  Y  Y3  1  0.990956  0.826529  0.598502  1
  Y  Y4  1  0.510873  0.324432  0.096128  1
  Tm  Tm5  1  0.010518  0.176279  0.403482  1
  Tm  Tm6  1  0.511200  0.323475  0.403954  1
  Tm  Tm7  1  0.489890  0.676027  0.595773  1
  Sc  Sc8  1  0.160204  0.501647  0.749571  1
  Sc  Sc9  1  0.838539  0.497279  0.250622  1
  Sc  Sc10  1  0.338688  0.002737  0.250695  1
  Sc  Sc11  1  0.662782  0.999165  0.749480  1
  Sc  Sc12  1  0.328007  0.173988  0.627037  1
  Sc  Sc13  1  0.667692  0.823115  0.375633  1
  Sc  Sc14  1  0.168096  0.677014  0.375305  1
  Sc  Sc15  1  0.668009  0.823558  0.125313  1
  Sc  Sc16  1  0.832711  0.322833  0.626019  1
  Sc  Sc17  1  0.327749  0.173262  0.872312  1
  Sc  Sc18  1  0.832479  0.322950  0.873231  1
  Sc  Sc19  1  0.167981  0.677300  0.125458  1
  Si  Si20  1  0.964932  0.884648  0.250712  1
  Si  Si21  1  0.466064  0.614234  0.250644  1
  Si  Si22  1  0.531573  0.383784  0.749403  1
  Si  Si23  1  0.297026  0.863005  0.749106  1
  Si  Si24  1  0.714102  0.127268  0.251459  1
  Si  Si25  1  0.214617  0.372408  0.251394  1
  Si  Si26  1  0.785901  0.628455  0.749210  1
  Si  Si27  1  0.159954  0.463015  0.539513  1
  Si  Si28  1  0.840298  0.533874  0.460833  1
  Si  Si29  1  0.339188  0.966056  0.460579  1
  Si  Si30  1  0.842277  0.536354  0.038686  1
  Si  Si31  1  0.659157  0.036995  0.539903  1
  Si  Si32  1  0.157698  0.463256  0.960087  1
  Si  Si33  1  0.659701  0.037111  0.959865  1
  Si  Si34  1  0.340331  0.964679  0.039211  1
  P  P35  1  0.029418  0.126448  0.749744  1
