# generated using pymatgen
data_Sr8Li3Si12Pd
_symmetry_space_group_name_H-M   'P 1'
_cell_length_a   11.74264018
_cell_length_b   10.06367051
_cell_length_c   8.52041863
_cell_angle_alpha   77.88729047
_cell_angle_beta   57.05314225
_cell_angle_gamma   45.18955757
_symmetry_Int_Tables_number   1
_chemical_formula_structural   Sr8Li3Si12Pd
_chemical_formula_sum   'Sr8 Li3 Si12 Pd1'
_cell_volume   573.44256362
_cell_formula_units_Z   1
loop_
 _symmetry_equiv_pos_site_id
 _symmetry_equiv_pos_as_xyz
  1  'x, y, z'
loop_
 _atom_site_type_symbol
 _atom_site_label
 _atom_site_symmetry_multiplicity
 _atom_site_fract_x
 _atom_site_fract_y
 _atom_site_fract_z
 _atom_site_occupancy
  Sr  Sr0  1  0.123337  0.128858  0.879486  1
  Sr  Sr1  1  0.879487  0.868320  0.123336  1
  Sr  Sr2  1  0.124300  0.130951  0.370434  1
  Sr  Sr3  1  0.370435  0.374317  0.124299  1
  Sr  Sr4  1  0.630707  0.621196  0.372158  1
  Sr  Sr5  1  0.372158  0.375940  0.630707  1
  Sr  Sr6  1  0.624900  0.627056  0.874213  1
  Sr  Sr7  1  0.874214  0.873831  0.624899  1
  Li  Li8  1  0.833251  0.166749  0.833251  1
  Li  Li9  1  0.166959  0.833041  0.166959  1
  Li  Li10  1  0.417054  0.082946  0.417054  1
  Si  Si11  1  0.915924  0.589325  0.418702  1
  Si  Si12  1  0.065913  0.427518  0.594332  1
  Si  Si13  1  0.418702  0.076049  0.915924  1
  Si  Si14  1  0.594332  0.912237  0.065913  1
  Si  Si15  1  0.339320  0.660645  0.822210  1
  Si  Si16  1  0.658298  0.337088  0.180532  1
  Si  Si17  1  0.822210  0.177824  0.339320  1
  Si  Si18  1  0.180532  0.824082  0.658298  1
  Si  Si19  1  0.914971  0.585030  0.914970  1
  Si  Si20  1  0.589736  0.910265  0.589735  1
  Si  Si21  1  0.339050  0.660951  0.339050  1
  Si  Si22  1  0.661328  0.338672  0.661328  1
  Pd  Pd23  1  0.082886  0.417114  0.082886  1
