# generated using pymatgen
data_Lu3Zr2Sn3
_symmetry_space_group_name_H-M   'P 1'
_cell_length_a   8.72913100
_cell_length_b   8.72913108
_cell_length_c   6.06421300
_cell_angle_alpha   90.00000000
_cell_angle_beta   90.00000000
_cell_angle_gamma   120.00000350
_symmetry_Int_Tables_number   1
_chemical_formula_structural   Lu3Zr2Sn3
_chemical_formula_sum   'Lu6 Zr4 Sn6'
_cell_volume   400.17236095
_cell_formula_units_Z   2
loop_
 _symmetry_equiv_pos_site_id
 _symmetry_equiv_pos_as_xyz
  1  'x, y, z'
loop_
 _atom_site_type_symbol
 _atom_site_label
 _atom_site_symmetry_multiplicity
 _atom_site_fract_x
 _atom_site_fract_y
 _atom_site_fract_z
 _atom_site_occupancy
  Lu  Lu0  1  0.760224  0.760224  0.750000  1
  Lu  Lu1  1  0.239776  0.000000  0.750000  1
  Lu  Lu2  1  0.000000  0.239776  0.750000  1
  Lu  Lu3  1  0.239776  0.239776  0.250000  1
  Lu  Lu4  1  0.760224  0.000000  0.250000  1
  Lu  Lu5  1  0.000000  0.760224  0.250000  1
  Zr  Zr6  1  0.666667  0.333333  0.000000  1
  Zr  Zr7  1  0.333333  0.666667  0.000000  1
  Zr  Zr8  1  0.333333  0.666667  0.500000  1
  Zr  Zr9  1  0.666667  0.333333  0.500000  1
  Sn  Sn10  1  0.398534  0.398534  0.750000  1
  Sn  Sn11  1  0.601466  0.000000  0.750000  1
  Sn  Sn12  1  0.000000  0.601466  0.750000  1
  Sn  Sn13  1  0.601466  0.601466  0.250000  1
  Sn  Sn14  1  0.398534  0.000000  0.250000  1
  Sn  Sn15  1  0.000000  0.398534  0.250000  1
