# generated using pymatgen
data_TbTh2Ir9
_symmetry_space_group_name_H-M   'P 1'
_cell_length_a   5.35799409
_cell_length_b   5.35799397
_cell_length_c   9.40092113
_cell_angle_alpha   73.44284752
_cell_angle_beta   73.44284729
_cell_angle_gamma   59.99999954
_symmetry_Int_Tables_number   1
_chemical_formula_structural   TbTh2Ir9
_chemical_formula_sum   'Tb1 Th2 Ir9'
_cell_volume   220.70904134
_cell_formula_units_Z   1
loop_
 _symmetry_equiv_pos_site_id
 _symmetry_equiv_pos_as_xyz
  1  'x, y, z'
loop_
 _atom_site_type_symbol
 _atom_site_label
 _atom_site_symmetry_multiplicity
 _atom_site_fract_x
 _atom_site_fract_y
 _atom_site_fract_z
 _atom_site_occupancy
  Tb  Tb0  1  0.861609  0.861609  0.415174  1
  Th  Th1  1  0.140006  0.140006  0.579981  1
  Th  Th2  1  0.998527  0.998527  0.004419  1
  Ir  Ir3  1  0.081710  0.582040  0.754208  1
  Ir  Ir4  1  0.582040  0.582040  0.754208  1
  Ir  Ir5  1  0.582040  0.081710  0.754208  1
  Ir  Ir6  1  0.917611  0.417927  0.246536  1
  Ir  Ir7  1  0.417927  0.417927  0.246536  1
  Ir  Ir8  1  0.417927  0.917611  0.246536  1
  Ir  Ir9  1  0.333118  0.333118  0.000643  1
  Ir  Ir10  1  0.666951  0.666951  0.999147  1
  Ir  Ir11  1  0.500533  0.500533  0.498401  1
