# generated using pymatgen
data_Rb14Tl3V2In3As10
_symmetry_space_group_name_H-M   'P 1'
_cell_length_a   8.71611081
_cell_length_b   9.53728113
_cell_length_c   14.57528444
_cell_angle_alpha   85.67690105
_cell_angle_beta   81.84274358
_cell_angle_gamma   86.59227003
_symmetry_Int_Tables_number   1
_chemical_formula_structural   Rb14Tl3V2In3As10
_chemical_formula_sum   'Rb14 Tl3 V2 In3 As10'
_cell_volume   1194.48396857
_cell_formula_units_Z   1
loop_
 _symmetry_equiv_pos_site_id
 _symmetry_equiv_pos_as_xyz
  1  'x, y, z'
loop_
 _atom_site_type_symbol
 _atom_site_label
 _atom_site_symmetry_multiplicity
 _atom_site_fract_x
 _atom_site_fract_y
 _atom_site_fract_z
 _atom_site_occupancy
  Rb  Rb0  1  0.853248  0.358402  0.647833  1
  Rb  Rb1  1  0.821272  0.805264  0.132981  1
  Rb  Rb2  1  0.242500  0.014733  0.468856  1
  Rb  Rb3  1  0.271791  0.262063  0.251461  1
  Rb  Rb4  1  0.736747  0.495589  0.975435  1
  Rb  Rb5  1  0.258017  0.503743  0.024745  1
  Rb  Rb6  1  0.667738  0.084915  0.881230  1
  Rb  Rb7  1  0.760793  0.982422  0.529379  1
  Rb  Rb8  1  0.730156  0.734989  0.748646  1
  Rb  Rb9  1  0.340905  0.351806  0.604408  1
  Rb  Rb10  1  0.142730  0.641819  0.351714  1
  Rb  Rb11  1  0.175375  0.195058  0.867098  1
  Rb  Rb12  1  0.334656  0.912472  0.120962  1
  Rb  Rb13  1  0.650770  0.652178  0.393622  1
  Tl  Tl14  1  0.041768  0.822590  0.877520  1
  Tl  Tl15  1  0.960845  0.178195  0.121884  1
  Tl  Tl16  1  0.370780  0.966864  0.702337  1
  V  V17  1  0.354532  0.611241  0.776794  1
  V  V18  1  0.647779  0.387498  0.223385  1
  In  In19  1  0.104643  0.725677  0.627014  1
  In  In20  1  0.897084  0.279131  0.373825  1
  In  In21  1  0.638909  0.042711  0.296594  1
  As  As22  1  0.913748  0.454379  0.207199  1
  As  As23  1  0.626187  0.195143  0.123223  1
  As  As24  1  0.087423  0.547104  0.792307  1
  As  As25  1  0.573363  0.295879  0.384261  1
  As  As26  1  0.428714  0.700743  0.615808  1
  As  As27  1  0.018342  0.007955  0.698738  1
  As  As28  1  0.508397  0.413271  0.809510  1
  As  As29  1  0.489441  0.581899  0.190596  1
  As  As30  1  0.376116  0.800115  0.879386  1
  As  As31  1  0.975230  0.994153  0.301250  1
