# generated using pymatgen
data_Dy5HoGa3CuNi12
_symmetry_space_group_name_H-M   'P 1'
_cell_length_a   7.62523339
_cell_length_b   7.68641981
_cell_length_c   7.68641946
_cell_angle_alpha   109.56976027
_cell_angle_beta   109.33546136
_cell_angle_gamma   109.33546793
_symmetry_Int_Tables_number   1
_chemical_formula_structural   Dy5HoGa3CuNi12
_chemical_formula_sum   'Dy5 Ho1 Ga3 Cu1 Ni12'
_cell_volume   347.53716608
_cell_formula_units_Z   1
loop_
 _symmetry_equiv_pos_site_id
 _symmetry_equiv_pos_as_xyz
  1  'x, y, z'
loop_
 _atom_site_type_symbol
 _atom_site_label
 _atom_site_symmetry_multiplicity
 _atom_site_fract_x
 _atom_site_fract_y
 _atom_site_fract_z
 _atom_site_occupancy
  Dy  Dy0  1  0.706472  0.709878  0.999895  1
  Dy  Dy1  1  0.293499  0.999911  0.289947  1
  Dy  Dy2  1  0.996556  0.290568  0.290568  1
  Dy  Dy3  1  0.293499  0.289947  0.999911  1
  Dy  Dy4  1  0.706472  0.999895  0.709878  1
  Ho  Ho5  1  0.003388  0.708911  0.708911  1
  Ga  Ga6  1  0.999995  0.999923  0.500239  1
  Ga  Ga7  1  0.999995  0.500239  0.999923  1
  Ga  Ga8  1  0.500287  0.500160  0.500160  1
  Cu  Cu9  1  0.499790  0.999981  0.999981  1
  Ni  Ni10  1  0.337692  0.337609  0.675521  1
  Ni  Ni11  1  0.661190  0.999829  0.337734  1
  Ni  Ni12  1  0.000049  0.662476  0.337664  1
  Ni  Ni13  1  0.661190  0.337734  0.999829  1
  Ni  Ni14  1  0.337692  0.675521  0.337609  1
  Ni  Ni15  1  0.000049  0.337664  0.662476  1
  Ni  Ni16  1  0.338623  0.662341  0.000052  1
  Ni  Ni17  1  0.338623  0.000052  0.662341  1
  Ni  Ni18  1  0.676619  0.337963  0.337963  1
  Ni  Ni19  1  0.662456  0.662515  0.324714  1
  Ni  Ni20  1  0.662456  0.324714  0.662515  1
  Ni  Ni21  1  0.323407  0.662170  0.662170  1
