# generated using pymatgen
data_Mg4Ni2Ge3As3Ir5
_symmetry_space_group_name_H-M   'P 1'
_cell_length_a   7.02651119
_cell_length_b   6.98297897
_cell_length_c   6.98629658
_cell_angle_alpha   109.10846823
_cell_angle_beta   110.07897115
_cell_angle_gamma   108.97696459
_symmetry_Int_Tables_number   1
_chemical_formula_structural   Mg4Ni2Ge3As3Ir5
_chemical_formula_sum   'Mg4 Ni2 Ge3 As3 Ir5'
_cell_volume   264.66610982
_cell_formula_units_Z   1
loop_
 _symmetry_equiv_pos_site_id
 _symmetry_equiv_pos_as_xyz
  1  'x, y, z'
loop_
 _atom_site_type_symbol
 _atom_site_label
 _atom_site_symmetry_multiplicity
 _atom_site_fract_x
 _atom_site_fract_y
 _atom_site_fract_z
 _atom_site_occupancy
  Mg  Mg0  1  0.999739  0.991683  0.500426  1
  Mg  Mg1  1  0.498828  0.002565  0.996701  1
  Mg  Mg2  1  0.999680  0.499561  0.005818  1
  Mg  Mg3  1  0.502082  0.502837  0.497082  1
  Ni  Ni4  1  0.244728  0.495804  0.749502  1
  Ni  Ni5  1  0.756805  0.251405  0.505798  1
  Ge  Ge6  1  0.687399  0.688506  0.996972  1
  Ge  Ge7  1  0.310142  0.313015  0.995760  1
  Ge  Ge8  1  0.000202  0.682607  0.692509  1
  As  As9  1  0.000563  0.313554  0.325023  1
  As  As10  1  0.689247  0.002737  0.684668  1
  As  As11  1  0.311800  0.001107  0.309055  1
  Ir  Ir12  1  0.999168  0.001049  0.999492  1
  Ir  Ir13  1  0.499052  0.255458  0.740373  1
  Ir  Ir14  1  0.500154  0.757697  0.242445  1
  Ir  Ir15  1  0.746079  0.493120  0.252197  1
  Ir  Ir16  1  0.254330  0.747295  0.506178  1
