# generated using pymatgen
data_Ba6NdGd(BO3)6
_symmetry_space_group_name_H-M   'P 1'
_cell_length_a   8.29395540
_cell_length_b   8.29395549
_cell_length_c   8.29395474
_cell_angle_alpha   105.58080932
_cell_angle_beta   105.58081905
_cell_angle_gamma   105.58081955
_symmetry_Int_Tables_number   1
_chemical_formula_structural   Ba6NdGd(BO3)6
_chemical_formula_sum   'Ba6 Nd1 Gd1 B6 O18'
_cell_volume   492.38865658
_cell_formula_units_Z   1
loop_
 _symmetry_equiv_pos_site_id
 _symmetry_equiv_pos_as_xyz
  1  'x, y, z'
loop_
 _atom_site_type_symbol
 _atom_site_label
 _atom_site_symmetry_multiplicity
 _atom_site_fract_x
 _atom_site_fract_y
 _atom_site_fract_z
 _atom_site_occupancy
  Ba  Ba0  1  0.354044  0.731979  0.846335  1
  Ba  Ba1  1  0.846335  0.354044  0.731979  1
  Ba  Ba2  1  0.731979  0.846335  0.354044  1
  Ba  Ba3  1  0.645956  0.268021  0.153665  1
  Ba  Ba4  1  0.153665  0.645956  0.268021  1
  Ba  Ba5  1  0.268021  0.153665  0.645956  1
  Nd  Nd6  1  0.000000  0.000000  0.000000  1
  Gd  Gd7  1  0.500000  0.500000  0.500000  1
  B  B8  1  0.708665  0.616615  0.956504  1
  B  B9  1  0.956504  0.708665  0.616615  1
  B  B10  1  0.616615  0.956504  0.708665  1
  B  B11  1  0.043496  0.291335  0.383385  1
  B  B12  1  0.383385  0.043496  0.291335  1
  B  B13  1  0.291335  0.383385  0.043496  1
  O  O14  1  0.055643  0.807439  0.542823  1
  O  O15  1  0.542823  0.055643  0.807439  1
  O  O16  1  0.428076  0.494111  0.211055  1
  O  O17  1  0.494111  0.211055  0.428076  1
  O  O18  1  0.211055  0.428076  0.494111  1
  O  O19  1  0.788945  0.571924  0.505889  1
  O  O20  1  0.571924  0.505889  0.788945  1
  O  O21  1  0.505889  0.788945  0.571924  1
  O  O22  1  0.260365  0.199402  0.980539  1
  O  O23  1  0.199402  0.980539  0.260365  1
  O  O24  1  0.980539  0.260365  0.199402  1
  O  O25  1  0.739635  0.800598  0.019461  1
  O  O26  1  0.800598  0.019461  0.739635  1
  O  O27  1  0.019461  0.739635  0.800598  1
  O  O28  1  0.192561  0.457177  0.944357  1
  O  O29  1  0.457177  0.944357  0.192561  1
  O  O30  1  0.944357  0.192561  0.457177  1
  O  O31  1  0.807439  0.542823  0.055643  1
