# generated using pymatgen
data_Dy11Y8TmSn16
_symmetry_space_group_name_H-M   'P 1'
_cell_length_a   8.03963700
_cell_length_b   8.18483854
_cell_length_c   15.47105200
_cell_angle_alpha   90.00000000
_cell_angle_beta   90.00000000
_cell_angle_gamma   90.02081869
_symmetry_Int_Tables_number   1
_chemical_formula_structural   Dy11Y8TmSn16
_chemical_formula_sum   'Dy11 Y8 Tm1 Sn16'
_cell_volume   1018.04359067
_cell_formula_units_Z   1
loop_
 _symmetry_equiv_pos_site_id
 _symmetry_equiv_pos_as_xyz
  1  'x, y, z'
loop_
 _atom_site_type_symbol
 _atom_site_label
 _atom_site_symmetry_multiplicity
 _atom_site_fract_x
 _atom_site_fract_y
 _atom_site_fract_z
 _atom_site_occupancy
  Dy  Dy0  1  0.366757  0.836845  0.877694  1
  Dy  Dy1  1  0.866730  0.663150  0.622443  1
  Dy  Dy2  1  0.632982  0.162931  0.377665  1
  Dy  Dy3  1  0.133474  0.336705  0.122347  1
  Dy  Dy4  1  0.632982  0.162931  0.122335  1
  Dy  Dy5  1  0.133474  0.336705  0.377653  1
  Dy  Dy6  1  0.366757  0.836845  0.622306  1
  Dy  Dy7  1  0.866730  0.663150  0.877557  1
  Dy  Dy8  1  0.198298  0.502895  0.750000  1
  Dy  Dy9  1  0.698260  0.997128  0.750000  1
  Dy  Dy10  1  0.801725  0.497226  0.250000  1
  Y  Y11  1  0.520436  0.320668  0.902639  1
  Y  Y12  1  0.020263  0.179419  0.597338  1
  Y  Y13  1  0.479537  0.679494  0.402590  1
  Y  Y14  1  0.979842  0.820708  0.097421  1
  Y  Y15  1  0.479537  0.679494  0.097410  1
  Y  Y16  1  0.979842  0.820708  0.402579  1
  Y  Y17  1  0.520436  0.320668  0.597361  1
  Y  Y18  1  0.020263  0.179419  0.902662  1
  Tm  Tm19  1  0.301402  0.003087  0.250000  1
  Sn  Sn20  1  0.293981  0.036937  0.042035  1
  Sn  Sn21  1  0.794052  0.462893  0.458451  1
  Sn  Sn22  1  0.705982  0.962785  0.541657  1
  Sn  Sn23  1  0.205906  0.537060  0.958344  1
  Sn  Sn24  1  0.705982  0.962785  0.958343  1
  Sn  Sn25  1  0.205906  0.537060  0.541656  1
  Sn  Sn26  1  0.293981  0.036937  0.457965  1
  Sn  Sn27  1  0.794052  0.462893  0.041549  1
  Sn  Sn28  1  0.564523  0.619348  0.750000  1
  Sn  Sn29  1  0.064725  0.880781  0.750000  1
  Sn  Sn30  1  0.435027  0.380570  0.250000  1
  Sn  Sn31  1  0.936168  0.118594  0.250000  1
  Sn  Sn32  1  0.329354  0.147303  0.750000  1
  Sn  Sn33  1  0.829545  0.352443  0.750000  1
  Sn  Sn34  1  0.670152  0.852914  0.250000  1
  Sn  Sn35  1  0.170939  0.648521  0.250000  1
