# generated using pymatgen
data_Tb4Al24Pd4Pt4Rh
_symmetry_space_group_name_H-M   'P 1'
_cell_length_a   7.53989366
_cell_length_b   7.56298858
_cell_length_c   13.20876327
_cell_angle_alpha   84.62444219
_cell_angle_beta   79.12230609
_cell_angle_gamma   59.90540472
_symmetry_Int_Tables_number   1
_chemical_formula_structural   Tb4Al24Pd4Pt4Rh
_chemical_formula_sum   'Tb4 Al24 Pd4 Pt4 Rh1'
_cell_volume   639.97377595
_cell_formula_units_Z   1
loop_
 _symmetry_equiv_pos_site_id
 _symmetry_equiv_pos_as_xyz
  1  'x, y, z'
loop_
 _atom_site_type_symbol
 _atom_site_label
 _atom_site_symmetry_multiplicity
 _atom_site_fract_x
 _atom_site_fract_y
 _atom_site_fract_z
 _atom_site_occupancy
  Tb  Tb0  1  0.393972  0.167982  0.808589  1
  Tb  Tb1  1  0.606028  0.832018  0.191411  1
  Tb  Tb2  1  0.733382  0.498415  0.808575  1
  Tb  Tb3  1  0.266618  0.501585  0.191425  1
  Al  Al4  1  0.687667  0.830304  0.945793  1
  Al  Al5  1  0.312333  0.169696  0.054207  1
  Al  Al6  1  0.146709  0.832338  0.561543  1
  Al  Al7  1  0.853291  0.167662  0.438457  1
  Al  Al8  1  0.480141  0.166564  0.558884  1
  Al  Al9  1  0.519859  0.833436  0.441116  1
  Al  Al10  1  0.216589  0.165367  0.329444  1
  Al  Al11  1  0.783411  0.834633  0.670556  1
  Al  Al12  1  0.436526  0.507088  0.670508  1
  Al  Al13  1  0.563474  0.492912  0.329492  1
  Al  Al14  1  0.109638  0.160106  0.668875  1
  Al  Al15  1  0.890362  0.839894  0.331125  1
  Al  Al16  1  0.348975  0.499476  0.945882  1
  Al  Al17  1  0.651025  0.500524  0.054118  1
  Al  Al18  1  0.014859  0.171706  0.954982  1
  Al  Al19  1  0.985141  0.828294  0.045018  1
  Al  Al20  1  0.186553  0.499237  0.441204  1
  Al  Al21  1  0.813447  0.500763  0.558796  1
  Al  Al22  1  0.735069  0.163913  0.183085  1
  Al  Al23  1  0.264931  0.836087  0.816915  1
  Al  Al24  1  0.061049  0.629054  0.817633  1
  Al  Al25  1  0.938951  0.370946  0.182367  1
  Al  Al26  1  0.855869  0.041021  0.816543  1
  Al  Al27  1  0.144131  0.958979  0.183458  1
  Pd  Pd28  1  0.120207  0.492817  0.638351  1
  Pd  Pd29  1  0.879793  0.507183  0.361649  1
  Pd  Pd30  1  0.657086  0.171368  0.999945  1
  Pd  Pd31  1  0.342914  0.828632  0.000055  1
  Pt  Pt32  1  0.537739  0.166775  0.362073  1
  Pt  Pt33  1  0.462261  0.833225  0.637927  1
  Pt  Pt34  1  0.779216  0.174675  0.636751  1
  Pt  Pt35  1  0.220784  0.825325  0.363249  1
  Rh  Rh36  1  0.000000  0.500000  0.000000  1
