# generated using pymatgen
data_Er4Ga4Co3Pd
_symmetry_space_group_name_H-M   'P 1'
_cell_length_a   4.20058400
_cell_length_b   6.70400196
_cell_length_c   7.59692282
_cell_angle_alpha   89.75485052
_cell_angle_beta   90.00000000
_cell_angle_gamma   90.00000000
_symmetry_Int_Tables_number   1
_chemical_formula_structural   Er4Ga4Co3Pd
_chemical_formula_sum   'Er4 Ga4 Co3 Pd1'
_cell_volume   213.93288380
_cell_formula_units_Z   1
loop_
 _symmetry_equiv_pos_site_id
 _symmetry_equiv_pos_as_xyz
  1  'x, y, z'
loop_
 _atom_site_type_symbol
 _atom_site_label
 _atom_site_symmetry_multiplicity
 _atom_site_fract_x
 _atom_site_fract_y
 _atom_site_fract_z
 _atom_site_occupancy
  Er  Er0  1  0.250000  0.535890  0.687927  1
  Er  Er1  1  0.250000  0.021570  0.821847  1
  Er  Er2  1  0.750000  0.973669  0.185623  1
  Er  Er3  1  0.750000  0.480214  0.308901  1
  Ga  Ga4  1  0.750000  0.350157  0.942280  1
  Ga  Ga5  1  0.250000  0.147539  0.421647  1
  Ga  Ga6  1  0.250000  0.657167  0.067352  1
  Ga  Ga7  1  0.750000  0.832386  0.565153  1
  Co  Co8  1  0.250000  0.770961  0.384992  1
  Co  Co9  1  0.750000  0.728950  0.885907  1
  Co  Co10  1  0.250000  0.275786  0.114001  1
  Pd  Pd11  1  0.750000  0.225711  0.614369  1
