# generated using pymatgen
data_La17Nd(BiO)10
_symmetry_space_group_name_H-M   'P 1'
_cell_length_a   10.57078039
_cell_length_b   10.56875138
_cell_length_c   9.48238303
_cell_angle_alpha   89.99446144
_cell_angle_beta   90.00695422
_cell_angle_gamma   90.03015023
_symmetry_Int_Tables_number   1
_chemical_formula_structural   La17Nd(BiO)10
_chemical_formula_sum   'La17 Nd1 Bi10 O10'
_cell_volume   1059.37119619
_cell_formula_units_Z   1
loop_
 _symmetry_equiv_pos_site_id
 _symmetry_equiv_pos_as_xyz
  1  'x, y, z'
loop_
 _atom_site_type_symbol
 _atom_site_label
 _atom_site_symmetry_multiplicity
 _atom_site_fract_x
 _atom_site_fract_y
 _atom_site_fract_z
 _atom_site_occupancy
  La  La0  1  0.999806  0.499897  0.325681  1
  La  La1  1  0.500283  0.000104  0.674292  1
  La  La2  1  0.604252  0.704301  0.340510  1
  La  La3  1  0.396020  0.295609  0.340530  1
  La  La4  1  0.204220  0.896056  0.340524  1
  La  La5  1  0.704369  0.395550  0.659289  1
  La  La6  1  0.895796  0.796004  0.659370  1
  La  La7  1  0.103840  0.204161  0.659384  1
  La  La8  1  0.295785  0.604119  0.659516  1
  La  La9  1  0.081203  0.727601  0.997533  1
  La  La10  1  0.227559  0.418768  0.997495  1
  La  La11  1  0.772395  0.581214  0.997463  1
  La  La12  1  0.918609  0.272027  0.998211  1
  La  La13  1  0.418852  0.772396  0.002427  1
  La  La14  1  0.272388  0.081253  0.002340  1
  La  La15  1  0.727880  0.919146  0.003125  1
  La  La16  1  0.581416  0.227524  0.002781  1
  Nd  Nd17  1  0.795506  0.104252  0.339986  1
  Bi  Bi18  1  0.000050  0.500066  0.690968  1
  Bi  Bi19  1  0.501515  0.000458  0.310201  1
  Bi  Bi20  1  0.696825  0.401489  0.299116  1
  Bi  Bi21  1  0.902683  0.805141  0.299102  1
  Bi  Bi22  1  0.095357  0.195923  0.299043  1
  Bi  Bi23  1  0.303491  0.597022  0.298418  1
  Bi  Bi24  1  0.803523  0.097022  0.698725  1
  Bi  Bi25  1  0.596959  0.696433  0.701417  1
  Bi  Bi26  1  0.403013  0.303515  0.701414  1
  Bi  Bi27  1  0.196503  0.902981  0.701413  1
  O  O28  1  0.999985  0.500149  0.072622  1
  O  O29  1  0.499948  0.999955  0.927532  1
  O  O30  1  0.879219  0.775450  0.910772  1
  O  O31  1  0.275466  0.620898  0.910787  1
  O  O32  1  0.724556  0.379120  0.910850  1
  O  O33  1  0.120897  0.224507  0.910757  1
  O  O34  1  0.620895  0.724441  0.089355  1
  O  O35  1  0.224615  0.879121  0.089273  1
  O  O36  1  0.775379  0.120913  0.088456  1
  O  O37  1  0.378944  0.275410  0.089322  1
