# generated using pymatgen
data_Ho3Tm2In4PtRh
_symmetry_space_group_name_H-M   'P 1'
_cell_length_a   3.60266500
_cell_length_b   8.11440384
_cell_length_c   18.18990446
_cell_angle_alpha   90.09376919
_cell_angle_beta   90.00000000
_cell_angle_gamma   90.00000000
_symmetry_Int_Tables_number   1
_chemical_formula_structural   Ho3Tm2In4PtRh
_chemical_formula_sum   'Ho6 Tm4 In8 Pt2 Rh2'
_cell_volume   531.75347257
_cell_formula_units_Z   2
loop_
 _symmetry_equiv_pos_site_id
 _symmetry_equiv_pos_as_xyz
  1  'x, y, z'
loop_
 _atom_site_type_symbol
 _atom_site_label
 _atom_site_symmetry_multiplicity
 _atom_site_fract_x
 _atom_site_fract_y
 _atom_site_fract_z
 _atom_site_occupancy
  Ho  Ho0  1  0.000000  0.238491  0.221463  1
  Ho  Ho1  1  0.000000  0.761509  0.778537  1
  Ho  Ho2  1  0.000000  0.250702  0.720184  1
  Ho  Ho3  1  0.000000  0.749298  0.279816  1
  Ho  Ho4  1  0.000000  0.000000  0.000000  1
  Ho  Ho5  1  0.000000  0.500000  0.500000  1
  Tm  Tm6  1  0.000000  0.115334  0.411903  1
  Tm  Tm7  1  0.000000  0.884666  0.588097  1
  Tm  Tm8  1  0.000000  0.383254  0.913880  1
  Tm  Tm9  1  0.000000  0.616746  0.086120  1
  In  In10  1  0.500000  0.422435  0.351134  1
  In  In11  1  0.500000  0.577565  0.648866  1
  In  In12  1  0.500000  0.074655  0.850196  1
  In  In13  1  0.500000  0.925345  0.149804  1
  In  In14  1  0.500000  0.293104  0.066227  1
  In  In15  1  0.500000  0.706896  0.933773  1
  In  In16  1  0.500000  0.205397  0.567317  1
  In  In17  1  0.500000  0.794603  0.432683  1
  Pt  Pt18  1  0.500000  0.476236  0.803970  1
  Pt  Pt19  1  0.500000  0.523764  0.196030  1
  Rh  Rh20  1  0.500000  0.023143  0.304976  1
  Rh  Rh21  1  0.500000  0.976857  0.695024  1
