# generated using pymatgen
data_Mg2SiB2IrRh4
_symmetry_space_group_name_H-M   'P 1'
_cell_length_a   9.34690400
_cell_length_b   9.34690400
_cell_length_c   2.91190400
_cell_angle_alpha   90.00000000
_cell_angle_beta   90.00000000
_cell_angle_gamma   90.00000000
_symmetry_Int_Tables_number   1
_chemical_formula_structural   Mg2SiB2IrRh4
_chemical_formula_sum   'Mg4 Si2 B4 Ir2 Rh8'
_cell_volume   254.39737009
_cell_formula_units_Z   2
loop_
 _symmetry_equiv_pos_site_id
 _symmetry_equiv_pos_as_xyz
  1  'x, y, z'
loop_
 _atom_site_type_symbol
 _atom_site_label
 _atom_site_symmetry_multiplicity
 _atom_site_fract_x
 _atom_site_fract_y
 _atom_site_fract_z
 _atom_site_occupancy
  Mg  Mg0  1  0.324588  0.175412  0.000000  1
  Mg  Mg1  1  0.824588  0.324588  0.000000  1
  Mg  Mg2  1  0.175412  0.675411  0.000000  1
  Mg  Mg3  1  0.675411  0.824588  0.000000  1
  Si  Si4  1  0.000000  0.000000  0.000000  1
  Si  Si5  1  0.500000  0.500000  0.000000  1
  B  B6  1  0.625792  0.125792  0.000000  1
  B  B7  1  0.125792  0.374207  0.000000  1
  B  B8  1  0.874208  0.625792  0.000000  1
  B  B9  1  0.374207  0.874208  0.000000  1
  Ir  Ir10  1  0.500000  0.000000  0.500000  1
  Ir  Ir11  1  0.000000  0.500000  0.500000  1
  Rh  Rh12  1  0.790858  0.071801  0.500000  1
  Rh  Rh13  1  0.071801  0.209141  0.500000  1
  Rh  Rh14  1  0.571801  0.290859  0.500000  1
  Rh  Rh15  1  0.290859  0.428198  0.500000  1
  Rh  Rh16  1  0.709141  0.571801  0.500000  1
  Rh  Rh17  1  0.428198  0.709141  0.500000  1
  Rh  Rh18  1  0.928199  0.790858  0.500000  1
  Rh  Rh19  1  0.209141  0.928199  0.500000  1
