# generated using pymatgen
data_Ho6Tm4InPb5
_symmetry_space_group_name_H-M   'P 1'
_cell_length_a   6.60094100
_cell_length_b   8.97355210
_cell_length_c   8.97809699
_cell_angle_alpha   119.98326509
_cell_angle_beta   89.99976035
_cell_angle_gamma   90.00047874
_symmetry_Int_Tables_number   1
_chemical_formula_structural   Ho6Tm4InPb5
_chemical_formula_sum   'Ho6 Tm4 In1 Pb5'
_cell_volume   460.63652909
_cell_formula_units_Z   1
loop_
 _symmetry_equiv_pos_site_id
 _symmetry_equiv_pos_as_xyz
  1  'x, y, z'
loop_
 _atom_site_type_symbol
 _atom_site_label
 _atom_site_symmetry_multiplicity
 _atom_site_fract_x
 _atom_site_fract_y
 _atom_site_fract_z
 _atom_site_occupancy
  Ho  Ho0  1  0.750001  0.237896  0.000000  1
  Ho  Ho1  1  0.749998  0.762327  0.766653  1
  Ho  Ho2  1  0.749998  0.995674  0.233347  1
  Ho  Ho3  1  0.250002  0.763762  0.000000  1
  Ho  Ho4  1  0.249999  0.236525  0.236507  1
  Ho  Ho5  1  0.249999  0.000018  0.763493  1
  Tm  Tm6  1  0.501953  0.336421  0.670073  1
  Tm  Tm7  1  0.501953  0.666348  0.329927  1
  Tm  Tm8  1  0.998047  0.666367  0.329926  1
  Tm  Tm9  1  0.998047  0.336441  0.670074  1
  In  In10  1  0.749997  0.601933  0.000000  1
  Pb  Pb11  1  0.750005  0.394331  0.394920  1
  Pb  Pb12  1  0.750005  0.999411  0.605080  1
  Pb  Pb13  1  0.249986  0.396439  0.000000  1
  Pb  Pb14  1  0.250005  0.604721  0.603333  1
  Pb  Pb15  1  0.250005  0.001388  0.396667  1
