# generated using pymatgen
data_Tb3Cd3In2Ir
_symmetry_space_group_name_H-M   'P 1'
_cell_length_a   8.25521300
_cell_length_b   8.25521483
_cell_length_c   3.69546500
_cell_angle_alpha   90.00000000
_cell_angle_beta   90.00000000
_cell_angle_gamma   119.99999666
_symmetry_Int_Tables_number   1
_chemical_formula_structural   Tb3Cd3In2Ir
_chemical_formula_sum   'Tb3 Cd3 In2 Ir1'
_cell_volume   218.10037027
_cell_formula_units_Z   1
loop_
 _symmetry_equiv_pos_site_id
 _symmetry_equiv_pos_as_xyz
  1  'x, y, z'
loop_
 _atom_site_type_symbol
 _atom_site_label
 _atom_site_symmetry_multiplicity
 _atom_site_fract_x
 _atom_site_fract_y
 _atom_site_fract_z
 _atom_site_occupancy
  Tb  Tb0  1  0.623046  0.042618  0.000000  1
  Tb  Tb1  1  0.957382  0.580428  0.000000  1
  Tb  Tb2  1  0.419572  0.376954  0.000000  1
  Cd  Cd3  1  0.282196  0.995785  0.500000  1
  Cd  Cd4  1  0.004215  0.286411  0.500000  1
  Cd  Cd5  1  0.713589  0.717804  0.500000  1
  In  In6  1  0.333333  0.666667  0.500000  1
  In  In7  1  0.000000  0.000000  0.000000  1
  Ir  Ir8  1  0.666667  0.333333  0.500000  1
