# generated using pymatgen
data_Tb10YEr9(CoBi2)4
_symmetry_space_group_name_H-M   'P 1'
_cell_length_a   7.98320352
_cell_length_b   8.86979200
_cell_length_c   12.42215767
_cell_angle_alpha   90.00000000
_cell_angle_beta   90.02335906
_cell_angle_gamma   90.00000000
_symmetry_Int_Tables_number   1
_chemical_formula_structural   Tb10YEr9(CoBi2)4
_chemical_formula_sum   'Tb10 Y1 Er9 Co4 Bi8'
_cell_volume   879.60489573
_cell_formula_units_Z   1
loop_
 _symmetry_equiv_pos_site_id
 _symmetry_equiv_pos_as_xyz
  1  'x, y, z'
loop_
 _atom_site_type_symbol
 _atom_site_label
 _atom_site_symmetry_multiplicity
 _atom_site_fract_x
 _atom_site_fract_y
 _atom_site_fract_z
 _atom_site_occupancy
  Tb  Tb0  1  0.652782  0.750000  0.698764  1
  Tb  Tb1  1  0.347527  0.250000  0.301436  1
  Tb  Tb2  1  0.151976  0.250000  0.800785  1
  Tb  Tb3  1  0.847434  0.750000  0.199537  1
  Tb  Tb4  1  0.122723  0.750000  0.811639  1
  Tb  Tb5  1  0.878180  0.250000  0.188478  1
  Tb  Tb6  1  0.622234  0.250000  0.688201  1
  Tb  Tb7  1  0.377960  0.750000  0.311877  1
  Tb  Tb8  1  0.548255  0.750000  0.997513  1
  Tb  Tb9  1  0.450703  0.250000  0.002471  1
  Y  Y10  1  0.048825  0.250000  0.502742  1
  Er  Er11  1  0.948522  0.750000  0.497291  1
  Er  Er12  1  0.826772  0.465291  0.936403  1
  Er  Er13  1  0.173150  0.534784  0.063847  1
  Er  Er14  1  0.326509  0.535820  0.562630  1
  Er  Er15  1  0.173150  0.965216  0.063847  1
  Er  Er16  1  0.673458  0.465126  0.436795  1
  Er  Er17  1  0.826772  0.034709  0.936403  1
  Er  Er18  1  0.673458  0.034874  0.436795  1
  Er  Er19  1  0.326509  0.964180  0.562630  1
  Co  Co20  1  0.941617  0.750000  0.992841  1
  Co  Co21  1  0.058774  0.250000  0.007318  1
  Co  Co22  1  0.440816  0.250000  0.507486  1
  Co  Co23  1  0.561918  0.750000  0.492158  1
  Bi  Bi24  1  0.932257  0.006626  0.672826  1
  Bi  Bi25  1  0.067758  0.992123  0.327397  1
  Bi  Bi26  1  0.431755  0.992815  0.825799  1
  Bi  Bi27  1  0.067758  0.507877  0.327397  1
  Bi  Bi28  1  0.568217  0.007325  0.174035  1
  Bi  Bi29  1  0.932257  0.493374  0.672826  1
  Bi  Bi30  1  0.568217  0.492675  0.174035  1
  Bi  Bi31  1  0.431755  0.507185  0.825799  1
