# generated using pymatgen
data_Hf6Ga7Ni16
_symmetry_space_group_name_H-M   'P 1'
_cell_length_a   8.23824661
_cell_length_b   8.23824682
_cell_length_c   8.22697900
_cell_angle_alpha   60.04523833
_cell_angle_beta   60.04523751
_cell_angle_gamma   59.90952393
_symmetry_Int_Tables_number   1
_chemical_formula_structural   Hf6Ga7Ni16
_chemical_formula_sum   'Hf6 Ga7 Ni16'
_cell_volume   394.81473689
_cell_formula_units_Z   1
loop_
 _symmetry_equiv_pos_site_id
 _symmetry_equiv_pos_as_xyz
  1  'x, y, z'
loop_
 _atom_site_type_symbol
 _atom_site_label
 _atom_site_symmetry_multiplicity
 _atom_site_fract_x
 _atom_site_fract_y
 _atom_site_fract_z
 _atom_site_occupancy
  Hf  Hf0  1  0.795149  0.204851  0.795149  1
  Hf  Hf1  1  0.794623  0.794623  0.205377  1
  Hf  Hf2  1  0.204851  0.795149  0.795149  1
  Hf  Hf3  1  0.205377  0.205377  0.794623  1
  Hf  Hf4  1  0.795149  0.204851  0.204851  1
  Hf  Hf5  1  0.204851  0.795149  0.204851  1
  Ga  Ga6  1  0.000000  0.500000  0.000000  1
  Ga  Ga7  1  0.500000  0.500000  0.500000  1
  Ga  Ga8  1  0.500000  0.000000  0.500000  1
  Ga  Ga9  1  0.000000  0.500000  0.500000  1
  Ga  Ga10  1  0.500000  0.000000  0.000000  1
  Ga  Ga11  1  0.500000  0.500000  0.000000  1
  Ga  Ga12  1  0.000000  0.000000  0.500000  1
  Ni  Ni13  1  0.168267  0.168267  0.167201  1
  Ni  Ni14  1  0.619738  0.619738  0.140173  1
  Ni  Ni15  1  0.380262  0.380262  0.379649  1
  Ni  Ni16  1  0.167201  0.496265  0.168267  1
  Ni  Ni17  1  0.168267  0.168267  0.496265  1
  Ni  Ni18  1  0.140173  0.620351  0.619738  1
  Ni  Ni19  1  0.620351  0.140173  0.619738  1
  Ni  Ni20  1  0.831733  0.831733  0.832799  1
  Ni  Ni21  1  0.859827  0.379649  0.380262  1
  Ni  Ni22  1  0.380262  0.380262  0.859827  1
  Ni  Ni23  1  0.379649  0.859827  0.380262  1
  Ni  Ni24  1  0.503735  0.832799  0.831733  1
  Ni  Ni25  1  0.619738  0.619738  0.620351  1
  Ni  Ni26  1  0.831733  0.831733  0.503735  1
  Ni  Ni27  1  0.496265  0.167201  0.168267  1
  Ni  Ni28  1  0.832799  0.503735  0.831733  1
