# generated using pymatgen
data_NaEu2O3
_symmetry_space_group_name_H-M   'P 1'
_cell_length_a   6.16564754
_cell_length_b   6.16564746
_cell_length_c   6.16564818
_cell_angle_alpha   146.28122995
_cell_angle_beta   133.50010105
_cell_angle_gamma   58.65915659
_symmetry_Int_Tables_number   1
_chemical_formula_structural   NaEu2O3
_chemical_formula_sum   'Na1 Eu2 O3'
_cell_volume   93.57706893
_cell_formula_units_Z   1
loop_
 _symmetry_equiv_pos_site_id
 _symmetry_equiv_pos_as_xyz
  1  'x, y, z'
loop_
 _atom_site_type_symbol
 _atom_site_label
 _atom_site_symmetry_multiplicity
 _atom_site_fract_x
 _atom_site_fract_y
 _atom_site_fract_z
 _atom_site_occupancy
  Na  Na0  1  0.000000  0.000000  0.000000  1
  Eu  Eu1  1  0.661958  0.661958  0.000000  1
  Eu  Eu2  1  0.338042  0.338042  0.000000  1
  O  O3  1  0.500000  0.000000  0.500000  1
  O  O4  1  0.186770  0.686770  0.500000  1
  O  O5  1  0.813230  0.313230  0.500000  1
