# generated using pymatgen
data_Ba3ErScReO9
_symmetry_space_group_name_H-M   'P 1'
_cell_length_a   5.96355400
_cell_length_b   5.96355451
_cell_length_c   7.31571100
_cell_angle_alpha   90.00000000
_cell_angle_beta   90.00000000
_cell_angle_gamma   119.99997500
_symmetry_Int_Tables_number   1
_chemical_formula_structural   Ba3ErScReO9
_chemical_formula_sum   'Ba3 Er1 Sc1 Re1 O9'
_cell_volume   225.31890448
_cell_formula_units_Z   1
loop_
 _symmetry_equiv_pos_site_id
 _symmetry_equiv_pos_as_xyz
  1  'x, y, z'
loop_
 _atom_site_type_symbol
 _atom_site_label
 _atom_site_symmetry_multiplicity
 _atom_site_fract_x
 _atom_site_fract_y
 _atom_site_fract_z
 _atom_site_occupancy
  Ba  Ba0  1  0.000000  0.000000  0.503467  1
  Ba  Ba1  1  0.666667  0.333333  0.820139  1
  Ba  Ba2  1  0.333333  0.666667  0.174688  1
  Er  Er3  1  0.666667  0.333333  0.335709  1
  Sc  Sc4  1  0.333333  0.666667  0.659130  1
  Re  Re5  1  0.000000  0.000000  0.995185  1
  O  O6  1  0.687528  0.843764  0.846227  1
  O  O7  1  0.307709  0.153855  0.150535  1
  O  O8  1  0.007155  0.503577  0.507132  1
  O  O9  1  0.496423  0.992845  0.507132  1
  O  O10  1  0.156236  0.312472  0.846227  1
  O  O11  1  0.846145  0.692291  0.150535  1
  O  O12  1  0.496423  0.503577  0.507132  1
  O  O13  1  0.156236  0.843764  0.846227  1
  O  O14  1  0.846145  0.153855  0.150535  1
