# generated using pymatgen
data_Tb3Th(BRu)16
_symmetry_space_group_name_H-M   'P 1'
_cell_length_a   9.22726774
_cell_length_b   7.51801035
_cell_length_c   7.51802460
_cell_angle_alpha   90.18985008
_cell_angle_beta   113.92742100
_cell_angle_gamma   113.92518457
_symmetry_Int_Tables_number   1
_chemical_formula_structural   Tb3Th(BRu)16
_chemical_formula_sum   'Tb3 Th1 B16 Ru16'
_cell_volume   426.87179964
_cell_formula_units_Z   1
loop_
 _symmetry_equiv_pos_site_id
 _symmetry_equiv_pos_as_xyz
  1  'x, y, z'
loop_
 _atom_site_type_symbol
 _atom_site_label
 _atom_site_symmetry_multiplicity
 _atom_site_fract_x
 _atom_site_fract_y
 _atom_site_fract_z
 _atom_site_occupancy
  Tb  Tb0  1  0.250000  0.625014  0.374976  1
  Tb  Tb1  1  0.750001  0.374962  0.625046  1
  Tb  Tb2  1  0.250000  0.125213  0.874808  1
  Th  Th3  1  0.749998  0.874869  0.125121  1
  B  B4  1  0.916230  0.292226  0.066407  1
  B  B5  1  0.410657  0.564171  0.125025  1
  B  B6  1  0.089361  0.214281  0.153553  1
  B  B7  1  0.585248  0.150692  0.210609  1
  B  B8  1  0.414530  0.065949  0.289989  1
  B  B9  1  0.916233  0.624052  0.350133  1
  B  B10  1  0.583767  0.649869  0.375947  1
  B  B11  1  0.089339  0.874972  0.435823  1
  B  B12  1  0.914550  0.125371  0.565284  1
  B  B13  1  0.414489  0.348960  0.624521  1
  B  B14  1  0.085510  0.375480  0.651039  1
  B  B15  1  0.583770  0.933593  0.707775  1
  B  B16  1  0.410643  0.846445  0.785720  1
  B  B17  1  0.914751  0.789391  0.849305  1
  B  B18  1  0.585451  0.434712  0.874627  1
  B  B19  1  0.085470  0.710013  0.934050  1
  Ru  Ru20  1  0.873005  0.551154  0.038585  1
  Ru  Ru21  1  0.372788  0.834508  0.051194  1
  Ru  Ru22  1  0.127222  0.948814  0.165502  1
  Ru  Ru23  1  0.626027  0.460576  0.179026  1
  Ru  Ru24  1  0.373964  0.333869  0.322212  1
  Ru  Ru25  1  0.872696  0.321605  0.333970  1
  Ru  Ru26  1  0.627001  0.961416  0.448848  1
  Ru  Ru27  1  0.126970  0.178054  0.461267  1
  Ru  Ru28  1  0.873982  0.820976  0.539431  1
  Ru  Ru29  1  0.373987  0.039741  0.551989  1
  Ru  Ru30  1  0.126038  0.677789  0.666129  1
  Ru  Ru31  1  0.627301  0.666029  0.678392  1
  Ru  Ru32  1  0.373021  0.538730  0.821946  1
  Ru  Ru33  1  0.873826  0.053107  0.834612  1
  Ru  Ru34  1  0.626165  0.165383  0.946885  1
  Ru  Ru35  1  0.126008  0.448015  0.960250  1
