# generated using pymatgen
data_Ho6FeCo8(P4Ru3)3
_symmetry_space_group_name_H-M   'P 1'
_cell_length_a   3.83361500
_cell_length_b   10.64759105
_cell_length_c   12.48344633
_cell_angle_alpha   89.73838607
_cell_angle_beta   90.00000000
_cell_angle_gamma   90.00000000
_symmetry_Int_Tables_number   1
_chemical_formula_structural   Ho6FeCo8(P4Ru3)3
_chemical_formula_sum   'Ho6 Fe1 Co8 P12 Ru9'
_cell_volume   509.55354749
_cell_formula_units_Z   1
loop_
 _symmetry_equiv_pos_site_id
 _symmetry_equiv_pos_as_xyz
  1  'x, y, z'
loop_
 _atom_site_type_symbol
 _atom_site_label
 _atom_site_symmetry_multiplicity
 _atom_site_fract_x
 _atom_site_fract_y
 _atom_site_fract_z
 _atom_site_occupancy
  Ho  Ho0  1  0.000000  0.500612  0.525718  1
  Ho  Ho1  1  0.500000  0.000878  0.472135  1
  Ho  Ho2  1  0.500000  0.821507  0.200328  1
  Ho  Ho3  1  0.500000  0.179474  0.200214  1
  Ho  Ho4  1  0.000000  0.678938  0.799958  1
  Ho  Ho5  1  0.000000  0.321043  0.798663  1
  Fe  Fe6  1  0.500000  0.999952  0.016778  1
  Co  Co7  1  0.000000  0.498602  0.985399  1
  Co  Co8  1  0.000000  0.374524  0.279435  1
  Co  Co9  1  0.500000  0.331583  0.989545  1
  Co  Co10  1  0.500000  0.665456  0.991292  1
  Co  Co11  1  0.000000  0.169336  0.012421  1
  Co  Co12  1  0.000000  0.831054  0.011452  1
  Co  Co13  1  0.500000  0.500335  0.703066  1
  Co  Co14  1  0.000000  0.000993  0.298320  1
  P  P15  1  0.500000  0.316759  0.616168  1
  P  P16  1  0.500000  0.685888  0.618869  1
  P  P17  1  0.000000  0.189119  0.377208  1
  P  P18  1  0.000000  0.813794  0.380294  1
  P  P19  1  0.500000  0.499371  0.881985  1
  P  P20  1  0.000000  0.999823  0.118370  1
  P  P21  1  0.500000  0.846214  0.903011  1
  P  P22  1  0.500000  0.153151  0.901493  1
  P  P23  1  0.000000  0.652845  0.100192  1
  P  P24  1  0.000000  0.345538  0.103396  1
  P  P25  1  0.500000  0.499687  0.337880  1
  P  P26  1  0.000000  0.001180  0.662874  1
  Ru  Ru27  1  0.500000  0.301267  0.421691  1
  Ru  Ru28  1  0.500000  0.702568  0.427414  1
  Ru  Ru29  1  0.000000  0.205310  0.568733  1
  Ru  Ru30  1  0.000000  0.798649  0.572277  1
  Ru  Ru31  1  0.500000  0.875348  0.719803  1
  Ru  Ru32  1  0.500000  0.126501  0.717458  1
  Ru  Ru33  1  0.000000  0.618850  0.282065  1
  Ru  Ru34  1  0.500000  0.492094  0.149446  1
  Ru  Ru35  1  0.000000  0.001757  0.854647  1
