# generated using pymatgen
data_YHo7TiV3O20
_symmetry_space_group_name_H-M   'P 1'
_cell_length_a   3.71075900
_cell_length_b   10.34621447
_cell_length_c   11.26123100
_cell_angle_alpha   89.88324859
_cell_angle_beta   90.00000000
_cell_angle_gamma   90.00000000
_symmetry_Int_Tables_number   1
_chemical_formula_structural   YHo7TiV3O20
_chemical_formula_sum   'Y1 Ho7 Ti1 V3 O20'
_cell_volume   432.34375647
_cell_formula_units_Z   1
loop_
 _symmetry_equiv_pos_site_id
 _symmetry_equiv_pos_as_xyz
  1  'x, y, z'
loop_
 _atom_site_type_symbol
 _atom_site_label
 _atom_site_symmetry_multiplicity
 _atom_site_fract_x
 _atom_site_fract_y
 _atom_site_fract_z
 _atom_site_occupancy
  Y  Y0  1  0.750000  0.363160  0.443921  1
  Ho  Ho1  1  0.250000  0.119805  0.273808  1
  Ho  Ho2  1  0.250000  0.137205  0.945375  1
  Ho  Ho3  1  0.750000  0.377753  0.773167  1
  Ho  Ho4  1  0.250000  0.620722  0.225745  1
  Ho  Ho5  1  0.250000  0.636835  0.556285  1
  Ho  Ho6  1  0.750000  0.863804  0.054645  1
  Ho  Ho7  1  0.750000  0.878633  0.727878  1
  Ti  Ti8  1  0.750000  0.829222  0.382264  1
  V  V9  1  0.250000  0.168142  0.617584  1
  V  V10  1  0.750000  0.331269  0.116794  1
  V  V11  1  0.250000  0.668171  0.883131  1
  O  O12  1  0.750000  0.005037  0.894471  1
  O  O13  1  0.250000  0.004309  0.653138  1
  O  O14  1  0.250000  0.225740  0.456341  1
  O  O15  1  0.750000  0.233155  0.615708  1
  O  O16  1  0.750000  0.245668  0.267687  1
  O  O17  1  0.250000  0.255392  0.768465  1
  O  O18  1  0.250000  0.266359  0.114429  1
  O  O19  1  0.750000  0.273558  0.955806  1
  O  O20  1  0.750000  0.495341  0.152368  1
  O  O21  1  0.250000  0.497086  0.394356  1
  O  O22  1  0.750000  0.506282  0.606353  1
  O  O23  1  0.250000  0.504596  0.847421  1
  O  O24  1  0.250000  0.726250  0.044022  1
  O  O25  1  0.750000  0.733522  0.885602  1
  O  O26  1  0.750000  0.744090  0.230699  1
  O  O27  1  0.250000  0.755082  0.731786  1
  O  O28  1  0.250000  0.766295  0.384776  1
  O  O29  1  0.750000  0.775794  0.544789  1
  O  O30  1  0.750000  0.996781  0.346313  1
  O  O31  1  0.250000  0.994941  0.104869  1
