# generated using pymatgen
data_Pr4CoHg
_symmetry_space_group_name_H-M   'P 1'
_cell_length_a   9.90048091
_cell_length_b   9.89976462
_cell_length_c   9.90096226
_cell_angle_alpha   60.09154849
_cell_angle_beta   60.09574538
_cell_angle_gamma   60.09243465
_symmetry_Int_Tables_number   1
_chemical_formula_structural   Pr4CoHg
_chemical_formula_sum   'Pr16 Co4 Hg4'
_cell_volume   687.63848705
_cell_formula_units_Z   4
loop_
 _symmetry_equiv_pos_site_id
 _symmetry_equiv_pos_as_xyz
  1  'x, y, z'
loop_
 _atom_site_type_symbol
 _atom_site_label
 _atom_site_symmetry_multiplicity
 _atom_site_fract_x
 _atom_site_fract_y
 _atom_site_fract_z
 _atom_site_occupancy
  Pr  Pr0  1  0.292301  0.902558  0.902594  1
  Pr  Pr1  1  0.688918  0.688933  0.309903  1
  Pr  Pr2  1  0.902595  0.902563  0.292286  1
  Pr  Pr3  1  0.310344  0.689997  0.310348  1
  Pr  Pr4  1  0.690000  0.310337  0.310339  1
  Pr  Pr5  1  0.060820  0.440632  0.440571  1
  Pr  Pr6  1  0.439895  0.060423  0.060418  1
  Pr  Pr7  1  0.060422  0.060427  0.439880  1
  Pr  Pr8  1  0.310334  0.310339  0.690001  1
  Pr  Pr9  1  0.440614  0.060822  0.440595  1
  Pr  Pr10  1  0.903497  0.903459  0.903505  1
  Pr  Pr11  1  0.440602  0.440616  0.060812  1
  Pr  Pr12  1  0.309892  0.688938  0.688922  1
  Pr  Pr13  1  0.688937  0.309891  0.688933  1
  Pr  Pr14  1  0.060422  0.439901  0.060419  1
  Pr  Pr15  1  0.902572  0.292305  0.902589  1
  Co  Co16  1  0.109194  0.109193  0.109206  1
  Co  Co17  1  0.108457  0.108463  0.671810  1
  Co  Co18  1  0.671808  0.108466  0.108474  1
  Co  Co19  1  0.108453  0.671816  0.108464  1
  Hg  Hg20  1  0.667168  0.667172  0.998000  1
  Hg  Hg21  1  0.998001  0.667170  0.667170  1
  Hg  Hg22  1  0.667171  0.997991  0.667175  1
  Hg  Hg23  1  0.667583  0.667588  0.667585  1
