# generated using pymatgen
data_In3Bi5(PS3)12
_symmetry_space_group_name_H-M   'P 1'
_cell_length_a   10.95222500
_cell_length_b   7.59629629
_cell_length_c   19.01545300
_cell_angle_alpha   73.84793866
_cell_angle_beta   90.00000000
_cell_angle_gamma   90.00000000
_symmetry_Int_Tables_number   1
_chemical_formula_structural   In3Bi5(PS3)12
_chemical_formula_sum   'In3 Bi5 P12 S36'
_cell_volume   1519.56893261
_cell_formula_units_Z   1
loop_
 _symmetry_equiv_pos_site_id
 _symmetry_equiv_pos_as_xyz
  1  'x, y, z'
loop_
 _atom_site_type_symbol
 _atom_site_label
 _atom_site_symmetry_multiplicity
 _atom_site_fract_x
 _atom_site_fract_y
 _atom_site_fract_z
 _atom_site_occupancy
  In  In0  1  0.321164  0.002889  0.988387  1
  In  In1  1  0.178210  0.002350  0.487869  1
  In  In2  1  0.678901  0.997081  0.011480  1
  Bi  Bi3  1  0.853207  0.998528  0.823167  1
  Bi  Bi4  1  0.352024  0.002091  0.677902  1
  Bi  Bi5  1  0.149587  0.002289  0.175178  1
  Bi  Bi6  1  0.646767  0.996679  0.321518  1
  Bi  Bi7  1  0.817875  0.998423  0.512712  1
  P  P8  1  0.996806  0.845550  0.014333  1
  P  P9  1  0.507941  0.851236  0.857272  1
  P  P10  1  0.012725  0.152584  0.647042  1
  P  P11  1  0.492782  0.149052  0.142281  1
  P  P12  1  0.993350  0.848687  0.354382  1
  P  P13  1  0.014955  0.843259  0.682100  1
  P  P14  1  0.511678  0.159499  0.820751  1
  P  P15  1  0.990837  0.158260  0.318875  1
  P  P16  1  0.488643  0.840518  0.178903  1
  P  P17  1  0.491947  0.153511  0.484847  1
  P  P18  1  0.002798  0.154097  0.985481  1
  P  P19  1  0.496080  0.843476  0.514426  1
  S  S20  1  0.665318  0.777938  0.919513  1
  S  S21  1  0.644130  0.235792  0.418854  1
  S  S22  1  0.154692  0.769735  0.075891  1
  S  S23  1  0.337027  0.772602  0.574971  1
  S  S24  1  0.845325  0.228013  0.923244  1
  S  S25  1  0.834337  0.766369  0.413012  1
  S  S26  1  0.336535  0.224654  0.079394  1
  S  S27  1  0.166903  0.224623  0.582385  1
  S  S28  1  0.484365  0.763396  0.422391  1
  S  S29  1  0.985048  0.235867  0.076820  1
  S  S30  1  0.515143  0.233157  0.576408  1
  S  S31  1  0.014042  0.764404  0.922679  1
  S  S32  1  0.848215  0.767528  0.079831  1
  S  S33  1  0.342528  0.235016  0.420698  1
  S  S34  1  0.151773  0.232280  0.920280  1
  S  S35  1  0.637649  0.756301  0.584218  1
  S  S36  1  0.652491  0.227583  0.088446  1
  S  S37  1  0.149676  0.768634  0.411519  1
  S  S38  1  0.348830  0.771753  0.911758  1
  S  S39  1  0.853430  0.241055  0.595242  1
  S  S40  1  0.983233  0.762823  0.262941  1
  S  S41  1  0.478725  0.238243  0.232566  1
  S  S42  1  0.030704  0.232152  0.739471  1
  S  S43  1  0.522255  0.762363  0.766976  1
  S  S44  1  0.838759  0.246717  0.260885  1
  S  S45  1  0.339472  0.753882  0.239820  1
  S  S46  1  0.162327  0.756901  0.744800  1
  S  S47  1  0.661014  0.246210  0.759948  1
  S  S48  1  0.647506  0.760519  0.232577  1
  S  S49  1  0.148029  0.239658  0.263702  1
  S  S50  1  0.352612  0.238308  0.766978  1
  S  S51  1  0.853915  0.762053  0.732791  1
  S  S52  1  0.493657  0.775624  0.079649  1
  S  S53  1  0.001442  0.229122  0.417130  1
  S  S54  1  0.505981  0.224438  0.920024  1
  S  S55  1  0.014634  0.774229  0.583278  1
