# generated using pymatgen
data_MgZr2Co6(B2Ir)3
_symmetry_space_group_name_H-M   'P 1'
_cell_length_a   5.84229170
_cell_length_b   5.84229135
_cell_length_c   5.84229114
_cell_angle_alpha   95.55391761
_cell_angle_beta   95.55391822
_cell_angle_gamma   95.55391670
_symmetry_Int_Tables_number   1
_chemical_formula_structural   MgZr2Co6(B2Ir)3
_chemical_formula_sum   'Mg1 Zr2 Co6 B6 Ir3'
_cell_volume   196.40604598
_cell_formula_units_Z   1
loop_
 _symmetry_equiv_pos_site_id
 _symmetry_equiv_pos_as_xyz
  1  'x, y, z'
loop_
 _atom_site_type_symbol
 _atom_site_label
 _atom_site_symmetry_multiplicity
 _atom_site_fract_x
 _atom_site_fract_y
 _atom_site_fract_z
 _atom_site_occupancy
  Mg  Mg0  1  0.000000  0.000000  0.000000  1
  Zr  Zr1  1  0.672581  0.672581  0.672581  1
  Zr  Zr2  1  0.327419  0.327419  0.327419  1
  Co  Co3  1  0.692139  0.209771  0.692139  1
  Co  Co4  1  0.692139  0.692139  0.209771  1
  Co  Co5  1  0.209771  0.692139  0.692139  1
  Co  Co6  1  0.307861  0.790229  0.307861  1
  Co  Co7  1  0.307861  0.307861  0.790229  1
  Co  Co8  1  0.790229  0.307861  0.307861  1
  B  B9  1  0.614945  0.385055  0.000000  1
  B  B10  1  0.000000  0.614945  0.385055  1
  B  B11  1  0.385055  0.000000  0.614945  1
  B  B12  1  0.000000  0.385055  0.614945  1
  B  B13  1  0.614945  0.000000  0.385055  1
  B  B14  1  0.385055  0.614945  0.000000  1
  Ir  Ir15  1  0.000000  0.000000  0.500000  1
  Ir  Ir16  1  0.500000  0.000000  0.000000  1
  Ir  Ir17  1  0.000000  0.500000  0.000000  1
