# generated using pymatgen
data_BaBiIO6
_symmetry_space_group_name_H-M   'P 1'
_cell_length_a   5.82950801
_cell_length_b   5.82950729
_cell_length_c   11.08362000
_cell_angle_alpha   89.99976008
_cell_angle_beta   90.00022683
_cell_angle_gamma   119.99803202
_symmetry_Int_Tables_number   1
_chemical_formula_structural   BaBiIO6
_chemical_formula_sum   'Ba2 Bi2 I2 O12'
_cell_volume   326.20050114
_cell_formula_units_Z   2
loop_
 _symmetry_equiv_pos_site_id
 _symmetry_equiv_pos_as_xyz
  1  'x, y, z'
loop_
 _atom_site_type_symbol
 _atom_site_label
 _atom_site_symmetry_multiplicity
 _atom_site_fract_x
 _atom_site_fract_y
 _atom_site_fract_z
 _atom_site_occupancy
  Ba  Ba0  1  0.999991  0.999989  0.000000  1
  Ba  Ba1  1  0.999978  0.999977  0.500000  1
  Bi  Bi2  1  0.666671  0.333310  0.249973  1
  Bi  Bi3  1  0.333309  0.666669  0.750027  1
  I  I4  1  0.333328  0.666643  0.249883  1
  I  I5  1  0.666643  0.333328  0.750117  1
  O  O6  1  0.595828  0.941335  0.150366  1
  O  O7  1  0.345527  0.404119  0.150376  1
  O  O8  1  0.058618  0.654453  0.150378  1
  O  O9  1  0.595883  0.654476  0.349585  1
  O  O10  1  0.345512  0.941343  0.349593  1
  O  O11  1  0.058659  0.404126  0.349595  1
  O  O12  1  0.404126  0.058658  0.650405  1
  O  O13  1  0.941344  0.345513  0.650407  1
  O  O14  1  0.654475  0.595884  0.650415  1
  O  O15  1  0.654453  0.058618  0.849622  1
  O  O16  1  0.404121  0.345527  0.849624  1
  O  O17  1  0.941338  0.595827  0.849634  1
