# generated using pymatgen
data_Sm2Mn3Tc14C3
_symmetry_space_group_name_H-M   'P 1'
_cell_length_a   6.93150130
_cell_length_b   6.93150241
_cell_length_c   6.93150275
_cell_angle_alpha   82.40205764
_cell_angle_beta   82.40205140
_cell_angle_gamma   82.40205842
_symmetry_Int_Tables_number   1
_chemical_formula_structural   Sm2Mn3Tc14C3
_chemical_formula_sum   'Sm2 Mn3 Tc14 C3'
_cell_volume   324.96808222
_cell_formula_units_Z   1
loop_
 _symmetry_equiv_pos_site_id
 _symmetry_equiv_pos_as_xyz
  1  'x, y, z'
loop_
 _atom_site_type_symbol
 _atom_site_label
 _atom_site_symmetry_multiplicity
 _atom_site_fract_x
 _atom_site_fract_y
 _atom_site_fract_z
 _atom_site_occupancy
  Sm  Sm0  1  0.650386  0.650386  0.650386  1
  Sm  Sm1  1  0.349614  0.349614  0.349614  1
  Mn  Mn2  1  0.000000  0.000000  0.500000  1
  Mn  Mn3  1  0.500000  0.000000  0.000000  1
  Mn  Mn4  1  0.000000  0.500000  0.000000  1
  Tc  Tc5  1  0.723154  0.276846  0.000000  1
  Tc  Tc6  1  0.000000  0.723154  0.276846  1
  Tc  Tc7  1  0.276846  0.000000  0.723154  1
  Tc  Tc8  1  0.000000  0.276846  0.723154  1
  Tc  Tc9  1  0.723154  0.000000  0.276846  1
  Tc  Tc10  1  0.276846  0.723154  0.000000  1
  Tc  Tc11  1  0.347029  0.347029  0.861650  1
  Tc  Tc12  1  0.861650  0.347029  0.347029  1
  Tc  Tc13  1  0.347029  0.861650  0.347029  1
  Tc  Tc14  1  0.652971  0.652971  0.138350  1
  Tc  Tc15  1  0.138350  0.652971  0.652971  1
  Tc  Tc16  1  0.652971  0.138350  0.652971  1
  Tc  Tc17  1  0.900895  0.900895  0.900895  1
  Tc  Tc18  1  0.099105  0.099105  0.099105  1
  C  C19  1  0.500000  0.500000  0.000000  1
  C  C20  1  0.000000  0.500000  0.500000  1
  C  C21  1  0.500000  0.000000  0.500000  1
