# generated using pymatgen
data_Tb5PrEuRuI12
_symmetry_space_group_name_H-M   'P 1'
_cell_length_a   10.00338483
_cell_length_b   9.85341792
_cell_length_c   9.98467218
_cell_angle_alpha   106.26727187
_cell_angle_beta   106.61669137
_cell_angle_gamma   107.05736600
_symmetry_Int_Tables_number   1
_chemical_formula_structural   Tb5PrEuRuI12
_chemical_formula_sum   'Tb5 Pr1 Eu1 Ru1 I12'
_cell_volume   827.35414459
_cell_formula_units_Z   1
loop_
 _symmetry_equiv_pos_site_id
 _symmetry_equiv_pos_as_xyz
  1  'x, y, z'
loop_
 _atom_site_type_symbol
 _atom_site_label
 _atom_site_symmetry_multiplicity
 _atom_site_fract_x
 _atom_site_fract_y
 _atom_site_fract_z
 _atom_site_occupancy
  Tb  Tb0  1  0.976775  0.904406  0.698674  1
  Tb  Tb1  1  0.697240  0.976835  0.901939  1
  Tb  Tb2  1  0.090384  0.278458  0.021605  1
  Tb  Tb3  1  0.024111  0.098708  0.302059  1
  Tb  Tb4  1  0.303263  0.022999  0.098044  1
  Pr  Pr5  1  0.907554  0.713133  0.978428  1
  Eu  Eu6  1  0.500039  0.500192  0.499614  1
  Ru  Ru7  1  0.999307  0.997788  0.000490  1
  I  I8  1  0.628464  0.859187  0.549166  1
  I  I9  1  0.541127  0.627612  0.852001  1
  I  I10  1  0.855803  0.548879  0.621329  1
  I  I11  1  0.371590  0.142184  0.451430  1
  I  I12  1  0.447032  0.371286  0.141912  1
  I  I13  1  0.142678  0.449651  0.367589  1
  I  I14  1  0.679862  0.073895  0.221150  1
  I  I15  1  0.230376  0.685189  0.075979  1
  I  I16  1  0.075232  0.224889  0.685278  1
  I  I17  1  0.320626  0.927790  0.779174  1
  I  I18  1  0.781076  0.314601  0.927272  1
  I  I19  1  0.927461  0.782315  0.326866  1
