# generated using pymatgen
data_K6Ga5Sn3Pt8
_symmetry_space_group_name_H-M   'P 1'
_cell_length_a   6.88797682
_cell_length_b   7.16417522
_cell_length_c   11.94128800
_cell_angle_alpha   90.00000000
_cell_angle_beta   90.00000000
_cell_angle_gamma   106.67574130
_symmetry_Int_Tables_number   1
_chemical_formula_structural   K6Ga5Sn3Pt8
_chemical_formula_sum   'K6 Ga5 Sn3 Pt8'
_cell_volume   564.48083960
_cell_formula_units_Z   1
loop_
 _symmetry_equiv_pos_site_id
 _symmetry_equiv_pos_as_xyz
  1  'x, y, z'
loop_
 _atom_site_type_symbol
 _atom_site_label
 _atom_site_symmetry_multiplicity
 _atom_site_fract_x
 _atom_site_fract_y
 _atom_site_fract_z
 _atom_site_occupancy
  K  K0  1  0.205095  0.790916  0.498685  1
  K  K1  1  0.205095  0.790916  0.001315  1
  K  K2  1  0.797227  0.215689  0.495256  1
  K  K3  1  0.797227  0.215689  0.004744  1
  K  K4  1  0.031172  0.020090  0.250000  1
  K  K5  1  0.969635  0.973639  0.750000  1
  Ga  Ga6  1  0.890555  0.506161  0.250000  1
  Ga  Ga7  1  0.353027  0.355270  0.418545  1
  Ga  Ga8  1  0.644660  0.644900  0.576303  1
  Ga  Ga9  1  0.353027  0.355270  0.081455  1
  Ga  Ga10  1  0.644660  0.644900  0.923697  1
  Sn  Sn11  1  0.509821  0.898539  0.250000  1
  Sn  Sn12  1  0.107447  0.493598  0.750000  1
  Sn  Sn13  1  0.489187  0.100722  0.750000  1
  Pt  Pt14  1  0.536402  0.270436  0.250000  1
  Pt  Pt15  1  0.728240  0.471379  0.750000  1
  Pt  Pt16  1  0.480526  0.738410  0.750000  1
  Pt  Pt17  1  0.251526  0.528963  0.250000  1
  Pt  Pt18  1  0.339756  0.336832  0.877954  1
  Pt  Pt19  1  0.662979  0.655426  0.128052  1
  Pt  Pt20  1  0.339756  0.336832  0.622046  1
  Pt  Pt21  1  0.662979  0.655426  0.371948  1
