# generated using pymatgen
data_NdFeCo4As3
_symmetry_space_group_name_H-M   'P 1'
_cell_length_a   3.85676500
_cell_length_b   10.76506800
_cell_length_c   12.28357100
_cell_angle_alpha   90.00000000
_cell_angle_beta   90.00000000
_cell_angle_gamma   90.00000000
_symmetry_Int_Tables_number   1
_chemical_formula_structural   NdFeCo4As3
_chemical_formula_sum   'Nd4 Fe4 Co16 As12'
_cell_volume   509.99344630
_cell_formula_units_Z   4
loop_
 _symmetry_equiv_pos_site_id
 _symmetry_equiv_pos_as_xyz
  1  'x, y, z'
loop_
 _atom_site_type_symbol
 _atom_site_label
 _atom_site_symmetry_multiplicity
 _atom_site_fract_x
 _atom_site_fract_y
 _atom_site_fract_z
 _atom_site_occupancy
  Nd  Nd0  1  0.250000  0.580363  0.700856  1
  Nd  Nd1  1  0.250000  0.919637  0.200856  1
  Nd  Nd2  1  0.750000  0.419637  0.299144  1
  Nd  Nd3  1  0.750000  0.080363  0.799144  1
  Fe  Fe4  1  0.250000  0.704256  0.988901  1
  Fe  Fe5  1  0.250000  0.795744  0.488901  1
  Fe  Fe6  1  0.750000  0.295744  0.011099  1
  Fe  Fe7  1  0.750000  0.204256  0.511099  1
  Co  Co8  1  0.250000  0.405680  0.488789  1
  Co  Co9  1  0.250000  0.094320  0.988789  1
  Co  Co10  1  0.750000  0.594320  0.511211  1
  Co  Co11  1  0.750000  0.905680  0.011211  1
  Co  Co12  1  0.250000  0.216886  0.176343  1
  Co  Co13  1  0.250000  0.283114  0.676343  1
  Co  Co14  1  0.750000  0.783114  0.823657  1
  Co  Co15  1  0.750000  0.716886  0.323657  1
  Co  Co16  1  0.250000  0.882625  0.695906  1
  Co  Co17  1  0.250000  0.617375  0.195906  1
  Co  Co18  1  0.750000  0.117375  0.304094  1
  Co  Co19  1  0.750000  0.382625  0.804094  1
  Co  Co20  1  0.250000  0.469990  0.933234  1
  Co  Co21  1  0.250000  0.030010  0.433234  1
  Co  Co22  1  0.750000  0.530010  0.066766  1
  Co  Co23  1  0.750000  0.969990  0.566766  1
  As  As24  1  0.250000  0.416578  0.113361  1
  As  As25  1  0.250000  0.083422  0.613361  1
  As  As26  1  0.750000  0.583422  0.886639  1
  As  As27  1  0.750000  0.916578  0.386639  1
  As  As28  1  0.250000  0.271838  0.868807  1
  As  As29  1  0.250000  0.228162  0.368807  1
  As  As30  1  0.750000  0.728162  0.131193  1
  As  As31  1  0.750000  0.771838  0.631193  1
  As  As32  1  0.250000  0.604440  0.393370  1
  As  As33  1  0.250000  0.895560  0.893370  1
  As  As34  1  0.750000  0.395560  0.606630  1
  As  As35  1  0.750000  0.104440  0.106630  1
