# generated using pymatgen
data_CsPrSm2CBr6
_symmetry_space_group_name_H-M   'P 1'
_cell_length_a   9.04826307
_cell_length_b   9.08913695
_cell_length_c   9.70665727
_cell_angle_alpha   70.41408600
_cell_angle_beta   85.17030241
_cell_angle_gamma   89.21825481
_symmetry_Int_Tables_number   1
_chemical_formula_structural   CsPrSm2CBr6
_chemical_formula_sum   'Cs2 Pr2 Sm4 C2 Br12'
_cell_volume   749.33462970
_cell_formula_units_Z   2
loop_
 _symmetry_equiv_pos_site_id
 _symmetry_equiv_pos_as_xyz
  1  'x, y, z'
loop_
 _atom_site_type_symbol
 _atom_site_label
 _atom_site_symmetry_multiplicity
 _atom_site_fract_x
 _atom_site_fract_y
 _atom_site_fract_z
 _atom_site_occupancy
  Cs  Cs0  1  0.468670  0.360446  0.331105  1
  Cs  Cs1  1  0.531331  0.639554  0.668895  1
  Pr  Pr2  1  0.913225  0.735752  0.004893  1
  Pr  Pr3  1  0.086775  0.264248  0.995106  1
  Sm  Sm4  1  0.741362  0.086022  0.001089  1
  Sm  Sm5  1  0.258637  0.913978  0.998912  1
  Sm  Sm6  1  0.974937  0.884029  0.324545  1
  Sm  Sm7  1  0.025062  0.115971  0.675456  1
  C  C8  1  0.005842  0.027066  0.922808  1
  C  C9  1  0.994157  0.972934  0.077192  1
  Br  Br10  1  0.077897  0.191969  0.330261  1
  Br  Br11  1  0.922103  0.808031  0.669739  1
  Br  Br12  1  0.212288  0.594214  0.000969  1
  Br  Br13  1  0.787713  0.405786  0.999031  1
  Br  Br14  1  0.408323  0.197112  0.002102  1
  Br  Br15  1  0.591676  0.802889  0.997897  1
  Br  Br16  1  0.670263  0.999701  0.324121  1
  Br  Br17  1  0.329737  0.000299  0.675879  1
  Br  Br18  1  0.280369  0.774431  0.320346  1
  Br  Br19  1  0.719631  0.225569  0.679654  1
  Br  Br20  1  0.849459  0.588632  0.331988  1
  Br  Br21  1  0.150540  0.411368  0.668012  1
