# generated using pymatgen
data_Er2Fe3Ni(PRu)6
_symmetry_space_group_name_H-M   'P 1'
_cell_length_a   3.79370400
_cell_length_b   10.57417500
_cell_length_c   12.11879900
_cell_angle_alpha   90.00000000
_cell_angle_beta   90.00000000
_cell_angle_gamma   90.00000000
_symmetry_Int_Tables_number   1
_chemical_formula_structural   Er2Fe3Ni(PRu)6
_chemical_formula_sum   'Er4 Fe6 Ni2 P12 Ru12'
_cell_volume   486.14913627
_cell_formula_units_Z   2
loop_
 _symmetry_equiv_pos_site_id
 _symmetry_equiv_pos_as_xyz
  1  'x, y, z'
loop_
 _atom_site_type_symbol
 _atom_site_label
 _atom_site_symmetry_multiplicity
 _atom_site_fract_x
 _atom_site_fract_y
 _atom_site_fract_z
 _atom_site_occupancy
  Er  Er0  1  0.250000  0.580321  0.708933  1
  Er  Er1  1  0.250000  0.919679  0.208933  1
  Er  Er2  1  0.750000  0.413121  0.292594  1
  Er  Er3  1  0.750000  0.086879  0.792594  1
  Fe  Fe4  1  0.750000  0.115832  0.302839  1
  Fe  Fe5  1  0.750000  0.384168  0.802839  1
  Fe  Fe6  1  0.250000  0.466254  0.936584  1
  Fe  Fe7  1  0.250000  0.033746  0.436584  1
  Fe  Fe8  1  0.750000  0.539502  0.067824  1
  Fe  Fe9  1  0.750000  0.960498  0.567824  1
  Ni  Ni10  1  0.250000  0.886231  0.699616  1
  Ni  Ni11  1  0.250000  0.613769  0.199616  1
  P  P12  1  0.250000  0.427299  0.110835  1
  P  P13  1  0.250000  0.072701  0.610835  1
  P  P14  1  0.750000  0.570334  0.887864  1
  P  P15  1  0.750000  0.929666  0.387864  1
  P  P16  1  0.250000  0.276349  0.867281  1
  P  P17  1  0.250000  0.223651  0.367281  1
  P  P18  1  0.750000  0.733918  0.127621  1
  P  P19  1  0.750000  0.766082  0.627621  1
  P  P20  1  0.250000  0.601663  0.390895  1
  P  P21  1  0.250000  0.898337  0.890895  1
  P  P22  1  0.750000  0.395582  0.614090  1
  P  P23  1  0.750000  0.104418  0.114090  1
  Ru  Ru24  1  0.250000  0.706581  0.988563  1
  Ru  Ru25  1  0.250000  0.793419  0.488563  1
  Ru  Ru26  1  0.750000  0.297869  0.011988  1
  Ru  Ru27  1  0.750000  0.202131  0.511988  1
  Ru  Ru28  1  0.250000  0.401765  0.482117  1
  Ru  Ru29  1  0.250000  0.098236  0.982117  1
  Ru  Ru30  1  0.750000  0.590954  0.513549  1
  Ru  Ru31  1  0.750000  0.909046  0.013549  1
  Ru  Ru32  1  0.250000  0.225831  0.177023  1
  Ru  Ru33  1  0.250000  0.274169  0.677023  1
  Ru  Ru34  1  0.750000  0.775023  0.819785  1
  Ru  Ru35  1  0.750000  0.724977  0.319785  1
