# generated using pymatgen
data_Rb4TbUTe6
_symmetry_space_group_name_H-M   'P 1'
_cell_length_a   8.20975584
_cell_length_b   8.20975648
_cell_length_c   8.96710424
_cell_angle_alpha   81.08737170
_cell_angle_beta   81.08737236
_cell_angle_gamma   120.03087005
_symmetry_Int_Tables_number   1
_chemical_formula_structural   Rb4TbUTe6
_chemical_formula_sum   'Rb4 Tb1 U1 Te6'
_cell_volume   497.47154560
_cell_formula_units_Z   1
loop_
 _symmetry_equiv_pos_site_id
 _symmetry_equiv_pos_as_xyz
  1  'x, y, z'
loop_
 _atom_site_type_symbol
 _atom_site_label
 _atom_site_symmetry_multiplicity
 _atom_site_fract_x
 _atom_site_fract_y
 _atom_site_fract_z
 _atom_site_occupancy
  Rb  Rb0  1  0.500022  0.499978  0.000000  1
  Rb  Rb1  1  0.654828  0.345172  0.500000  1
  Rb  Rb2  1  0.345183  0.654817  0.500000  1
  Rb  Rb3  1  0.999955  0.000045  0.500000  1
  Tb  Tb4  1  0.832251  0.167749  0.000000  1
  U  U5  1  0.167796  0.832204  0.000000  1
  Te  Te6  1  0.814813  0.804007  0.200387  1
  Te  Te7  1  0.195993  0.185187  0.799613  1
  Te  Te8  1  0.419986  0.047240  0.203430  1
  Te  Te9  1  0.557872  0.941459  0.796160  1
  Te  Te10  1  0.952760  0.580014  0.796570  1
  Te  Te11  1  0.058541  0.442128  0.203840  1
