# generated using pymatgen
data_Er2TlIn(SbO4)4
_symmetry_space_group_name_H-M   'P 1'
_cell_length_a   5.36575748
_cell_length_b   7.56295849
_cell_length_c   7.65140156
_cell_angle_alpha   80.34189066
_cell_angle_beta   92.30129309
_cell_angle_gamma   88.55641313
_symmetry_Int_Tables_number   1
_chemical_formula_structural   Er2TlIn(SbO4)4
_chemical_formula_sum   'Er2 Tl1 In1 Sb4 O16'
_cell_volume   305.69301243
_cell_formula_units_Z   1
loop_
 _symmetry_equiv_pos_site_id
 _symmetry_equiv_pos_as_xyz
  1  'x, y, z'
loop_
 _atom_site_type_symbol
 _atom_site_label
 _atom_site_symmetry_multiplicity
 _atom_site_fract_x
 _atom_site_fract_y
 _atom_site_fract_z
 _atom_site_occupancy
  Er  Er0  1  0.258204  0.617103  0.130538  1
  Er  Er1  1  0.741578  0.383887  0.871406  1
  Tl  Tl2  1  0.776747  0.879823  0.834148  1
  In  In3  1  0.222393  0.127649  0.167302  1
  Sb  Sb4  1  0.747868  0.809483  0.327463  1
  Sb  Sb5  1  0.248409  0.192684  0.671607  1
  Sb  Sb6  1  0.271880  0.688998  0.659702  1
  Sb  Sb7  1  0.727413  0.309314  0.338956  1
  O  O8  1  0.434255  0.885794  0.186249  1
  O  O9  1  0.561470  0.123837  0.814811  1
  O  O10  1  0.007257  0.611225  0.827580  1
  O  O11  1  0.996032  0.385259  0.173224  1
  O  O12  1  0.934783  0.809296  0.108675  1
  O  O13  1  0.070197  0.188640  0.897216  1
  O  O14  1  0.486890  0.666377  0.887699  1
  O  O15  1  0.510620  0.325138  0.113234  1
  O  O16  1  0.599324  0.563588  0.323444  1
  O  O17  1  0.401444  0.436076  0.672088  1
  O  O18  1  0.133900  0.940298  0.675139  1
  O  O19  1  0.877534  0.060413  0.321273  1
  O  O20  1  0.587811  0.804286  0.560099  1
  O  O21  1  0.408880  0.193187  0.436839  1
  O  O22  1  0.078404  0.688673  0.431974  1
  O  O23  1  0.916706  0.308976  0.569337  1
