# generated using pymatgen
data_Sr6Cd23As
_symmetry_space_group_name_H-M   'P 1'
_cell_length_a   10.36777206
_cell_length_b   10.36777169
_cell_length_c   10.36777200
_cell_angle_alpha   59.99999901
_cell_angle_beta   60.00000019
_cell_angle_gamma   59.99999894
_symmetry_Int_Tables_number   1
_chemical_formula_structural   Sr6Cd23As
_chemical_formula_sum   'Sr6 Cd23 As1'
_cell_volume   788.02736550
_cell_formula_units_Z   1
loop_
 _symmetry_equiv_pos_site_id
 _symmetry_equiv_pos_as_xyz
  1  'x, y, z'
loop_
 _atom_site_type_symbol
 _atom_site_label
 _atom_site_symmetry_multiplicity
 _atom_site_fract_x
 _atom_site_fract_y
 _atom_site_fract_z
 _atom_site_occupancy
  Sr  Sr0  1  0.792529  0.792529  0.207471  1
  Sr  Sr1  1  0.207471  0.792529  0.207471  1
  Sr  Sr2  1  0.792529  0.207471  0.207471  1
  Sr  Sr3  1  0.207471  0.207471  0.792529  1
  Sr  Sr4  1  0.792529  0.207471  0.792529  1
  Sr  Sr5  1  0.207471  0.792529  0.792529  1
  Cd  Cd6  1  0.828225  0.828225  0.515327  1
  Cd  Cd7  1  0.828225  0.515327  0.828225  1
  Cd  Cd8  1  0.515327  0.828225  0.828225  1
  Cd  Cd9  1  0.828225  0.828225  0.828225  1
  Cd  Cd10  1  0.171775  0.171775  0.484673  1
  Cd  Cd11  1  0.171775  0.484673  0.171775  1
  Cd  Cd12  1  0.484673  0.171775  0.171775  1
  Cd  Cd13  1  0.171775  0.171775  0.171775  1
  Cd  Cd14  1  0.620885  0.620885  0.137343  1
  Cd  Cd15  1  0.620885  0.137343  0.620885  1
  Cd  Cd16  1  0.137343  0.620885  0.620885  1
  Cd  Cd17  1  0.620885  0.620885  0.620885  1
  Cd  Cd18  1  0.379115  0.379115  0.862657  1
  Cd  Cd19  1  0.379115  0.862657  0.379115  1
  Cd  Cd20  1  0.862657  0.379115  0.379115  1
  Cd  Cd21  1  0.379115  0.379115  0.379115  1
  Cd  Cd22  1  0.000000  0.000000  0.500000  1
  Cd  Cd23  1  0.500000  0.000000  0.500000  1
  Cd  Cd24  1  0.000000  0.500000  0.500000  1
  Cd  Cd25  1  0.500000  0.500000  0.000000  1
  Cd  Cd26  1  0.000000  0.500000  0.000000  1
  Cd  Cd27  1  0.500000  0.000000  0.000000  1
  Cd  Cd28  1  0.500000  0.500000  0.500000  1
  As  As29  1  0.000000  0.000000  0.000000  1
