# generated using pymatgen
data_Sr7(YbPd3)2
_symmetry_space_group_name_H-M   'P 1'
_cell_length_a   8.04747597
_cell_length_b   8.04747558
_cell_length_c   8.04747651
_cell_angle_alpha   70.47650871
_cell_angle_beta   70.47650648
_cell_angle_gamma   70.47649871
_symmetry_Int_Tables_number   1
_chemical_formula_structural   Sr7(YbPd3)2
_chemical_formula_sum   'Sr7 Yb2 Pd6'
_cell_volume   448.20381619
_cell_formula_units_Z   1
loop_
 _symmetry_equiv_pos_site_id
 _symmetry_equiv_pos_as_xyz
  1  'x, y, z'
loop_
 _atom_site_type_symbol
 _atom_site_label
 _atom_site_symmetry_multiplicity
 _atom_site_fract_x
 _atom_site_fract_y
 _atom_site_fract_z
 _atom_site_occupancy
  Sr  Sr0  1  0.000000  0.000000  0.000000  1
  Sr  Sr1  1  0.333309  0.603464  0.844031  1
  Sr  Sr2  1  0.844031  0.333309  0.603464  1
  Sr  Sr3  1  0.603463  0.844031  0.333309  1
  Sr  Sr4  1  0.666691  0.396536  0.155969  1
  Sr  Sr5  1  0.155969  0.666691  0.396536  1
  Sr  Sr6  1  0.396536  0.155969  0.666691  1
  Yb  Yb7  1  0.803762  0.803762  0.803762  1
  Yb  Yb8  1  0.196238  0.196238  0.196238  1
  Pd  Pd9  1  0.147316  0.963486  0.577814  1
  Pd  Pd10  1  0.577814  0.147316  0.963486  1
  Pd  Pd11  1  0.963486  0.577814  0.147316  1
  Pd  Pd12  1  0.852684  0.036514  0.422186  1
  Pd  Pd13  1  0.422186  0.852684  0.036514  1
  Pd  Pd14  1  0.036514  0.422186  0.852684  1
