# generated using pymatgen
data_PrNd5Dy2(MoO6)4
_symmetry_space_group_name_H-M   'P 1'
_cell_length_a   10.19985026
_cell_length_b   10.19985013
_cell_length_c   5.52422349
_cell_angle_alpha   75.05025986
_cell_angle_beta   75.05025921
_cell_angle_gamma   68.61602677
_symmetry_Int_Tables_number   1
_chemical_formula_structural   PrNd5Dy2(MoO6)4
_chemical_formula_sum   'Pr1 Nd5 Dy2 Mo4 O24'
_cell_volume   508.39018875
_cell_formula_units_Z   1
loop_
 _symmetry_equiv_pos_site_id
 _symmetry_equiv_pos_as_xyz
  1  'x, y, z'
loop_
 _atom_site_type_symbol
 _atom_site_label
 _atom_site_symmetry_multiplicity
 _atom_site_fract_x
 _atom_site_fract_y
 _atom_site_fract_z
 _atom_site_occupancy
  Pr  Pr0  1  0.136189  0.863811  0.250000  1
  Nd  Nd1  1  0.786466  0.552934  0.621164  1
  Nd  Nd2  1  0.447066  0.213534  0.878836  1
  Nd  Nd3  1  0.213559  0.446704  0.379269  1
  Nd  Nd4  1  0.553296  0.786441  0.120731  1
  Nd  Nd5  1  0.863130  0.136870  0.750000  1
  Dy  Dy6  1  0.398038  0.601962  0.750000  1
  Dy  Dy7  1  0.602071  0.397929  0.250000  1
  Mo  Mo8  1  0.992584  0.701982  0.934666  1
  Mo  Mo9  1  0.298018  0.007416  0.565334  1
  Mo  Mo10  1  0.007412  0.297951  0.065547  1
  Mo  Mo11  1  0.702049  0.992588  0.434453  1
  O  O12  1  0.429732  0.393497  0.075307  1
  O  O13  1  0.606503  0.570268  0.424693  1
  O  O14  1  0.570355  0.606434  0.924771  1
  O  O15  1  0.393566  0.429645  0.575229  1
  O  O16  1  0.193794  0.660876  0.061252  1
  O  O17  1  0.339124  0.806206  0.438748  1
  O  O18  1  0.806023  0.338042  0.937965  1
  O  O19  1  0.661958  0.193977  0.562035  1
  O  O20  1  0.111072  0.670086  0.625411  1
  O  O21  1  0.329914  0.888928  0.874589  1
  O  O22  1  0.889231  0.328836  0.375942  1
  O  O23  1  0.671164  0.110769  0.124058  1
  O  O24  1  0.710329  0.822460  0.366802  1
  O  O25  1  0.177540  0.289671  0.133198  1
  O  O26  1  0.290004  0.177440  0.633372  1
  O  O27  1  0.822560  0.709996  0.866628  1
  O  O28  1  0.883027  0.956121  0.479179  1
  O  O29  1  0.043879  0.116973  0.020821  1
  O  O30  1  0.116300  0.044543  0.523300  1
  O  O31  1  0.955457  0.883700  0.976700  1
  O  O32  1  0.572440  0.976435  0.735822  1
  O  O33  1  0.023565  0.427560  0.764178  1
  O  O34  1  0.426770  0.024188  0.262802  1
  O  O35  1  0.975812  0.573230  0.237198  1
