# generated using pymatgen
data_NdTmLu2(WO6)2
_symmetry_space_group_name_H-M   'P 1'
_cell_length_a   5.39036400
_cell_length_b   7.69059971
_cell_length_c   11.41259628
_cell_angle_alpha   75.50504685
_cell_angle_beta   90.00000000
_cell_angle_gamma   90.00000000
_symmetry_Int_Tables_number   1
_chemical_formula_structural   NdTmLu2(WO6)2
_chemical_formula_sum   'Nd2 Tm2 Lu4 W4 O24'
_cell_volume   458.05142371
_cell_formula_units_Z   2
loop_
 _symmetry_equiv_pos_site_id
 _symmetry_equiv_pos_as_xyz
  1  'x, y, z'
loop_
 _atom_site_type_symbol
 _atom_site_label
 _atom_site_symmetry_multiplicity
 _atom_site_fract_x
 _atom_site_fract_y
 _atom_site_fract_z
 _atom_site_occupancy
  Nd  Nd0  1  0.313844  0.500000  0.750000  1
  Nd  Nd1  1  0.686156  0.500000  0.250000  1
  Tm  Tm2  1  0.255748  0.000000  0.750000  1
  Tm  Tm3  1  0.744252  0.000000  0.250000  1
  Lu  Lu4  1  0.184533  0.797333  0.077768  1
  Lu  Lu5  1  0.184533  0.202667  0.422232  1
  Lu  Lu6  1  0.815467  0.202667  0.922232  1
  Lu  Lu7  1  0.815467  0.797333  0.577768  1
  W  W8  1  0.745328  0.728945  0.884351  1
  W  W9  1  0.254672  0.728945  0.384351  1
  W  W10  1  0.745328  0.271055  0.615649  1
  W  W11  1  0.254672  0.271055  0.115649  1
  O  O12  1  0.541649  0.156228  0.068778  1
  O  O13  1  0.043271  0.055853  0.103435  1
  O  O14  1  0.015029  0.722654  0.767683  1
  O  O15  1  0.458351  0.156228  0.568778  1
  O  O16  1  0.345634  0.491110  0.387370  1
  O  O17  1  0.956729  0.055853  0.603435  1
  O  O18  1  0.544712  0.798501  0.724456  1
  O  O19  1  0.455288  0.798501  0.224456  1
  O  O20  1  0.141759  0.642264  0.546844  1
  O  O21  1  0.043271  0.944147  0.396565  1
  O  O22  1  0.458351  0.843772  0.931222  1
  O  O23  1  0.455288  0.201499  0.275544  1
  O  O24  1  0.858241  0.357736  0.453156  1
  O  O25  1  0.654366  0.491110  0.887370  1
  O  O26  1  0.345634  0.508890  0.112630  1
  O  O27  1  0.956729  0.944147  0.896565  1
  O  O28  1  0.541649  0.843772  0.431222  1
  O  O29  1  0.984971  0.277346  0.232317  1
  O  O30  1  0.544712  0.201499  0.775544  1
  O  O31  1  0.858241  0.642264  0.046844  1
  O  O32  1  0.015029  0.277346  0.732317  1
  O  O33  1  0.141759  0.357736  0.953156  1
  O  O34  1  0.984971  0.722654  0.267683  1
  O  O35  1  0.654366  0.508890  0.612630  1
