# generated using pymatgen
data_Y4Tm16Cd3Ag3Ru2
_symmetry_space_group_name_H-M   'P 1'
_cell_length_a   9.48528045
_cell_length_b   9.48021027
_cell_length_c   9.58199100
_cell_angle_alpha   90.00000000
_cell_angle_beta   90.00000000
_cell_angle_gamma   119.98231855
_symmetry_Int_Tables_number   1
_chemical_formula_structural   Y4Tm16Cd3Ag3Ru2
_chemical_formula_sum   'Y4 Tm16 Cd3 Ag3 Ru2'
_cell_volume   746.33169768
_cell_formula_units_Z   1
loop_
 _symmetry_equiv_pos_site_id
 _symmetry_equiv_pos_as_xyz
  1  'x, y, z'
loop_
 _atom_site_type_symbol
 _atom_site_label
 _atom_site_symmetry_multiplicity
 _atom_site_fract_x
 _atom_site_fract_y
 _atom_site_fract_z
 _atom_site_occupancy
  Y  Y0  1  0.918492  0.459246  0.250000  1
  Y  Y1  1  0.459846  0.539832  0.750000  1
  Y  Y2  1  0.459846  0.920014  0.750000  1
  Y  Y3  1  0.079236  0.539618  0.750000  1
  Tm  Tm4  1  0.000394  0.000197  0.475812  1
  Tm  Tm5  1  0.000394  0.000197  0.024188  1
  Tm  Tm6  1  0.211646  0.791022  0.440971  1
  Tm  Tm7  1  0.211646  0.420625  0.440971  1
  Tm  Tm8  1  0.579684  0.789843  0.440388  1
  Tm  Tm9  1  0.789936  0.208252  0.558084  1
  Tm  Tm10  1  0.789936  0.581684  0.558084  1
  Tm  Tm11  1  0.419053  0.209526  0.557306  1
  Tm  Tm12  1  0.789936  0.208252  0.941916  1
  Tm  Tm13  1  0.789936  0.581684  0.941916  1
  Tm  Tm14  1  0.419053  0.209526  0.942694  1
  Tm  Tm15  1  0.211646  0.791022  0.059029  1
  Tm  Tm16  1  0.211646  0.420625  0.059029  1
  Tm  Tm17  1  0.579684  0.789843  0.059612  1
  Tm  Tm18  1  0.539133  0.459931  0.250000  1
  Tm  Tm19  1  0.539133  0.079201  0.250000  1
  Cd  Cd20  1  0.111046  0.889014  0.750000  1
  Cd  Cd21  1  0.111046  0.222030  0.750000  1
  Cd  Cd22  1  0.778121  0.889060  0.750000  1
  Ag  Ag23  1  0.875489  0.120962  0.250000  1
  Ag  Ag24  1  0.875489  0.754529  0.250000  1
  Ag  Ag25  1  0.247689  0.123846  0.250000  1
  Ru  Ru26  1  0.334024  0.667012  0.250000  1
  Ru  Ru27  1  0.666818  0.333409  0.750000  1
