# generated using pymatgen
data_Tb4Hf4Ir3Pd
_symmetry_space_group_name_H-M   'P 1'
_cell_length_a   4.63614300
_cell_length_b   7.06599878
_cell_length_c   8.26329062
_cell_angle_alpha   89.51520513
_cell_angle_beta   90.00000000
_cell_angle_gamma   90.00000000
_symmetry_Int_Tables_number   1
_chemical_formula_structural   Tb4Hf4Ir3Pd
_chemical_formula_sum   'Tb4 Hf4 Ir3 Pd1'
_cell_volume   270.68728853
_cell_formula_units_Z   1
loop_
 _symmetry_equiv_pos_site_id
 _symmetry_equiv_pos_as_xyz
  1  'x, y, z'
loop_
 _atom_site_type_symbol
 _atom_site_label
 _atom_site_symmetry_multiplicity
 _atom_site_fract_x
 _atom_site_fract_y
 _atom_site_fract_z
 _atom_site_occupancy
  Tb  Tb0  1  0.250000  0.482570  0.173729  1
  Tb  Tb1  1  0.750000  0.513442  0.823620  1
  Tb  Tb2  1  0.250000  0.985386  0.322611  1
  Tb  Tb3  1  0.750000  0.021606  0.680837  1
  Hf  Hf4  1  0.250000  0.860281  0.930181  1
  Hf  Hf5  1  0.750000  0.139207  0.074523  1
  Hf  Hf6  1  0.250000  0.356307  0.571433  1
  Hf  Hf7  1  0.750000  0.638769  0.418153  1
  Ir  Ir8  1  0.750000  0.768329  0.091471  1
  Ir  Ir9  1  0.250000  0.229765  0.907120  1
  Ir  Ir10  1  0.750000  0.271298  0.410509  1
  Pd  Pd11  1  0.250000  0.733040  0.595813  1
