# generated using pymatgen
data_Er4Mn2BiO12
_symmetry_space_group_name_H-M   'P 1'
_cell_length_a   6.76022722
_cell_length_b   6.76022726
_cell_length_c   7.16086716
_cell_angle_alpha   74.59142512
_cell_angle_beta   74.59142635
_cell_angle_gamma   50.89281686
_symmetry_Int_Tables_number   1
_chemical_formula_structural   Er4Mn2BiO12
_chemical_formula_sum   'Er4 Mn2 Bi1 O12'
_cell_volume   242.69830799
_cell_formula_units_Z   1
loop_
 _symmetry_equiv_pos_site_id
 _symmetry_equiv_pos_as_xyz
  1  'x, y, z'
loop_
 _atom_site_type_symbol
 _atom_site_label
 _atom_site_symmetry_multiplicity
 _atom_site_fract_x
 _atom_site_fract_y
 _atom_site_fract_z
 _atom_site_occupancy
  Er  Er0  1  0.306581  0.306581  0.349943  1
  Er  Er1  1  0.693419  0.693419  0.650057  1
  Er  Er2  1  0.305355  0.305355  0.843869  1
  Er  Er3  1  0.694645  0.694645  0.156131  1
  Mn  Mn4  1  0.753317  0.246683  0.000000  1
  Mn  Mn5  1  0.246683  0.753317  0.000000  1
  Bi  Bi6  1  0.000000  0.000000  0.500000  1
  O  O7  1  0.902193  0.425431  0.915652  1
  O  O8  1  0.425431  0.902193  0.915652  1
  O  O9  1  0.097807  0.574569  0.084348  1
  O  O10  1  0.574569  0.097807  0.084348  1
  O  O11  1  0.097873  0.597962  0.573021  1
  O  O12  1  0.597962  0.097873  0.573021  1
  O  O13  1  0.902127  0.402038  0.426979  1
  O  O14  1  0.402038  0.902127  0.426979  1
  O  O15  1  0.999474  0.999474  0.820494  1
  O  O16  1  0.000526  0.000526  0.179506  1
  O  O17  1  0.499442  0.499442  0.817432  1
  O  O18  1  0.500558  0.500558  0.182568  1
