# generated using pymatgen
data_Bi2Ir3Rh(O6F)2
_symmetry_space_group_name_H-M   'P 1'
_cell_length_a   7.22544170
_cell_length_b   7.21055104
_cell_length_c   7.22544137
_cell_angle_alpha   120.48048267
_cell_angle_beta   118.93873600
_cell_angle_gamma   90.56991543
_symmetry_Int_Tables_number   1
_chemical_formula_structural   Bi2Ir3Rh(O6F)2
_chemical_formula_sum   'Bi2 Ir3 Rh1 O12 F2'
_cell_volume   267.13723608
_cell_formula_units_Z   1
loop_
 _symmetry_equiv_pos_site_id
 _symmetry_equiv_pos_as_xyz
  1  'x, y, z'
loop_
 _atom_site_type_symbol
 _atom_site_label
 _atom_site_symmetry_multiplicity
 _atom_site_fract_x
 _atom_site_fract_y
 _atom_site_fract_z
 _atom_site_occupancy
  Bi  Bi0  1  0.500000  0.500000  0.000000  1
  Bi  Bi1  1  0.000000  0.500000  0.500000  1
  Ir  Ir2  1  0.000000  0.000000  0.000000  1
  Ir  Ir3  1  0.500000  0.000000  0.500000  1
  Ir  Ir4  1  0.500000  0.500000  0.500000  1
  Rh  Rh5  1  0.500000  0.000000  0.000000  1
  O  O6  1  0.193417  0.941909  0.248492  1
  O  O7  1  0.583104  0.334651  0.251547  1
  O  O8  1  0.172709  0.912356  0.846409  1
  O  O9  1  0.565492  0.328003  0.650432  1
  O  O10  1  0.565948  0.912356  0.239648  1
  O  O11  1  0.177571  0.328003  0.262511  1
  O  O12  1  0.806583  0.058091  0.751508  1
  O  O13  1  0.416896  0.665349  0.748453  1
  O  O14  1  0.827291  0.087644  0.153591  1
  O  O15  1  0.434508  0.671997  0.349568  1
  O  O16  1  0.434052  0.087644  0.760352  1
  O  O17  1  0.822429  0.671997  0.737489  1
  F  F18  1  0.878737  0.628282  0.249545  1
  F  F19  1  0.121263  0.371718  0.750455  1
