# generated using pymatgen
data_Tm12Tc3AgHg
_symmetry_space_group_name_H-M   'P 1'
_cell_length_a   8.30631143
_cell_length_b   8.30631004
_cell_length_c   8.30631000
_cell_angle_alpha   111.98047611
_cell_angle_beta   107.61022938
_cell_angle_gamma   108.85469623
_symmetry_Int_Tables_number   1
_chemical_formula_structural   Tm12Tc3AgHg
_chemical_formula_sum   'Tm12 Tc3 Ag1 Hg1'
_cell_volume   440.47928024
_cell_formula_units_Z   1
loop_
 _symmetry_equiv_pos_site_id
 _symmetry_equiv_pos_as_xyz
  1  'x, y, z'
loop_
 _atom_site_type_symbol
 _atom_site_label
 _atom_site_symmetry_multiplicity
 _atom_site_fract_x
 _atom_site_fract_y
 _atom_site_fract_z
 _atom_site_occupancy
  Tm  Tm0  1  0.184921  0.435892  0.250971  1
  Tm  Tm1  1  0.815079  0.564108  0.749029  1
  Tm  Tm2  1  0.184921  0.933951  0.749029  1
  Tm  Tm3  1  0.940625  0.182835  0.757788  1
  Tm  Tm4  1  0.815079  0.066049  0.250971  1
  Tm  Tm5  1  0.059375  0.817165  0.242212  1
  Tm  Tm6  1  0.425046  0.182835  0.242212  1
  Tm  Tm7  1  0.574954  0.817165  0.757788  1
  Tm  Tm8  1  0.321949  0.318969  0.640918  1
  Tm  Tm9  1  0.678051  0.681031  0.359082  1
  Tm  Tm10  1  0.678051  0.318969  0.997021  1
  Tm  Tm11  1  0.321949  0.681031  0.002979  1
  Tc  Tc12  1  0.336498  0.336498  0.000000  1
  Tc  Tc13  1  0.663502  0.663502  0.000000  1
  Tc  Tc14  1  0.000000  0.000000  0.000000  1
  Ag  Ag15  1  0.000000  0.500000  0.500000  1
  Hg  Hg16  1  0.500000  0.000000  0.500000  1
