# generated using pymatgen
data_LaHo2Ga4Pt7
_symmetry_space_group_name_H-M   'P 1'
_cell_length_a   8.34935987
_cell_length_b   8.34936051
_cell_length_c   9.46795200
_cell_angle_alpha   56.32550976
_cell_angle_beta   56.32550684
_cell_angle_gamma   28.99975558
_symmetry_Int_Tables_number   1
_chemical_formula_structural   LaHo2Ga4Pt7
_chemical_formula_sum   'La1 Ho2 Ga4 Pt7'
_cell_volume   262.30935685
_cell_formula_units_Z   1
loop_
 _symmetry_equiv_pos_site_id
 _symmetry_equiv_pos_as_xyz
  1  'x, y, z'
loop_
 _atom_site_type_symbol
 _atom_site_label
 _atom_site_symmetry_multiplicity
 _atom_site_fract_x
 _atom_site_fract_y
 _atom_site_fract_z
 _atom_site_occupancy
  La  La0  1  0.500000  0.500000  0.000000  1
  Ho  Ho1  1  0.829554  0.829554  0.679784  1
  Ho  Ho2  1  0.170446  0.170446  0.320216  1
  Ga  Ga3  1  0.632523  0.632523  0.593490  1
  Ga  Ga4  1  0.184125  0.184125  0.964768  1
  Ga  Ga5  1  0.815875  0.815875  0.035232  1
  Ga  Ga6  1  0.367477  0.367477  0.406510  1
  Pt  Pt7  1  0.808235  0.808235  0.308590  1
  Pt  Pt8  1  0.625391  0.625391  0.145000  1
  Pt  Pt9  1  0.500000  0.500000  0.500000  1
  Pt  Pt10  1  0.191765  0.191765  0.691410  1
  Pt  Pt11  1  0.986154  0.986154  0.296355  1
  Pt  Pt12  1  0.013846  0.013846  0.703645  1
  Pt  Pt13  1  0.374609  0.374609  0.855000  1
