# generated using pymatgen
data_PrNdBi2(Pt2O7)2
_symmetry_space_group_name_H-M   'P 1'
_cell_length_a   7.44967933
_cell_length_b   7.47308535
_cell_length_c   7.44967805
_cell_angle_alpha   59.90392203
_cell_angle_beta   59.84635939
_cell_angle_gamma   59.90392026
_symmetry_Int_Tables_number   1
_chemical_formula_structural   PrNdBi2(Pt2O7)2
_chemical_formula_sum   'Pr1 Nd1 Bi2 Pt4 O14'
_cell_volume   292.49769893
_cell_formula_units_Z   1
loop_
 _symmetry_equiv_pos_site_id
 _symmetry_equiv_pos_as_xyz
  1  'x, y, z'
loop_
 _atom_site_type_symbol
 _atom_site_label
 _atom_site_symmetry_multiplicity
 _atom_site_fract_x
 _atom_site_fract_y
 _atom_site_fract_z
 _atom_site_occupancy
  Pr  Pr0  1  0.125000  0.124999  0.125000  1
  Nd  Nd1  1  0.125000  0.625000  0.125000  1
  Bi  Bi2  1  0.125000  0.125000  0.625000  1
  Bi  Bi3  1  0.625000  0.125000  0.125000  1
  Pt  Pt4  1  0.625000  0.625000  0.125000  1
  Pt  Pt5  1  0.625000  0.125000  0.625000  1
  Pt  Pt6  1  0.125000  0.625000  0.625000  1
  Pt  Pt7  1  0.625000  0.625001  0.625000  1
  O  O8  1  0.250196  0.251581  0.250196  1
  O  O9  1  0.999803  0.998419  0.999803  1
  O  O10  1  0.542847  0.957162  0.542847  1
  O  O11  1  0.289514  0.709569  0.289514  1
  O  O12  1  0.539241  0.542737  0.959350  1
  O  O13  1  0.959350  0.542737  0.539241  1
  O  O14  1  0.540421  0.958344  0.959033  1
  O  O15  1  0.959033  0.958344  0.540421  1
  O  O16  1  0.960486  0.540429  0.960486  1
  O  O17  1  0.709579  0.291655  0.290967  1
  O  O18  1  0.290650  0.707264  0.710760  1
  O  O19  1  0.707152  0.292840  0.707152  1
  O  O20  1  0.290967  0.291655  0.709579  1
  O  O21  1  0.710760  0.707264  0.290650  1
