# generated using pymatgen
data_Ba9Sb4S15
_symmetry_space_group_name_H-M   'P 1'
_cell_length_a   11.58240504
_cell_length_b   11.58240515
_cell_length_c   11.58240434
_cell_angle_alpha   114.80595881
_cell_angle_beta   114.80596089
_cell_angle_gamma   114.80595491
_symmetry_Int_Tables_number   1
_chemical_formula_structural   Ba9Sb4S15
_chemical_formula_sum   'Ba9 Sb4 S15'
_cell_volume   884.77605893
_cell_formula_units_Z   1
loop_
 _symmetry_equiv_pos_site_id
 _symmetry_equiv_pos_as_xyz
  1  'x, y, z'
loop_
 _atom_site_type_symbol
 _atom_site_label
 _atom_site_symmetry_multiplicity
 _atom_site_fract_x
 _atom_site_fract_y
 _atom_site_fract_z
 _atom_site_occupancy
  Ba  Ba0  1  0.582794  0.330396  0.582794  1
  Ba  Ba1  1  0.582794  0.582794  0.330396  1
  Ba  Ba2  1  0.330396  0.582794  0.582794  1
  Ba  Ba3  1  0.229159  0.757611  0.965114  1
  Ba  Ba4  1  0.965114  0.229159  0.757611  1
  Ba  Ba5  1  0.757611  0.965114  0.229159  1
  Ba  Ba6  1  0.229159  0.965114  0.757611  1
  Ba  Ba7  1  0.757611  0.229159  0.965114  1
  Ba  Ba8  1  0.965114  0.757611  0.229159  1
  Sb  Sb9  1  0.074168  0.074168  0.074168  1
  Sb  Sb10  1  0.394008  0.821723  0.394008  1
  Sb  Sb11  1  0.394008  0.394008  0.821723  1
  Sb  Sb12  1  0.821723  0.394008  0.394008  1
  S  S13  1  0.947014  0.512001  0.947014  1
  S  S14  1  0.947014  0.947014  0.512001  1
  S  S15  1  0.512001  0.947014  0.947014  1
  S  S16  1  0.156926  0.349777  0.156926  1
  S  S17  1  0.156926  0.156926  0.349777  1
  S  S18  1  0.349777  0.156926  0.156926  1
  S  S19  1  0.638491  0.886215  0.638491  1
  S  S20  1  0.638491  0.638491  0.886215  1
  S  S21  1  0.886215  0.638491  0.638491  1
  S  S22  1  0.581399  0.030829  0.393563  1
  S  S23  1  0.393563  0.581399  0.030829  1
  S  S24  1  0.030829  0.393563  0.581399  1
  S  S25  1  0.581399  0.393563  0.030829  1
  S  S26  1  0.393563  0.030829  0.581399  1
  S  S27  1  0.030829  0.581399  0.393563  1
