# generated using pymatgen
data_Ho3Lu4Co3Sn23Ru3
_symmetry_space_group_name_H-M   'P 1'
_cell_length_a   9.74219800
_cell_length_b   9.74219754
_cell_length_c   9.98758800
_cell_angle_alpha   90.00000000
_cell_angle_beta   90.00000000
_cell_angle_gamma   119.99999478
_symmetry_Int_Tables_number   1
_chemical_formula_structural   Ho3Lu4Co3Sn23Ru3
_chemical_formula_sum   'Ho3 Lu4 Co3 Sn23 Ru3'
_cell_volume   820.92816615
_cell_formula_units_Z   1
loop_
 _symmetry_equiv_pos_site_id
 _symmetry_equiv_pos_as_xyz
  1  'x, y, z'
loop_
 _atom_site_type_symbol
 _atom_site_label
 _atom_site_symmetry_multiplicity
 _atom_site_fract_x
 _atom_site_fract_y
 _atom_site_fract_z
 _atom_site_occupancy
  Ho  Ho0  1  0.038402  0.519201  0.306544  1
  Ho  Ho1  1  0.480799  0.961598  0.306544  1
  Ho  Ho2  1  0.480799  0.519201  0.306544  1
  Lu  Lu3  1  0.000000  0.000000  0.980084  1
  Lu  Lu4  1  0.515841  0.484159  0.696711  1
  Lu  Lu5  1  0.515841  0.031682  0.696711  1
  Lu  Lu6  1  0.968318  0.484159  0.696711  1
  Co  Co7  1  0.339021  0.169511  0.200961  1
  Co  Co8  1  0.830489  0.660979  0.200961  1
  Co  Co9  1  0.830489  0.169511  0.200961  1
  Sn  Sn10  1  0.666667  0.333333  0.183455  1
  Sn  Sn11  1  0.666667  0.333333  0.875261  1
  Sn  Sn12  1  0.333333  0.666667  0.123525  1
  Sn  Sn13  1  0.349733  0.345410  0.005054  1
  Sn  Sn14  1  0.995676  0.650267  0.005054  1
  Sn  Sn15  1  0.654590  0.004324  0.005054  1
  Sn  Sn16  1  0.654590  0.650267  0.005054  1
  Sn  Sn17  1  0.333333  0.666667  0.821561  1
  Sn  Sn18  1  0.437895  0.218948  0.454907  1
  Sn  Sn19  1  0.221006  0.778994  0.542783  1
  Sn  Sn20  1  0.221006  0.442010  0.542783  1
  Sn  Sn21  1  0.557990  0.778994  0.542783  1
  Sn  Sn22  1  0.116642  0.883358  0.270682  1
  Sn  Sn23  1  0.781052  0.562105  0.454907  1
  Sn  Sn24  1  0.781052  0.218948  0.454907  1
  Sn  Sn25  1  0.349733  0.004324  0.005054  1
  Sn  Sn26  1  0.116642  0.233285  0.270682  1
  Sn  Sn27  1  0.766715  0.883358  0.270682  1
  Sn  Sn28  1  0.239376  0.119688  0.721379  1
  Sn  Sn29  1  0.880312  0.760624  0.721379  1
  Sn  Sn30  1  0.880312  0.119688  0.721379  1
  Sn  Sn31  1  0.000000  0.000000  0.495154  1
  Sn  Sn32  1  0.995676  0.345410  0.005054  1
  Ru  Ru33  1  0.168126  0.831874  0.802911  1
  Ru  Ru34  1  0.168126  0.336253  0.802911  1
  Ru  Ru35  1  0.663747  0.831874  0.802911  1
