# generated using pymatgen
data_Lu12Mn2Ga2Os
_symmetry_space_group_name_H-M   'P 1'
_cell_length_a   8.10082781
_cell_length_b   8.10082724
_cell_length_c   8.10082700
_cell_angle_alpha   108.96852278
_cell_angle_beta   108.96852139
_cell_angle_gamma   110.48136031
_symmetry_Int_Tables_number   1
_chemical_formula_structural   Lu12Mn2Ga2Os
_chemical_formula_sum   'Lu12 Mn2 Ga2 Os1'
_cell_volume   409.13327449
_cell_formula_units_Z   1
loop_
 _symmetry_equiv_pos_site_id
 _symmetry_equiv_pos_as_xyz
  1  'x, y, z'
loop_
 _atom_site_type_symbol
 _atom_site_label
 _atom_site_symmetry_multiplicity
 _atom_site_fract_x
 _atom_site_fract_y
 _atom_site_fract_z
 _atom_site_occupancy
  Lu  Lu0  1  0.307354  0.307354  0.614711  1
  Lu  Lu1  1  0.692646  0.692646  0.385289  1
  Lu  Lu2  1  0.692646  0.307354  0.000000  1
  Lu  Lu3  1  0.307354  0.692646  0.000000  1
  Lu  Lu4  1  0.189544  0.432949  0.243405  1
  Lu  Lu5  1  0.810456  0.567051  0.756595  1
  Lu  Lu6  1  0.189544  0.946137  0.756595  1
  Lu  Lu7  1  0.946137  0.189544  0.756595  1
  Lu  Lu8  1  0.810456  0.053863  0.243405  1
  Lu  Lu9  1  0.053863  0.810456  0.243405  1
  Lu  Lu10  1  0.432949  0.189544  0.243405  1
  Lu  Lu11  1  0.567051  0.810456  0.756595  1
  Mn  Mn12  1  0.383274  0.383274  0.000000  1
  Mn  Mn13  1  0.616726  0.616726  0.000000  1
  Ga  Ga14  1  0.000000  0.500000  0.500000  1
  Ga  Ga15  1  0.500000  0.000000  0.500000  1
  Os  Os16  1  0.000000  0.000000  0.000000  1
