# generated using pymatgen
data_Nd3CdInAu4
_symmetry_space_group_name_H-M   'P 1'
_cell_length_a   3.89947500
_cell_length_b   8.13833486
_cell_length_c   8.00502610
_cell_angle_alpha   120.67603873
_cell_angle_beta   90.00000000
_cell_angle_gamma   90.00000000
_symmetry_Int_Tables_number   1
_chemical_formula_structural   Nd3CdInAu4
_chemical_formula_sum   'Nd3 Cd1 In1 Au4'
_cell_volume   218.49227129
_cell_formula_units_Z   1
loop_
 _symmetry_equiv_pos_site_id
 _symmetry_equiv_pos_as_xyz
  1  'x, y, z'
loop_
 _atom_site_type_symbol
 _atom_site_label
 _atom_site_symmetry_multiplicity
 _atom_site_fract_x
 _atom_site_fract_y
 _atom_site_fract_z
 _atom_site_occupancy
  Nd  Nd0  1  0.000000  0.417068  0.998907  1
  Nd  Nd1  1  0.000000  0.607190  0.623904  1
  Nd  Nd2  1  0.000000  0.981711  0.378461  1
  Cd  Cd3  1  0.500000  0.006473  0.735332  1
  In  In4  1  0.500000  0.268306  0.262793  1
  Au  Au5  1  0.500000  0.665209  0.344794  1
  Au  Au6  1  0.500000  0.320780  0.654109  1
  Au  Au7  1  0.000000  0.010133  0.001098  1
  Au  Au8  1  0.500000  0.723229  0.000602  1
