# generated using pymatgen
data_SmEr(PdO2)4
_symmetry_space_group_name_H-M   'P 1'
_cell_length_a   6.53575175
_cell_length_b   6.53562768
_cell_length_c   6.52637016
_cell_angle_alpha   126.97838744
_cell_angle_beta   126.83309432
_cell_angle_gamma   78.50026809
_symmetry_Int_Tables_number   1
_chemical_formula_structural   SmEr(PdO2)4
_chemical_formula_sum   'Sm1 Er1 Pd4 O8'
_cell_volume   172.48802524
_cell_formula_units_Z   1
loop_
 _symmetry_equiv_pos_site_id
 _symmetry_equiv_pos_as_xyz
  1  'x, y, z'
loop_
 _atom_site_type_symbol
 _atom_site_label
 _atom_site_symmetry_multiplicity
 _atom_site_fract_x
 _atom_site_fract_y
 _atom_site_fract_z
 _atom_site_occupancy
  Sm  Sm0  1  0.250039  0.750035  0.499999  1
  Er  Er1  1  0.499937  0.499945  0.000014  1
  Pd  Pd2  1  0.872995  0.128246  0.751785  1
  Pd  Pd3  1  0.871849  0.623501  0.744807  1
  Pd  Pd4  1  0.878694  0.127065  0.255210  1
  Pd  Pd5  1  0.376454  0.121202  0.248200  1
  O  O6  1  0.493268  0.451920  0.338639  1
  O  O7  1  0.215121  0.359370  0.471838  1
  O  O8  1  0.887494  0.743287  0.528160  1
  O  O9  1  0.113263  0.154624  0.661343  1
  O  O10  1  0.256689  0.784776  0.144282  1
  O  O11  1  0.548165  0.886739  0.041257  1
  O  O12  1  0.640504  0.112397  0.855724  1
  O  O13  1  0.845528  0.506893  0.958743  1
