# generated using pymatgen
data_La3PrSc2(MoO6)2
_symmetry_space_group_name_H-M   'P 1'
_cell_length_a   5.68973946
_cell_length_b   5.90226143
_cell_length_c   8.16207210
_cell_angle_alpha   90.04380210
_cell_angle_beta   89.93884276
_cell_angle_gamma   90.00278342
_symmetry_Int_Tables_number   1
_chemical_formula_structural   La3PrSc2(MoO6)2
_chemical_formula_sum   'La3 Pr1 Sc2 Mo2 O12'
_cell_volume   274.10116030
_cell_formula_units_Z   1
loop_
 _symmetry_equiv_pos_site_id
 _symmetry_equiv_pos_as_xyz
  1  'x, y, z'
loop_
 _atom_site_type_symbol
 _atom_site_label
 _atom_site_symmetry_multiplicity
 _atom_site_fract_x
 _atom_site_fract_y
 _atom_site_fract_z
 _atom_site_occupancy
  La  La0  1  0.985328  0.053962  0.750054  1
  La  La1  1  0.514885  0.554039  0.750012  1
  La  La2  1  0.485268  0.445829  0.249995  1
  Pr  Pr3  1  0.015694  0.944287  0.250081  1
  Sc  Sc4  1  0.500038  0.000040  0.499532  1
  Sc  Sc5  1  0.999827  0.499968  0.000462  1
  Mo  Mo6  1  0.999861  0.499638  0.499918  1
  Mo  Mo7  1  0.500110  0.000148  0.000148  1
  O  O8  1  0.695200  0.295913  0.557501  1
  O  O9  1  0.892842  0.542178  0.247413  1
  O  O10  1  0.804703  0.796024  0.943043  1
  O  O11  1  0.107794  0.459772  0.752889  1
  O  O12  1  0.297026  0.699159  0.056607  1
  O  O13  1  0.200673  0.196691  0.443278  1
  O  O14  1  0.798659  0.802179  0.555222  1
  O  O15  1  0.392644  0.959748  0.747110  1
  O  O16  1  0.302942  0.705204  0.441506  1
  O  O17  1  0.194404  0.202845  0.058425  1
  O  O18  1  0.701452  0.302311  0.944216  1
  O  O19  1  0.610652  0.040065  0.252586  1
