# generated using pymatgen
data_Nd15Th(CdNi)4
_symmetry_space_group_name_H-M   'P 1'
_cell_length_a   9.87942462
_cell_length_b   9.87942462
_cell_length_c   9.87942417
_cell_angle_alpha   59.90422381
_cell_angle_beta   59.90422451
_cell_angle_gamma   59.90422271
_symmetry_Int_Tables_number   1
_chemical_formula_structural   Nd15Th(CdNi)4
_chemical_formula_sum   'Nd15 Th1 Cd4 Ni4'
_cell_volume   680.35452768
_cell_formula_units_Z   1
loop_
 _symmetry_equiv_pos_site_id
 _symmetry_equiv_pos_as_xyz
  1  'x, y, z'
loop_
 _atom_site_type_symbol
 _atom_site_label
 _atom_site_symmetry_multiplicity
 _atom_site_fract_x
 _atom_site_fract_y
 _atom_site_fract_z
 _atom_site_occupancy
  Nd  Nd0  1  0.597201  0.597201  0.205127  1
  Nd  Nd1  1  0.597201  0.205127  0.597201  1
  Nd  Nd2  1  0.205127  0.597201  0.597201  1
  Nd  Nd3  1  0.058608  0.441827  0.441827  1
  Nd  Nd4  1  0.441386  0.059504  0.059504  1
  Nd  Nd5  1  0.441827  0.058608  0.441827  1
  Nd  Nd6  1  0.059504  0.441386  0.059504  1
  Nd  Nd7  1  0.441827  0.441827  0.058608  1
  Nd  Nd8  1  0.059504  0.059504  0.441386  1
  Nd  Nd9  1  0.192492  0.812757  0.812757  1
  Nd  Nd10  1  0.812091  0.185864  0.185864  1
  Nd  Nd11  1  0.812757  0.192492  0.812757  1
  Nd  Nd12  1  0.185864  0.812091  0.185864  1
  Nd  Nd13  1  0.812757  0.812757  0.192492  1
  Nd  Nd14  1  0.185864  0.185864  0.812091  1
  Th  Th15  1  0.593236  0.593236  0.593236  1
  Cd  Cd16  1  0.829647  0.829647  0.829647  1
  Cd  Cd17  1  0.829502  0.829502  0.510096  1
  Cd  Cd18  1  0.829502  0.510096  0.829502  1
  Cd  Cd19  1  0.510096  0.829502  0.829502  1
  Ni  Ni20  1  0.392131  0.392131  0.392131  1
  Ni  Ni21  1  0.396917  0.396917  0.818042  1
  Ni  Ni22  1  0.396917  0.818042  0.396917  1
  Ni  Ni23  1  0.818042  0.396917  0.396917  1
