# generated using pymatgen
data_Sm8Y8Sc4Si15Pt
_symmetry_space_group_name_H-M   'P 1'
_cell_length_a   7.30809600
_cell_length_b   7.77915164
_cell_length_c   14.57349100
_cell_angle_alpha   90.00000000
_cell_angle_beta   90.00000000
_cell_angle_gamma   90.04579442
_symmetry_Int_Tables_number   1
_chemical_formula_structural   Sm8Y8Sc4Si15Pt
_chemical_formula_sum   'Sm8 Y8 Sc4 Si15 Pt1'
_cell_volume   828.51416780
_cell_formula_units_Z   1
loop_
 _symmetry_equiv_pos_site_id
 _symmetry_equiv_pos_as_xyz
  1  'x, y, z'
loop_
 _atom_site_type_symbol
 _atom_site_label
 _atom_site_symmetry_multiplicity
 _atom_site_fract_x
 _atom_site_fract_y
 _atom_site_fract_z
 _atom_site_occupancy
  Sm  Sm0  1  0.017907  0.182941  0.097188  1
  Sm  Sm1  1  0.984121  0.818749  0.903493  1
  Sm  Sm2  1  0.483196  0.681158  0.904579  1
  Sm  Sm3  1  0.984121  0.818749  0.596507  1
  Sm  Sm4  1  0.517993  0.318757  0.097243  1
  Sm  Sm5  1  0.017907  0.182941  0.402812  1
  Sm  Sm6  1  0.517993  0.318757  0.402757  1
  Sm  Sm7  1  0.483196  0.681158  0.595421  1
  Y  Y8  1  0.316026  0.174170  0.626779  1
  Y  Y9  1  0.678293  0.824596  0.373466  1
  Y  Y10  1  0.177464  0.679279  0.373960  1
  Y  Y11  1  0.678293  0.824596  0.126534  1
  Y  Y12  1  0.825091  0.320824  0.626711  1
  Y  Y13  1  0.316026  0.174170  0.873221  1
  Y  Y14  1  0.825091  0.320824  0.873289  1
  Y  Y15  1  0.177464  0.679279  0.126040  1
  Sc  Sc16  1  0.156680  0.520023  0.750000  1
  Sc  Sc17  1  0.842068  0.484877  0.250000  1
  Sc  Sc18  1  0.342990  0.016453  0.250000  1
  Sc  Sc19  1  0.661689  0.984452  0.750000  1
  Si  Si20  1  0.980478  0.904084  0.250000  1
  Si  Si21  1  0.479513  0.597310  0.250000  1
  Si  Si22  1  0.519316  0.403644  0.750000  1
  Si  Si23  1  0.284681  0.864118  0.750000  1
  Si  Si24  1  0.719087  0.133205  0.250000  1
  Si  Si25  1  0.219157  0.367993  0.250000  1
  Si  Si26  1  0.774315  0.628131  0.750000  1
  Si  Si27  1  0.152382  0.471298  0.538830  1
  Si  Si28  1  0.848703  0.530713  0.460338  1
  Si  Si29  1  0.350559  0.970496  0.460101  1
  Si  Si30  1  0.848703  0.530713  0.039662  1
  Si  Si31  1  0.651311  0.029988  0.539617  1
  Si  Si32  1  0.152382  0.471298  0.961170  1
  Si  Si33  1  0.651311  0.029988  0.960383  1
  Si  Si34  1  0.350559  0.970496  0.039899  1
  Pt  Pt35  1  0.013938  0.089773  0.750000  1
