# generated using pymatgen
data_LiCe3In3IrPt
_symmetry_space_group_name_H-M   'P 1'
_cell_length_a   7.79596800
_cell_length_b   7.79596808
_cell_length_c   3.88306000
_cell_angle_alpha   90.00000000
_cell_angle_beta   90.00000000
_cell_angle_gamma   119.99999119
_symmetry_Int_Tables_number   1
_chemical_formula_structural   LiCe3In3IrPt
_chemical_formula_sum   'Li1 Ce3 In3 Ir1 Pt1'
_cell_volume   204.38304786
_cell_formula_units_Z   1
loop_
 _symmetry_equiv_pos_site_id
 _symmetry_equiv_pos_as_xyz
  1  'x, y, z'
loop_
 _atom_site_type_symbol
 _atom_site_label
 _atom_site_symmetry_multiplicity
 _atom_site_fract_x
 _atom_site_fract_y
 _atom_site_fract_z
 _atom_site_occupancy
  Li  Li0  1  0.000000  0.000000  0.000000  1
  Ce  Ce1  1  0.423914  0.416226  0.000000  1
  Ce  Ce2  1  0.583774  0.007688  0.000000  1
  Ce  Ce3  1  0.992312  0.576086  0.000000  1
  In  In4  1  0.999454  0.247845  0.500000  1
  In  In5  1  0.752155  0.751608  0.500000  1
  In  In6  1  0.248392  0.000546  0.500000  1
  Ir  Ir7  1  0.666667  0.333333  0.500000  1
  Pt  Pt8  1  0.333333  0.666667  0.500000  1
