# generated using pymatgen
data_Dy2TmZn3RuAu2
_symmetry_space_group_name_H-M   'P 1'
_cell_length_a   7.42540676
_cell_length_b   7.41926824
_cell_length_c   3.83471300
_cell_angle_alpha   90.00000000
_cell_angle_beta   90.00000000
_cell_angle_gamma   120.07928142
_symmetry_Int_Tables_number   1
_chemical_formula_structural   Dy2TmZn3RuAu2
_chemical_formula_sum   'Dy2 Tm1 Zn3 Ru1 Au2'
_cell_volume   182.80888958
_cell_formula_units_Z   1
loop_
 _symmetry_equiv_pos_site_id
 _symmetry_equiv_pos_as_xyz
  1  'x, y, z'
loop_
 _atom_site_type_symbol
 _atom_site_label
 _atom_site_symmetry_multiplicity
 _atom_site_fract_x
 _atom_site_fract_y
 _atom_site_fract_z
 _atom_site_occupancy
  Dy  Dy0  1  0.022682  0.603878  0.000000  1
  Dy  Dy1  1  0.396345  0.418961  0.000000  1
  Tm  Tm2  1  0.581658  0.976670  0.000000  1
  Zn  Zn3  1  0.258885  0.987387  0.500000  1
  Zn  Zn4  1  0.012111  0.270264  0.500000  1
  Zn  Zn5  1  0.729074  0.742670  0.500000  1
  Ru  Ru6  1  0.334780  0.668654  0.500000  1
  Au  Au7  1  0.666112  0.331423  0.500000  1
  Au  Au8  1  0.998352  0.000091  0.000000  1
