# generated using pymatgen
data_Hf16Co2Ni2Mo3Au
_symmetry_space_group_name_H-M   'P 1'
_cell_length_a   8.71288477
_cell_length_b   8.71288521
_cell_length_c   8.70530730
_cell_angle_alpha   59.78311659
_cell_angle_beta   59.78309956
_cell_angle_gamma   59.92058010
_symmetry_Int_Tables_number   1
_chemical_formula_structural   Hf16Co2Ni2Mo3Au
_chemical_formula_sum   'Hf16 Co2 Ni2 Mo3 Au1'
_cell_volume   465.48091695
_cell_formula_units_Z   1
loop_
 _symmetry_equiv_pos_site_id
 _symmetry_equiv_pos_as_xyz
  1  'x, y, z'
loop_
 _atom_site_type_symbol
 _atom_site_label
 _atom_site_symmetry_multiplicity
 _atom_site_fract_x
 _atom_site_fract_y
 _atom_site_fract_z
 _atom_site_occupancy
  Hf  Hf0  1  0.695782  0.102854  0.099109  1
  Hf  Hf1  1  0.102854  0.695782  0.099109  1
  Hf  Hf2  1  0.099758  0.099758  0.700548  1
  Hf  Hf3  1  0.101842  0.101842  0.099254  1
  Hf  Hf4  1  0.315492  0.315492  0.691726  1
  Hf  Hf5  1  0.686071  0.686071  0.315073  1
  Hf  Hf6  1  0.315659  0.692810  0.315178  1
  Hf  Hf7  1  0.685124  0.315972  0.685098  1
  Hf  Hf8  1  0.692810  0.315659  0.315178  1
  Hf  Hf9  1  0.315972  0.685124  0.685098  1
  Hf  Hf10  1  0.955955  0.955955  0.543019  1
  Hf  Hf11  1  0.555262  0.555262  0.942014  1
  Hf  Hf12  1  0.953483  0.542495  0.953008  1
  Hf  Hf13  1  0.549613  0.944417  0.556102  1
  Hf  Hf14  1  0.542495  0.953483  0.953008  1
  Hf  Hf15  1  0.944417  0.549613  0.556102  1
  Co  Co16  1  0.325560  0.889232  0.890291  1
  Co  Co17  1  0.889232  0.325560  0.890291  1
  Ni  Ni18  1  0.890050  0.890050  0.326091  1
  Ni  Ni19  1  0.889439  0.889439  0.891666  1
  Mo  Mo20  1  0.996449  0.332576  0.332063  1
  Mo  Mo21  1  0.332576  0.996449  0.332063  1
  Mo  Mo22  1  0.331730  0.331730  0.996817  1
  Au  Au23  1  0.332374  0.332374  0.332087  1
