# generated using pymatgen
data_Sm2AsPt8
_symmetry_space_group_name_H-M   'P 1'
_cell_length_a   9.21763784
_cell_length_b   9.21763741
_cell_length_c   4.32394300
_cell_angle_alpha   90.00000000
_cell_angle_beta   90.00000000
_cell_angle_gamma   145.29213163
_symmetry_Int_Tables_number   1
_chemical_formula_structural   Sm2AsPt8
_chemical_formula_sum   'Sm2 As1 Pt8'
_cell_volume   209.18517593
_cell_formula_units_Z   1
loop_
 _symmetry_equiv_pos_site_id
 _symmetry_equiv_pos_as_xyz
  1  'x, y, z'
loop_
 _atom_site_type_symbol
 _atom_site_label
 _atom_site_symmetry_multiplicity
 _atom_site_fract_x
 _atom_site_fract_y
 _atom_site_fract_z
 _atom_site_occupancy
  Sm  Sm0  1  0.628321  0.377418  0.500000  1
  Sm  Sm1  1  0.377418  0.628321  0.500000  1
  As  As2  1  0.232244  0.232244  0.000000  1
  Pt  Pt3  1  0.103869  0.877402  0.000000  1
  Pt  Pt4  1  0.877402  0.103869  0.000000  1
  Pt  Pt5  1  0.487373  0.983685  0.000000  1
  Pt  Pt6  1  0.983685  0.487373  0.000000  1
  Pt  Pt7  1  0.195563  0.790009  0.500000  1
  Pt  Pt8  1  0.790009  0.195563  0.500000  1
  Pt  Pt9  1  0.986733  0.986733  0.500000  1
  Pt  Pt10  1  0.650980  0.650980  0.000000  1
