# generated using pymatgen
data_Ho16In6CoNi
_symmetry_space_group_name_H-M   'P 1'
_cell_length_a   10.37643200
_cell_length_b   10.37644000
_cell_length_c   6.95726500
_cell_angle_alpha   89.99943720
_cell_angle_beta   89.99969687
_cell_angle_gamma   119.99984140
_symmetry_Int_Tables_number   1
_chemical_formula_structural   Ho16In6CoNi
_chemical_formula_sum   'Ho16 In6 Co1 Ni1'
_cell_volume   648.73345504
_cell_formula_units_Z   1
loop_
 _symmetry_equiv_pos_site_id
 _symmetry_equiv_pos_as_xyz
  1  'x, y, z'
loop_
 _atom_site_type_symbol
 _atom_site_label
 _atom_site_symmetry_multiplicity
 _atom_site_fract_x
 _atom_site_fract_y
 _atom_site_fract_z
 _atom_site_occupancy
  Ho  Ho0  1  0.532610  0.065313  0.506615  1
  Ho  Ho1  1  0.934641  0.467308  0.506438  1
  Ho  Ho2  1  0.532606  0.467279  0.506566  1
  Ho  Ho3  1  0.465010  0.929934  0.005765  1
  Ho  Ho4  1  0.070129  0.535077  0.005671  1
  Ho  Ho5  1  0.465015  0.535092  0.005736  1
  Ho  Ho6  1  0.178513  0.357062  0.713833  1
  Ho  Ho7  1  0.642881  0.821436  0.713779  1
  Ho  Ho8  1  0.178513  0.821439  0.713817  1
  Ho  Ho9  1  0.822547  0.645054  0.212122  1
  Ho  Ho10  1  0.355000  0.177509  0.212049  1
  Ho  Ho11  1  0.822546  0.177507  0.212105  1
  Ho  Ho12  1  0.666705  0.333364  0.890417  1
  Ho  Ho13  1  0.333306  0.666651  0.395923  1
  Ho  Ho14  1  0.999894  0.999919  0.491164  1
  Ho  Ho15  1  0.000022  0.000014  0.991443  1
  In  In16  1  0.837361  0.674656  0.751457  1
  In  In17  1  0.325182  0.162606  0.751459  1
  In  In18  1  0.837392  0.162682  0.751468  1
  In  In19  1  0.162606  0.325271  0.253467  1
  In  In20  1  0.674897  0.837435  0.253276  1
  In  In21  1  0.162581  0.837368  0.253351  1
  Co  Co22  1  0.333394  0.666711  0.781803  1
  Ni  Ni23  1  0.666646  0.333310  0.278319  1
