# generated using pymatgen
data_Hf12Pa8Si15Os
_symmetry_space_group_name_H-M   'P 1'
_cell_length_a   7.25558512
_cell_length_b   7.25143449
_cell_length_c   13.32868900
_cell_angle_alpha   89.85223757
_cell_angle_beta   89.86844738
_cell_angle_gamma   90.03500317
_symmetry_Int_Tables_number   1
_chemical_formula_structural   Hf12Pa8Si15Os
_chemical_formula_sum   'Hf12 Pa8 Si15 Os1'
_cell_volume   701.26333523
_cell_formula_units_Z   1
loop_
 _symmetry_equiv_pos_site_id
 _symmetry_equiv_pos_as_xyz
  1  'x, y, z'
loop_
 _atom_site_type_symbol
 _atom_site_label
 _atom_site_symmetry_multiplicity
 _atom_site_fract_x
 _atom_site_fract_y
 _atom_site_fract_z
 _atom_site_occupancy
  Hf  Hf0  1  0.170683  0.173185  0.998500  1
  Hf  Hf1  1  0.826852  0.826617  0.500358  1
  Hf  Hf2  1  0.330600  0.678736  0.248930  1
  Hf  Hf3  1  0.672418  0.327201  0.750156  1
  Hf  Hf4  1  0.155299  0.000596  0.377267  1
  Hf  Hf5  1  0.847552  0.999347  0.874951  1
  Hf  Hf6  1  0.499844  0.650229  0.625839  1
  Hf  Hf7  1  0.348684  0.501312  0.873685  1
  Hf  Hf8  1  0.497984  0.350570  0.124313  1
  Hf  Hf9  1  0.648763  0.497039  0.376611  1
  Hf  Hf10  1  0.002345  0.149823  0.625846  1
  Hf  Hf11  1  0.997890  0.849074  0.123368  1
  Pa  Pa12  1  0.006426  0.341761  0.218395  1
  Pa  Pa13  1  0.004600  0.657118  0.714983  1
  Pa  Pa14  1  0.166174  0.489219  0.462725  1
  Pa  Pa15  1  0.504200  0.840089  0.032311  1
  Pa  Pa16  1  0.839419  0.504293  0.966389  1
  Pa  Pa17  1  0.494678  0.158636  0.535641  1
  Pa  Pa18  1  0.342972  0.996106  0.784147  1
  Pa  Pa19  1  0.650720  0.009092  0.283751  1
  Si  Si20  1  0.637035  0.705807  0.817857  1
  Si  Si21  1  0.206374  0.862694  0.568200  1
  Si  Si22  1  0.134547  0.794490  0.931065  1
  Si  Si23  1  0.794387  0.137726  0.069017  1
  Si  Si24  1  0.862273  0.202158  0.434587  1
  Si  Si25  1  0.293624  0.364346  0.682114  1
  Si  Si26  1  0.706279  0.638456  0.182976  1
  Si  Si27  1  0.294471  0.043137  0.182273  1
  Si  Si28  1  0.705704  0.953359  0.685166  1
  Si  Si29  1  0.455782  0.795968  0.437427  1
  Si  Si30  1  0.204227  0.547803  0.063131  1
  Si  Si31  1  0.545259  0.205867  0.934879  1
  Si  Si32  1  0.796827  0.453293  0.565295  1
  Si  Si33  1  0.044906  0.296270  0.814739  1
  Si  Si34  1  0.952221  0.706131  0.314591  1
  Os  Os35  1  0.357982  0.292449  0.318515  1
