# generated using pymatgen
data_La3MgSb3PbO14
_symmetry_space_group_name_H-M   'P 1'
_cell_length_a   7.53050074
_cell_length_b   7.53173980
_cell_length_c   7.53178917
_cell_angle_alpha   118.75645893
_cell_angle_beta   61.23914835
_cell_angle_gamma   118.75998711
_symmetry_Int_Tables_number   1
_chemical_formula_structural   La3MgSb3PbO14
_chemical_formula_sum   'La3 Mg1 Sb3 Pb1 O14'
_cell_volume   310.49555478
_cell_formula_units_Z   1
loop_
 _symmetry_equiv_pos_site_id
 _symmetry_equiv_pos_as_xyz
  1  'x, y, z'
loop_
 _atom_site_type_symbol
 _atom_site_label
 _atom_site_symmetry_multiplicity
 _atom_site_fract_x
 _atom_site_fract_y
 _atom_site_fract_z
 _atom_site_occupancy
  La  La0  1  0.999980  0.499992  0.999977  1
  La  La1  1  0.500076  0.999922  0.000101  1
  La  La2  1  0.499881  0.500135  0.499848  1
  Mg  Mg3  1  0.000033  0.999870  0.500049  1
  Sb  Sb4  1  0.500014  0.000056  0.500046  1
  Sb  Sb5  1  0.999998  0.500060  0.500029  1
  Sb  Sb6  1  0.000003  0.000037  0.000086  1
  Pb  Pb7  1  0.500038  0.499682  0.999654  1
  O  O8  1  0.631304  0.368449  0.131377  1
  O  O9  1  0.368647  0.631398  0.868309  1
  O  O10  1  0.072592  0.319783  0.180272  1
  O  O11  1  0.680284  0.927510  0.180342  1
  O  O12  1  0.680230  0.319798  0.572707  1
  O  O13  1  0.927449  0.680301  0.819796  1
  O  O14  1  0.319727  0.072600  0.819761  1
  O  O15  1  0.319734  0.680337  0.427522  1
  O  O16  1  0.658052  0.918938  0.581013  1
  O  O17  1  0.081055  0.342039  0.581111  1
  O  O18  1  0.081060  0.918923  0.158061  1
  O  O19  1  0.341982  0.081122  0.419029  1
  O  O20  1  0.918903  0.657970  0.418885  1
  O  O21  1  0.918960  0.081080  0.842023  1
