# generated using pymatgen
data_YHo3(FeOs)4
_symmetry_space_group_name_H-M   'P 1'
_cell_length_a   5.27114880
_cell_length_b   5.26746090
_cell_length_c   9.06847228
_cell_angle_alpha   73.11647584
_cell_angle_beta   90.53614640
_cell_angle_gamma   119.97684009
_symmetry_Int_Tables_number   1
_chemical_formula_structural   YHo3(FeOs)4
_chemical_formula_sum   'Y1 Ho3 Fe4 Os4'
_cell_volume   205.88928656
_cell_formula_units_Z   1
loop_
 _symmetry_equiv_pos_site_id
 _symmetry_equiv_pos_as_xyz
  1  'x, y, z'
loop_
 _atom_site_type_symbol
 _atom_site_label
 _atom_site_symmetry_multiplicity
 _atom_site_fract_x
 _atom_site_fract_y
 _atom_site_fract_z
 _atom_site_occupancy
  Y  Y0  1  0.876833  0.751021  0.374789  1
  Ho  Ho1  1  0.377091  0.751299  0.874492  1
  Ho  Ho2  1  0.998049  0.998988  0.000074  1
  Ho  Ho3  1  0.497823  0.998547  0.500730  1
  Fe  Fe4  1  0.187432  0.374763  0.437907  1
  Fe  Fe5  1  0.687619  0.375197  0.937227  1
  Fe  Fe6  1  0.937864  0.375660  0.186543  1
  Fe  Fe7  1  0.436975  0.374296  0.688383  1
  Os  Os8  1  0.437595  0.375628  0.186626  1
  Os  Os9  1  0.937561  0.374444  0.688302  1
  Os  Os10  1  0.437595  0.875342  0.186626  1
  Os  Os11  1  0.937561  0.874814  0.688302  1
