# generated using pymatgen
data_TbErZr2(Al3Rh)6
_symmetry_space_group_name_H-M   'P 1'
_cell_length_a   7.51150328
_cell_length_b   7.49275084
_cell_length_c   9.34853900
_cell_angle_alpha   90.00000000
_cell_angle_beta   90.00000000
_cell_angle_gamma   119.66516119
_symmetry_Int_Tables_number   1
_chemical_formula_structural   TbErZr2(Al3Rh)6
_chemical_formula_sum   'Tb1 Er1 Zr2 Al18 Rh6'
_cell_volume   457.19134128
_cell_formula_units_Z   1
loop_
 _symmetry_equiv_pos_site_id
 _symmetry_equiv_pos_as_xyz
  1  'x, y, z'
loop_
 _atom_site_type_symbol
 _atom_site_label
 _atom_site_symmetry_multiplicity
 _atom_site_fract_x
 _atom_site_fract_y
 _atom_site_fract_z
 _atom_site_occupancy
  Tb  Tb0  1  0.670635  0.993818  0.750000  1
  Er  Er1  1  0.329017  0.006145  0.250000  1
  Zr  Zr2  1  0.994892  0.671211  0.750000  1
  Zr  Zr3  1  0.005282  0.328830  0.250000  1
  Al  Al4  1  0.125385  0.123454  0.750000  1
  Al  Al5  1  0.875345  0.876796  0.250000  1
  Al  Al6  1  0.999670  0.337665  0.574664  1
  Al  Al7  1  0.000868  0.662842  0.424759  1
  Al  Al8  1  0.000868  0.662842  0.075241  1
  Al  Al9  1  0.331821  0.998022  0.922049  1
  Al  Al10  1  0.999670  0.337665  0.925336  1
  Al  Al11  1  0.667658  0.001998  0.078974  1
  Al  Al12  1  0.667658  0.001998  0.421026  1
  Al  Al13  1  0.331821  0.998022  0.577951  1
  Al  Al14  1  0.330952  0.333251  0.055360  1
  Al  Al15  1  0.669095  0.666320  0.945253  1
  Al  Al16  1  0.669095  0.666320  0.554747  1
  Al  Al17  1  0.330952  0.333251  0.444640  1
  Al  Al18  1  0.333994  0.548679  0.750000  1
  Al  Al19  1  0.665433  0.450583  0.250000  1
  Al  Al20  1  0.555841  0.344118  0.750000  1
  Al  Al21  1  0.443869  0.656190  0.250000  1
  Rh  Rh22  1  0.672201  0.327492  0.499104  1
  Rh  Rh23  1  0.327531  0.672418  0.500475  1
  Rh  Rh24  1  0.327531  0.672418  0.999525  1
  Rh  Rh25  1  0.672201  0.327492  0.000896  1
  Rh  Rh26  1  0.000358  0.000081  0.499739  1
  Rh  Rh27  1  0.000358  0.000081  0.000261  1
