# generated using pymatgen
data_Tb3HoGa16(SiIr3)2
_symmetry_space_group_name_H-M   'P 1'
_cell_length_a   7.58614825
_cell_length_b   7.53977645
_cell_length_c   9.48215803
_cell_angle_alpha   89.98979429
_cell_angle_beta   89.80116591
_cell_angle_gamma   119.87389084
_symmetry_Int_Tables_number   1
_chemical_formula_structural   Tb3HoGa16(SiIr3)2
_chemical_formula_sum   'Tb3 Ho1 Ga16 Si2 Ir6'
_cell_volume   470.28858031
_cell_formula_units_Z   1
loop_
 _symmetry_equiv_pos_site_id
 _symmetry_equiv_pos_as_xyz
  1  'x, y, z'
loop_
 _atom_site_type_symbol
 _atom_site_label
 _atom_site_symmetry_multiplicity
 _atom_site_fract_x
 _atom_site_fract_y
 _atom_site_fract_z
 _atom_site_occupancy
  Tb  Tb0  1  0.003553  0.333578  0.752800  1
  Tb  Tb1  1  0.674321  0.002604  0.247906  1
  Tb  Tb2  1  0.325692  0.997377  0.752093  1
  Ho  Ho3  1  0.996436  0.666399  0.246942  1
  Ga  Ga4  1  0.130002  0.129133  0.250165  1
  Ga  Ga5  1  0.869926  0.870600  0.749836  1
  Ga  Ga6  1  0.999985  0.665004  0.577264  1
  Ga  Ga7  1  0.334451  0.998826  0.420188  1
  Ga  Ga8  1  0.000031  0.335302  0.422338  1
  Ga  Ga9  1  0.665264  0.000884  0.579605  1
  Ga  Ga10  1  0.660930  0.997465  0.917639  1
  Ga  Ga11  1  0.338769  0.002246  0.082554  1
  Ga  Ga12  1  0.332249  0.330963  0.566227  1
  Ga  Ga13  1  0.668010  0.669029  0.433543  1
  Ga  Ga14  1  0.662309  0.667560  0.069371  1
  Ga  Ga15  1  0.337931  0.332444  0.930838  1
  Ga  Ga16  1  0.338508  0.546424  0.250142  1
  Ga  Ga17  1  0.661361  0.453641  0.749866  1
  Ga  Ga18  1  0.548739  0.340200  0.249836  1
  Ga  Ga19  1  0.451557  0.660020  0.750174  1
  Si  Si20  1  0.001328  0.329861  0.073212  1
  Si  Si21  1  0.998671  0.670442  0.927300  1
  Ir  Ir22  1  0.696550  0.343069  0.001476  1
  Ir  Ir23  1  0.303462  0.657102  0.998848  1
  Ir  Ir24  1  0.328308  0.670974  0.500061  1
  Ir  Ir25  1  0.671703  0.329096  0.499767  1
  Ir  Ir26  1  0.999972  0.999837  0.000113  1
  Ir  Ir27  1  0.999980  0.999918  0.499897  1
