# generated using pymatgen
data_Gd11In9(CoNi)2
_symmetry_space_group_name_H-M   'P 1'
_cell_length_a   3.67203600
_cell_length_b   13.12185330
_cell_length_c   13.05646654
_cell_angle_alpha   111.35124287
_cell_angle_beta   90.00000000
_cell_angle_gamma   90.00000000
_symmetry_Int_Tables_number   1
_chemical_formula_structural   Gd11In9(CoNi)2
_chemical_formula_sum   'Gd11 In9 Co2 Ni2'
_cell_volume   585.93324318
_cell_formula_units_Z   1
loop_
 _symmetry_equiv_pos_site_id
 _symmetry_equiv_pos_as_xyz
  1  'x, y, z'
loop_
 _atom_site_type_symbol
 _atom_site_label
 _atom_site_symmetry_multiplicity
 _atom_site_fract_x
 _atom_site_fract_y
 _atom_site_fract_z
 _atom_site_occupancy
  Gd  Gd0  1  0.000000  0.913238  0.583058  1
  Gd  Gd1  1  0.000000  0.086762  0.416942  1
  Gd  Gd2  1  0.000000  0.582113  0.917840  1
  Gd  Gd3  1  0.000000  0.417887  0.082160  1
  Gd  Gd4  1  0.000000  0.156367  0.846650  1
  Gd  Gd5  1  0.000000  0.843633  0.153350  1
  Gd  Gd6  1  0.000000  0.377864  0.617947  1
  Gd  Gd7  1  0.000000  0.622136  0.382053  1
  Gd  Gd8  1  0.000000  0.684075  0.681615  1
  Gd  Gd9  1  0.000000  0.315925  0.318385  1
  Gd  Gd10  1  0.000000  0.000000  0.000000  1
  In  In11  1  0.500000  0.169102  0.635073  1
  In  In12  1  0.500000  0.830898  0.364927  1
  In  In13  1  0.500000  0.631559  0.164829  1
  In  In14  1  0.500000  0.368441  0.835171  1
  In  In15  1  0.500000  0.917694  0.784714  1
  In  In16  1  0.500000  0.082306  0.215286  1
  In  In17  1  0.500000  0.782944  0.919117  1
  In  In18  1  0.500000  0.217056  0.080883  1
  In  In19  1  0.500000  0.500000  0.500000  1
  Co  Co20  1  0.500000  0.749647  0.550327  1
  Co  Co21  1  0.500000  0.250353  0.449673  1
  Ni  Ni22  1  0.500000  0.550336  0.745473  1
  Ni  Ni23  1  0.500000  0.449664  0.254527  1
