# generated using pymatgen
data_MnNb6Al8Cu3
_symmetry_space_group_name_H-M   'P 1'
_cell_length_a   8.75927472
_cell_length_b   8.81712897
_cell_length_c   8.26753500
_cell_angle_alpha   90.00000000
_cell_angle_beta   90.00000000
_cell_angle_gamma   120.96081983
_symmetry_Int_Tables_number   1
_chemical_formula_structural   MnNb6Al8Cu3
_chemical_formula_sum   'Mn2 Nb12 Al16 Cu6'
_cell_volume   547.53928406
_cell_formula_units_Z   2
loop_
 _symmetry_equiv_pos_site_id
 _symmetry_equiv_pos_as_xyz
  1  'x, y, z'
loop_
 _atom_site_type_symbol
 _atom_site_label
 _atom_site_symmetry_multiplicity
 _atom_site_fract_x
 _atom_site_fract_y
 _atom_site_fract_z
 _atom_site_occupancy
  Mn  Mn0  1  0.000000  0.000000  0.500000  1
  Mn  Mn1  1  0.000000  0.000000  0.000000  1
  Nb  Nb2  1  0.325463  0.991890  0.063050  1
  Nb  Nb3  1  0.674537  0.008110  0.936950  1
  Nb  Nb4  1  0.997683  0.326590  0.065475  1
  Nb  Nb5  1  0.674537  0.008110  0.563050  1
  Nb  Nb6  1  0.997683  0.326590  0.434525  1
  Nb  Nb7  1  0.002317  0.673410  0.934525  1
  Nb  Nb8  1  0.325463  0.991890  0.436950  1
  Nb  Nb9  1  0.002317  0.673410  0.565475  1
  Nb  Nb10  1  0.670445  0.667073  0.062772  1
  Nb  Nb11  1  0.329555  0.332927  0.937228  1
  Nb  Nb12  1  0.329555  0.332927  0.562772  1
  Nb  Nb13  1  0.670445  0.667073  0.437228  1
  Al  Al14  1  0.345327  0.847441  0.750000  1
  Al  Al15  1  0.652274  0.503320  0.750000  1
  Al  Al16  1  0.654673  0.152559  0.250000  1
  Al  Al17  1  0.347726  0.496680  0.250000  1
  Al  Al18  1  0.844941  0.343637  0.750000  1
  Al  Al19  1  0.155059  0.656363  0.250000  1
  Al  Al20  1  0.339892  0.665128  0.505279  1
  Al  Al21  1  0.660108  0.334872  0.494721  1
  Al  Al22  1  0.660108  0.334872  0.005279  1
  Al  Al23  1  0.339892  0.665128  0.994721  1
  Al  Al24  1  0.180700  0.010810  0.750000  1
  Al  Al25  1  0.819300  0.989190  0.250000  1
  Al  Al26  1  0.010011  0.181551  0.750000  1
  Al  Al27  1  0.989989  0.818449  0.250000  1
  Al  Al28  1  0.823770  0.834175  0.750000  1
  Al  Al29  1  0.176230  0.165825  0.250000  1
  Cu  Cu30  1  0.167316  0.503177  0.750000  1
  Cu  Cu31  1  0.832684  0.496823  0.250000  1
  Cu  Cu32  1  0.503447  0.671144  0.750000  1
  Cu  Cu33  1  0.505591  0.170984  0.750000  1
  Cu  Cu34  1  0.496553  0.328856  0.250000  1
  Cu  Cu35  1  0.494409  0.829016  0.250000  1
