# generated using pymatgen
data_Nd2Ho7ErBi6
_symmetry_space_group_name_H-M   'P 1'
_cell_length_a   8.35020800
_cell_length_b   9.51109500
_cell_length_c   12.17520900
_cell_angle_alpha   90.00000000
_cell_angle_beta   90.00000000
_cell_angle_gamma   90.00000000
_symmetry_Int_Tables_number   1
_chemical_formula_structural   Nd2Ho7ErBi6
_chemical_formula_sum   'Nd4 Ho14 Er2 Bi12'
_cell_volume   966.95049117
_cell_formula_units_Z   2
loop_
 _symmetry_equiv_pos_site_id
 _symmetry_equiv_pos_as_xyz
  1  'x, y, z'
loop_
 _atom_site_type_symbol
 _atom_site_label
 _atom_site_symmetry_multiplicity
 _atom_site_fract_x
 _atom_site_fract_y
 _atom_site_fract_z
 _atom_site_occupancy
  Nd  Nd0  1  0.171503  0.750000  0.226143  1
  Nd  Nd1  1  0.328497  0.750000  0.726143  1
  Nd  Nd2  1  0.828482  0.250000  0.773838  1
  Nd  Nd3  1  0.671518  0.250000  0.273838  1
  Ho  Ho4  1  0.810283  0.563387  0.064592  1
  Ho  Ho5  1  0.689717  0.936613  0.564592  1
  Ho  Ho6  1  0.189578  0.063253  0.935394  1
  Ho  Ho7  1  0.310422  0.436747  0.435394  1
  Ho  Ho8  1  0.189578  0.436747  0.935394  1
  Ho  Ho9  1  0.310422  0.063253  0.435394  1
  Ho  Ho10  1  0.810283  0.936613  0.064592  1
  Ho  Ho11  1  0.689717  0.563387  0.564592  1
  Ho  Ho12  1  0.522952  0.250000  0.996165  1
  Ho  Ho13  1  0.977048  0.250000  0.496165  1
  Ho  Ho14  1  0.664524  0.750000  0.289188  1
  Ho  Ho15  1  0.835476  0.750000  0.789188  1
  Ho  Ho16  1  0.335429  0.250000  0.710790  1
  Ho  Ho17  1  0.164571  0.250000  0.210790  1
  Er  Er18  1  0.476973  0.750000  0.003807  1
  Er  Er19  1  0.023027  0.750000  0.503807  1
  Bi  Bi20  1  0.402350  0.750000  0.467194  1
  Bi  Bi21  1  0.097650  0.750000  0.967194  1
  Bi  Bi22  1  0.597117  0.250000  0.532878  1
  Bi  Bi23  1  0.902883  0.250000  0.032878  1
  Bi  Bi24  1  0.935433  0.507230  0.328198  1
  Bi  Bi25  1  0.564567  0.992770  0.828198  1
  Bi  Bi26  1  0.064746  0.006655  0.671814  1
  Bi  Bi27  1  0.435254  0.493345  0.171814  1
  Bi  Bi28  1  0.064746  0.493345  0.671814  1
  Bi  Bi29  1  0.435254  0.006655  0.171814  1
  Bi  Bi30  1  0.935433  0.992770  0.328198  1
  Bi  Bi31  1  0.564567  0.507230  0.828198  1
