# generated using pymatgen
data_Ho5Fe3(P3Ir4)4
_symmetry_space_group_name_H-M   'P 1'
_cell_length_a   12.56593200
_cell_length_b   12.56593308
_cell_length_c   3.92033500
_cell_angle_alpha   90.00000000
_cell_angle_beta   90.00000000
_cell_angle_gamma   120.00000243
_symmetry_Int_Tables_number   1
_chemical_formula_structural   Ho5Fe3(P3Ir4)4
_chemical_formula_sum   'Ho5 Fe3 P12 Ir16'
_cell_volume   536.09684159
_cell_formula_units_Z   1
loop_
 _symmetry_equiv_pos_site_id
 _symmetry_equiv_pos_as_xyz
  1  'x, y, z'
loop_
 _atom_site_type_symbol
 _atom_site_label
 _atom_site_symmetry_multiplicity
 _atom_site_fract_x
 _atom_site_fract_y
 _atom_site_fract_z
 _atom_site_occupancy
  Ho  Ho0  1  0.000000  0.181598  0.500000  1
  Ho  Ho1  1  0.818402  0.818402  0.500000  1
  Ho  Ho2  1  0.181598  0.000000  0.500000  1
  Ho  Ho3  1  0.666667  0.333333  0.000000  1
  Ho  Ho4  1  0.333333  0.666667  0.000000  1
  Fe  Fe5  1  0.000000  0.715044  0.500000  1
  Fe  Fe6  1  0.284956  0.284956  0.500000  1
  Fe  Fe7  1  0.715044  0.000000  0.500000  1
  P  P8  1  0.000000  0.817349  0.000000  1
  P  P9  1  0.182651  0.182651  0.000000  1
  P  P10  1  0.817349  0.000000  0.000000  1
  P  P11  1  0.686299  0.162061  0.500000  1
  P  P12  1  0.837939  0.524238  0.500000  1
  P  P13  1  0.475762  0.313701  0.500000  1
  P  P14  1  0.162061  0.686299  0.500000  1
  P  P15  1  0.524238  0.837939  0.500000  1
  P  P16  1  0.313701  0.475762  0.500000  1
  P  P17  1  0.000000  0.356505  0.000000  1
  P  P18  1  0.643495  0.643495  0.000000  1
  P  P19  1  0.356505  0.000000  0.000000  1
  Ir  Ir20  1  0.000000  0.540535  0.000000  1
  Ir  Ir21  1  0.459465  0.459465  0.000000  1
  Ir  Ir22  1  0.540535  0.000000  0.000000  1
  Ir  Ir23  1  0.803075  0.177757  0.000000  1
  Ir  Ir24  1  0.822243  0.625319  0.000000  1
  Ir  Ir25  1  0.374681  0.196925  0.000000  1
  Ir  Ir26  1  0.177757  0.803075  0.000000  1
  Ir  Ir27  1  0.625319  0.822243  0.000000  1
  Ir  Ir28  1  0.196925  0.374681  0.000000  1
  Ir  Ir29  1  0.867451  0.359436  0.500000  1
  Ir  Ir30  1  0.640564  0.508015  0.500000  1
  Ir  Ir31  1  0.491985  0.132549  0.500000  1
  Ir  Ir32  1  0.359436  0.867451  0.500000  1
  Ir  Ir33  1  0.508015  0.640564  0.500000  1
  Ir  Ir34  1  0.132549  0.491985  0.500000  1
  Ir  Ir35  1  0.000000  0.000000  0.000000  1
