# generated using pymatgen
data_Tm20Ir7Os3Rh2
_symmetry_space_group_name_H-M   'P 1'
_cell_length_a   10.71013204
_cell_length_b   10.70917104
_cell_length_c   6.34186301
_cell_angle_alpha   89.99651771
_cell_angle_beta   90.00428091
_cell_angle_gamma   89.99041301
_symmetry_Int_Tables_number   1
_chemical_formula_structural   Tm20Ir7Os3Rh2
_chemical_formula_sum   'Tm20 Ir7 Os3 Rh2'
_cell_volume   727.39033908
_cell_formula_units_Z   1
loop_
 _symmetry_equiv_pos_site_id
 _symmetry_equiv_pos_as_xyz
  1  'x, y, z'
loop_
 _atom_site_type_symbol
 _atom_site_label
 _atom_site_symmetry_multiplicity
 _atom_site_fract_x
 _atom_site_fract_y
 _atom_site_fract_z
 _atom_site_occupancy
  Tm  Tm0  1  0.293708  0.086024  0.376277  1
  Tm  Tm1  1  0.293794  0.914175  0.875920  1
  Tm  Tm2  1  0.705822  0.085436  0.875562  1
  Tm  Tm3  1  0.705796  0.912989  0.376422  1
  Tm  Tm4  1  0.585965  0.793678  0.876196  1
  Tm  Tm5  1  0.585160  0.206409  0.376462  1
  Tm  Tm6  1  0.413924  0.793827  0.376287  1
  Tm  Tm7  1  0.414105  0.206280  0.875964  1
  Tm  Tm8  1  0.208509  0.413344  0.626092  1
  Tm  Tm9  1  0.207714  0.586841  0.120332  1
  Tm  Tm10  1  0.792021  0.414135  0.120050  1
  Tm  Tm11  1  0.791513  0.586662  0.626279  1
  Tm  Tm12  1  0.913208  0.707873  0.120374  1
  Tm  Tm13  1  0.913766  0.291991  0.626880  1
  Tm  Tm14  1  0.086521  0.708467  0.626391  1
  Tm  Tm15  1  0.087807  0.292675  0.120216  1
  Tm  Tm16  1  0.000233  0.999806  0.500030  1
  Tm  Tm17  1  0.000175  0.999739  0.999955  1
  Tm  Tm18  1  0.500058  0.500083  0.000091  1
  Tm  Tm19  1  0.499964  0.499958  0.499899  1
  Ir  Ir20  1  0.848093  0.847308  0.749632  1
  Ir  Ir21  1  0.151457  0.153132  0.750008  1
  Ir  Ir22  1  0.151537  0.846448  0.250581  1
  Ir  Ir23  1  0.653366  0.347867  0.749803  1
  Ir  Ir24  1  0.653667  0.651530  0.250819  1
  Ir  Ir25  1  0.346426  0.348363  0.250343  1
  Ir  Ir26  1  0.346903  0.651877  0.749754  1
  Os  Os27  1  0.500339  0.000225  0.124419  1
  Os  Os28  1  0.500291  0.000207  0.623890  1
  Os  Os29  1  0.999815  0.499605  0.876134  1
  Rh  Rh30  1  0.848516  0.153347  0.250602  1
  Rh  Rh31  1  0.999826  0.499699  0.378332  1
