# generated using pymatgen
data_PrCuNi3Pt
_symmetry_space_group_name_H-M   'P 1'
_cell_length_a   5.13927700
_cell_length_b   4.86509249
_cell_length_c   4.05203900
_cell_angle_alpha   90.00000000
_cell_angle_beta   90.00000000
_cell_angle_gamma   118.25032141
_symmetry_Int_Tables_number   1
_chemical_formula_structural   PrCuNi3Pt
_chemical_formula_sum   'Pr1 Cu1 Ni3 Pt1'
_cell_volume   89.24573671
_cell_formula_units_Z   1
loop_
 _symmetry_equiv_pos_site_id
 _symmetry_equiv_pos_as_xyz
  1  'x, y, z'
loop_
 _atom_site_type_symbol
 _atom_site_label
 _atom_site_symmetry_multiplicity
 _atom_site_fract_x
 _atom_site_fract_y
 _atom_site_fract_z
 _atom_site_occupancy
  Pr  Pr0  1  0.335622  0.667812  0.000000  1
  Cu  Cu1  1  0.697246  0.348622  0.000000  1
  Ni  Ni2  1  0.969551  0.984775  0.000000  1
  Ni  Ni3  1  0.833281  0.165122  0.500000  1
  Ni  Ni4  1  0.833281  0.668159  0.500000  1
  Pt  Pt5  1  0.331019  0.165510  0.500000  1
