# generated using pymatgen
data_Dy7(ErBi2)3
_symmetry_space_group_name_H-M   'P 1'
_cell_length_a   8.25318600
_cell_length_b   9.50689301
_cell_length_c   12.03841901
_cell_angle_alpha   89.99562772
_cell_angle_beta   90.00000000
_cell_angle_gamma   90.00000000
_symmetry_Int_Tables_number   1
_chemical_formula_structural   Dy7(ErBi2)3
_chemical_formula_sum   'Dy14 Er6 Bi12'
_cell_volume   944.56031074
_cell_formula_units_Z   2
loop_
 _symmetry_equiv_pos_site_id
 _symmetry_equiv_pos_as_xyz
  1  'x, y, z'
loop_
 _atom_site_type_symbol
 _atom_site_label
 _atom_site_symmetry_multiplicity
 _atom_site_fract_x
 _atom_site_fract_y
 _atom_site_fract_z
 _atom_site_occupancy
  Dy  Dy0  1  0.352499  0.750012  0.215237  1
  Dy  Dy1  1  0.852499  0.749988  0.284763  1
  Dy  Dy2  1  0.647615  0.249950  0.784777  1
  Dy  Dy3  1  0.147615  0.250050  0.715223  1
  Dy  Dy4  1  0.692707  0.936216  0.058378  1
  Dy  Dy5  1  0.192707  0.563784  0.441622  1
  Dy  Dy6  1  0.475791  0.249925  0.488345  1
  Dy  Dy7  1  0.975791  0.250075  0.011655  1
  Dy  Dy8  1  0.524515  0.750094  0.511742  1
  Dy  Dy9  1  0.024515  0.749906  0.988258  1
  Dy  Dy10  1  0.312601  0.250007  0.218663  1
  Dy  Dy11  1  0.812601  0.249993  0.281337  1
  Dy  Dy12  1  0.687443  0.749931  0.781283  1
  Dy  Dy13  1  0.187443  0.750069  0.718717  1
  Er  Er14  1  0.692699  0.564048  0.058443  1
  Er  Er15  1  0.192699  0.935952  0.441557  1
  Er  Er16  1  0.307283  0.064173  0.941616  1
  Er  Er17  1  0.807283  0.435827  0.558384  1
  Er  Er18  1  0.307225  0.435852  0.941596  1
  Er  Er19  1  0.807225  0.064148  0.558404  1
  Bi  Bi20  1  0.407223  0.749805  0.956729  1
  Bi  Bi21  1  0.907223  0.750195  0.543271  1
  Bi  Bi22  1  0.592429  0.250567  0.043115  1
  Bi  Bi23  1  0.092429  0.249433  0.456885  1
  Bi  Bi24  1  0.564749  0.995540  0.325371  1
  Bi  Bi25  1  0.064749  0.504460  0.174629  1
  Bi  Bi26  1  0.435161  0.495523  0.674745  1
  Bi  Bi27  1  0.935161  0.004477  0.825255  1
  Bi  Bi28  1  0.435163  0.004491  0.674655  1
  Bi  Bi29  1  0.935163  0.495509  0.825345  1
  Bi  Bi30  1  0.564897  0.504449  0.325281  1
  Bi  Bi31  1  0.064897  0.995551  0.174719  1
