# generated using pymatgen
data_Tb4HfRe3F28
_symmetry_space_group_name_H-M   'P 1'
_cell_length_a   5.68195666
_cell_length_b   9.01920813
_cell_length_c   12.12873100
_cell_angle_alpha   62.43524813
_cell_angle_beta   90.00265106
_cell_angle_gamma   90.03668190
_symmetry_Int_Tables_number   1
_chemical_formula_structural   Tb4HfRe3F28
_chemical_formula_sum   'Tb4 Hf1 Re3 F28'
_cell_volume   551.00387770
_cell_formula_units_Z   1
loop_
 _symmetry_equiv_pos_site_id
 _symmetry_equiv_pos_as_xyz
  1  'x, y, z'
loop_
 _atom_site_type_symbol
 _atom_site_label
 _atom_site_symmetry_multiplicity
 _atom_site_fract_x
 _atom_site_fract_y
 _atom_site_fract_z
 _atom_site_occupancy
  Tb  Tb0  1  0.256792  0.813429  0.267465  1
  Tb  Tb1  1  0.742432  0.186520  0.734579  1
  Tb  Tb2  1  0.758338  0.184890  0.235915  1
  Tb  Tb3  1  0.241951  0.814040  0.763700  1
  Hf  Hf4  1  0.754808  0.725537  0.043705  1
  Re  Re5  1  0.243675  0.273165  0.956301  1
  Re  Re6  1  0.256902  0.273496  0.456411  1
  Re  Re7  1  0.743036  0.726114  0.544078  1
  F  F8  1  0.950030  0.707358  0.419952  1
  F  F9  1  0.047303  0.291934  0.579745  1
  F  F10  1  0.453298  0.292452  0.079803  1
  F  F11  1  0.535317  0.710136  0.920462  1
  F  F12  1  0.483675  0.732561  0.147047  1
  F  F13  1  0.518890  0.269119  0.857407  1
  F  F14  1  0.980757  0.268131  0.358203  1
  F  F15  1  0.021031  0.731614  0.640823  1
  F  F16  1  0.964701  0.748054  0.169605  1
  F  F17  1  0.040843  0.254150  0.829624  1
  F  F18  1  0.461286  0.256204  0.329248  1
  F  F19  1  0.542123  0.744798  0.671480  1
  F  F20  1  0.770326  0.475692  0.141241  1
  F  F21  1  0.231959  0.520077  0.856839  1
  F  F22  1  0.263889  0.520529  0.358401  1
  F  F23  1  0.734750  0.479194  0.642555  1
  F  F24  1  0.956955  0.279870  0.048632  1
  F  F25  1  0.044205  0.718906  0.949504  1
  F  F26  1  0.454478  0.717009  0.454234  1
  F  F27  1  0.543485  0.283274  0.547218  1
  F  F28  1  0.740418  0.972908  0.447007  1
  F  F29  1  0.260157  0.026698  0.552602  1
  F  F30  1  0.243341  0.026535  0.054620  1
  F  F31  1  0.759283  0.974817  0.942049  1
  F  F32  1  0.576018  0.972073  0.234360  1
  F  F33  1  0.423650  0.028131  0.765223  1
  F  F34  1  0.076599  0.027753  0.268511  1
  F  F35  1  0.923302  0.972833  0.731448  1
