# generated using pymatgen
data_Tb3Lu(Zn14Cu3)2
_symmetry_space_group_name_H-M   'P 1'
_cell_length_a   8.88987000
_cell_length_b   8.88987028
_cell_length_c   8.64089300
_cell_angle_alpha   90.00000000
_cell_angle_beta   90.00000000
_cell_angle_gamma   120.00000641
_symmetry_Int_Tables_number   1
_chemical_formula_structural   Tb3Lu(Zn14Cu3)2
_chemical_formula_sum   'Tb3 Lu1 Zn28 Cu6'
_cell_volume   591.39829057
_cell_formula_units_Z   1
loop_
 _symmetry_equiv_pos_site_id
 _symmetry_equiv_pos_as_xyz
  1  'x, y, z'
loop_
 _atom_site_type_symbol
 _atom_site_label
 _atom_site_symmetry_multiplicity
 _atom_site_fract_x
 _atom_site_fract_y
 _atom_site_fract_z
 _atom_site_occupancy
  Tb  Tb0  1  0.000000  0.000000  0.250000  1
  Tb  Tb1  1  0.000000  0.000000  0.750000  1
  Tb  Tb2  1  0.333333  0.666667  0.750000  1
  Lu  Lu3  1  0.666667  0.333333  0.250000  1
  Zn  Zn4  1  0.333333  0.666667  0.403323  1
  Zn  Zn5  1  0.666667  0.333333  0.595156  1
  Zn  Zn6  1  0.666667  0.333333  0.904844  1
  Zn  Zn7  1  0.333333  0.666667  0.096677  1
  Zn  Zn8  1  0.333722  0.368220  0.250000  1
  Zn  Zn9  1  0.631780  0.965503  0.250000  1
  Zn  Zn10  1  0.034497  0.666278  0.250000  1
  Zn  Zn11  1  0.631780  0.666278  0.250000  1
  Zn  Zn12  1  0.034497  0.368220  0.250000  1
  Zn  Zn13  1  0.333722  0.965503  0.250000  1
  Zn  Zn14  1  0.667138  0.631059  0.750000  1
  Zn  Zn15  1  0.368941  0.036079  0.750000  1
  Zn  Zn16  1  0.963921  0.332862  0.750000  1
  Zn  Zn17  1  0.368941  0.332862  0.750000  1
  Zn  Zn18  1  0.963921  0.631059  0.750000  1
  Zn  Zn19  1  0.667138  0.036079  0.750000  1
  Zn  Zn20  1  0.164225  0.835775  0.520191  1
  Zn  Zn21  1  0.164225  0.328449  0.520191  1
  Zn  Zn22  1  0.671551  0.835775  0.520191  1
  Zn  Zn23  1  0.835458  0.164542  0.479202  1
  Zn  Zn24  1  0.835458  0.670915  0.479202  1
  Zn  Zn25  1  0.329085  0.164542  0.479202  1
  Zn  Zn26  1  0.835458  0.164542  0.020798  1
  Zn  Zn27  1  0.835458  0.670915  0.020798  1
  Zn  Zn28  1  0.329085  0.164542  0.020798  1
  Zn  Zn29  1  0.164225  0.835775  0.979809  1
  Zn  Zn30  1  0.164225  0.328449  0.979809  1
  Zn  Zn31  1  0.671551  0.835775  0.979809  1
  Cu  Cu32  1  0.500144  0.499856  0.499899  1
  Cu  Cu33  1  0.500144  0.000287  0.499899  1
  Cu  Cu34  1  0.999713  0.499856  0.499899  1
  Cu  Cu35  1  0.500144  0.499856  0.000101  1
  Cu  Cu36  1  0.500144  0.000287  0.000101  1
  Cu  Cu37  1  0.999713  0.499856  0.000101  1
