# generated using pymatgen
data_Ti4Ga2Fe3Co7B4
_symmetry_space_group_name_H-M   'P 1'
_cell_length_a   8.53915504
_cell_length_b   8.57378302
_cell_length_c   2.92497900
_cell_angle_alpha   90.00000000
_cell_angle_beta   90.00000000
_cell_angle_gamma   89.92102448
_symmetry_Int_Tables_number   1
_chemical_formula_structural   Ti4Ga2Fe3Co7B4
_chemical_formula_sum   'Ti4 Ga2 Fe3 Co7 B4'
_cell_volume   214.14588198
_cell_formula_units_Z   1
loop_
 _symmetry_equiv_pos_site_id
 _symmetry_equiv_pos_as_xyz
  1  'x, y, z'
loop_
 _atom_site_type_symbol
 _atom_site_label
 _atom_site_symmetry_multiplicity
 _atom_site_fract_x
 _atom_site_fract_y
 _atom_site_fract_z
 _atom_site_occupancy
  Ti  Ti0  1  0.830944  0.324326  0.000000  1
  Ti  Ti1  1  0.322565  0.173481  0.000000  1
  Ti  Ti2  1  0.672787  0.827191  0.000000  1
  Ti  Ti3  1  0.173607  0.672042  0.000000  1
  Ga  Ga4  1  0.999601  0.000021  0.000000  1
  Ga  Ga5  1  0.500434  0.499820  0.000000  1
  Fe  Fe6  1  0.499535  0.999897  0.500000  1
  Fe  Fe7  1  0.000567  0.502197  0.500000  1
  Fe  Fe8  1  0.072476  0.219059  0.500000  1
  Co  Co9  1  0.218858  0.925691  0.500000  1
  Co  Co10  1  0.780172  0.071306  0.500000  1
  Co  Co11  1  0.926701  0.781795  0.500000  1
  Co  Co12  1  0.428476  0.719281  0.500000  1
  Co  Co13  1  0.572765  0.280659  0.500000  1
  Co  Co14  1  0.719176  0.572728  0.500000  1
  Co  Co15  1  0.281890  0.429883  0.500000  1
  B  B16  1  0.622396  0.122761  0.000000  1
  B  B17  1  0.122738  0.377410  0.000000  1
  B  B18  1  0.877241  0.623168  0.000000  1
  B  B19  1  0.377071  0.877282  0.000000  1
