# generated using pymatgen
data_Y3AlZn2Ni3
_symmetry_space_group_name_H-M   'P 1'
_cell_length_a   7.03593192
_cell_length_b   6.97526985
_cell_length_c   3.88284900
_cell_angle_alpha   90.00000000
_cell_angle_beta   90.00000000
_cell_angle_gamma   119.71518456
_symmetry_Int_Tables_number   1
_chemical_formula_structural   Y3AlZn2Ni3
_chemical_formula_sum   'Y3 Al1 Zn2 Ni3'
_cell_volume   165.50192715
_cell_formula_units_Z   1
loop_
 _symmetry_equiv_pos_site_id
 _symmetry_equiv_pos_as_xyz
  1  'x, y, z'
loop_
 _atom_site_type_symbol
 _atom_site_label
 _atom_site_symmetry_multiplicity
 _atom_site_fract_x
 _atom_site_fract_y
 _atom_site_fract_z
 _atom_site_occupancy
  Y  Y0  1  0.000000  0.589908  0.000000  1
  Y  Y1  1  0.586076  0.998893  0.000000  1
  Y  Y2  1  0.413924  0.412817  0.000000  1
  Al  Al3  1  0.000000  0.234629  0.500000  1
  Zn  Zn4  1  0.238781  0.000241  0.500000  1
  Zn  Zn5  1  0.761219  0.761460  0.500000  1
  Ni  Ni6  1  0.675294  0.331010  0.500000  1
  Ni  Ni7  1  0.000000  0.015325  0.000000  1
  Ni  Ni8  1  0.324706  0.655717  0.500000  1
