# generated using pymatgen
data_Th8Nb3Si16Mo9
_symmetry_space_group_name_H-M   'P 1'
_cell_length_a   7.10859015
_cell_length_b   7.10681626
_cell_length_c   13.07997234
_cell_angle_alpha   90.02347020
_cell_angle_beta   90.00998160
_cell_angle_gamma   89.97880646
_symmetry_Int_Tables_number   1
_chemical_formula_structural   Th8Nb3Si16Mo9
_chemical_formula_sum   'Th8 Nb3 Si16 Mo9'
_cell_volume   660.79282039
_cell_formula_units_Z   1
loop_
 _symmetry_equiv_pos_site_id
 _symmetry_equiv_pos_as_xyz
  1  'x, y, z'
loop_
 _atom_site_type_symbol
 _atom_site_label
 _atom_site_symmetry_multiplicity
 _atom_site_fract_x
 _atom_site_fract_y
 _atom_site_fract_z
 _atom_site_occupancy
  Th  Th0  1  0.002614  0.338050  0.217911  1
  Th  Th1  1  0.998280  0.661291  0.719822  1
  Th  Th2  1  0.163030  0.501225  0.469416  1
  Th  Th3  1  0.498021  0.837489  0.029425  1
  Th  Th4  1  0.836942  0.497802  0.968892  1
  Th  Th5  1  0.501397  0.163910  0.531685  1
  Th  Th6  1  0.337950  0.002661  0.781197  1
  Th  Th7  1  0.663267  0.998288  0.280727  1
  Nb  Nb8  1  0.661711  0.498323  0.376248  1
  Nb  Nb9  1  0.004188  0.162822  0.626937  1
  Nb  Nb10  1  0.998292  0.836528  0.125404  1
  Si  Si11  1  0.287083  0.039403  0.184994  1
  Si  Si12  1  0.714232  0.959876  0.685775  1
  Si  Si13  1  0.459066  0.787660  0.435478  1
  Si  Si14  1  0.221033  0.532890  0.063775  1
  Si  Si15  1  0.535326  0.219472  0.934707  1
  Si  Si16  1  0.780591  0.464620  0.567582  1
  Si  Si17  1  0.037411  0.279689  0.818559  1
  Si  Si18  1  0.965327  0.719796  0.317195  1
  Si  Si19  1  0.377672  0.300853  0.311344  1
  Si  Si20  1  0.619052  0.695123  0.811355  1
  Si  Si21  1  0.198694  0.877324  0.561973  1
  Si  Si22  1  0.119144  0.802788  0.935460  1
  Si  Si23  1  0.800186  0.121629  0.061110  1
  Si  Si24  1  0.881785  0.194761  0.435906  1
  Si  Si25  1  0.306148  0.382733  0.688525  1
  Si  Si26  1  0.694597  0.618659  0.185376  1
  Mo  Mo27  1  0.169205  0.168482  0.000402  1
  Mo  Mo28  1  0.831412  0.829616  0.500795  1
  Mo  Mo29  1  0.330664  0.668676  0.249860  1
  Mo  Mo30  1  0.671054  0.332980  0.750588  1
  Mo  Mo31  1  0.167320  0.006665  0.373759  1
  Mo  Mo32  1  0.831699  0.990011  0.874514  1
  Mo  Mo33  1  0.492643  0.666514  0.624238  1
  Mo  Mo34  1  0.336576  0.508188  0.875073  1
  Mo  Mo35  1  0.506387  0.333204  0.123993  1
