# generated using pymatgen
data_LaReSi2Tc3
_symmetry_space_group_name_H-M   'P 1'
_cell_length_a   7.30679977
_cell_length_b   7.30679981
_cell_length_c   4.15538000
_cell_angle_alpha   90.00000000
_cell_angle_beta   90.00000000
_cell_angle_gamma   146.79456776
_symmetry_Int_Tables_number   1
_chemical_formula_structural   LaReSi2Tc3
_chemical_formula_sum   'La1 Re1 Si2 Tc3'
_cell_volume   121.49610307
_cell_formula_units_Z   1
loop_
 _symmetry_equiv_pos_site_id
 _symmetry_equiv_pos_as_xyz
  1  'x, y, z'
loop_
 _atom_site_type_symbol
 _atom_site_label
 _atom_site_symmetry_multiplicity
 _atom_site_fract_x
 _atom_site_fract_y
 _atom_site_fract_z
 _atom_site_occupancy
  La  La0  1  0.000340  0.999660  0.000000  1
  Re  Re1  1  0.302401  0.697599  0.000000  1
  Si  Si2  1  0.591808  0.408192  0.500000  1
  Si  Si3  1  0.408740  0.591260  0.500000  1
  Tc  Tc4  1  0.696667  0.303333  0.000000  1
  Tc  Tc5  1  0.809598  0.190401  0.500000  1
  Tc  Tc6  1  0.190445  0.809554  0.500000  1
