# generated using pymatgen
data_Cs2TaFeSe4
_symmetry_space_group_name_H-M   'P 1'
_cell_length_a   15.18821275
_cell_length_b   13.53126734
_cell_length_c   8.03830102
_cell_angle_alpha   85.51057632
_cell_angle_beta   62.64447771
_cell_angle_gamma   31.84493892
_symmetry_Int_Tables_number   1
_chemical_formula_structural   Cs2TaFeSe4
_chemical_formula_sum   'Cs4 Ta2 Fe2 Se8'
_cell_volume   577.53059016
_cell_formula_units_Z   2
loop_
 _symmetry_equiv_pos_site_id
 _symmetry_equiv_pos_as_xyz
  1  'x, y, z'
loop_
 _atom_site_type_symbol
 _atom_site_label
 _atom_site_symmetry_multiplicity
 _atom_site_fract_x
 _atom_site_fract_y
 _atom_site_fract_z
 _atom_site_occupancy
  Cs  Cs0  1  0.572571  0.572571  0.927429  1
  Cs  Cs1  1  0.927429  0.927429  0.572571  1
  Cs  Cs2  1  0.677429  0.677429  0.322571  1
  Cs  Cs3  1  0.322571  0.322571  0.677429  1
  Ta  Ta4  1  0.500000  0.500000  0.500000  1
  Ta  Ta5  1  0.750000  0.750000  0.750000  1
  Fe  Fe6  1  0.250000  0.250000  0.250000  1
  Fe  Fe7  1  0.000000  0.000000  0.000000  1
  Se  Se8  1  0.209243  0.895623  0.605368  1
  Se  Se9  1  0.289767  0.605368  0.895623  1
  Se  Se10  1  0.605368  0.289767  0.209243  1
  Se  Se11  1  0.895623  0.209243  0.289767  1
  Se  Se12  1  0.644632  0.960233  0.040757  1
  Se  Se13  1  0.354377  0.040757  0.960233  1
  Se  Se14  1  0.960233  0.644632  0.354377  1
  Se  Se15  1  0.040757  0.354377  0.644632  1
