# generated using pymatgen
data_SmPaF8
_symmetry_space_group_name_H-M   'P 1'
_cell_length_a   8.40768223
_cell_length_b   8.44557315
_cell_length_c   8.32272539
_cell_angle_alpha   63.57575610
_cell_angle_beta   63.88267619
_cell_angle_gamma   80.60821169
_symmetry_Int_Tables_number   1
_chemical_formula_structural   SmPaF8
_chemical_formula_sum   'Sm3 Pa3 F24'
_cell_volume   474.80310008
_cell_formula_units_Z   3
loop_
 _symmetry_equiv_pos_site_id
 _symmetry_equiv_pos_as_xyz
  1  'x, y, z'
loop_
 _atom_site_type_symbol
 _atom_site_label
 _atom_site_symmetry_multiplicity
 _atom_site_fract_x
 _atom_site_fract_y
 _atom_site_fract_z
 _atom_site_occupancy
  Sm  Sm0  1  0.369476  0.232489  0.333885  1
  Sm  Sm1  1  0.222279  0.363199  0.841157  1
  Sm  Sm2  1  0.778564  0.622632  0.167082  1
  Pa  Pa3  1  0.628604  0.775703  0.663836  1
  Pa  Pa4  1  0.786452  0.209157  0.755729  1
  Pa  Pa5  1  0.212053  0.785774  0.261335  1
  F  F6  1  0.314038  0.263488  0.607833  1
  F  F7  1  0.684384  0.744727  0.396344  1
  F  F8  1  0.726670  0.685034  0.887060  1
  F  F9  1  0.268708  0.318597  0.103158  1
  F  F10  1  0.823509  0.937348  0.942671  1
  F  F11  1  0.183459  0.047112  0.051315  1
  F  F12  1  0.048903  0.172447  0.557087  1
  F  F13  1  0.929656  0.828512  0.461753  1
  F  F14  1  0.414261  0.603456  0.741728  1
  F  F15  1  0.601836  0.403496  0.245085  1
  F  F16  1  0.504158  0.990580  0.502592  1
  F  F17  1  0.003252  0.510398  0.990267  1
  F  F18  1  0.514665  0.243708  0.789482  1
  F  F19  1  0.491361  0.757071  0.200795  1
  F  F20  1  0.741142  0.499985  0.713392  1
  F  F21  1  0.253476  0.517864  0.284659  1
  F  F22  1  0.404278  0.809880  0.913480  1
  F  F23  1  0.616676  0.180536  0.060108  1
  F  F24  1  0.180219  0.613575  0.563957  1
  F  F25  1  0.813172  0.389882  0.448420  1
  F  F26  1  0.721620  0.022255  0.647871  1
  F  F27  1  0.269096  0.966497  0.352684  1
  F  F28  1  0.964840  0.275035  0.846174  1
  F  F29  1  0.029195  0.729565  0.169062  1
