# generated using pymatgen
data_Tb13Dy3(ZnRh)4
_symmetry_space_group_name_H-M   'P 1'
_cell_length_a   9.53392820
_cell_length_b   9.53998342
_cell_length_c   9.52939996
_cell_angle_alpha   59.99467634
_cell_angle_beta   59.92632576
_cell_angle_gamma   59.94757637
_symmetry_Int_Tables_number   1
_chemical_formula_structural   Tb13Dy3(ZnRh)4
_chemical_formula_sum   'Tb13 Dy3 Zn4 Rh4'
_cell_volume   612.26304589
_cell_formula_units_Z   1
loop_
 _symmetry_equiv_pos_site_id
 _symmetry_equiv_pos_as_xyz
  1  'x, y, z'
loop_
 _atom_site_type_symbol
 _atom_site_label
 _atom_site_symmetry_multiplicity
 _atom_site_fract_x
 _atom_site_fract_y
 _atom_site_fract_z
 _atom_site_occupancy
  Tb  Tb0  1  0.645667  0.061226  0.646089  1
  Tb  Tb1  1  0.063040  0.063894  0.437252  1
  Tb  Tb2  1  0.437252  0.435814  0.063040  1
  Tb  Tb3  1  0.646089  0.647018  0.645667  1
  Tb  Tb4  1  0.808835  0.191558  0.191780  1
  Tb  Tb5  1  0.191780  0.807827  0.808835  1
  Tb  Tb6  1  0.062990  0.645806  0.645003  1
  Tb  Tb7  1  0.437300  0.063650  0.063095  1
  Tb  Tb8  1  0.436384  0.063616  0.436384  1
  Tb  Tb9  1  0.063504  0.436496  0.063504  1
  Tb  Tb10  1  0.645003  0.646200  0.062990  1
  Tb  Tb11  1  0.191769  0.808231  0.191769  1
  Tb  Tb12  1  0.063095  0.435955  0.437300  1
  Dy  Dy13  1  0.808665  0.807580  0.191947  1
  Dy  Dy14  1  0.808193  0.191807  0.808193  1
  Dy  Dy15  1  0.191947  0.191808  0.808665  1
  Zn  Zn16  1  0.420377  0.420027  0.420437  1
  Zn  Zn17  1  0.420311  0.419984  0.739669  1
  Zn  Zn18  1  0.420437  0.739158  0.420377  1
  Zn  Zn19  1  0.739669  0.420036  0.420311  1
  Rh  Rh20  1  0.856826  0.428669  0.856312  1
  Rh  Rh21  1  0.856312  0.858193  0.856826  1
  Rh  Rh22  1  0.855798  0.857322  0.428755  1
  Rh  Rh23  1  0.428755  0.858125  0.855798  1
