# generated using pymatgen
data_AuSeBr7
_symmetry_space_group_name_H-M   'P 1'
_cell_length_a   11.04447500
_cell_length_b   9.62402110
_cell_length_c   13.91673181
_cell_angle_alpha   71.45739553
_cell_angle_beta   90.00000000
_cell_angle_gamma   90.00000000
_symmetry_Int_Tables_number   1
_chemical_formula_structural   AuSeBr7
_chemical_formula_sum   'Au4 Se4 Br28'
_cell_volume   1402.44971430
_cell_formula_units_Z   4
loop_
 _symmetry_equiv_pos_site_id
 _symmetry_equiv_pos_as_xyz
  1  'x, y, z'
loop_
 _atom_site_type_symbol
 _atom_site_label
 _atom_site_symmetry_multiplicity
 _atom_site_fract_x
 _atom_site_fract_y
 _atom_site_fract_z
 _atom_site_occupancy
  Au  Au0  1  0.079043  0.786667  0.047071  1
  Au  Au1  1  0.579043  0.213333  0.452929  1
  Au  Au2  1  0.920957  0.213333  0.952929  1
  Au  Au3  1  0.420957  0.786667  0.547071  1
  Se  Se4  1  0.721868  0.765866  0.997138  1
  Se  Se5  1  0.221868  0.234134  0.502862  1
  Se  Se6  1  0.278132  0.234134  0.002862  1
  Se  Se7  1  0.778132  0.765866  0.497138  1
  Br  Br8  1  0.709722  0.536863  0.965312  1
  Br  Br9  1  0.209722  0.463137  0.534688  1
  Br  Br10  1  0.290278  0.463137  0.034688  1
  Br  Br11  1  0.790278  0.536863  0.465312  1
  Br  Br12  1  0.586312  0.634473  0.648020  1
  Br  Br13  1  0.086312  0.365527  0.851980  1
  Br  Br14  1  0.413688  0.365527  0.351980  1
  Br  Br15  1  0.913688  0.634473  0.148020  1
  Br  Br16  1  0.543914  0.837069  0.388907  1
  Br  Br17  1  0.043914  0.162931  0.111093  1
  Br  Br18  1  0.456086  0.162931  0.611093  1
  Br  Br19  1  0.956086  0.837069  0.888907  1
  Br  Br20  1  0.258500  0.945415  0.447538  1
  Br  Br21  1  0.758500  0.054585  0.052462  1
  Br  Br22  1  0.741500  0.054585  0.552462  1
  Br  Br23  1  0.241500  0.945415  0.947538  1
  Br  Br24  1  0.298285  0.725651  0.701795  1
  Br  Br25  1  0.798285  0.274349  0.798205  1
  Br  Br26  1  0.701715  0.274349  0.298205  1
  Br  Br27  1  0.201715  0.725651  0.201795  1
  Br  Br28  1  0.569437  0.723770  0.126252  1
  Br  Br29  1  0.069437  0.276230  0.373748  1
  Br  Br30  1  0.430563  0.276230  0.873748  1
  Br  Br31  1  0.930563  0.723770  0.626252  1
  Br  Br32  1  0.892812  0.902258  0.352525  1
  Br  Br33  1  0.392812  0.097742  0.147475  1
  Br  Br34  1  0.107188  0.097742  0.647475  1
  Br  Br35  1  0.607188  0.902258  0.852525  1
