# generated using pymatgen
data_YTm2Ir2Rh7
_symmetry_space_group_name_H-M   'P 1'
_cell_length_a   5.26714634
_cell_length_b   5.26463382
_cell_length_c   17.56670100
_cell_angle_alpha   90.00026120
_cell_angle_beta   89.97939715
_cell_angle_gamma   119.98470650
_symmetry_Int_Tables_number   1
_chemical_formula_structural   YTm2Ir2Rh7
_chemical_formula_sum   'Y2 Tm4 Ir4 Rh14'
_cell_volume   421.92112055
_cell_formula_units_Z   2
loop_
 _symmetry_equiv_pos_site_id
 _symmetry_equiv_pos_as_xyz
  1  'x, y, z'
loop_
 _atom_site_type_symbol
 _atom_site_label
 _atom_site_symmetry_multiplicity
 _atom_site_fract_x
 _atom_site_fract_y
 _atom_site_fract_z
 _atom_site_occupancy
  Y  Y0  1  0.333119  0.666558  0.749944  1
  Y  Y1  1  0.666897  0.333451  0.251468  1
  Tm  Tm2  1  0.333060  0.666533  0.958766  1
  Tm  Tm3  1  0.666652  0.333326  0.041433  1
  Tm  Tm4  1  0.667980  0.333991  0.458825  1
  Tm  Tm5  1  0.333740  0.666868  0.540899  1
  Ir  Ir6  1  0.164497  0.830685  0.374464  1
  Ir  Ir7  1  0.164509  0.333815  0.374464  1
  Ir  Ir8  1  0.004298  0.002149  0.500197  1
  Ir  Ir9  1  0.999185  0.999594  0.999845  1
  Rh  Rh10  1  0.662618  0.831315  0.375528  1
  Rh  Rh11  1  0.832577  0.166896  0.625163  1
  Rh  Rh12  1  0.832584  0.665676  0.625163  1
  Rh  Rh13  1  0.334366  0.167183  0.624965  1
  Rh  Rh14  1  0.832985  0.167407  0.875153  1
  Rh  Rh15  1  0.832980  0.665587  0.875151  1
  Rh  Rh16  1  0.334505  0.167255  0.875238  1
  Rh  Rh17  1  0.167545  0.832729  0.124254  1
  Rh  Rh18  1  0.167542  0.334812  0.124256  1
  Rh  Rh19  1  0.666313  0.833154  0.124605  1
  Rh  Rh20  1  0.334115  0.667061  0.249875  1
  Rh  Rh21  1  0.666509  0.333248  0.750197  1
  Rh  Rh22  1  0.000623  0.000311  0.250129  1
  Rh  Rh23  1  0.000797  0.000397  0.750018  1
