# generated using pymatgen
data_Pr12Nd4Cd4PdRu3
_symmetry_space_group_name_H-M   'P 1'
_cell_length_a   9.99033907
_cell_length_b   10.02807554
_cell_length_c   10.02807500
_cell_angle_alpha   60.00000508
_cell_angle_beta   59.87497430
_cell_angle_gamma   59.87497554
_symmetry_Int_Tables_number   1
_chemical_formula_structural   Pr12Nd4Cd4PdRu3
_chemical_formula_sum   'Pr12 Nd4 Cd4 Pd1 Ru3'
_cell_volume   709.05041865
_cell_formula_units_Z   1
loop_
 _symmetry_equiv_pos_site_id
 _symmetry_equiv_pos_as_xyz
  1  'x, y, z'
loop_
 _atom_site_type_symbol
 _atom_site_label
 _atom_site_symmetry_multiplicity
 _atom_site_fract_x
 _atom_site_fract_y
 _atom_site_fract_z
 _atom_site_occupancy
  Pr  Pr0  1  0.815990  0.190968  0.190968  1
  Pr  Pr1  1  0.190300  0.810410  0.810410  1
  Pr  Pr2  1  0.190300  0.810410  0.188880  1
  Pr  Pr3  1  0.815990  0.190968  0.802076  1
  Pr  Pr4  1  0.190300  0.188880  0.810410  1
  Pr  Pr5  1  0.815990  0.802076  0.190968  1
  Pr  Pr6  1  0.936685  0.562495  0.562495  1
  Pr  Pr7  1  0.558086  0.938351  0.938351  1
  Pr  Pr8  1  0.558086  0.938351  0.565211  1
  Pr  Pr9  1  0.936685  0.562495  0.938326  1
  Pr  Pr10  1  0.558086  0.565211  0.938351  1
  Pr  Pr11  1  0.936685  0.938326  0.562495  1
  Nd  Nd12  1  0.342560  0.350844  0.350844  1
  Nd  Nd13  1  0.342560  0.350844  0.955754  1
  Nd  Nd14  1  0.342560  0.955754  0.350844  1
  Nd  Nd15  1  0.962820  0.345727  0.345727  1
  Cd  Cd16  1  0.579767  0.579448  0.579448  1
  Cd  Cd17  1  0.579767  0.579448  0.261337  1
  Cd  Cd18  1  0.579767  0.261337  0.579448  1
  Cd  Cd19  1  0.261172  0.579609  0.579609  1
  Pd  Pd20  1  0.575217  0.141595  0.141595  1
  Ru  Ru21  1  0.143542  0.138214  0.138214  1
  Ru  Ru22  1  0.143542  0.138214  0.580031  1
  Ru  Ru23  1  0.143542  0.580031  0.138214  1
