# generated using pymatgen
data_Pr3SmGa7(SiPt2)3
_symmetry_space_group_name_H-M   'P 1'
_cell_length_a   8.49153020
_cell_length_b   8.53254944
_cell_length_c   8.53254939
_cell_angle_alpha   137.94620618
_cell_angle_beta   105.77715191
_cell_angle_gamma   89.24545847
_symmetry_Int_Tables_number   1
_chemical_formula_structural   Pr3SmGa7(SiPt2)3
_chemical_formula_sum   'Pr3 Sm1 Ga7 Si3 Pt6'
_cell_volume   381.03955836
_cell_formula_units_Z   1
loop_
 _symmetry_equiv_pos_site_id
 _symmetry_equiv_pos_as_xyz
  1  'x, y, z'
loop_
 _atom_site_type_symbol
 _atom_site_label
 _atom_site_symmetry_multiplicity
 _atom_site_fract_x
 _atom_site_fract_y
 _atom_site_fract_z
 _atom_site_occupancy
  Pr  Pr0  1  0.135524  0.369794  0.765730  1
  Pr  Pr1  1  0.393682  0.130156  0.263526  1
  Pr  Pr2  1  0.607796  0.870129  0.737667  1
  Sm  Sm3  1  0.868461  0.629261  0.239201  1
  Ga  Ga4  1  0.502055  0.750989  0.249419  1
  Ga  Ga5  1  0.502055  0.252636  0.751065  1
  Ga  Ga6  1  0.232543  0.981893  0.752234  1
  Ga  Ga7  1  0.764961  0.510257  0.742079  1
  Ga  Ga8  1  0.764961  0.022883  0.254704  1
  Ga  Ga9  1  0.232543  0.480310  0.250651  1
  Ga  Ga10  1  0.036892  0.891184  0.145709  1
  Si  Si11  1  0.961486  0.106802  0.854684  1
  Si  Si12  1  0.743236  0.391244  0.351992  1
  Si  Si13  1  0.252574  0.606495  0.646079  1
  Pt  Pt14  1  0.995932  0.746503  0.736125  1
  Pt  Pt15  1  0.995932  0.259808  0.249429  1
  Pt  Pt16  1  0.245900  0.863034  0.382866  1
  Pt  Pt17  1  0.762520  0.134163  0.628356  1
  Pt  Pt18  1  0.491385  0.366699  0.124686  1
  Pt  Pt19  1  0.509563  0.635761  0.873802  1
