# generated using pymatgen
data_K5ZrAs2P
_symmetry_space_group_name_H-M   'P 1'
_cell_length_a   8.42150500
_cell_length_b   9.15858618
_cell_length_c   17.78268446
_cell_angle_alpha   59.96319579
_cell_angle_beta   90.00000000
_cell_angle_gamma   90.00000000
_symmetry_Int_Tables_number   1
_chemical_formula_structural   K5ZrAs2P
_chemical_formula_sum   'K20 Zr4 As8 P4'
_cell_volume   1187.36684490
_cell_formula_units_Z   4
loop_
 _symmetry_equiv_pos_site_id
 _symmetry_equiv_pos_as_xyz
  1  'x, y, z'
loop_
 _atom_site_type_symbol
 _atom_site_label
 _atom_site_symmetry_multiplicity
 _atom_site_fract_x
 _atom_site_fract_y
 _atom_site_fract_z
 _atom_site_occupancy
  K  K0  1  0.167184  0.836706  0.743306  1
  K  K1  1  0.667184  0.163294  0.756694  1
  K  K2  1  0.832816  0.163294  0.256694  1
  K  K3  1  0.332816  0.836706  0.243306  1
  K  K4  1  0.171550  0.168112  0.420044  1
  K  K5  1  0.671550  0.831888  0.079956  1
  K  K6  1  0.828450  0.831888  0.579956  1
  K  K7  1  0.328450  0.168112  0.920044  1
  K  K8  1  0.007289  0.085169  0.091855  1
  K  K9  1  0.507289  0.914831  0.408145  1
  K  K10  1  0.992711  0.914831  0.908145  1
  K  K11  1  0.492711  0.085169  0.591855  1
  K  K12  1  0.523133  0.263532  0.078501  1
  K  K13  1  0.023133  0.736468  0.421499  1
  K  K14  1  0.476867  0.736468  0.921499  1
  K  K15  1  0.976867  0.263532  0.578501  1
  K  K16  1  0.984264  0.546973  0.257341  1
  K  K17  1  0.484264  0.453027  0.242659  1
  K  K18  1  0.015736  0.453027  0.742659  1
  K  K19  1  0.515736  0.546973  0.757341  1
  Zr  Zr20  1  0.369357  0.492772  0.580412  1
  Zr  Zr21  1  0.869357  0.507228  0.919588  1
  Zr  Zr22  1  0.630643  0.507228  0.419588  1
  Zr  Zr23  1  0.130643  0.492772  0.080412  1
  As  As24  1  0.218876  0.209230  0.220297  1
  As  As25  1  0.718876  0.790770  0.279703  1
  As  As26  1  0.781124  0.790770  0.779703  1
  As  As27  1  0.281124  0.209230  0.720297  1
  As  As28  1  0.254346  0.761993  0.077514  1
  As  As29  1  0.754346  0.238007  0.422486  1
  As  As30  1  0.745654  0.238007  0.922486  1
  As  As31  1  0.245654  0.761993  0.577514  1
  P  P32  1  0.325100  0.488392  0.437691  1
  P  P33  1  0.825100  0.511608  0.062309  1
  P  P34  1  0.674900  0.511608  0.562309  1
  P  P35  1  0.174900  0.488392  0.937691  1
