# generated using pymatgen
data_Pr3(OsO5)2
_symmetry_space_group_name_H-M   'P 1'
_cell_length_a   5.59252525
_cell_length_b   5.59252510
_cell_length_c   7.02843844
_cell_angle_alpha   72.41106955
_cell_angle_beta   72.41106579
_cell_angle_gamma   90.39685985
_symmetry_Int_Tables_number   1
_chemical_formula_structural   Pr3(OsO5)2
_chemical_formula_sum   'Pr3 Os2 O10'
_cell_volume   198.57946648
_cell_formula_units_Z   1
loop_
 _symmetry_equiv_pos_site_id
 _symmetry_equiv_pos_as_xyz
  1  'x, y, z'
loop_
 _atom_site_type_symbol
 _atom_site_label
 _atom_site_symmetry_multiplicity
 _atom_site_fract_x
 _atom_site_fract_y
 _atom_site_fract_z
 _atom_site_occupancy
  Pr  Pr0  1  0.500000  0.500000  0.000000  1
  Pr  Pr1  1  0.754925  0.245075  0.500000  1
  Pr  Pr2  1  0.245075  0.754925  0.500000  1
  Os  Os3  1  0.130283  0.130283  0.823718  1
  Os  Os4  1  0.869717  0.869717  0.176282  1
  O  O5  1  0.830014  0.830014  0.472603  1
  O  O6  1  0.169986  0.169986  0.527397  1
  O  O7  1  0.595357  0.595357  0.283776  1
  O  O8  1  0.404643  0.404643  0.716224  1
  O  O9  1  0.380443  0.898060  0.786135  1
  O  O10  1  0.852845  0.852845  0.900158  1
  O  O11  1  0.147155  0.147155  0.099842  1
  O  O12  1  0.898060  0.380443  0.786135  1
  O  O13  1  0.619557  0.101940  0.213865  1
  O  O14  1  0.101940  0.619557  0.213865  1
