# generated using pymatgen
data_Tb3Sm(Si3Ni5)4
_symmetry_space_group_name_H-M   'P 1'
_cell_length_a   3.81221000
_cell_length_b   6.57556516
_cell_length_c   18.80902926
_cell_angle_alpha   89.99704076
_cell_angle_beta   90.00000000
_cell_angle_gamma   90.00000000
_symmetry_Int_Tables_number   1
_chemical_formula_structural   Tb3Sm(Si3Ni5)4
_chemical_formula_sum   'Tb3 Sm1 Si12 Ni20'
_cell_volume   471.49412246
_cell_formula_units_Z   1
loop_
 _symmetry_equiv_pos_site_id
 _symmetry_equiv_pos_as_xyz
  1  'x, y, z'
loop_
 _atom_site_type_symbol
 _atom_site_label
 _atom_site_symmetry_multiplicity
 _atom_site_fract_x
 _atom_site_fract_y
 _atom_site_fract_z
 _atom_site_occupancy
  Tb  Tb0  1  0.250000  0.623662  0.643852  1
  Tb  Tb1  1  0.750000  0.376363  0.356436  1
  Tb  Tb2  1  0.750000  0.123255  0.855838  1
  Sm  Sm3  1  0.250000  0.875753  0.143607  1
  Si  Si4  1  0.250000  0.843003  0.926255  1
  Si  Si5  1  0.750000  0.159252  0.072936  1
  Si  Si6  1  0.750000  0.342956  0.573856  1
  Si  Si7  1  0.250000  0.656569  0.426723  1
  Si  Si8  1  0.750000  0.618872  0.762723  1
  Si  Si9  1  0.250000  0.381540  0.237312  1
  Si  Si10  1  0.250000  0.422905  0.912658  1
  Si  Si11  1  0.750000  0.573511  0.086059  1
  Si  Si12  1  0.750000  0.922473  0.586438  1
  Si  Si13  1  0.250000  0.077778  0.414035  1
  Si  Si14  1  0.250000  0.118694  0.736942  1
  Si  Si15  1  0.750000  0.881707  0.264187  1
  Ni  Ni16  1  0.250000  0.136484  0.993910  1
  Ni  Ni17  1  0.750000  0.386505  0.982512  1
  Ni  Ni18  1  0.750000  0.113777  0.484073  1
  Ni  Ni19  1  0.250000  0.611172  0.015368  1
  Ni  Ni20  1  0.250000  0.355157  0.115875  1
  Ni  Ni21  1  0.750000  0.646387  0.883834  1
  Ni  Ni22  1  0.750000  0.853802  0.385147  1
  Ni  Ni23  1  0.250000  0.145652  0.615794  1
  Ni  Ni24  1  0.250000  0.072662  0.293632  1
  Ni  Ni25  1  0.750000  0.928309  0.707020  1
  Ni  Ni26  1  0.750000  0.571648  0.207854  1
  Ni  Ni27  1  0.250000  0.428306  0.792380  1
  Ni  Ni28  1  0.750000  0.634931  0.505718  1
  Ni  Ni29  1  0.250000  0.364676  0.494792  1
  Ni  Ni30  1  0.250000  0.812737  0.800839  1
  Ni  Ni31  1  0.750000  0.188741  0.199541  1
  Ni  Ni32  1  0.750000  0.312709  0.698975  1
  Ni  Ni33  1  0.250000  0.687154  0.301742  1
  Ni  Ni34  1  0.250000  0.886401  0.516305  1
  Ni  Ni35  1  0.750000  0.864502  0.004832  1
