# generated using pymatgen
data_Hf16Co4TcMo3
_symmetry_space_group_name_H-M   'P 1'
_cell_length_a   8.66541311
_cell_length_b   8.66541253
_cell_length_c   8.66541400
_cell_angle_alpha   60.03900100
_cell_angle_beta   60.03899561
_cell_angle_gamma   60.03899610
_symmetry_Int_Tables_number   1
_chemical_formula_structural   Hf16Co4TcMo3
_chemical_formula_sum   'Hf16 Co4 Tc1 Mo3'
_cell_volume   460.50734368
_cell_formula_units_Z   1
loop_
 _symmetry_equiv_pos_site_id
 _symmetry_equiv_pos_as_xyz
  1  'x, y, z'
loop_
 _atom_site_type_symbol
 _atom_site_label
 _atom_site_symmetry_multiplicity
 _atom_site_fract_x
 _atom_site_fract_y
 _atom_site_fract_z
 _atom_site_occupancy
  Hf  Hf0  1  0.696493  0.101395  0.101395  1
  Hf  Hf1  1  0.101395  0.696493  0.101395  1
  Hf  Hf2  1  0.101395  0.101395  0.696493  1
  Hf  Hf3  1  0.101136  0.101136  0.101136  1
  Hf  Hf4  1  0.313790  0.313790  0.685220  1
  Hf  Hf5  1  0.686074  0.686074  0.313823  1
  Hf  Hf6  1  0.313790  0.685220  0.313790  1
  Hf  Hf7  1  0.686074  0.313823  0.686074  1
  Hf  Hf8  1  0.685220  0.313790  0.313790  1
  Hf  Hf9  1  0.313823  0.686074  0.686074  1
  Hf  Hf10  1  0.950302  0.950302  0.549498  1
  Hf  Hf11  1  0.549446  0.549446  0.950562  1
  Hf  Hf12  1  0.950302  0.549498  0.950302  1
  Hf  Hf13  1  0.549446  0.950562  0.549446  1
  Hf  Hf14  1  0.549498  0.950302  0.950302  1
  Hf  Hf15  1  0.950562  0.549446  0.549446  1
  Co  Co16  1  0.325527  0.891385  0.891385  1
  Co  Co17  1  0.891385  0.325527  0.891385  1
  Co  Co18  1  0.891385  0.891385  0.325527  1
  Co  Co19  1  0.891470  0.891470  0.891470  1
  Tc  Tc20  1  0.334699  0.334699  0.334699  1
  Mo  Mo21  1  0.000815  0.332985  0.332985  1
  Mo  Mo22  1  0.332985  0.000815  0.332985  1
  Mo  Mo23  1  0.332985  0.332985  0.000815  1
