# generated using pymatgen
data_Dy3ErRu2Pt2F28
_symmetry_space_group_name_H-M   'P 1'
_cell_length_a   5.55914169
_cell_length_b   8.89152877
_cell_length_c   11.95641150
_cell_angle_alpha   62.98149210
_cell_angle_beta   89.89445243
_cell_angle_gamma   90.06461721
_symmetry_Int_Tables_number   1
_chemical_formula_structural   Dy3ErRu2Pt2F28
_chemical_formula_sum   'Dy3 Er1 Ru2 Pt2 F28'
_cell_volume   526.49301943
_cell_formula_units_Z   1
loop_
 _symmetry_equiv_pos_site_id
 _symmetry_equiv_pos_as_xyz
  1  'x, y, z'
loop_
 _atom_site_type_symbol
 _atom_site_label
 _atom_site_symmetry_multiplicity
 _atom_site_fract_x
 _atom_site_fract_y
 _atom_site_fract_z
 _atom_site_occupancy
  Dy  Dy0  1  0.259216  0.184607  0.735451  1
  Dy  Dy1  1  0.241144  0.190750  0.229628  1
  Dy  Dy2  1  0.740750  0.809206  0.270259  1
  Er  Er3  1  0.759160  0.814266  0.764393  1
  Ru  Ru4  1  0.755506  0.275130  0.954279  1
  Ru  Ru5  1  0.255837  0.726078  0.546235  1
  Pt  Pt6  1  0.242610  0.729240  0.042317  1
  Pt  Pt7  1  0.743527  0.270311  0.457053  1
  F  F8  1  0.443239  0.701496  0.917175  1
  F  F9  1  0.941762  0.298383  0.582445  1
  F  F10  1  0.552189  0.294621  0.081748  1
  F  F11  1  0.051745  0.706697  0.419108  1
  F  F12  1  0.446046  0.281654  0.543443  1
  F  F13  1  0.945601  0.718140  0.955414  1
  F  F14  1  0.548896  0.718070  0.455094  1
  F  F15  1  0.049532  0.282417  0.044605  1
  F  F16  1  0.766744  0.516184  0.860165  1
  F  F17  1  0.267972  0.485303  0.640390  1
  F  F18  1  0.229935  0.482162  0.144125  1
  F  F19  1  0.731446  0.517571  0.355540  1
  F  F20  1  0.755357  0.036006  0.046788  1
  F  F21  1  0.255363  0.964987  0.453176  1
  F  F22  1  0.244465  0.976786  0.948348  1
  F  F23  1  0.744706  0.022679  0.551710  1
  F  F24  1  0.970637  0.727359  0.643683  1
  F  F25  1  0.470079  0.272955  0.858005  1
  F  F26  1  0.035405  0.267143  0.364998  1
  F  F27  1  0.533025  0.732799  0.134974  1
  F  F28  1  0.048413  0.752265  0.171790  1
  F  F29  1  0.550714  0.247360  0.327404  1
  F  F30  1  0.954984  0.255186  0.824840  1
  F  F31  1  0.457763  0.745859  0.675313  1
  F  F32  1  0.423557  0.972321  0.233543  1
  F  F33  1  0.923724  0.027546  0.266479  1
  F  F34  1  0.581004  0.026452  0.766879  1
  F  F35  1  0.077942  0.970011  0.733202  1
