# generated using pymatgen
data_Tb3Dy(Ta3Si4)2
_symmetry_space_group_name_H-M   'P 1'
_cell_length_a   7.05648600
_cell_length_b   7.05616401
_cell_length_c   13.02721800
_cell_angle_alpha   90.00000000
_cell_angle_beta   90.00000000
_cell_angle_gamma   89.99848959
_symmetry_Int_Tables_number   1
_chemical_formula_structural   Tb3Dy(Ta3Si4)2
_chemical_formula_sum   'Tb6 Dy2 Ta12 Si16'
_cell_volume   648.64762477
_cell_formula_units_Z   2
loop_
 _symmetry_equiv_pos_site_id
 _symmetry_equiv_pos_as_xyz
  1  'x, y, z'
loop_
 _atom_site_type_symbol
 _atom_site_label
 _atom_site_symmetry_multiplicity
 _atom_site_fract_x
 _atom_site_fract_y
 _atom_site_fract_z
 _atom_site_occupancy
  Tb  Tb0  1  0.157299  0.496375  0.467654  1
  Tb  Tb1  1  0.503590  0.842645  0.032349  1
  Tb  Tb2  1  0.842701  0.503625  0.967654  1
  Tb  Tb3  1  0.496410  0.157355  0.532349  1
  Tb  Tb4  1  0.342551  0.996529  0.782205  1
  Tb  Tb5  1  0.657449  0.003471  0.282205  1
  Dy  Dy6  1  0.996875  0.342774  0.217763  1
  Dy  Dy7  1  0.003125  0.657226  0.717763  1
  Ta  Ta8  1  0.172293  0.172466  0.000026  1
  Ta  Ta9  1  0.827707  0.827534  0.500026  1
  Ta  Ta10  1  0.327730  0.672125  0.250002  1
  Ta  Ta11  1  0.672270  0.327875  0.750002  1
  Ta  Ta12  1  0.152100  0.992653  0.375579  1
  Ta  Ta13  1  0.847900  0.007347  0.875579  1
  Ta  Ta14  1  0.507173  0.652270  0.625859  1
  Ta  Ta15  1  0.347599  0.493033  0.874116  1
  Ta  Ta16  1  0.492827  0.347730  0.125859  1
  Ta  Ta17  1  0.652401  0.506967  0.374116  1
  Ta  Ta18  1  0.992807  0.152189  0.624403  1
  Ta  Ta19  1  0.007193  0.847811  0.124403  1
  Si  Si20  1  0.365087  0.296982  0.317306  1
  Si  Si21  1  0.634913  0.703018  0.817306  1
  Si  Si22  1  0.202537  0.864988  0.567627  1
  Si  Si23  1  0.134601  0.797085  0.932479  1
  Si  Si24  1  0.797463  0.135012  0.067627  1
  Si  Si25  1  0.865399  0.202915  0.432479  1
  Si  Si26  1  0.296647  0.365708  0.682584  1
  Si  Si27  1  0.703353  0.634292  0.182584  1
  Si  Si28  1  0.292861  0.047181  0.186063  1
  Si  Si29  1  0.707139  0.952819  0.686063  1
  Si  Si30  1  0.453136  0.793087  0.436042  1
  Si  Si31  1  0.206621  0.546644  0.064105  1
  Si  Si32  1  0.546864  0.206913  0.936042  1
  Si  Si33  1  0.793379  0.453356  0.564105  1
  Si  Si34  1  0.046914  0.293531  0.813839  1
  Si  Si35  1  0.953086  0.706469  0.313839  1
