# generated using pymatgen
data_Ho2Lu6Ti12Si15Ge
_symmetry_space_group_name_H-M   'P 1'
_cell_length_a   7.00651197
_cell_length_b   7.00067154
_cell_length_c   12.86407703
_cell_angle_alpha   89.99493210
_cell_angle_beta   89.94499417
_cell_angle_gamma   89.93637485
_symmetry_Int_Tables_number   1
_chemical_formula_structural   Ho2Lu6Ti12Si15Ge
_chemical_formula_sum   'Ho2 Lu6 Ti12 Si15 Ge1'
_cell_volume   630.98601281
_cell_formula_units_Z   1
loop_
 _symmetry_equiv_pos_site_id
 _symmetry_equiv_pos_as_xyz
  1  'x, y, z'
loop_
 _atom_site_type_symbol
 _atom_site_label
 _atom_site_symmetry_multiplicity
 _atom_site_fract_x
 _atom_site_fract_y
 _atom_site_fract_z
 _atom_site_occupancy
  Ho  Ho0  1  0.000865  0.342268  0.532122  1
  Ho  Ho1  1  0.997305  0.659384  0.033463  1
  Lu  Lu2  1  0.342131  0.000907  0.465424  1
  Lu  Lu3  1  0.499343  0.840347  0.717072  1
  Lu  Lu4  1  0.502071  0.159148  0.216807  1
  Lu  Lu5  1  0.840720  0.497556  0.283169  1
  Lu  Lu6  1  0.159331  0.503003  0.783783  1
  Lu  Lu7  1  0.659502  0.997544  0.967119  1
  Ti  Ti8  1  0.326648  0.326333  0.000155  1
  Ti  Ti9  1  0.173769  0.826539  0.250082  1
  Ti  Ti10  1  0.823089  0.173897  0.750636  1
  Ti  Ti11  1  0.673011  0.673696  0.499928  1
  Ti  Ti12  1  0.152097  0.007998  0.877341  1
  Ti  Ti13  1  0.492354  0.650766  0.126361  1
  Ti  Ti14  1  0.509554  0.350102  0.626553  1
  Ti  Ti15  1  0.651553  0.492753  0.874165  1
  Ti  Ti16  1  0.348855  0.508365  0.373510  1
  Ti  Ti17  1  0.848118  0.992685  0.375997  1
  Ti  Ti18  1  0.007983  0.151541  0.123864  1
  Ti  Ti19  1  0.989454  0.845261  0.622675  1
  Si  Si20  1  0.369245  0.703338  0.933213  1
  Si  Si21  1  0.630067  0.296975  0.432915  1
  Si  Si22  1  0.702344  0.367167  0.066953  1
  Si  Si23  1  0.298126  0.632800  0.566676  1
  Si  Si24  1  0.796081  0.868805  0.184013  1
  Si  Si25  1  0.132128  0.202667  0.316337  1
  Si  Si26  1  0.868408  0.797846  0.816369  1
  Si  Si27  1  0.293252  0.953461  0.065253  1
  Si  Si28  1  0.547541  0.792101  0.314648  1
  Si  Si29  1  0.455925  0.207941  0.816713  1
  Si  Si30  1  0.792228  0.547782  0.685867  1
  Si  Si31  1  0.208261  0.451961  0.185602  1
  Si  Si32  1  0.706606  0.046550  0.564840  1
  Si  Si33  1  0.952642  0.291043  0.934876  1
  Si  Si34  1  0.047628  0.709541  0.434386  1
  Ge  Ge35  1  0.201761  0.129929  0.681117  1
