# generated using pymatgen
data_BeNb9FeS6
_symmetry_space_group_name_H-M   'P 1'
_cell_length_a   10.24537600
_cell_length_b   10.24537560
_cell_length_c   3.40222900
_cell_angle_alpha   90.00000000
_cell_angle_beta   90.00000000
_cell_angle_gamma   119.99999484
_symmetry_Int_Tables_number   1
_chemical_formula_structural   BeNb9FeS6
_chemical_formula_sum   'Be1 Nb9 Fe1 S6'
_cell_volume   309.27867930
_cell_formula_units_Z   1
loop_
 _symmetry_equiv_pos_site_id
 _symmetry_equiv_pos_as_xyz
  1  'x, y, z'
loop_
 _atom_site_type_symbol
 _atom_site_label
 _atom_site_symmetry_multiplicity
 _atom_site_fract_x
 _atom_site_fract_y
 _atom_site_fract_z
 _atom_site_occupancy
  Be  Be0  1  0.666667  0.333333  0.000000  1
  Nb  Nb1  1  0.551721  0.539894  0.000000  1
  Nb  Nb2  1  0.460106  0.011826  0.000000  1
  Nb  Nb3  1  0.988174  0.448279  0.000000  1
  Nb  Nb4  1  0.802076  0.536309  0.500000  1
  Nb  Nb5  1  0.463691  0.265765  0.500000  1
  Nb  Nb6  1  0.734235  0.197924  0.500000  1
  Nb  Nb7  1  0.536323  0.801694  0.500000  1
  Nb  Nb8  1  0.265370  0.463677  0.500000  1
  Nb  Nb9  1  0.198306  0.734630  0.500000  1
  Fe  Fe10  1  0.333333  0.666667  0.000000  1
  S  S11  1  0.726278  0.726727  0.500000  1
  S  S12  1  0.273273  0.999551  0.500000  1
  S  S13  1  0.000449  0.273722  0.500000  1
  S  S14  1  0.299192  0.295773  0.000000  1
  S  S15  1  0.704227  0.003420  0.000000  1
  S  S16  1  0.996580  0.700808  0.000000  1
