# generated using pymatgen
data_Cs12Tl2Se9
_symmetry_space_group_name_H-M   'P 1'
_cell_length_a   13.85304000
_cell_length_b   15.83050341
_cell_length_c   18.56166000
_cell_angle_alpha   90.00000000
_cell_angle_beta   90.00000000
_cell_angle_gamma   103.31448941
_symmetry_Int_Tables_number   1
_chemical_formula_structural   Cs12Tl2Se9
_chemical_formula_sum   'Cs48 Tl8 Se36'
_cell_volume   3961.16854981
_cell_formula_units_Z   4
loop_
 _symmetry_equiv_pos_site_id
 _symmetry_equiv_pos_as_xyz
  1  'x, y, z'
loop_
 _atom_site_type_symbol
 _atom_site_label
 _atom_site_symmetry_multiplicity
 _atom_site_fract_x
 _atom_site_fract_y
 _atom_site_fract_z
 _atom_site_occupancy
  Cs  Cs0  1  0.412696  0.053393  0.052236  1
  Cs  Cs1  1  0.907947  0.037917  0.072342  1
  Cs  Cs2  1  0.907947  0.537917  0.427658  1
  Cs  Cs3  1  0.687253  0.818357  0.104343  1
  Cs  Cs4  1  0.312747  0.181643  0.895657  1
  Cs  Cs5  1  0.585123  0.291574  0.962037  1
  Cs  Cs6  1  0.959238  0.968020  0.729179  1
  Cs  Cs7  1  0.414877  0.708426  0.037963  1
  Cs  Cs8  1  0.587304  0.946607  0.947764  1
  Cs  Cs9  1  0.673377  0.553698  0.814383  1
  Cs  Cs10  1  0.092053  0.962083  0.927658  1
  Cs  Cs11  1  0.319709  0.185570  0.252213  1
  Cs  Cs12  1  0.832988  0.688763  0.603708  1
  Cs  Cs13  1  0.845904  0.214961  0.254508  1
  Cs  Cs14  1  0.276863  0.438865  0.945787  1
  Cs  Cs15  1  0.412696  0.553393  0.447764  1
  Cs  Cs16  1  0.680291  0.314430  0.752213  1
  Cs  Cs17  1  0.092053  0.462083  0.572342  1
  Cs  Cs18  1  0.326623  0.946302  0.314383  1
  Cs  Cs19  1  0.845904  0.714961  0.245492  1
  Cs  Cs20  1  0.832988  0.188763  0.896292  1
  Cs  Cs21  1  0.154096  0.285039  0.754508  1
  Cs  Cs22  1  0.587304  0.446607  0.552236  1
  Cs  Cs23  1  0.312747  0.681643  0.604343  1
  Cs  Cs24  1  0.021275  0.624697  0.945047  1
  Cs  Cs25  1  0.326623  0.446302  0.185617  1
  Cs  Cs26  1  0.040762  0.031980  0.270821  1
  Cs  Cs27  1  0.319709  0.685570  0.247787  1
  Cs  Cs28  1  0.411194  0.702371  0.816559  1
  Cs  Cs29  1  0.040762  0.531980  0.229179  1
  Cs  Cs30  1  0.411194  0.202371  0.683441  1
  Cs  Cs31  1  0.673377  0.053698  0.685617  1
  Cs  Cs32  1  0.588806  0.297629  0.183441  1
  Cs  Cs33  1  0.959238  0.468020  0.770821  1
  Cs  Cs34  1  0.167012  0.811237  0.103708  1
  Cs  Cs35  1  0.978725  0.875303  0.445047  1
  Cs  Cs36  1  0.167012  0.311237  0.396292  1
  Cs  Cs37  1  0.154096  0.785039  0.745492  1
  Cs  Cs38  1  0.723137  0.061135  0.445787  1
  Cs  Cs39  1  0.978725  0.375303  0.054953  1
  Cs  Cs40  1  0.687253  0.318357  0.395657  1
  Cs  Cs41  1  0.276863  0.938865  0.554213  1
  Cs  Cs42  1  0.680291  0.814430  0.747787  1
  Cs  Cs43  1  0.723137  0.561135  0.054213  1
  Cs  Cs44  1  0.021275  0.124697  0.554953  1
  Cs  Cs45  1  0.588806  0.797629  0.316559  1
  Cs  Cs46  1  0.414877  0.208426  0.462037  1
  Cs  Cs47  1  0.585123  0.791574  0.537963  1
  Tl  Tl48  1  0.824000  0.290850  0.581885  1
  Tl  Tl49  1  0.378043  0.972908  0.798118  1
  Tl  Tl50  1  0.378043  0.472908  0.701882  1
  Tl  Tl51  1  0.621957  0.027092  0.201882  1
  Tl  Tl52  1  0.176000  0.709150  0.418115  1
  Tl  Tl53  1  0.621957  0.527092  0.298118  1
  Tl  Tl54  1  0.824000  0.790850  0.918115  1
  Tl  Tl55  1  0.176000  0.209150  0.081885  1
  Se  Se56  1  0.097311  0.270546  0.200115  1
  Se  Se57  1  0.830577  0.460907  0.609073  1
  Se  Se58  1  0.781752  0.969621  0.253838  1
  Se  Se59  1  0.374635  0.783853  0.429907  1
  Se  Se60  1  0.914914  0.772633  0.044701  1
  Se  Se61  1  0.310397  0.866088  0.912258  1
  Se  Se62  1  0.188713  0.076447  0.422787  1
  Se  Se63  1  0.558413  0.119096  0.307992  1
  Se  Se64  1  0.689603  0.633912  0.412258  1
  Se  Se65  1  0.625365  0.716147  0.929907  1
  Se  Se66  1  0.625365  0.216147  0.570093  1
  Se  Se67  1  0.528494  0.610329  0.661162  1
  Se  Se68  1  0.811287  0.423553  0.922787  1
  Se  Se69  1  0.085086  0.727367  0.544701  1
  Se  Se70  1  0.169423  0.039093  0.109073  1
  Se  Se71  1  0.902689  0.229455  0.700115  1
  Se  Se72  1  0.085086  0.227367  0.955299  1
  Se  Se73  1  0.310397  0.366088  0.587742  1
  Se  Se74  1  0.218248  0.530379  0.753838  1
  Se  Se75  1  0.781752  0.469621  0.246162  1
  Se  Se76  1  0.441587  0.380904  0.807992  1
  Se  Se77  1  0.169423  0.539093  0.390927  1
  Se  Se78  1  0.188713  0.576447  0.077213  1
  Se  Se79  1  0.902689  0.729454  0.799885  1
  Se  Se80  1  0.097311  0.770546  0.299885  1
  Se  Se81  1  0.374635  0.283853  0.070093  1
  Se  Se82  1  0.471506  0.889671  0.161162  1
  Se  Se83  1  0.441587  0.880904  0.692008  1
  Se  Se84  1  0.830577  0.960907  0.890927  1
  Se  Se85  1  0.811287  0.923553  0.577213  1
  Se  Se86  1  0.558413  0.619096  0.192008  1
  Se  Se87  1  0.528494  0.110329  0.838838  1
  Se  Se88  1  0.218248  0.030379  0.746162  1
  Se  Se89  1  0.689603  0.133912  0.087742  1
  Se  Se90  1  0.914914  0.272633  0.455299  1
  Se  Se91  1  0.471506  0.389671  0.338838  1
