# generated using pymatgen
data_Ho2Si5Ir3
_symmetry_space_group_name_H-M   'P 1'
_cell_length_a   5.75349130
_cell_length_b   8.10224567
_cell_length_c   8.10224656
_cell_angle_alpha   91.91591057
_cell_angle_beta   109.31673048
_cell_angle_gamma   109.31673508
_symmetry_Int_Tables_number   1
_chemical_formula_structural   Ho2Si5Ir3
_chemical_formula_sum   'Ho4 Si10 Ir6'
_cell_volume   332.01206132
_cell_formula_units_Z   2
loop_
 _symmetry_equiv_pos_site_id
 _symmetry_equiv_pos_as_xyz
  1  'x, y, z'
loop_
 _atom_site_type_symbol
 _atom_site_label
 _atom_site_symmetry_multiplicity
 _atom_site_fract_x
 _atom_site_fract_y
 _atom_site_fract_z
 _atom_site_occupancy
  Ho  Ho0  1  0.767128  0.403782  0.136714  1
  Ho  Ho1  1  0.732872  0.863286  0.596218  1
  Ho  Ho2  1  0.232872  0.596218  0.863286  1
  Ho  Ho3  1  0.267128  0.136714  0.403782  1
  Si  Si4  1  0.839078  0.734536  0.943654  1
  Si  Si5  1  0.660922  0.056346  0.265464  1
  Si  Si6  1  0.160922  0.265464  0.056346  1
  Si  Si7  1  0.339078  0.943654  0.734536  1
  Si  Si8  1  0.750000  0.213246  0.786754  1
  Si  Si9  1  0.250000  0.786754  0.213246  1
  Si  Si10  1  0.750000  0.511472  0.488528  1
  Si  Si11  1  0.250000  0.488528  0.511472  1
  Si  Si12  1  0.750000  0.773613  0.226387  1
  Si  Si13  1  0.250000  0.226387  0.773613  1
  Ir  Ir14  1  0.625341  0.465744  0.747244  1
  Ir  Ir15  1  0.874659  0.252756  0.534256  1
  Ir  Ir16  1  0.374659  0.534256  0.252756  1
  Ir  Ir17  1  0.125341  0.747244  0.465744  1
  Ir  Ir18  1  0.750000  0.001022  0.998978  1
  Ir  Ir19  1  0.250000  0.998978  0.001022  1
