# generated using pymatgen
data_Pr4DyTc3(P3Ir4)4
_symmetry_space_group_name_H-M   'P 1'
_cell_length_a   12.76081600
_cell_length_b   12.76081701
_cell_length_c   4.00978000
_cell_angle_alpha   90.00000000
_cell_angle_beta   90.00000000
_cell_angle_gamma   119.99999737
_symmetry_Int_Tables_number   1
_chemical_formula_structural   Pr4DyTc3(P3Ir4)4
_chemical_formula_sum   'Pr4 Dy1 Tc3 P12 Ir16'
_cell_volume   565.46810816
_cell_formula_units_Z   1
loop_
 _symmetry_equiv_pos_site_id
 _symmetry_equiv_pos_as_xyz
  1  'x, y, z'
loop_
 _atom_site_type_symbol
 _atom_site_label
 _atom_site_symmetry_multiplicity
 _atom_site_fract_x
 _atom_site_fract_y
 _atom_site_fract_z
 _atom_site_occupancy
  Pr  Pr0  1  0.333333  0.666667  0.500000  1
  Pr  Pr1  1  0.999982  0.813347  0.000000  1
  Pr  Pr2  1  0.186653  0.186635  0.000000  1
  Pr  Pr3  1  0.813365  0.000018  0.000000  1
  Dy  Dy4  1  0.666667  0.333333  0.500000  1
  Tc  Tc5  1  0.998396  0.453808  0.500000  1
  Tc  Tc6  1  0.546192  0.544588  0.500000  1
  Tc  Tc7  1  0.455412  0.001604  0.500000  1
  P  P8  1  0.000823  0.635917  0.500000  1
  P  P9  1  0.364083  0.364905  0.500000  1
  P  P10  1  0.635095  0.999177  0.500000  1
  P  P11  1  0.517519  0.685680  0.000000  1
  P  P12  1  0.314320  0.831838  0.000000  1
  P  P13  1  0.168162  0.482481  0.000000  1
  P  P14  1  0.484911  0.171836  0.000000  1
  P  P15  1  0.686924  0.515089  0.000000  1
  P  P16  1  0.828164  0.313076  0.000000  1
  P  P17  1  0.999260  0.178741  0.500000  1
  P  P18  1  0.821259  0.820519  0.500000  1
  P  P19  1  0.179481  0.000740  0.500000  1
  Ir  Ir20  1  0.512248  0.872650  0.000000  1
  Ir  Ir21  1  0.127350  0.639599  0.000000  1
  Ir  Ir22  1  0.360401  0.487752  0.000000  1
  Ir  Ir23  1  0.492693  0.360318  0.000000  1
  Ir  Ir24  1  0.867626  0.507307  0.000000  1
  Ir  Ir25  1  0.639682  0.132374  0.000000  1
  Ir  Ir26  1  0.998353  0.290381  0.000000  1
  Ir  Ir27  1  0.709619  0.707973  0.000000  1
  Ir  Ir28  1  0.292027  0.001647  0.000000  1
  Ir  Ir29  1  0.622639  0.800347  0.500000  1
  Ir  Ir30  1  0.199653  0.822292  0.500000  1
  Ir  Ir31  1  0.177708  0.377361  0.500000  1
  Ir  Ir32  1  0.379267  0.180159  0.500000  1
  Ir  Ir33  1  0.800893  0.620733  0.500000  1
  Ir  Ir34  1  0.819841  0.199107  0.500000  1
  Ir  Ir35  1  0.000000  0.000000  0.500000  1
