# generated using pymatgen
data_Dy9Er(GeB4)4
_symmetry_space_group_name_H-M   'P 1'
_cell_length_a   7.25322400
_cell_length_b   7.25322400
_cell_length_c   8.14468100
_cell_angle_alpha   90.00000000
_cell_angle_beta   90.00000000
_cell_angle_gamma   90.00000000
_symmetry_Int_Tables_number   1
_chemical_formula_structural   Dy9Er(GeB4)4
_chemical_formula_sum   'Dy9 Er1 Ge4 B16'
_cell_volume   428.48562727
_cell_formula_units_Z   1
loop_
 _symmetry_equiv_pos_site_id
 _symmetry_equiv_pos_as_xyz
  1  'x, y, z'
loop_
 _atom_site_type_symbol
 _atom_site_label
 _atom_site_symmetry_multiplicity
 _atom_site_fract_x
 _atom_site_fract_y
 _atom_site_fract_z
 _atom_site_occupancy
  Dy  Dy0  1  0.680576  0.180330  0.221476  1
  Dy  Dy1  1  0.319424  0.819670  0.778524  1
  Dy  Dy2  1  0.319424  0.819670  0.221476  1
  Dy  Dy3  1  0.819670  0.680576  0.221476  1
  Dy  Dy4  1  0.819670  0.680576  0.778524  1
  Dy  Dy5  1  0.680576  0.180330  0.778524  1
  Dy  Dy6  1  0.180330  0.319424  0.778524  1
  Dy  Dy7  1  0.180330  0.319424  0.221476  1
  Dy  Dy8  1  0.500000  0.500000  0.500000  1
  Er  Er9  1  0.000000  0.000000  0.500000  1
  Ge  Ge10  1  0.119461  0.620986  0.500000  1
  Ge  Ge11  1  0.880539  0.379014  0.500000  1
  Ge  Ge12  1  0.379014  0.119461  0.500000  1
  Ge  Ge13  1  0.620986  0.880539  0.500000  1
  B  B14  1  0.172064  0.039147  0.000000  1
  B  B15  1  0.827936  0.960853  0.000000  1
  B  B16  1  0.960853  0.172064  0.000000  1
  B  B17  1  0.327933  0.539188  0.000000  1
  B  B18  1  0.039147  0.827936  0.000000  1
  B  B19  1  0.672067  0.460812  0.000000  1
  B  B20  1  0.539188  0.672067  0.000000  1
  B  B21  1  0.460812  0.327933  0.000000  1
  B  B22  1  0.090408  0.590350  0.000000  1
  B  B23  1  0.909592  0.409650  0.000000  1
  B  B24  1  0.409650  0.090408  0.000000  1
  B  B25  1  0.590350  0.909592  0.000000  1
  B  B26  1  0.000000  0.000000  0.162144  1
  B  B27  1  0.000000  0.000000  0.837856  1
  B  B28  1  0.500000  0.500000  0.838219  1
  B  B29  1  0.500000  0.500000  0.161781  1
