# generated using pymatgen
data_Mn7AlPbO16
_symmetry_space_group_name_H-M   'P 1'
_cell_length_a   5.88027773
_cell_length_b   7.12351143
_cell_length_c   7.17999172
_cell_angle_alpha   88.52969668
_cell_angle_beta   78.09505315
_cell_angle_gamma   77.88547290
_symmetry_Int_Tables_number   1
_chemical_formula_structural   Mn7AlPbO16
_chemical_formula_sum   'Mn7 Al1 Pb1 O16'
_cell_volume   287.68551726
_cell_formula_units_Z   1
loop_
 _symmetry_equiv_pos_site_id
 _symmetry_equiv_pos_as_xyz
  1  'x, y, z'
loop_
 _atom_site_type_symbol
 _atom_site_label
 _atom_site_symmetry_multiplicity
 _atom_site_fract_x
 _atom_site_fract_y
 _atom_site_fract_z
 _atom_site_occupancy
  Mn  Mn0  1  0.082256  0.504291  0.182190  1
  Mn  Mn1  1  0.171746  0.817233  0.513032  1
  Mn  Mn2  1  0.668431  0.818756  0.517370  1
  Mn  Mn3  1  0.339962  0.186281  0.468514  1
  Mn  Mn4  1  0.837369  0.185715  0.482574  1
  Mn  Mn5  1  0.431636  0.488235  0.818211  1
  Mn  Mn6  1  0.925234  0.491113  0.817716  1
  Al  Al7  1  0.578986  0.518493  0.185991  1
  Pb  Pb8  1  0.008958  0.954873  0.040074  1
  O  O9  1  0.835726  0.648088  0.057306  1
  O  O10  1  0.318467  0.648472  0.057685  1
  O  O11  1  0.981755  0.700130  0.381387  1
  O  O12  1  0.485033  0.701045  0.382922  1
  O  O13  1  0.856400  0.956106  0.642671  1
  O  O14  1  0.351186  0.960730  0.634376  1
  O  O15  1  0.346886  0.375217  0.281263  1
  O  O16  1  0.836253  0.368815  0.282153  1
  O  O17  1  0.167685  0.636109  0.716974  1
  O  O18  1  0.663994  0.637646  0.719394  1
  O  O19  1  0.141248  0.033961  0.342932  1
  O  O20  1  0.672360  0.036352  0.348009  1
  O  O21  1  0.019848  0.303207  0.615134  1
  O  O22  1  0.530653  0.304143  0.616032  1
  O  O23  1  0.176996  0.355928  0.946098  1
  O  O24  1  0.678033  0.369061  0.949988  1
