# generated using pymatgen
data_Co2Sb3WO12
_symmetry_space_group_name_H-M   'P 1'
_cell_length_a   4.71190402
_cell_length_b   10.59051428
_cell_length_c   9.42357267
_cell_angle_alpha   63.58745545
_cell_angle_beta   90.08813541
_cell_angle_gamma   90.03922243
_symmetry_Int_Tables_number   1
_chemical_formula_structural   Co2Sb3WO12
_chemical_formula_sum   'Co4 Sb6 W2 O24'
_cell_volume   421.16242517
_cell_formula_units_Z   2
loop_
 _symmetry_equiv_pos_site_id
 _symmetry_equiv_pos_as_xyz
  1  'x, y, z'
loop_
 _atom_site_type_symbol
 _atom_site_label
 _atom_site_symmetry_multiplicity
 _atom_site_fract_x
 _atom_site_fract_y
 _atom_site_fract_z
 _atom_site_occupancy
  Co  Co0  1  0.999997  0.999664  0.500165  1
  Co  Co1  1  0.499999  0.499183  0.000414  1
  Co  Co2  1  0.000003  0.999663  0.000164  1
  Co  Co3  1  0.499995  0.499178  0.500418  1
  Sb  Sb4  1  0.000010  0.330853  0.334605  1
  Sb  Sb5  1  0.000012  0.330805  0.834614  1
  Sb  Sb6  1  0.500008  0.167453  0.166232  1
  Sb  Sb7  1  0.500031  0.167459  0.666275  1
  Sb  Sb8  1  0.499999  0.834437  0.832805  1
  Sb  Sb9  1  0.499972  0.834438  0.332752  1
  W  W10  1  0.000005  0.665765  0.667075  1
  W  W11  1  0.999992  0.665802  0.167092  1
  O  O12  1  0.308849  0.000705  0.345254  1
  O  O13  1  0.308881  0.000688  0.845238  1
  O  O14  1  0.691176  0.000666  0.654058  1
  O  O15  1  0.691152  0.000674  0.154081  1
  O  O16  1  0.189737  0.499588  0.845090  1
  O  O17  1  0.189737  0.499547  0.345104  1
  O  O18  1  0.810258  0.499515  0.155365  1
  O  O19  1  0.810257  0.499552  0.655352  1
  O  O20  1  0.303180  0.327862  0.184508  1
  O  O21  1  0.303177  0.327844  0.684484  1
  O  O22  1  0.199856  0.827774  0.686039  1
  O  O23  1  0.199922  0.827760  0.186074  1
  O  O24  1  0.296779  0.674271  0.014406  1
  O  O25  1  0.296783  0.674267  0.514459  1
  O  O26  1  0.197180  0.171189  0.013006  1
  O  O27  1  0.197153  0.171179  0.512983  1
  O  O28  1  0.800052  0.827767  0.986171  1
  O  O29  1  0.800105  0.827772  0.486213  1
  O  O30  1  0.696813  0.327867  0.987686  1
  O  O31  1  0.696839  0.327873  0.487630  1
  O  O32  1  0.703217  0.674257  0.811266  1
  O  O33  1  0.703216  0.674277  0.311300  1
  O  O34  1  0.802845  0.171191  0.315817  1
  O  O35  1  0.802811  0.171212  0.815805  1
