# generated using pymatgen
data_Ba2Cd7(AsO4)6
_symmetry_space_group_name_H-M   'P 1'
_cell_length_a   9.15280105
_cell_length_b   12.38453144
_cell_length_c   5.47604588
_cell_angle_alpha   89.43875417
_cell_angle_beta   89.96268746
_cell_angle_gamma   87.60233149
_symmetry_Int_Tables_number   1
_chemical_formula_structural   Ba2Cd7(AsO4)6
_chemical_formula_sum   'Ba2 Cd7 As6 O24'
_cell_volume   620.15386453
_cell_formula_units_Z   1
loop_
 _symmetry_equiv_pos_site_id
 _symmetry_equiv_pos_as_xyz
  1  'x, y, z'
loop_
 _atom_site_type_symbol
 _atom_site_label
 _atom_site_symmetry_multiplicity
 _atom_site_fract_x
 _atom_site_fract_y
 _atom_site_fract_z
 _atom_site_occupancy
  Ba  Ba0  1  0.531532  0.831600  0.992814  1
  Ba  Ba1  1  0.468468  0.168400  0.007187  1
  Cd  Cd2  1  0.000000  0.000000  0.000000  1
  Cd  Cd3  1  0.500000  0.500000  0.000000  1
  Cd  Cd4  1  0.921983  0.817167  0.482079  1
  Cd  Cd5  1  0.281842  0.669292  0.493349  1
  Cd  Cd6  1  0.000000  0.500000  0.500001  1
  Cd  Cd7  1  0.718159  0.330708  0.506650  1
  Cd  Cd8  1  0.078017  0.182833  0.517922  1
  As  As9  1  0.908117  0.290346  0.999807  1
  As  As10  1  0.268000  0.952980  0.472971  1
  As  As11  1  0.349928  0.375135  0.473695  1
  As  As12  1  0.650073  0.624865  0.526306  1
  As  As13  1  0.732001  0.047020  0.527030  1
  As  As14  1  0.091884  0.709654  0.000194  1
  O  O15  1  0.269015  0.722493  0.100449  1
  O  O16  1  0.994209  0.174530  0.123704  1
  O  O17  1  0.992056  0.667776  0.250991  1
  O  O18  1  0.599176  0.633674  0.224512  1
  O  O19  1  0.380942  0.994645  0.245755  1
  O  O20  1  0.896993  0.379768  0.239441  1
  O  O21  1  0.511168  0.384213  0.303488  1
  O  O22  1  0.771548  0.950357  0.304911  1
  O  O23  1  0.101502  0.923356  0.337930  1
  O  O24  1  0.241948  0.487190  0.390588  1
  O  O25  1  0.657411  0.162697  0.391318  1
  O  O26  1  0.279004  0.257964  0.375391  1
  O  O27  1  0.720997  0.742036  0.624608  1
  O  O28  1  0.342588  0.837303  0.608682  1
  O  O29  1  0.758052  0.512809  0.609413  1
  O  O30  1  0.898497  0.076644  0.662069  1
  O  O31  1  0.228453  0.049643  0.695088  1
  O  O32  1  0.488831  0.615787  0.696513  1
  O  O33  1  0.103006  0.620232  0.760560  1
  O  O34  1  0.619058  0.005355  0.754245  1
  O  O35  1  0.400823  0.366326  0.775488  1
  O  O36  1  0.007943  0.332224  0.749008  1
  O  O37  1  0.005791  0.825470  0.876295  1
  O  O38  1  0.730986  0.277507  0.899550  1
