# generated using pymatgen
data_Ho3Tm(Al8Pt3)3
_symmetry_space_group_name_H-M   'P 1'
_cell_length_a   7.51729986
_cell_length_b   7.53668403
_cell_length_c   13.14218105
_cell_angle_alpha   84.57877784
_cell_angle_beta   79.10720340
_cell_angle_gamma   59.97067333
_symmetry_Int_Tables_number   1
_chemical_formula_structural   Ho3Tm(Al8Pt3)3
_chemical_formula_sum   'Ho3 Tm1 Al24 Pt9'
_cell_volume   633.01730044
_cell_formula_units_Z   1
loop_
 _symmetry_equiv_pos_site_id
 _symmetry_equiv_pos_as_xyz
  1  'x, y, z'
loop_
 _atom_site_type_symbol
 _atom_site_label
 _atom_site_symmetry_multiplicity
 _atom_site_fract_x
 _atom_site_fract_y
 _atom_site_fract_z
 _atom_site_occupancy
  Ho  Ho0  1  0.606604  0.831573  0.191851  1
  Ho  Ho1  1  0.733830  0.498551  0.807630  1
  Ho  Ho2  1  0.266317  0.501394  0.191986  1
  Tm  Tm3  1  0.393594  0.168532  0.807587  1
  Al  Al4  1  0.684335  0.833777  0.943338  1
  Al  Al5  1  0.315944  0.166241  0.055100  1
  Al  Al6  1  0.146385  0.832605  0.562177  1
  Al  Al7  1  0.853116  0.167406  0.438606  1
  Al  Al8  1  0.479676  0.166877  0.559310  1
  Al  Al9  1  0.519948  0.833337  0.441556  1
  Al  Al10  1  0.217091  0.165382  0.329858  1
  Al  Al11  1  0.782137  0.834884  0.671600  1
  Al  Al12  1  0.436883  0.506206  0.671872  1
  Al  Al13  1  0.562464  0.493723  0.329455  1
  Al  Al14  1  0.109500  0.159843  0.670790  1
  Al  Al15  1  0.890400  0.839906  0.330606  1
  Al  Al16  1  0.353641  0.499148  0.943326  1
  Al  Al17  1  0.647274  0.500432  0.055343  1
  Al  Al18  1  0.016181  0.167906  0.951474  1
  Al  Al19  1  0.984511  0.832524  0.046628  1
  Al  Al20  1  0.186664  0.499185  0.441563  1
  Al  Al21  1  0.813264  0.500648  0.558910  1
  Al  Al22  1  0.734199  0.163868  0.183404  1
  Al  Al23  1  0.265097  0.837561  0.816458  1
  Al  Al24  1  0.062679  0.630431  0.815248  1
  Al  Al25  1  0.938943  0.368765  0.184377  1
  Al  Al26  1  0.854482  0.041108  0.815860  1
  Al  Al27  1  0.144938  0.958185  0.183758  1
  Pt  Pt28  1  0.119972  0.491197  0.639480  1
  Pt  Pt29  1  0.880096  0.508317  0.360993  1
  Pt  Pt30  1  0.657235  0.171500  0.999412  1
  Pt  Pt31  1  0.342923  0.828699  0.999742  1
  Pt  Pt32  1  0.537841  0.166708  0.361185  1
  Pt  Pt33  1  0.462126  0.833535  0.639421  1
  Pt  Pt34  1  0.777929  0.175499  0.637838  1
  Pt  Pt35  1  0.221411  0.824771  0.362737  1
  Pt  Pt36  1  0.000366  0.499779  0.999518  1
