# generated using pymatgen
data_PrY3Mo(WN4)3
_symmetry_space_group_name_H-M   'P 1'
_cell_length_a   7.33381651
_cell_length_b   7.33991452
_cell_length_c   6.28511830
_cell_angle_alpha   74.78142100
_cell_angle_beta   74.67967391
_cell_angle_gamma   82.59327066
_symmetry_Int_Tables_number   1
_chemical_formula_structural   PrY3Mo(WN4)3
_chemical_formula_sum   'Pr1 Y3 Mo1 W3 N12'
_cell_volume   314.21417684
_cell_formula_units_Z   1
loop_
 _symmetry_equiv_pos_site_id
 _symmetry_equiv_pos_as_xyz
  1  'x, y, z'
loop_
 _atom_site_type_symbol
 _atom_site_label
 _atom_site_symmetry_multiplicity
 _atom_site_fract_x
 _atom_site_fract_y
 _atom_site_fract_z
 _atom_site_occupancy
  Pr  Pr0  1  0.698838  0.300037  0.749530  1
  Y  Y1  1  0.092146  0.909006  0.749777  1
  Y  Y2  1  0.294625  0.702481  0.250831  1
  Y  Y3  1  0.916584  0.086469  0.249531  1
  Mo  Mo4  1  0.379518  0.199543  0.242533  1
  W  W5  1  0.618519  0.800318  0.760716  1
  W  W6  1  0.799579  0.620569  0.256906  1
  W  W7  1  0.199780  0.381655  0.739170  1
  N  N8  1  0.619393  0.111897  0.168154  1
  N  N9  1  0.359713  0.357682  0.455372  1
  N  N10  1  0.006014  0.214129  0.851437  1
  N  N11  1  0.377143  0.892318  0.844753  1
  N  N12  1  0.785777  0.993467  0.648799  1
  N  N13  1  0.108004  0.623387  0.655371  1
  N  N14  1  0.887804  0.378093  0.334892  1
  N  N15  1  0.640916  0.651307  0.539730  1
  N  N16  1  0.642798  0.640815  0.045161  1
  N  N17  1  0.350307  0.358664  0.958687  1
  N  N18  1  0.001148  0.779505  0.149751  1
  N  N19  1  0.221395  0.998658  0.348898  1
