# generated using pymatgen
data_Tb2DyMg3RuAu2
_symmetry_space_group_name_H-M   'P 1'
_cell_length_a   7.57007214
_cell_length_b   7.56586651
_cell_length_c   4.04471700
_cell_angle_alpha   90.00000000
_cell_angle_beta   90.00000000
_cell_angle_gamma   119.99668222
_symmetry_Int_Tables_number   1
_chemical_formula_structural   Tb2DyMg3RuAu2
_chemical_formula_sum   'Tb2 Dy1 Mg3 Ru1 Au2'
_cell_volume   200.62820296
_cell_formula_units_Z   1
loop_
 _symmetry_equiv_pos_site_id
 _symmetry_equiv_pos_as_xyz
  1  'x, y, z'
loop_
 _atom_site_type_symbol
 _atom_site_label
 _atom_site_symmetry_multiplicity
 _atom_site_fract_x
 _atom_site_fract_y
 _atom_site_fract_z
 _atom_site_occupancy
  Tb  Tb0  1  0.574137  0.973208  0.000000  1
  Tb  Tb1  1  0.026685  0.600876  0.000000  1
  Dy  Dy2  1  0.398446  0.425294  0.000000  1
  Mg  Mg3  1  0.253318  0.001106  0.500000  1
  Mg  Mg4  1  0.999623  0.252568  0.500000  1
  Mg  Mg5  1  0.747099  0.746377  0.500000  1
  Ru  Ru6  1  0.333739  0.665926  0.500000  1
  Au  Au7  1  0.666025  0.333715  0.500000  1
  Au  Au8  1  0.000928  0.000930  0.000000  1
