# generated using pymatgen
data_PrYNCl3
_symmetry_space_group_name_H-M   'P 1'
_cell_length_a   8.60988406
_cell_length_b   8.60988448
_cell_length_c   11.01473180
_cell_angle_alpha   60.15039214
_cell_angle_beta   60.15039073
_cell_angle_gamma   26.66739513
_symmetry_Int_Tables_number   1
_chemical_formula_structural   PrYNCl3
_chemical_formula_sum   'Pr2 Y2 N2 Cl6'
_cell_volume   314.89358766
_cell_formula_units_Z   2
loop_
 _symmetry_equiv_pos_site_id
 _symmetry_equiv_pos_as_xyz
  1  'x, y, z'
loop_
 _atom_site_type_symbol
 _atom_site_label
 _atom_site_symmetry_multiplicity
 _atom_site_fract_x
 _atom_site_fract_y
 _atom_site_fract_z
 _atom_site_occupancy
  Pr  Pr0  1  0.862546  0.862546  0.291852  1
  Pr  Pr1  1  0.137454  0.137454  0.708148  1
  Y  Y2  1  0.582113  0.582113  0.044469  1
  Y  Y3  1  0.417887  0.417887  0.955531  1
  N  N4  1  0.427062  0.427062  0.151619  1
  N  N5  1  0.572938  0.572938  0.848381  1
  Cl  Cl6  1  0.050521  0.050521  0.240095  1
  Cl  Cl7  1  0.949479  0.949479  0.759905  1
  Cl  Cl8  1  0.664473  0.664473  0.486738  1
  Cl  Cl9  1  0.335527  0.335527  0.513262  1
  Cl  Cl10  1  0.785546  0.785546  0.105562  1
  Cl  Cl11  1  0.214454  0.214454  0.894438  1
