# generated using pymatgen
data_YbDyB4Ru5
_symmetry_space_group_name_H-M   'P 1'
_cell_length_a   3.03316000
_cell_length_b   8.72540055
_cell_length_c   10.22830204
_cell_angle_alpha   89.66173259
_cell_angle_beta   90.00000000
_cell_angle_gamma   90.00000000
_symmetry_Int_Tables_number   1
_chemical_formula_structural   YbDyB4Ru5
_chemical_formula_sum   'Yb2 Dy2 B8 Ru10'
_cell_volume   270.69277738
_cell_formula_units_Z   2
loop_
 _symmetry_equiv_pos_site_id
 _symmetry_equiv_pos_as_xyz
  1  'x, y, z'
loop_
 _atom_site_type_symbol
 _atom_site_label
 _atom_site_symmetry_multiplicity
 _atom_site_fract_x
 _atom_site_fract_y
 _atom_site_fract_z
 _atom_site_occupancy
  Yb  Yb0  1  0.500000  0.842400  0.180926  1
  Yb  Yb1  1  0.500000  0.157600  0.819074  1
  Dy  Dy2  1  0.500000  0.659237  0.683655  1
  Dy  Dy3  1  0.500000  0.340763  0.316345  1
  B  B4  1  0.500000  0.966120  0.589239  1
  B  B5  1  0.500000  0.033880  0.410761  1
  B  B6  1  0.500000  0.854921  0.901607  1
  B  B7  1  0.500000  0.145079  0.098393  1
  B  B8  1  0.500000  0.648633  0.397986  1
  B  B9  1  0.500000  0.351367  0.602014  1
  B  B10  1  0.500000  0.464917  0.911381  1
  B  B11  1  0.500000  0.535083  0.088619  1
  Ru  Ru12  1  0.000000  0.656482  0.953842  1
  Ru  Ru13  1  0.000000  0.343518  0.046158  1
  Ru  Ru14  1  0.000000  0.843047  0.454335  1
  Ru  Ru15  1  0.000000  0.156953  0.545665  1
  Ru  Ru16  1  0.000000  0.000000  0.000000  1
  Ru  Ru17  1  0.000000  0.403571  0.760871  1
  Ru  Ru18  1  0.000000  0.596429  0.239129  1
  Ru  Ru19  1  0.000000  0.500000  0.500000  1
  Ru  Ru20  1  0.000000  0.907337  0.740110  1
  Ru  Ru21  1  0.000000  0.092663  0.259890  1
