# generated using pymatgen
data_Mg3Sc4TaRh8
_symmetry_space_group_name_H-M   'P 1'
_cell_length_a   6.30462201
_cell_length_b   6.30737300
_cell_length_c   6.52197001
_cell_angle_alpha   90.00000000
_cell_angle_beta   90.00470785
_cell_angle_gamma   90.00000000
_symmetry_Int_Tables_number   1
_chemical_formula_structural   Mg3Sc4TaRh8
_chemical_formula_sum   'Mg3 Sc4 Ta1 Rh8'
_cell_volume   259.35006661
_cell_formula_units_Z   1
loop_
 _symmetry_equiv_pos_site_id
 _symmetry_equiv_pos_as_xyz
  1  'x, y, z'
loop_
 _atom_site_type_symbol
 _atom_site_label
 _atom_site_symmetry_multiplicity
 _atom_site_fract_x
 _atom_site_fract_y
 _atom_site_fract_z
 _atom_site_occupancy
  Mg  Mg0  1  0.250007  0.750001  0.000015  1
  Mg  Mg1  1  0.749990  0.250000  0.499985  1
  Mg  Mg2  1  0.249998  0.750001  0.500005  1
  Sc  Sc3  1  0.250038  0.250000  0.000010  1
  Sc  Sc4  1  0.749979  0.750001  0.000009  1
  Sc  Sc5  1  0.250011  0.250000  0.499988  1
  Sc  Sc6  1  0.749980  0.750001  0.500001  1
  Ta  Ta7  1  0.750023  0.250000  0.000040  1
  Rh  Rh8  1  0.996129  0.003822  0.243987  1
  Rh  Rh9  1  0.996129  0.496179  0.243987  1
  Rh  Rh10  1  0.503876  0.003820  0.243997  1
  Rh  Rh11  1  0.503876  0.496181  0.243997  1
  Rh  Rh12  1  0.503855  0.003814  0.755988  1
  Rh  Rh13  1  0.503855  0.496185  0.755988  1
  Rh  Rh14  1  0.996129  0.003821  0.756003  1
  Rh  Rh15  1  0.996129  0.496178  0.756003  1
