# generated using pymatgen
data_GdHg4Se2Cl5
_symmetry_space_group_name_H-M   'P 1'
_cell_length_a   8.54642752
_cell_length_b   10.62710400
_cell_length_c   9.17145559
_cell_angle_alpha   90.00000000
_cell_angle_beta   113.25635234
_cell_angle_gamma   90.00000000
_symmetry_Int_Tables_number   1
_chemical_formula_structural   GdHg4Se2Cl5
_chemical_formula_sum   'Gd2 Hg8 Se4 Cl10'
_cell_volume   765.30394831
_cell_formula_units_Z   2
loop_
 _symmetry_equiv_pos_site_id
 _symmetry_equiv_pos_as_xyz
  1  'x, y, z'
loop_
 _atom_site_type_symbol
 _atom_site_label
 _atom_site_symmetry_multiplicity
 _atom_site_fract_x
 _atom_site_fract_y
 _atom_site_fract_z
 _atom_site_occupancy
  Gd  Gd0  1  0.499490  0.431097  0.503123  1
  Gd  Gd1  1  0.500510  0.931097  0.496877  1
  Hg  Hg2  1  0.927551  0.180988  0.329969  1
  Hg  Hg3  1  0.072449  0.680988  0.670031  1
  Hg  Hg4  1  0.953834  0.667838  0.358862  1
  Hg  Hg5  1  0.046166  0.167838  0.641138  1
  Hg  Hg6  1  0.497076  0.181933  0.988155  1
  Hg  Hg7  1  0.502924  0.681933  0.011845  1
  Hg  Hg8  1  0.807204  0.432375  0.012802  1
  Hg  Hg9  1  0.192796  0.932375  0.987198  1
  Se  Se10  1  0.804616  0.192624  0.020450  1
  Se  Se11  1  0.195384  0.692624  0.979550  1
  Se  Se12  1  0.188203  0.170280  0.950723  1
  Se  Se13  1  0.811797  0.670280  0.049277  1
  Cl  Cl14  1  0.831810  0.925686  0.681071  1
  Cl  Cl15  1  0.168190  0.425686  0.318929  1
  Cl  Cl16  1  0.832668  0.438338  0.700630  1
  Cl  Cl17  1  0.167332  0.938338  0.299370  1
  Cl  Cl18  1  0.418889  0.457697  0.758155  1
  Cl  Cl19  1  0.581111  0.957697  0.241845  1
  Cl  Cl20  1  0.593730  0.394552  0.261799  1
  Cl  Cl21  1  0.406270  0.894552  0.738201  1
  Cl  Cl22  1  0.496841  0.180194  0.554972  1
  Cl  Cl23  1  0.503159  0.680194  0.445028  1
