# generated using pymatgen
data_CsRb12Ti2(In3As5)2
_symmetry_space_group_name_H-M   'P 1'
_cell_length_a   9.64754907
_cell_length_b   9.69729694
_cell_length_c   13.75905437
_cell_angle_alpha   81.78743942
_cell_angle_beta   78.84517042
_cell_angle_gamma   63.44612406
_symmetry_Int_Tables_number   1
_chemical_formula_structural   CsRb12Ti2(In3As5)2
_chemical_formula_sum   'Cs1 Rb12 Ti2 In6 As10'
_cell_volume   1127.36093631
_cell_formula_units_Z   1
loop_
 _symmetry_equiv_pos_site_id
 _symmetry_equiv_pos_as_xyz
  1  'x, y, z'
loop_
 _atom_site_type_symbol
 _atom_site_label
 _atom_site_symmetry_multiplicity
 _atom_site_fract_x
 _atom_site_fract_y
 _atom_site_fract_z
 _atom_site_occupancy
  Cs  Cs0  1  0.099771  0.145458  0.834223  1
  Rb  Rb1  1  0.495206  0.868289  0.354332  1
  Rb  Rb2  1  0.505004  0.131699  0.645872  1
  Rb  Rb3  1  0.853380  0.586354  0.883290  1
  Rb  Rb4  1  0.147509  0.413634  0.116846  1
  Rb  Rb5  1  0.092270  0.784456  0.429341  1
  Rb  Rb6  1  0.907625  0.215514  0.570275  1
  Rb  Rb7  1  0.742975  0.684580  0.596565  1
  Rb  Rb8  1  0.257022  0.315718  0.403377  1
  Rb  Rb9  1  0.500409  0.499712  0.999938  1
  Rb  Rb10  1  0.321484  0.929545  0.087387  1
  Rb  Rb11  1  0.678930  0.069823  0.912642  1
  Rb  Rb12  1  0.889273  0.861741  0.165321  1
  Ti  Ti13  1  0.382244  0.736278  0.775373  1
  Ti  Ti14  1  0.619236  0.262109  0.224811  1
  In  In15  1  0.032332  0.809452  0.707870  1
  In  In16  1  0.967711  0.190403  0.292217  1
  In  In17  1  0.598159  0.444201  0.408585  1
  In  In18  1  0.401501  0.556501  0.591230  1
  In  In19  1  0.722977  0.558810  0.171023  1
  In  In20  1  0.278669  0.440687  0.829208  1
  As  As21  1  0.431335  0.549021  0.251435  1
  As  As22  1  0.569806  0.450521  0.747926  1
  As  As23  1  0.138484  0.743332  0.894878  1
  As  As24  1  0.862870  0.254513  0.105939  1
  As  As25  1  0.706450  0.130112  0.391275  1
  As  As26  1  0.294040  0.869412  0.608885  1
  As  As27  1  0.857978  0.507840  0.352660  1
  As  As28  1  0.142480  0.492998  0.647392  1
  As  As29  1  0.502689  0.862303  0.841210  1
  As  As30  1  0.500183  0.134984  0.158673  1
