# generated using pymatgen
data_Cs4V2PtSe8
_symmetry_space_group_name_H-M   'P 1'
_cell_length_a   14.12251700
_cell_length_b   7.80043487
_cell_length_c   10.12437019
_cell_angle_alpha   84.53629435
_cell_angle_beta   90.00000000
_cell_angle_gamma   90.00000000
_symmetry_Int_Tables_number   1
_chemical_formula_structural   Cs4V2PtSe8
_chemical_formula_sum   'Cs8 V4 Pt2 Se16'
_cell_volume   1110.25136813
_cell_formula_units_Z   2
loop_
 _symmetry_equiv_pos_site_id
 _symmetry_equiv_pos_as_xyz
  1  'x, y, z'
loop_
 _atom_site_type_symbol
 _atom_site_label
 _atom_site_symmetry_multiplicity
 _atom_site_fract_x
 _atom_site_fract_y
 _atom_site_fract_z
 _atom_site_occupancy
  Cs  Cs0  1  0.134323  0.816424  0.681937  1
  Cs  Cs1  1  0.634323  0.183576  0.818063  1
  Cs  Cs2  1  0.865677  0.183576  0.318063  1
  Cs  Cs3  1  0.365677  0.816424  0.181937  1
  Cs  Cs4  1  0.350689  0.274734  0.541829  1
  Cs  Cs5  1  0.850689  0.725266  0.958171  1
  Cs  Cs6  1  0.649311  0.725266  0.458171  1
  Cs  Cs7  1  0.149311  0.274734  0.041829  1
  V  V8  1  0.427062  0.743872  0.774322  1
  V  V9  1  0.927062  0.256128  0.725678  1
  V  V10  1  0.572938  0.256128  0.225678  1
  V  V11  1  0.072938  0.743872  0.274322  1
  Pt  Pt12  1  0.000000  0.500000  0.500000  1
  Pt  Pt13  1  0.500000  0.500000  0.000000  1
  Se  Se14  1  0.086095  0.303140  0.668733  1
  Se  Se15  1  0.586095  0.696860  0.831267  1
  Se  Se16  1  0.913905  0.696860  0.331267  1
  Se  Se17  1  0.413905  0.303140  0.168733  1
  Se  Se18  1  0.402614  0.747004  0.553331  1
  Se  Se19  1  0.902614  0.252996  0.946669  1
  Se  Se20  1  0.597386  0.252996  0.446669  1
  Se  Se21  1  0.097386  0.747004  0.053331  1
  Se  Se22  1  0.155628  0.517145  0.384340  1
  Se  Se23  1  0.655628  0.482855  0.115660  1
  Se  Se24  1  0.844372  0.482855  0.615660  1
  Se  Se25  1  0.344372  0.517145  0.884340  1
  Se  Se26  1  0.375047  0.997487  0.839188  1
  Se  Se27  1  0.875047  0.002513  0.660812  1
  Se  Se28  1  0.624953  0.002513  0.160812  1
  Se  Se29  1  0.124953  0.997487  0.339188  1
