# generated using pymatgen
data_CaCd3(NO3)8
_symmetry_space_group_name_H-M   'P 1'
_cell_length_a   7.96293873
_cell_length_b   7.96293873
_cell_length_c   7.96293873
_cell_angle_alpha   89.67793373
_cell_angle_beta   89.67793373
_cell_angle_gamma   89.67793373
_symmetry_Int_Tables_number   1
_chemical_formula_structural   CaCd3(NO3)8
_chemical_formula_sum   'Ca1 Cd3 N8 O24'
_cell_volume   504.89330792
_cell_formula_units_Z   1
loop_
 _symmetry_equiv_pos_site_id
 _symmetry_equiv_pos_as_xyz
  1  'x, y, z'
loop_
 _atom_site_type_symbol
 _atom_site_label
 _atom_site_symmetry_multiplicity
 _atom_site_fract_x
 _atom_site_fract_y
 _atom_site_fract_z
 _atom_site_occupancy
  Ca  Ca0  1  0.000000  0.000000  0.000000  1
  Cd  Cd1  1  0.000000  0.500000  0.500000  1
  Cd  Cd2  1  0.500000  0.500000  0.000000  1
  Cd  Cd3  1  0.500000  0.000000  0.500000  1
  N  N4  1  0.333653  0.333653  0.333653  1
  N  N5  1  0.338382  0.170410  0.835633  1
  N  N6  1  0.170410  0.835633  0.338382  1
  N  N7  1  0.835633  0.338382  0.170410  1
  N  N8  1  0.666347  0.666347  0.666347  1
  N  N9  1  0.164367  0.661618  0.829590  1
  N  N10  1  0.829590  0.164367  0.661618  1
  N  N11  1  0.661618  0.829590  0.164367  1
  O  O12  1  0.733453  0.318913  0.050004  1
  O  O13  1  0.188770  0.955378  0.235650  1
  O  O14  1  0.270178  0.816518  0.460287  1
  O  O15  1  0.235650  0.188770  0.955378  1
  O  O16  1  0.231245  0.315245  0.454529  1
  O  O17  1  0.454529  0.231245  0.315245  1
  O  O18  1  0.315245  0.454529  0.231245  1
  O  O19  1  0.183482  0.539713  0.729822  1
  O  O20  1  0.949996  0.266547  0.681087  1
  O  O21  1  0.681087  0.949996  0.266547  1
  O  O22  1  0.044622  0.764350  0.811230  1
  O  O23  1  0.539713  0.729822  0.183482  1
  O  O24  1  0.811230  0.044622  0.764350  1
  O  O25  1  0.729822  0.183482  0.539713  1
  O  O26  1  0.764350  0.811230  0.044622  1
  O  O27  1  0.266547  0.681087  0.949996  1
  O  O28  1  0.768755  0.684755  0.545471  1
  O  O29  1  0.545471  0.768755  0.684755  1
  O  O30  1  0.684755  0.545471  0.768755  1
  O  O31  1  0.816518  0.460287  0.270178  1
  O  O32  1  0.050004  0.733453  0.318913  1
  O  O33  1  0.318913  0.050004  0.733453  1
  O  O34  1  0.955378  0.235650  0.188770  1
  O  O35  1  0.460287  0.270178  0.816518  1
