# generated using pymatgen
data_La5Sn2BiS
_symmetry_space_group_name_H-M   'P 1'
_cell_length_a   9.59727400
_cell_length_b   9.59727218
_cell_length_c   6.96675600
_cell_angle_alpha   90.00000000
_cell_angle_beta   90.00000000
_cell_angle_gamma   120.29565824
_symmetry_Int_Tables_number   1
_chemical_formula_structural   La5Sn2BiS
_chemical_formula_sum   'La10 Sn4 Bi2 S2'
_cell_volume   554.05814240
_cell_formula_units_Z   2
loop_
 _symmetry_equiv_pos_site_id
 _symmetry_equiv_pos_as_xyz
  1  'x, y, z'
loop_
 _atom_site_type_symbol
 _atom_site_label
 _atom_site_symmetry_multiplicity
 _atom_site_fract_x
 _atom_site_fract_y
 _atom_site_fract_z
 _atom_site_occupancy
  La  La0  1  0.244795  0.997011  0.750000  1
  La  La1  1  0.755205  0.002989  0.250000  1
  La  La2  1  0.997011  0.244795  0.750000  1
  La  La3  1  0.002989  0.755205  0.250000  1
  La  La4  1  0.757686  0.757686  0.750000  1
  La  La5  1  0.242314  0.242314  0.250000  1
  La  La6  1  0.329538  0.670462  0.500000  1
  La  La7  1  0.670462  0.329538  0.500000  1
  La  La8  1  0.670462  0.329538  0.000000  1
  La  La9  1  0.329538  0.670462  0.000000  1
  Sn  Sn10  1  0.605222  0.998780  0.750000  1
  Sn  Sn11  1  0.394778  0.001220  0.250000  1
  Sn  Sn12  1  0.998780  0.605222  0.750000  1
  Sn  Sn13  1  0.001220  0.394778  0.250000  1
  Bi  Bi14  1  0.394466  0.394466  0.750000  1
  Bi  Bi15  1  0.605534  0.605534  0.250000  1
  S  S16  1  0.000000  0.000000  0.500000  1
  S  S17  1  0.000000  0.000000  0.000000  1
