# generated using pymatgen
data_TbTm3Sc6(SiGe)4
_symmetry_space_group_name_H-M   'P 1'
_cell_length_a   7.14076631
_cell_length_b   7.38562894
_cell_length_c   14.01986636
_cell_angle_alpha   90.07635045
_cell_angle_beta   89.97897239
_cell_angle_gamma   89.89165987
_symmetry_Int_Tables_number   1
_chemical_formula_structural   TbTm3Sc6(SiGe)4
_chemical_formula_sum   'Tb2 Tm6 Sc12 Si8 Ge8'
_cell_volume   739.39240836
_cell_formula_units_Z   2
loop_
 _symmetry_equiv_pos_site_id
 _symmetry_equiv_pos_as_xyz
  1  'x, y, z'
loop_
 _atom_site_type_symbol
 _atom_site_label
 _atom_site_symmetry_multiplicity
 _atom_site_fract_x
 _atom_site_fract_y
 _atom_site_fract_z
 _atom_site_occupancy
  Tb  Tb0  1  0.506794  0.322676  0.401654  1
  Tb  Tb1  1  0.493206  0.677324  0.598346  1
  Tm  Tm2  1  0.006088  0.177586  0.097843  1
  Tm  Tm3  1  0.993912  0.822414  0.902157  1
  Tm  Tm4  1  0.494378  0.677970  0.901209  1
  Tm  Tm5  1  0.994804  0.823183  0.599180  1
  Tm  Tm6  1  0.505622  0.322030  0.098791  1
  Tm  Tm7  1  0.005196  0.176817  0.400820  1
  Sc  Sc8  1  0.167494  0.501333  0.750818  1
  Sc  Sc9  1  0.832506  0.498667  0.249182  1
  Sc  Sc10  1  0.331916  0.001878  0.249353  1
  Sc  Sc11  1  0.668084  0.998122  0.750647  1
  Sc  Sc12  1  0.336999  0.171345  0.626452  1
  Sc  Sc13  1  0.663001  0.828655  0.373548  1
  Sc  Sc14  1  0.161504  0.673740  0.372664  1
  Sc  Sc15  1  0.661827  0.827446  0.125840  1
  Sc  Sc16  1  0.838496  0.326260  0.627336  1
  Sc  Sc17  1  0.338173  0.172554  0.874160  1
  Sc  Sc18  1  0.838371  0.327342  0.873840  1
  Sc  Sc19  1  0.161629  0.672658  0.126160  1
  Si  Si20  1  0.039670  0.114992  0.750580  1
  Si  Si21  1  0.960330  0.885008  0.249420  1
  Si  Si22  1  0.460966  0.617242  0.249738  1
  Si  Si23  1  0.539034  0.382758  0.750262  1
  Si  Si24  1  0.290787  0.870658  0.750942  1
  Si  Si25  1  0.709213  0.129342  0.249058  1
  Si  Si26  1  0.207580  0.369913  0.249059  1
  Si  Si27  1  0.792420  0.630087  0.750941  1
  Ge  Ge28  1  0.168891  0.460832  0.540609  1
  Ge  Ge29  1  0.831109  0.539168  0.459391  1
  Ge  Ge30  1  0.324332  0.960872  0.459162  1
  Ge  Ge31  1  0.825749  0.538060  0.040607  1
  Ge  Ge32  1  0.675668  0.039128  0.540838  1
  Ge  Ge33  1  0.174251  0.461940  0.959393  1
  Ge  Ge34  1  0.673985  0.039108  0.959392  1
  Ge  Ge35  1  0.326015  0.960892  0.040608  1
