# generated using pymatgen
data_TbDy2Co8P6Ru
_symmetry_space_group_name_H-M   'P 1'
_cell_length_a   3.71759200
_cell_length_b   10.55063900
_cell_length_c   12.28650100
_cell_angle_alpha   90.00000000
_cell_angle_beta   90.00000000
_cell_angle_gamma   90.00000000
_symmetry_Int_Tables_number   1
_chemical_formula_structural   TbDy2Co8P6Ru
_chemical_formula_sum   'Tb2 Dy4 Co16 P12 Ru2'
_cell_volume   481.91307415
_cell_formula_units_Z   2
loop_
 _symmetry_equiv_pos_site_id
 _symmetry_equiv_pos_as_xyz
  1  'x, y, z'
loop_
 _atom_site_type_symbol
 _atom_site_label
 _atom_site_symmetry_multiplicity
 _atom_site_fract_x
 _atom_site_fract_y
 _atom_site_fract_z
 _atom_site_occupancy
  Tb  Tb0  1  0.000000  0.500000  0.524244  1
  Tb  Tb1  1  0.500000  0.000000  0.475756  1
  Dy  Dy2  1  0.500000  0.817057  0.206684  1
  Dy  Dy3  1  0.500000  0.182943  0.206684  1
  Dy  Dy4  1  0.000000  0.682943  0.793316  1
  Dy  Dy5  1  0.000000  0.317057  0.793316  1
  Co  Co6  1  0.500000  0.500000  0.704347  1
  Co  Co7  1  0.000000  0.000000  0.295653  1
  Co  Co8  1  0.000000  0.500000  0.986221  1
  Co  Co9  1  0.500000  0.000000  0.013779  1
  Co  Co10  1  0.500000  0.332484  0.990693  1
  Co  Co11  1  0.500000  0.667516  0.990693  1
  Co  Co12  1  0.000000  0.167516  0.009307  1
  Co  Co13  1  0.000000  0.832484  0.009307  1
  Co  Co14  1  0.500000  0.296989  0.430796  1
  Co  Co15  1  0.500000  0.703011  0.430796  1
  Co  Co16  1  0.000000  0.203011  0.569204  1
  Co  Co17  1  0.000000  0.796989  0.569204  1
  Co  Co18  1  0.500000  0.879222  0.708266  1
  Co  Co19  1  0.500000  0.120778  0.708266  1
  Co  Co20  1  0.000000  0.620778  0.291734  1
  Co  Co21  1  0.000000  0.379222  0.291734  1
  P  P22  1  0.500000  0.500000  0.882186  1
  P  P23  1  0.000000  0.000000  0.117814  1
  P  P24  1  0.500000  0.500000  0.349307  1
  P  P25  1  0.000000  0.000000  0.650693  1
  P  P26  1  0.500000  0.310870  0.616182  1
  P  P27  1  0.500000  0.689130  0.616182  1
  P  P28  1  0.000000  0.189130  0.383818  1
  P  P29  1  0.000000  0.810870  0.383818  1
  P  P30  1  0.500000  0.846488  0.893661  1
  P  P31  1  0.500000  0.153512  0.893661  1
  P  P32  1  0.000000  0.653512  0.106339  1
  P  P33  1  0.000000  0.346488  0.106339  1
  Ru  Ru34  1  0.500000  0.500000  0.159058  1
  Ru  Ru35  1  0.000000  0.000000  0.840942  1
