# generated using pymatgen
data_Y3Er2RuRh
_symmetry_space_group_name_H-M   'P 1'
_cell_length_a   6.40155424
_cell_length_b   7.27130627
_cell_length_c   8.51440552
_cell_angle_alpha   96.86804861
_cell_angle_beta   112.08148494
_cell_angle_gamma   90.00000284
_symmetry_Int_Tables_number   1
_chemical_formula_structural   Y3Er2RuRh
_chemical_formula_sum   'Y6 Er4 Ru2 Rh2'
_cell_volume   364.18433598
_cell_formula_units_Z   2
loop_
 _symmetry_equiv_pos_site_id
 _symmetry_equiv_pos_as_xyz
  1  'x, y, z'
loop_
 _atom_site_type_symbol
 _atom_site_label
 _atom_site_symmetry_multiplicity
 _atom_site_fract_x
 _atom_site_fract_y
 _atom_site_fract_z
 _atom_site_occupancy
  Y  Y0  1  0.791564  0.581338  0.811536  1
  Y  Y1  1  0.980028  0.918662  0.188464  1
  Y  Y2  1  0.210982  0.414759  0.185912  1
  Y  Y3  1  0.025070  0.085241  0.814088  1
  Y  Y4  1  0.207331  0.683522  0.565521  1
  Y  Y5  1  0.641809  0.816478  0.434479  1
  Er  Er6  1  0.791574  0.312755  0.435781  1
  Er  Er7  1  0.355793  0.187245  0.564219  1
  Er  Er8  1  0.422085  0.750000  0.000000  1
  Er  Er9  1  0.575450  0.250000  0.000000  1
  Ru  Ru10  1  0.401103  0.075719  0.220471  1
  Ru  Ru11  1  0.180633  0.424281  0.779529  1
  Rh  Rh12  1  0.598623  0.926991  0.780665  1
  Rh  Rh13  1  0.817957  0.573009  0.219335  1
