# generated using pymatgen
data_Yb3Ce4Th(Pt2Pb)4
_symmetry_space_group_name_H-M   'P 1'
_cell_length_a   7.99992294
_cell_length_b   7.99992299
_cell_length_c   7.34531700
_cell_angle_alpha   90.00000000
_cell_angle_beta   90.00000000
_cell_angle_gamma   90.71109362
_symmetry_Int_Tables_number   1
_chemical_formula_structural   Yb3Ce4Th(Pt2Pb)4
_chemical_formula_sum   'Yb3 Ce4 Th1 Pt8 Pb4'
_cell_volume   470.05503107
_cell_formula_units_Z   1
loop_
 _symmetry_equiv_pos_site_id
 _symmetry_equiv_pos_as_xyz
  1  'x, y, z'
loop_
 _atom_site_type_symbol
 _atom_site_label
 _atom_site_symmetry_multiplicity
 _atom_site_fract_x
 _atom_site_fract_y
 _atom_site_fract_z
 _atom_site_occupancy
  Yb  Yb0  1  0.662957  0.662957  0.500000  1
  Yb  Yb1  1  0.840414  0.157999  0.000000  1
  Yb  Yb2  1  0.157999  0.840414  0.000000  1
  Ce  Ce3  1  0.678567  0.678567  0.000000  1
  Ce  Ce4  1  0.823357  0.174628  0.500000  1
  Ce  Ce5  1  0.323479  0.323479  0.000000  1
  Ce  Ce6  1  0.174628  0.823357  0.500000  1
  Th  Th7  1  0.341930  0.341930  0.500000  1
  Pt  Pt8  1  0.873397  0.873397  0.733196  1
  Pt  Pt9  1  0.132337  0.132337  0.733458  1
  Pt  Pt10  1  0.626957  0.368815  0.766048  1
  Pt  Pt11  1  0.626957  0.368815  0.233952  1
  Pt  Pt12  1  0.368815  0.626957  0.233952  1
  Pt  Pt13  1  0.132337  0.132337  0.266542  1
  Pt  Pt14  1  0.873397  0.873397  0.266804  1
  Pt  Pt15  1  0.368815  0.626957  0.766048  1
  Pb  Pb16  1  0.502577  0.994251  0.752410  1
  Pb  Pb17  1  0.502577  0.994251  0.247590  1
  Pb  Pb18  1  0.994251  0.502577  0.752410  1
  Pb  Pb19  1  0.994251  0.502577  0.247590  1
