# generated using pymatgen
data_Ce7Sn23Ir5Rh
_symmetry_space_group_name_H-M   'P 1'
_cell_length_a   9.91187100
_cell_length_b   9.89021142
_cell_length_c   10.08797400
_cell_angle_alpha   90.05750312
_cell_angle_beta   90.00000000
_cell_angle_gamma   120.07248119
_symmetry_Int_Tables_number   1
_chemical_formula_structural   Ce7Sn23Ir5Rh
_chemical_formula_sum   'Ce7 Sn23 Ir5 Rh1'
_cell_volume   855.81097598
_cell_formula_units_Z   1
loop_
 _symmetry_equiv_pos_site_id
 _symmetry_equiv_pos_as_xyz
  1  'x, y, z'
loop_
 _atom_site_type_symbol
 _atom_site_label
 _atom_site_symmetry_multiplicity
 _atom_site_fract_x
 _atom_site_fract_y
 _atom_site_fract_z
 _atom_site_occupancy
  Ce  Ce0  1  0.002208  0.004416  0.994521  1
  Ce  Ce1  1  0.047787  0.525355  0.314686  1
  Ce  Ce2  1  0.482277  0.964553  0.288742  1
  Ce  Ce3  1  0.477568  0.525355  0.314686  1
  Ce  Ce4  1  0.956202  0.481456  0.697131  1
  Ce  Ce5  1  0.520778  0.041557  0.687889  1
  Ce  Ce6  1  0.525254  0.481456  0.697131  1
  Sn  Sn7  1  0.998491  0.996981  0.499870  1
  Sn  Sn8  1  0.131232  0.885378  0.288616  1
  Sn  Sn9  1  0.754144  0.885378  0.288616  1
  Sn  Sn10  1  0.116898  0.233797  0.291117  1
  Sn  Sn11  1  0.880717  0.116682  0.710317  1
  Sn  Sn12  1  0.235966  0.116682  0.710317  1
  Sn  Sn13  1  0.879001  0.758003  0.710808  1
  Sn  Sn14  1  0.358659  0.996543  0.005577  1
  Sn  Sn15  1  0.640590  0.641916  0.994862  1
  Sn  Sn16  1  0.999445  0.361289  0.998480  1
  Sn  Sn17  1  0.361845  0.361289  0.998480  1
  Sn  Sn18  1  0.001326  0.641916  0.994862  1
  Sn  Sn19  1  0.637884  0.996543  0.005577  1
  Sn  Sn20  1  0.779223  0.558444  0.466467  1
  Sn  Sn21  1  0.769828  0.210936  0.457239  1
  Sn  Sn22  1  0.441107  0.210936  0.457239  1
  Sn  Sn23  1  0.219763  0.439525  0.548272  1
  Sn  Sn24  1  0.223702  0.782339  0.537703  1
  Sn  Sn25  1  0.558637  0.782339  0.537703  1
  Sn  Sn26  1  0.661068  0.322136  0.176037  1
  Sn  Sn27  1  0.330859  0.661717  0.826977  1
  Sn  Sn28  1  0.669738  0.339475  0.886799  1
  Sn  Sn29  1  0.339922  0.679845  0.115279  1
  Ir  Ir30  1  0.182404  0.833972  0.793072  1
  Ir  Ir31  1  0.651568  0.833972  0.793072  1
  Ir  Ir32  1  0.172128  0.344255  0.795075  1
  Ir  Ir33  1  0.823727  0.170762  0.203859  1
  Ir  Ir34  1  0.347035  0.170762  0.203859  1
  Rh  Rh35  1  0.821018  0.642035  0.209064  1
