# generated using pymatgen
data_Pr3Al9Tc3Os4
_symmetry_space_group_name_H-M   'P 1'
_cell_length_a   8.91607500
_cell_length_b   8.91607522
_cell_length_c   9.71926900
_cell_angle_alpha   90.00000000
_cell_angle_beta   90.00000000
_cell_angle_gamma   119.99999546
_symmetry_Int_Tables_number   1
_chemical_formula_structural   Pr3Al9Tc3Os4
_chemical_formula_sum   'Pr6 Al18 Tc6 Os8'
_cell_volume   669.13183218
_cell_formula_units_Z   2
loop_
 _symmetry_equiv_pos_site_id
 _symmetry_equiv_pos_as_xyz
  1  'x, y, z'
loop_
 _atom_site_type_symbol
 _atom_site_label
 _atom_site_symmetry_multiplicity
 _atom_site_fract_x
 _atom_site_fract_y
 _atom_site_fract_z
 _atom_site_occupancy
  Pr  Pr0  1  0.194477  0.388954  0.250000  1
  Pr  Pr1  1  0.805523  0.611046  0.750000  1
  Pr  Pr2  1  0.611046  0.805523  0.250000  1
  Pr  Pr3  1  0.388954  0.194477  0.750000  1
  Pr  Pr4  1  0.194477  0.805523  0.250000  1
  Pr  Pr5  1  0.805523  0.194477  0.750000  1
  Al  Al6  1  0.333333  0.666667  0.006660  1
  Al  Al7  1  0.666667  0.333333  0.993340  1
  Al  Al8  1  0.666667  0.333333  0.506660  1
  Al  Al9  1  0.333333  0.666667  0.493340  1
  Al  Al10  1  0.165876  0.331755  0.575609  1
  Al  Al11  1  0.834124  0.668245  0.424391  1
  Al  Al12  1  0.668245  0.834124  0.575609  1
  Al  Al13  1  0.834124  0.668245  0.075609  1
  Al  Al14  1  0.331755  0.165876  0.424391  1
  Al  Al15  1  0.165876  0.331755  0.924391  1
  Al  Al16  1  0.165876  0.834124  0.575609  1
  Al  Al17  1  0.331755  0.165876  0.075609  1
  Al  Al18  1  0.834124  0.165876  0.424391  1
  Al  Al19  1  0.668245  0.834124  0.924391  1
  Al  Al20  1  0.834124  0.165876  0.075609  1
  Al  Al21  1  0.165876  0.834124  0.924391  1
  Al  Al22  1  0.000000  0.000000  0.250000  1
  Al  Al23  1  0.000000  0.000000  0.750000  1
  Tc  Tc24  1  0.574313  0.148627  0.250000  1
  Tc  Tc25  1  0.425687  0.851373  0.750000  1
  Tc  Tc26  1  0.851373  0.425687  0.250000  1
  Tc  Tc27  1  0.148627  0.574313  0.750000  1
  Tc  Tc28  1  0.574313  0.425687  0.250000  1
  Tc  Tc29  1  0.425687  0.574313  0.750000  1
  Os  Os30  1  0.500000  0.000000  0.000000  1
  Os  Os31  1  0.000000  0.500000  0.000000  1
  Os  Os32  1  0.500000  0.000000  0.500000  1
  Os  Os33  1  0.500000  0.500000  0.000000  1
  Os  Os34  1  0.000000  0.500000  0.500000  1
  Os  Os35  1  0.500000  0.500000  0.500000  1
  Os  Os36  1  0.000000  0.000000  0.000000  1
  Os  Os37  1  0.000000  0.000000  0.500000  1
