# generated using pymatgen
data_Ho2ErThMgRu
_symmetry_space_group_name_H-M   'P 1'
_cell_length_a   9.71219892
_cell_length_b   9.71219894
_cell_length_c   9.71359800
_cell_angle_alpha   59.99523468
_cell_angle_beta   59.99523463
_cell_angle_gamma   60.00952594
_symmetry_Int_Tables_number   1
_chemical_formula_structural   Ho2ErThMgRu
_chemical_formula_sum   'Ho8 Er4 Th4 Mg4 Ru4'
_cell_volume   647.88844324
_cell_formula_units_Z   4
loop_
 _symmetry_equiv_pos_site_id
 _symmetry_equiv_pos_as_xyz
  1  'x, y, z'
loop_
 _atom_site_type_symbol
 _atom_site_label
 _atom_site_symmetry_multiplicity
 _atom_site_fract_x
 _atom_site_fract_y
 _atom_site_fract_z
 _atom_site_occupancy
  Ho  Ho0  1  0.185989  0.185989  0.814011  1
  Ho  Ho1  1  0.814011  0.814011  0.185989  1
  Ho  Ho2  1  0.935095  0.564905  0.564905  1
  Ho  Ho3  1  0.564905  0.935095  0.935095  1
  Ho  Ho4  1  0.564905  0.935095  0.564905  1
  Ho  Ho5  1  0.935095  0.564905  0.935095  1
  Ho  Ho6  1  0.564886  0.564886  0.935114  1
  Ho  Ho7  1  0.935114  0.935114  0.564886  1
  Er  Er8  1  0.813948  0.186052  0.186052  1
  Er  Er9  1  0.186052  0.813948  0.813948  1
  Er  Er10  1  0.186052  0.813948  0.186052  1
  Er  Er11  1  0.813948  0.186052  0.813948  1
  Th  Th12  1  0.346610  0.346610  0.346390  1
  Th  Th13  1  0.346610  0.346610  0.960389  1
  Th  Th14  1  0.346390  0.960389  0.346610  1
  Th  Th15  1  0.960389  0.346390  0.346610  1
  Mg  Mg16  1  0.579889  0.579889  0.579996  1
  Mg  Mg17  1  0.579889  0.579889  0.260228  1
  Mg  Mg18  1  0.579996  0.260228  0.579889  1
  Mg  Mg19  1  0.260228  0.579996  0.579889  1
  Ru  Ru20  1  0.143153  0.143153  0.143444  1
  Ru  Ru21  1  0.143153  0.143153  0.570250  1
  Ru  Ru22  1  0.143444  0.570250  0.143153  1
  Ru  Ru23  1  0.570250  0.143444  0.143153  1
