# generated using pymatgen
data_Lu8In2RuRh
_symmetry_space_group_name_H-M   'P 1'
_cell_length_a   9.45630400
_cell_length_b   9.46882640
_cell_length_c   9.45625490
_cell_angle_alpha   59.95601607
_cell_angle_beta   59.88973032
_cell_angle_gamma   59.95618209
_symmetry_Int_Tables_number   1
_chemical_formula_structural   Lu8In2RuRh
_chemical_formula_sum   'Lu16 In4 Ru2 Rh2'
_cell_volume   597.82008173
_cell_formula_units_Z   2
loop_
 _symmetry_equiv_pos_site_id
 _symmetry_equiv_pos_as_xyz
  1  'x, y, z'
loop_
 _atom_site_type_symbol
 _atom_site_label
 _atom_site_symmetry_multiplicity
 _atom_site_fract_x
 _atom_site_fract_y
 _atom_site_fract_z
 _atom_site_occupancy
  Lu  Lu0  1  0.809127  0.808275  0.189812  1
  Lu  Lu1  1  0.808632  0.191362  0.808644  1
  Lu  Lu2  1  0.189845  0.192729  0.809111  1
  Lu  Lu3  1  0.651360  0.047008  0.651377  1
  Lu  Lu4  1  0.060155  0.059185  0.442511  1
  Lu  Lu5  1  0.442493  0.438152  0.060170  1
  Lu  Lu6  1  0.651360  0.650255  0.651377  1
  Lu  Lu7  1  0.809127  0.192785  0.189812  1
  Lu  Lu8  1  0.189845  0.808316  0.809111  1
  Lu  Lu9  1  0.045482  0.651432  0.651653  1
  Lu  Lu10  1  0.442493  0.059185  0.060170  1
  Lu  Lu11  1  0.438205  0.061809  0.438178  1
  Lu  Lu12  1  0.057606  0.442345  0.057705  1
  Lu  Lu13  1  0.651677  0.651431  0.045461  1
  Lu  Lu14  1  0.191495  0.808511  0.191483  1
  Lu  Lu15  1  0.060155  0.438149  0.442511  1
  In  In16  1  0.417003  0.417193  0.417093  1
  In  In17  1  0.416348  0.416321  0.751008  1
  In  In18  1  0.417003  0.748711  0.417093  1
  In  In19  1  0.751027  0.416321  0.416329  1
  Ru  Ru20  1  0.858839  0.422228  0.858734  1
  Ru  Ru21  1  0.858839  0.860200  0.858734  1
  Rh  Rh22  1  0.858752  0.859058  0.423132  1
  Rh  Rh23  1  0.423131  0.859039  0.858792  1
