# generated using pymatgen
data_Nd3Pa(Ni5Sn)4
_symmetry_space_group_name_H-M   'P 1'
_cell_length_a   4.86833400
_cell_length_b   4.86833370
_cell_length_c   19.68181200
_cell_angle_alpha   90.00000000
_cell_angle_beta   90.00000000
_cell_angle_gamma   120.00001559
_symmetry_Int_Tables_number   1
_chemical_formula_structural   Nd3Pa(Ni5Sn)4
_chemical_formula_sum   'Nd3 Pa1 Ni20 Sn4'
_cell_volume   403.97672899
_cell_formula_units_Z   1
loop_
 _symmetry_equiv_pos_site_id
 _symmetry_equiv_pos_as_xyz
  1  'x, y, z'
loop_
 _atom_site_type_symbol
 _atom_site_label
 _atom_site_symmetry_multiplicity
 _atom_site_fract_x
 _atom_site_fract_y
 _atom_site_fract_z
 _atom_site_occupancy
  Nd  Nd0  1  0.666667  0.333333  0.750000  1
  Nd  Nd1  1  0.000000  0.000000  0.499255  1
  Nd  Nd2  1  0.000000  0.000000  0.000745  1
  Pa  Pa3  1  0.333333  0.666667  0.250000  1
  Ni  Ni4  1  0.000000  0.000000  0.250000  1
  Ni  Ni5  1  0.000000  0.000000  0.750000  1
  Ni  Ni6  1  0.333333  0.666667  0.750000  1
  Ni  Ni7  1  0.666667  0.333333  0.250000  1
  Ni  Ni8  1  0.333333  0.666667  0.957346  1
  Ni  Ni9  1  0.666667  0.333333  0.044072  1
  Ni  Ni10  1  0.666667  0.333333  0.455928  1
  Ni  Ni11  1  0.333333  0.666667  0.542654  1
  Ni  Ni12  1  0.833701  0.166299  0.352092  1
  Ni  Ni13  1  0.833701  0.667402  0.352092  1
  Ni  Ni14  1  0.332598  0.166299  0.352092  1
  Ni  Ni15  1  0.166123  0.833877  0.645927  1
  Ni  Ni16  1  0.166123  0.332245  0.645927  1
  Ni  Ni17  1  0.667755  0.833877  0.645927  1
  Ni  Ni18  1  0.166123  0.833877  0.854073  1
  Ni  Ni19  1  0.166123  0.332245  0.854073  1
  Ni  Ni20  1  0.667755  0.833877  0.854073  1
  Ni  Ni21  1  0.833701  0.166299  0.147908  1
  Ni  Ni22  1  0.833701  0.667402  0.147908  1
  Ni  Ni23  1  0.332598  0.166299  0.147908  1
  Sn  Sn24  1  0.333333  0.666667  0.412069  1
  Sn  Sn25  1  0.666667  0.333333  0.586827  1
  Sn  Sn26  1  0.666667  0.333333  0.913173  1
  Sn  Sn27  1  0.333333  0.666667  0.087931  1
