# generated using pymatgen
data_Dy4Cd2Si3Ge
_symmetry_space_group_name_H-M   'P 1'
_cell_length_a   7.20139236
_cell_length_b   7.20139236
_cell_length_c   4.21432800
_cell_angle_alpha   90.00000000
_cell_angle_beta   90.00000000
_cell_angle_gamma   90.15228188
_symmetry_Int_Tables_number   1
_chemical_formula_structural   Dy4Cd2Si3Ge
_chemical_formula_sum   'Dy4 Cd2 Si3 Ge1'
_cell_volume   218.55449689
_cell_formula_units_Z   1
loop_
 _symmetry_equiv_pos_site_id
 _symmetry_equiv_pos_as_xyz
  1  'x, y, z'
loop_
 _atom_site_type_symbol
 _atom_site_label
 _atom_site_symmetry_multiplicity
 _atom_site_fract_x
 _atom_site_fract_y
 _atom_site_fract_z
 _atom_site_occupancy
  Dy  Dy0  1  0.679547  0.177475  0.500000  1
  Dy  Dy1  1  0.322525  0.820453  0.500000  1
  Dy  Dy2  1  0.175888  0.324112  0.500000  1
  Dy  Dy3  1  0.822759  0.677241  0.500000  1
  Cd  Cd4  1  0.500827  0.502279  0.000000  1
  Cd  Cd5  1  0.997721  0.999173  0.000000  1
  Si  Si6  1  0.117240  0.617287  0.000000  1
  Si  Si7  1  0.882713  0.382760  0.000000  1
  Si  Si8  1  0.620134  0.879866  0.000000  1
  Ge  Ge9  1  0.380648  0.119352  0.000000  1
