# generated using pymatgen
data_Tb8DyEr3In20
_symmetry_space_group_name_H-M   'P 1'
_cell_length_a   6.52954138
_cell_length_b   10.42457400
_cell_length_c   12.28956700
_cell_angle_alpha   90.00000000
_cell_angle_beta   90.01967323
_cell_angle_gamma   90.00000000
_symmetry_Int_Tables_number   1
_chemical_formula_structural   Tb8DyEr3In20
_chemical_formula_sum   'Tb8 Dy1 Er3 In20'
_cell_volume   836.52235495
_cell_formula_units_Z   1
loop_
 _symmetry_equiv_pos_site_id
 _symmetry_equiv_pos_as_xyz
  1  'x, y, z'
loop_
 _atom_site_type_symbol
 _atom_site_label
 _atom_site_symmetry_multiplicity
 _atom_site_fract_x
 _atom_site_fract_y
 _atom_site_fract_z
 _atom_site_occupancy
  Tb  Tb0  1  0.890064  0.492075  0.141897  1
  Tb  Tb1  1  0.609709  0.007422  0.642228  1
  Tb  Tb2  1  0.110185  0.991782  0.858356  1
  Tb  Tb3  1  0.389713  0.507425  0.358138  1
  Tb  Tb4  1  0.110185  0.508218  0.858356  1
  Tb  Tb5  1  0.389713  0.992575  0.358138  1
  Tb  Tb6  1  0.890064  0.007925  0.141897  1
  Tb  Tb7  1  0.609709  0.492578  0.642228  1
  Dy  Dy8  1  0.851069  0.250000  0.443995  1
  Er  Er9  1  0.350655  0.750000  0.055025  1
  Er  Er10  1  0.149559  0.750000  0.555386  1
  Er  Er11  1  0.649524  0.250000  0.944986  1
  In  In12  1  0.614729  0.750000  0.504933  1
  In  In13  1  0.885291  0.750000  0.005366  1
  In  In14  1  0.383376  0.250000  0.495596  1
  In  In15  1  0.114874  0.250000  0.994119  1
  In  In16  1  0.651254  0.750000  0.243604  1
  In  In17  1  0.848491  0.750000  0.744260  1
  In  In18  1  0.348593  0.250000  0.756508  1
  In  In19  1  0.152982  0.250000  0.254982  1
  In  In20  1  0.123640  0.750000  0.282287  1
  In  In21  1  0.377252  0.750000  0.782471  1
  In  In22  1  0.876921  0.250000  0.717959  1
  In  In23  1  0.623085  0.250000  0.216620  1
  In  In24  1  0.874301  0.544358  0.401162  1
  In  In25  1  0.625556  0.956442  0.901126  1
  In  In26  1  0.125337  0.043333  0.599383  1
  In  In27  1  0.374489  0.456402  0.098661  1
  In  In28  1  0.125337  0.456667  0.599383  1
  In  In29  1  0.374489  0.043598  0.098661  1
  In  In30  1  0.874301  0.955642  0.401162  1
  In  In31  1  0.625556  0.543558  0.901126  1
