# generated using pymatgen
data_La2YTm(Zn5Sn)2
_symmetry_space_group_name_H-M   'P 1'
_cell_length_a   8.50542524
_cell_length_b   8.50542511
_cell_length_c   9.09589300
_cell_angle_alpha   90.00000000
_cell_angle_beta   90.00000000
_cell_angle_gamma   149.65918225
_symmetry_Int_Tables_number   1
_chemical_formula_structural   La2YTm(Zn5Sn)2
_chemical_formula_sum   'La2 Y1 Tm1 Zn10 Sn2'
_cell_volume   332.39262511
_cell_formula_units_Z   1
loop_
 _symmetry_equiv_pos_site_id
 _symmetry_equiv_pos_as_xyz
  1  'x, y, z'
loop_
 _atom_site_type_symbol
 _atom_site_label
 _atom_site_symmetry_multiplicity
 _atom_site_fract_x
 _atom_site_fract_y
 _atom_site_fract_z
 _atom_site_occupancy
  La  La0  1  0.000191  0.999809  0.499645  1
  La  La1  1  0.000191  0.999809  0.000355  1
  Y  Y2  1  0.794442  0.205558  0.750000  1
  Tm  Tm3  1  0.205822  0.794178  0.250000  1
  Zn  Zn4  1  0.811956  0.188044  0.388862  1
  Zn  Zn5  1  0.187703  0.812297  0.610180  1
  Zn  Zn6  1  0.811956  0.188044  0.111138  1
  Zn  Zn7  1  0.187703  0.812297  0.889820  1
  Zn  Zn8  1  0.659301  0.340699  0.483499  1
  Zn  Zn9  1  0.340662  0.659338  0.515681  1
  Zn  Zn10  1  0.659301  0.340699  0.016501  1
  Zn  Zn11  1  0.340662  0.659338  0.984319  1
  Zn  Zn12  1  0.394753  0.605247  0.250000  1
  Zn  Zn13  1  0.604960  0.395040  0.750000  1
  Sn  Sn14  1  0.559891  0.440109  0.250000  1
  Sn  Sn15  1  0.440507  0.559493  0.750000  1
