# generated using pymatgen
data_Sr12Si7GeP16
_symmetry_space_group_name_H-M   'P 1'
_cell_length_a   18.03090025
_cell_length_b   7.19330917
_cell_length_c   7.47908438
_cell_angle_alpha   67.82008396
_cell_angle_beta   90.01198668
_cell_angle_gamma   89.91033135
_symmetry_Int_Tables_number   1
_chemical_formula_structural   Sr12Si7GeP16
_chemical_formula_sum   'Sr12 Si7 Ge1 P16'
_cell_volume   898.26868163
_cell_formula_units_Z   1
loop_
 _symmetry_equiv_pos_site_id
 _symmetry_equiv_pos_as_xyz
  1  'x, y, z'
loop_
 _atom_site_type_symbol
 _atom_site_label
 _atom_site_symmetry_multiplicity
 _atom_site_fract_x
 _atom_site_fract_y
 _atom_site_fract_z
 _atom_site_occupancy
  Sr  Sr0  1  0.315386  0.011080  0.783242  1
  Sr  Sr1  1  0.815052  0.489674  0.216105  1
  Sr  Sr2  1  0.684762  0.989514  0.216061  1
  Sr  Sr3  1  0.185328  0.510659  0.784548  1
  Sr  Sr4  1  0.442003  0.994263  0.260704  1
  Sr  Sr5  1  0.941680  0.505572  0.739214  1
  Sr  Sr6  1  0.557706  0.005643  0.739321  1
  Sr  Sr7  1  0.057609  0.493735  0.261365  1
  Sr  Sr8  1  0.435854  0.511635  0.743434  1
  Sr  Sr9  1  0.934513  0.988771  0.255981  1
  Sr  Sr10  1  0.564677  0.488607  0.256051  1
  Sr  Sr11  1  0.064714  0.011902  0.743583  1
  Si  Si12  1  0.630138  0.525693  0.785072  1
  Si  Si13  1  0.126921  0.969595  0.212180  1
  Si  Si14  1  0.370203  0.474764  0.213515  1
  Si  Si15  1  0.869883  0.025800  0.784887  1
  Si  Si16  1  0.740464  0.408670  0.688014  1
  Si  Si17  1  0.759491  0.908584  0.688149  1
  Si  Si18  1  0.259870  0.590020  0.314695  1
  Ge  Ge19  1  0.239170  0.091068  0.310168  1
  P  P20  1  0.429241  0.268456  0.482848  1
  P  P21  1  0.929357  0.231576  0.516549  1
  P  P22  1  0.571025  0.731798  0.516256  1
  P  P23  1  0.070199  0.768052  0.484087  1
  P  P24  1  0.436968  0.736220  0.016333  1
  P  P25  1  0.936950  0.764894  0.983837  1
  P  P26  1  0.563636  0.264991  0.983720  1
  P  P27  1  0.062723  0.235601  0.015847  1
  P  P28  1  0.186506  0.783294  0.058498  1
  P  P29  1  0.686694  0.716309  0.941849  1
  P  P30  1  0.813571  0.216220  0.941970  1
  P  P31  1  0.316267  0.289717  0.049960  1
  P  P32  1  0.796716  0.715779  0.514055  1
  P  P33  1  0.703395  0.215883  0.513858  1
  P  P34  1  0.202102  0.291049  0.492535  1
  P  P35  1  0.299228  0.774912  0.491509  1
