# generated using pymatgen
data_Li(HoSb)2
_symmetry_space_group_name_H-M   'P 1'
_cell_length_a   4.47158100
_cell_length_b   4.47158061
_cell_length_c   14.57602100
_cell_angle_alpha   90.00000000
_cell_angle_beta   90.00000000
_cell_angle_gamma   120.00001030
_symmetry_Int_Tables_number   1
_chemical_formula_structural   Li(HoSb)2
_chemical_formula_sum   'Li2 Ho4 Sb4'
_cell_volume   252.40138763
_cell_formula_units_Z   2
loop_
 _symmetry_equiv_pos_site_id
 _symmetry_equiv_pos_as_xyz
  1  'x, y, z'
loop_
 _atom_site_type_symbol
 _atom_site_label
 _atom_site_symmetry_multiplicity
 _atom_site_fract_x
 _atom_site_fract_y
 _atom_site_fract_z
 _atom_site_occupancy
  Li  Li0  1  0.000000  0.000000  0.750000  1
  Li  Li1  1  0.000000  0.000000  0.250000  1
  Ho  Ho2  1  0.666667  0.333333  0.387364  1
  Ho  Ho3  1  0.333333  0.666667  0.887364  1
  Ho  Ho4  1  0.333333  0.666667  0.612636  1
  Ho  Ho5  1  0.666667  0.333333  0.112636  1
  Sb  Sb6  1  0.333333  0.666667  0.250000  1
  Sb  Sb7  1  0.000000  0.000000  0.000000  1
  Sb  Sb8  1  0.000000  0.000000  0.500000  1
  Sb  Sb9  1  0.666667  0.333333  0.750000  1
