# generated using pymatgen
data_Er8Ti9Nb3Si15As
_symmetry_space_group_name_H-M   'P 1'
_cell_length_a   7.03459853
_cell_length_b   7.03347644
_cell_length_c   12.92909914
_cell_angle_alpha   89.95647979
_cell_angle_beta   89.93783693
_cell_angle_gamma   89.94007226
_symmetry_Int_Tables_number   1
_chemical_formula_structural   Er8Ti9Nb3Si15As
_chemical_formula_sum   'Er8 Ti9 Nb3 Si15 As1'
_cell_volume   639.70095908
_cell_formula_units_Z   1
loop_
 _symmetry_equiv_pos_site_id
 _symmetry_equiv_pos_as_xyz
  1  'x, y, z'
loop_
 _atom_site_type_symbol
 _atom_site_label
 _atom_site_symmetry_multiplicity
 _atom_site_fract_x
 _atom_site_fract_y
 _atom_site_fract_z
 _atom_site_occupancy
  Er  Er0  1  0.341073  0.000467  0.465789  1
  Er  Er1  1  0.498536  0.842232  0.717895  1
  Er  Er2  1  0.501099  0.158263  0.216713  1
  Er  Er3  1  0.840356  0.497910  0.282814  1
  Er  Er4  1  0.158684  0.500450  0.783132  1
  Er  Er5  1  0.660922  0.996602  0.967577  1
  Er  Er6  1  0.998202  0.343468  0.532124  1
  Er  Er7  1  0.999438  0.659132  0.033424  1
  Ti  Ti8  1  0.672418  0.672708  0.500084  1
  Ti  Ti9  1  0.154410  0.009303  0.874679  1
  Ti  Ti10  1  0.491655  0.651927  0.125046  1
  Ti  Ti11  1  0.508924  0.347130  0.626794  1
  Ti  Ti12  1  0.654681  0.494718  0.875530  1
  Ti  Ti13  1  0.346299  0.507770  0.374340  1
  Ti  Ti14  1  0.847618  0.992573  0.374752  1
  Ti  Ti15  1  0.008238  0.151579  0.125068  1
  Ti  Ti16  1  0.989783  0.844572  0.624049  1
  Nb  Nb17  1  0.326483  0.326992  0.999921  1
  Nb  Nb18  1  0.172854  0.827088  0.249943  1
  Nb  Nb19  1  0.824186  0.173882  0.749928  1
  Si  Si20  1  0.369087  0.704280  0.932978  1
  Si  Si21  1  0.629281  0.297797  0.433937  1
  Si  Si22  1  0.704327  0.369165  0.067079  1
  Si  Si23  1  0.297226  0.630857  0.566632  1
  Si  Si24  1  0.796208  0.868831  0.183813  1
  Si  Si25  1  0.130254  0.203926  0.316802  1
  Si  Si26  1  0.870474  0.796696  0.816076  1
  Si  Si27  1  0.293041  0.953173  0.063588  1
  Si  Si28  1  0.547330  0.791101  0.314564  1
  Si  Si29  1  0.461422  0.209442  0.818625  1
  Si  Si30  1  0.791185  0.547865  0.685202  1
  Si  Si31  1  0.207299  0.452639  0.186357  1
  Si  Si32  1  0.706722  0.045742  0.563524  1
  Si  Si33  1  0.953704  0.292543  0.936272  1
  Si  Si34  1  0.045513  0.707790  0.435612  1
  As  As35  1  0.201068  0.129387  0.679339  1
