# generated using pymatgen
data_Nd12Si2Br17
_symmetry_space_group_name_H-M   'P 1'
_cell_length_a   9.45492531
_cell_length_b   11.29555692
_cell_length_c   11.16471697
_cell_angle_alpha   93.74316619
_cell_angle_beta   104.91925514
_cell_angle_gamma   115.25195579
_symmetry_Int_Tables_number   1
_chemical_formula_structural   Nd12Si2Br17
_chemical_formula_sum   'Nd12 Si2 Br17'
_cell_volume   1020.94594363
_cell_formula_units_Z   1
loop_
 _symmetry_equiv_pos_site_id
 _symmetry_equiv_pos_as_xyz
  1  'x, y, z'
loop_
 _atom_site_type_symbol
 _atom_site_label
 _atom_site_symmetry_multiplicity
 _atom_site_fract_x
 _atom_site_fract_y
 _atom_site_fract_z
 _atom_site_occupancy
  Nd  Nd0  1  0.067690  0.530822  0.332875  1
  Nd  Nd1  1  0.987102  0.815440  0.569320  1
  Nd  Nd2  1  0.621536  0.237744  0.283847  1
  Nd  Nd3  1  0.012898  0.184560  0.430680  1
  Nd  Nd4  1  0.228261  0.663364  0.009667  1
  Nd  Nd5  1  0.281052  0.004406  0.910953  1
  Nd  Nd6  1  0.378464  0.762256  0.716153  1
  Nd  Nd7  1  0.932310  0.469178  0.667125  1
  Nd  Nd8  1  0.718948  0.995594  0.089047  1
  Nd  Nd9  1  0.164962  0.291072  0.142091  1
  Nd  Nd10  1  0.771739  0.336636  0.990333  1
  Nd  Nd11  1  0.835038  0.708928  0.857909  1
  Si  Si12  1  0.107567  0.737348  0.787753  1
  Si  Si13  1  0.892433  0.262652  0.212247  1
  Br  Br14  1  0.780199  0.528012  0.416898  1
  Br  Br15  1  0.631818  0.419102  0.739713  1
  Br  Br16  1  0.839478  0.895851  0.316590  1
  Br  Br17  1  0.315867  0.211661  0.368095  1
  Br  Br18  1  0.160522  0.104149  0.683410  1
  Br  Br19  1  0.585276  0.056407  0.831417  1
  Br  Br20  1  0.739948  0.167578  0.531992  1
  Br  Br21  1  0.534529  0.685267  0.953525  1
  Br  Br22  1  0.368182  0.580898  0.260287  1
  Br  Br23  1  0.219801  0.471988  0.583102  1
  Br  Br24  1  0.057012  0.365056  0.890466  1
  Br  Br25  1  0.465471  0.314733  0.046475  1
  Br  Br26  1  0.000000  0.000000  0.000000  1
  Br  Br27  1  0.260052  0.832422  0.468008  1
  Br  Br28  1  0.414724  0.943593  0.168583  1
  Br  Br29  1  0.684133  0.788339  0.631905  1
  Br  Br30  1  0.942988  0.634944  0.109534  1
