# generated using pymatgen
data_TmLu(GaRh)2
_symmetry_space_group_name_H-M   'P 1'
_cell_length_a   4.22774700
_cell_length_b   6.76384800
_cell_length_c   7.79214400
_cell_angle_alpha   90.00000000
_cell_angle_beta   90.00000000
_cell_angle_gamma   90.00000000
_symmetry_Int_Tables_number   1
_chemical_formula_structural   TmLu(GaRh)2
_chemical_formula_sum   'Tm2 Lu2 Ga4 Rh4'
_cell_volume   222.82288820
_cell_formula_units_Z   2
loop_
 _symmetry_equiv_pos_site_id
 _symmetry_equiv_pos_as_xyz
  1  'x, y, z'
loop_
 _atom_site_type_symbol
 _atom_site_label
 _atom_site_symmetry_multiplicity
 _atom_site_fract_x
 _atom_site_fract_y
 _atom_site_fract_z
 _atom_site_occupancy
  Tm  Tm0  1  0.750000  0.028537  0.687600  1
  Tm  Tm1  1  0.750000  0.528537  0.812400  1
  Lu  Lu2  1  0.250000  0.971293  0.311387  1
  Lu  Lu3  1  0.250000  0.471293  0.188613  1
  Ga  Ga4  1  0.250000  0.348283  0.567531  1
  Ga  Ga5  1  0.250000  0.848283  0.932469  1
  Ga  Ga6  1  0.750000  0.651354  0.431333  1
  Ga  Ga7  1  0.750000  0.151354  0.068667  1
  Rh  Rh8  1  0.250000  0.237830  0.888986  1
  Rh  Rh9  1  0.250000  0.737830  0.611014  1
  Rh  Rh10  1  0.750000  0.762703  0.112835  1
  Rh  Rh11  1  0.750000  0.262703  0.387165  1
