# generated using pymatgen
data_YbY(HoOs4)2
_symmetry_space_group_name_H-M   'P 1'
_cell_length_a   5.31568500
_cell_length_b   5.31568317
_cell_length_c   8.83400600
_cell_angle_alpha   90.00000000
_cell_angle_beta   90.00000000
_cell_angle_gamma   119.99999273
_symmetry_Int_Tables_number   1
_chemical_formula_structural   YbY(HoOs4)2
_chemical_formula_sum   'Yb1 Y1 Ho2 Os8'
_cell_volume   216.17560272
_cell_formula_units_Z   1
loop_
 _symmetry_equiv_pos_site_id
 _symmetry_equiv_pos_as_xyz
  1  'x, y, z'
loop_
 _atom_site_type_symbol
 _atom_site_label
 _atom_site_symmetry_multiplicity
 _atom_site_fract_x
 _atom_site_fract_y
 _atom_site_fract_z
 _atom_site_occupancy
  Yb  Yb0  1  0.333333  0.666667  0.063095  1
  Y  Y1  1  0.333333  0.666667  0.429357  1
  Ho  Ho2  1  0.666667  0.333333  0.566191  1
  Ho  Ho3  1  0.666667  0.333333  0.938826  1
  Os  Os4  1  0.000000  0.000000  0.501270  1
  Os  Os5  1  0.000000  0.000000  0.000669  1
  Os  Os6  1  0.828054  0.171946  0.250051  1
  Os  Os7  1  0.828054  0.656108  0.250051  1
  Os  Os8  1  0.343892  0.171946  0.250051  1
  Os  Os9  1  0.172663  0.827337  0.750146  1
  Os  Os10  1  0.172663  0.345326  0.750146  1
  Os  Os11  1  0.654674  0.827337  0.750146  1
