# generated using pymatgen
data_Ac2(AlAg)5
_symmetry_space_group_name_H-M   'P 1'
_cell_length_a   4.51172900
_cell_length_b   5.67228600
_cell_length_c   9.99047800
_cell_angle_alpha   90.00000000
_cell_angle_beta   90.00000000
_cell_angle_gamma   90.00000000
_symmetry_Int_Tables_number   1
_chemical_formula_structural   Ac2(AlAg)5
_chemical_formula_sum   'Ac2 Al5 Ag5'
_cell_volume   255.67448714
_cell_formula_units_Z   1
loop_
 _symmetry_equiv_pos_site_id
 _symmetry_equiv_pos_as_xyz
  1  'x, y, z'
loop_
 _atom_site_type_symbol
 _atom_site_label
 _atom_site_symmetry_multiplicity
 _atom_site_fract_x
 _atom_site_fract_y
 _atom_site_fract_z
 _atom_site_occupancy
  Ac  Ac0  1  0.000000  0.500000  0.000000  1
  Ac  Ac1  1  0.000000  0.000000  0.500000  1
  Al  Al2  1  0.500000  0.000000  0.000000  1
  Al  Al3  1  0.500000  0.749567  0.251313  1
  Al  Al4  1  0.500000  0.250433  0.748687  1
  Al  Al5  1  0.500000  0.250433  0.251313  1
  Al  Al6  1  0.500000  0.749567  0.748687  1
  Ag  Ag7  1  0.000000  0.500000  0.323768  1
  Ag  Ag8  1  0.000000  0.000000  0.832809  1
  Ag  Ag9  1  0.000000  0.000000  0.167191  1
  Ag  Ag10  1  0.000000  0.500000  0.676232  1
  Ag  Ag11  1  0.500000  0.500000  0.500000  1
