# generated using pymatgen
data_ScBe2Cu2Au
_symmetry_space_group_name_H-M   'P 1'
_cell_length_a   4.73065963
_cell_length_b   4.73065867
_cell_length_c   4.74136900
_cell_angle_alpha   59.92507136
_cell_angle_beta   59.92507808
_cell_angle_gamma   61.86664854
_symmetry_Int_Tables_number   1
_chemical_formula_structural   ScBe2Cu2Au
_chemical_formula_sum   'Sc1 Be2 Cu2 Au1'
_cell_volume   75.94147136
_cell_formula_units_Z   1
loop_
 _symmetry_equiv_pos_site_id
 _symmetry_equiv_pos_as_xyz
  1  'x, y, z'
loop_
 _atom_site_type_symbol
 _atom_site_label
 _atom_site_symmetry_multiplicity
 _atom_site_fract_x
 _atom_site_fract_y
 _atom_site_fract_z
 _atom_site_occupancy
  Sc  Sc0  1  0.249453  0.249453  0.250547  1
  Be  Be1  1  0.631034  0.631034  0.618832  1
  Be  Be2  1  0.631034  0.631034  0.119097  1
  Cu  Cu3  1  0.622286  0.127626  0.625043  1
  Cu  Cu4  1  0.127626  0.622286  0.625043  1
  Au  Au5  1  0.988564  0.988564  0.011436  1
