# generated using pymatgen
data_Ca3C3BrF
_symmetry_space_group_name_H-M   'P 1'
_cell_length_a   6.76927842
_cell_length_b   6.76927833
_cell_length_c   11.21512300
_cell_angle_alpha   90.00000000
_cell_angle_beta   90.00000000
_cell_angle_gamma   147.20169201
_symmetry_Int_Tables_number   1
_chemical_formula_structural   Ca3C3BrF
_chemical_formula_sum   'Ca6 C6 Br2 F2'
_cell_volume   278.37761264
_cell_formula_units_Z   2
loop_
 _symmetry_equiv_pos_site_id
 _symmetry_equiv_pos_as_xyz
  1  'x, y, z'
loop_
 _atom_site_type_symbol
 _atom_site_label
 _atom_site_symmetry_multiplicity
 _atom_site_fract_x
 _atom_site_fract_y
 _atom_site_fract_z
 _atom_site_occupancy
  Ca  Ca0  1  0.662462  0.337538  0.579883  1
  Ca  Ca1  1  0.337538  0.662462  0.420117  1
  Ca  Ca2  1  0.337538  0.662462  0.079883  1
  Ca  Ca3  1  0.662462  0.337538  0.920117  1
  Ca  Ca4  1  0.094190  0.905810  0.250000  1
  Ca  Ca5  1  0.905810  0.094190  0.750000  1
  C  C6  1  0.281175  0.718825  0.631572  1
  C  C7  1  0.718825  0.281175  0.368428  1
  C  C8  1  0.718825  0.281175  0.131572  1
  C  C9  1  0.281175  0.718825  0.868428  1
  C  C10  1  0.726875  0.273125  0.250000  1
  C  C11  1  0.273125  0.726875  0.750000  1
  Br  Br12  1  0.000000  0.000000  0.000000  1
  Br  Br13  1  0.000000  0.000000  0.500000  1
  F  F14  1  0.541768  0.458232  0.750000  1
  F  F15  1  0.458232  0.541768  0.250000  1
