# generated using pymatgen
data_Dy9Ho3InCo4Rh
_symmetry_space_group_name_H-M   'P 1'
_cell_length_a   8.29537435
_cell_length_b   8.29380767
_cell_length_c   8.29386439
_cell_angle_alpha   110.78853322
_cell_angle_beta   110.75513800
_cell_angle_gamma   106.89279285
_symmetry_Int_Tables_number   1
_chemical_formula_structural   Dy9Ho3InCo4Rh
_chemical_formula_sum   'Dy9 Ho3 In1 Co4 Rh1'
_cell_volume   438.64184805
_cell_formula_units_Z   1
loop_
 _symmetry_equiv_pos_site_id
 _symmetry_equiv_pos_as_xyz
  1  'x, y, z'
loop_
 _atom_site_type_symbol
 _atom_site_label
 _atom_site_symmetry_multiplicity
 _atom_site_fract_x
 _atom_site_fract_y
 _atom_site_fract_z
 _atom_site_occupancy
  Dy  Dy0  1  0.314047  0.619515  0.305076  1
  Dy  Dy1  1  0.686059  0.380838  0.695193  1
  Dy  Dy2  1  0.314051  0.008973  0.694536  1
  Dy  Dy3  1  0.686057  0.990868  0.305221  1
  Dy  Dy4  1  0.186189  0.291324  0.477690  1
  Dy  Dy5  1  0.814020  0.709081  0.522874  1
  Dy  Dy6  1  0.186190  0.708500  0.894868  1
  Dy  Dy7  1  0.814020  0.291145  0.104938  1
  Dy  Dy8  1  0.407138  0.212904  0.194234  1
  Ho  Ho9  1  0.592775  0.787232  0.805542  1
  Ho  Ho10  1  0.018111  0.212741  0.805372  1
  Ho  Ho11  1  0.981397  0.787123  0.194280  1
  In  In12  1  0.499989  0.500072  0.999904  1
  Co  Co13  1  0.111916  0.611942  0.499976  1
  Co  Co14  1  0.888462  0.388143  0.500325  1
  Co  Co15  1  0.379369  0.999896  0.379474  1
  Co  Co16  1  0.621062  0.000096  0.620971  1
  Rh  Rh17  1  0.999148  0.999609  0.999529  1
