# generated using pymatgen
data_Er4Fe13Os
_symmetry_space_group_name_H-M   'P 1'
_cell_length_a   12.47569651
_cell_length_b   12.47569688
_cell_length_c   12.47569712
_cell_angle_alpha   23.27304218
_cell_angle_beta   23.27303843
_cell_angle_gamma   23.27304051
_symmetry_Int_Tables_number   1
_chemical_formula_structural   Er4Fe13Os
_chemical_formula_sum   'Er4 Fe13 Os1'
_cell_volume   266.13126189
_cell_formula_units_Z   1
loop_
 _symmetry_equiv_pos_site_id
 _symmetry_equiv_pos_as_xyz
  1  'x, y, z'
loop_
 _atom_site_type_symbol
 _atom_site_label
 _atom_site_symmetry_multiplicity
 _atom_site_fract_x
 _atom_site_fract_y
 _atom_site_fract_z
 _atom_site_occupancy
  Er  Er0  1  0.947598  0.947598  0.947598  1
  Er  Er1  1  0.149522  0.149522  0.149522  1
  Er  Er2  1  0.052402  0.052402  0.052402  1
  Er  Er3  1  0.850478  0.850478  0.850478  1
  Fe  Fe4  1  0.612835  0.612835  0.612835  1
  Fe  Fe5  1  0.387165  0.387165  0.387165  1
  Fe  Fe6  1  0.104845  0.610053  0.610053  1
  Fe  Fe7  1  0.389947  0.389947  0.895155  1
  Fe  Fe8  1  0.610053  0.610053  0.104845  1
  Fe  Fe9  1  0.610053  0.104845  0.610053  1
  Fe  Fe10  1  0.389947  0.895155  0.389947  1
  Fe  Fe11  1  0.500000  0.000000  0.500000  1
  Fe  Fe12  1  0.720707  0.720707  0.720707  1
  Fe  Fe13  1  0.895155  0.389947  0.389947  1
  Fe  Fe14  1  0.000000  0.500000  0.500000  1
  Fe  Fe15  1  0.279293  0.279293  0.279293  1
  Fe  Fe16  1  0.500000  0.500000  0.000000  1
  Os  Os17  1  0.500000  0.500000  0.500000  1
