# generated using pymatgen
data_Tm12InNi4Ru
_symmetry_space_group_name_H-M   'P 1'
_cell_length_a   8.19961198
_cell_length_b   8.19961300
_cell_length_c   8.19961200
_cell_angle_alpha   111.53667524
_cell_angle_beta   110.10285619
_cell_angle_gamma   106.80986834
_symmetry_Int_Tables_number   1
_chemical_formula_structural   Tm12InNi4Ru
_chemical_formula_sum   'Tm12 In1 Ni4 Ru1'
_cell_volume   423.63068069
_cell_formula_units_Z   1
loop_
 _symmetry_equiv_pos_site_id
 _symmetry_equiv_pos_as_xyz
  1  'x, y, z'
loop_
 _atom_site_type_symbol
 _atom_site_label
 _atom_site_symmetry_multiplicity
 _atom_site_fract_x
 _atom_site_fract_y
 _atom_site_fract_z
 _atom_site_occupancy
  Tm  Tm0  1  0.412008  0.221713  0.190295  1
  Tm  Tm1  1  0.587992  0.778287  0.809705  1
  Tm  Tm2  1  0.031419  0.221713  0.809705  1
  Tm  Tm3  1  0.968581  0.778287  0.190295  1
  Tm  Tm4  1  0.181238  0.282509  0.463747  1
  Tm  Tm5  1  0.818762  0.717491  0.536253  1
  Tm  Tm6  1  0.181238  0.717491  0.898729  1
  Tm  Tm7  1  0.818762  0.282509  0.101271  1
  Tm  Tm8  1  0.321383  0.626774  0.305391  1
  Tm  Tm9  1  0.678617  0.373226  0.694609  1
  Tm  Tm10  1  0.321383  0.015991  0.694609  1
  Tm  Tm11  1  0.678617  0.984009  0.305391  1
  In  In12  1  0.500000  0.500000  0.000000  1
  Ni  Ni13  1  0.359266  0.000000  0.359266  1
  Ni  Ni14  1  0.640734  0.000000  0.640734  1
  Ni  Ni15  1  0.120238  0.620238  0.500000  1
  Ni  Ni16  1  0.879762  0.379762  0.500000  1
  Ru  Ru17  1  0.000000  0.000000  0.000000  1
