# generated using pymatgen
data_Tm4Th6SnGe19Rh8
_symmetry_space_group_name_H-M   'P 1'
_cell_length_a   13.18618826
_cell_length_b   13.17932426
_cell_length_c   4.37160300
_cell_angle_alpha   90.00000000
_cell_angle_beta   90.00000000
_cell_angle_gamma   90.02294829
_symmetry_Int_Tables_number   1
_chemical_formula_structural   Tm4Th6SnGe19Rh8
_chemical_formula_sum   'Tm4 Th6 Sn1 Ge19 Rh8'
_cell_volume   759.71918914
_cell_formula_units_Z   1
loop_
 _symmetry_equiv_pos_site_id
 _symmetry_equiv_pos_as_xyz
  1  'x, y, z'
loop_
 _atom_site_type_symbol
 _atom_site_label
 _atom_site_symmetry_multiplicity
 _atom_site_fract_x
 _atom_site_fract_y
 _atom_site_fract_z
 _atom_site_occupancy
  Tm  Tm0  1  0.324970  0.824900  0.500000  1
  Tm  Tm1  1  0.824829  0.675473  0.500000  1
  Tm  Tm2  1  0.167185  0.325033  0.500000  1
  Tm  Tm3  1  0.677106  0.174082  0.500000  1
  Th  Th4  1  0.111467  0.613099  0.500000  1
  Th  Th5  1  0.612411  0.887591  0.500000  1
  Th  Th6  1  0.389663  0.106734  0.500000  1
  Th  Th7  1  0.887178  0.388623  0.500000  1
  Th  Th8  1  0.501139  0.501794  0.000000  1
  Th  Th9  1  0.999539  0.999074  0.000000  1
  Sn  Sn10  1  0.339237  0.301089  0.000000  1
  Ge  Ge11  1  0.335626  0.497176  0.500000  1
  Ge  Ge12  1  0.663583  0.504444  0.500000  1
  Ge  Ge13  1  0.509836  0.336682  0.500000  1
  Ge  Ge14  1  0.496664  0.663748  0.500000  1
  Ge  Ge15  1  0.995914  0.837003  0.500000  1
  Ge  Ge16  1  0.837143  0.002404  0.500000  1
  Ge  Ge17  1  0.162101  0.994969  0.500000  1
  Ge  Ge18  1  0.000663  0.161907  0.500000  1
  Ge  Ge19  1  0.662357  0.700524  0.000000  1
  Ge  Ge20  1  0.703055  0.339026  0.000000  1
  Ge  Ge21  1  0.300488  0.664578  0.000000  1
  Ge  Ge22  1  0.800149  0.837711  0.000000  1
  Ge  Ge23  1  0.838429  0.199755  0.000000  1
  Ge  Ge24  1  0.161938  0.800176  0.000000  1
  Ge  Ge25  1  0.195213  0.157871  0.000000  1
  Ge  Ge26  1  0.433055  0.932232  0.000000  1
  Ge  Ge27  1  0.931948  0.567954  0.000000  1
  Ge  Ge28  1  0.568336  0.065812  0.000000  1
  Ge  Ge29  1  0.064835  0.433728  0.000000  1
  Rh  Rh30  1  0.244193  0.974823  0.000000  1
  Rh  Rh31  1  0.756438  0.023075  0.000000  1
  Rh  Rh32  1  0.022914  0.244121  0.000000  1
  Rh  Rh33  1  0.976059  0.755838  0.000000  1
  Rh  Rh34  1  0.477035  0.744837  0.000000  1
  Rh  Rh35  1  0.744318  0.525285  0.000000  1
  Rh  Rh36  1  0.250750  0.482737  0.000000  1
  Rh  Rh37  1  0.532238  0.254090  0.000000  1
