# generated using pymatgen
data_Er7Th(Sc3Ga4)4
_symmetry_space_group_name_H-M   'P 1'
_cell_length_a   7.26764791
_cell_length_b   7.55612040
_cell_length_c   14.44226907
_cell_angle_alpha   90.04186667
_cell_angle_beta   90.06178693
_cell_angle_gamma   90.05565176
_symmetry_Int_Tables_number   1
_chemical_formula_structural   Er7Th(Sc3Ga4)4
_chemical_formula_sum   'Er7 Th1 Sc12 Ga16'
_cell_volume   793.09937345
_cell_formula_units_Z   1
loop_
 _symmetry_equiv_pos_site_id
 _symmetry_equiv_pos_as_xyz
  1  'x, y, z'
loop_
 _atom_site_type_symbol
 _atom_site_label
 _atom_site_symmetry_multiplicity
 _atom_site_fract_x
 _atom_site_fract_y
 _atom_site_fract_z
 _atom_site_occupancy
  Er  Er0  1  0.989593  0.818335  0.904392  1
  Er  Er1  1  0.489885  0.680928  0.905047  1
  Er  Er2  1  0.989204  0.819508  0.594532  1
  Er  Er3  1  0.511458  0.320693  0.094176  1
  Er  Er4  1  0.010772  0.180275  0.405345  1
  Er  Er5  1  0.510880  0.319715  0.406271  1
  Er  Er6  1  0.488845  0.680710  0.594446  1
  Th  Th7  1  0.011440  0.178568  0.093555  1
  Sc  Sc8  1  0.163293  0.503997  0.749951  1
  Sc  Sc9  1  0.836421  0.498347  0.250585  1
  Sc  Sc10  1  0.337965  0.002046  0.250858  1
  Sc  Sc11  1  0.662077  0.996730  0.749962  1
  Sc  Sc12  1  0.329339  0.172015  0.624792  1
  Sc  Sc13  1  0.669736  0.827667  0.376002  1
  Sc  Sc14  1  0.170672  0.672457  0.376181  1
  Sc  Sc15  1  0.668230  0.827098  0.124460  1
  Sc  Sc16  1  0.829645  0.327650  0.624827  1
  Sc  Sc17  1  0.329534  0.172340  0.875308  1
  Sc  Sc18  1  0.828901  0.327808  0.874834  1
  Sc  Sc19  1  0.170982  0.672571  0.124316  1
  Ga  Ga20  1  0.030903  0.115750  0.750095  1
  Ga  Ga21  1  0.969202  0.882620  0.250677  1
  Ga  Ga22  1  0.469012  0.616139  0.250199  1
  Ga  Ga23  1  0.530941  0.383973  0.750089  1
  Ga  Ga24  1  0.283948  0.870363  0.749743  1
  Ga  Ga25  1  0.713648  0.129405  0.251165  1
  Ga  Ga26  1  0.217423  0.371239  0.250787  1
  Ga  Ga27  1  0.784128  0.629826  0.750324  1
  Ga  Ga28  1  0.162855  0.465777  0.540422  1
  Ga  Ga29  1  0.837188  0.534055  0.459560  1
  Ga  Ga30  1  0.336742  0.965376  0.459401  1
  Ga  Ga31  1  0.835534  0.537678  0.039714  1
  Ga  Ga32  1  0.662866  0.034101  0.540420  1
  Ga  Ga33  1  0.164443  0.466932  0.958709  1
  Ga  Ga34  1  0.661076  0.034615  0.959134  1
  Ga  Ga35  1  0.341218  0.962695  0.039720  1
