# generated using pymatgen
data_Sc4MnAl18Ni5
_symmetry_space_group_name_H-M   'P 1'
_cell_length_a   7.35629117
_cell_length_b   7.35629137
_cell_length_c   9.12745074
_cell_angle_alpha   90.14750872
_cell_angle_beta   90.14750598
_cell_angle_gamma   119.75983536
_symmetry_Int_Tables_number   1
_chemical_formula_structural   Sc4MnAl18Ni5
_chemical_formula_sum   'Sc4 Mn1 Al18 Ni5'
_cell_volume   428.78362007
_cell_formula_units_Z   1
loop_
 _symmetry_equiv_pos_site_id
 _symmetry_equiv_pos_as_xyz
  1  'x, y, z'
loop_
 _atom_site_type_symbol
 _atom_site_label
 _atom_site_symmetry_multiplicity
 _atom_site_fract_x
 _atom_site_fract_y
 _atom_site_fract_z
 _atom_site_occupancy
  Sc  Sc0  1  0.993207  0.670179  0.247463  1
  Sc  Sc1  1  0.004201  0.327476  0.751905  1
  Sc  Sc2  1  0.672524  0.995799  0.248095  1
  Sc  Sc3  1  0.329821  0.006793  0.752537  1
  Mn  Mn4  1  0.672268  0.327732  0.000000  1
  Al  Al5  1  0.993132  0.334548  0.074287  1
  Al  Al6  1  0.002158  0.660312  0.926094  1
  Al  Al7  1  0.006669  0.667027  0.576352  1
  Al  Al8  1  0.332973  0.993331  0.423648  1
  Al  Al9  1  0.994076  0.335242  0.424483  1
  Al  Al10  1  0.664758  0.005924  0.575517  1
  Al  Al11  1  0.665452  0.006868  0.925713  1
  Al  Al12  1  0.339688  0.997842  0.073906  1
  Al  Al13  1  0.339368  0.559468  0.249533  1
  Al  Al14  1  0.659910  0.441143  0.752304  1
  Al  Al15  1  0.558857  0.340090  0.247696  1
  Al  Al16  1  0.440532  0.660632  0.750467  1
  Al  Al17  1  0.328672  0.329992  0.552821  1
  Al  Al18  1  0.670008  0.671328  0.447179  1
  Al  Al19  1  0.671557  0.666650  0.049787  1
  Al  Al20  1  0.333350  0.328443  0.950213  1
  Al  Al21  1  0.119548  0.120551  0.249587  1
  Al  Al22  1  0.879449  0.880452  0.750413  1
  Ni  Ni23  1  0.329130  0.670870  0.000000  1
  Ni  Ni24  1  0.328327  0.671673  0.500000  1
  Ni  Ni25  1  0.670513  0.329487  0.500000  1
  Ni  Ni26  1  0.000414  0.999586  0.000000  1
  Ni  Ni27  1  0.999435  0.000565  0.500000  1
