# generated using pymatgen
data_Lu3Al3ZnGePt
_symmetry_space_group_name_H-M   'P 1'
_cell_length_a   6.87947800
_cell_length_b   6.87947775
_cell_length_c   4.19374300
_cell_angle_alpha   90.00000000
_cell_angle_beta   90.00000000
_cell_angle_gamma   119.99999159
_symmetry_Int_Tables_number   1
_chemical_formula_structural   Lu3Al3ZnGePt
_chemical_formula_sum   'Lu3 Al3 Zn1 Ge1 Pt1'
_cell_volume   171.88716060
_cell_formula_units_Z   1
loop_
 _symmetry_equiv_pos_site_id
 _symmetry_equiv_pos_as_xyz
  1  'x, y, z'
loop_
 _atom_site_type_symbol
 _atom_site_label
 _atom_site_symmetry_multiplicity
 _atom_site_fract_x
 _atom_site_fract_y
 _atom_site_fract_z
 _atom_site_occupancy
  Lu  Lu0  1  0.419505  0.002477  0.000000  1
  Lu  Lu1  1  0.997523  0.417027  0.000000  1
  Lu  Lu2  1  0.582972  0.580495  0.000000  1
  Al  Al3  1  0.766713  0.008007  0.500001  1
  Al  Al4  1  0.241294  0.233287  0.500001  1
  Al  Al5  1  0.991993  0.758705  0.500001  1
  Zn  Zn6  1  0.666667  0.333334  0.500001  1
  Ge  Ge7  1  0.333334  0.666667  0.500001  1
  Pt  Pt8  1  0.000000  0.000000  0.000000  1
