# generated using pymatgen
data_Li3Ho3InGaAs
_symmetry_space_group_name_H-M   'P 1'
_cell_length_a   7.25074200
_cell_length_b   7.25074120
_cell_length_c   4.19901800
_cell_angle_alpha   90.00000000
_cell_angle_beta   90.00000000
_cell_angle_gamma   119.99998540
_symmetry_Int_Tables_number   1
_chemical_formula_structural   Li3Ho3InGaAs
_chemical_formula_sum   'Li3 Ho3 In1 Ga1 As1'
_cell_volume   191.18036580
_cell_formula_units_Z   1
loop_
 _symmetry_equiv_pos_site_id
 _symmetry_equiv_pos_as_xyz
  1  'x, y, z'
loop_
 _atom_site_type_symbol
 _atom_site_label
 _atom_site_symmetry_multiplicity
 _atom_site_fract_x
 _atom_site_fract_y
 _atom_site_fract_z
 _atom_site_occupancy
  Li  Li0  1  0.247484  0.996757  0.500000  1
  Li  Li1  1  0.749272  0.752516  0.500000  1
  Li  Li2  1  0.003243  0.250728  0.500000  1
  Ho  Ho3  1  0.996667  0.558997  0.000000  1
  Ho  Ho4  1  0.562329  0.003333  0.000000  1
  Ho  Ho5  1  0.441003  0.437671  0.000000  1
  In  In6  1  0.000000  0.000000  0.000000  1
  Ga  Ga7  1  0.666667  0.333333  0.500000  1
  As  As8  1  0.333333  0.666667  0.500000  1
