# generated using pymatgen
data_Zr2Tc2B4Ru3
_symmetry_space_group_name_H-M   'P 1'
_cell_length_a   3.08388400
_cell_length_b   8.65410902
_cell_length_c   10.02048801
_cell_angle_alpha   89.99391321
_cell_angle_beta   90.00000000
_cell_angle_gamma   90.00000000
_symmetry_Int_Tables_number   1
_chemical_formula_structural   Zr2Tc2B4Ru3
_chemical_formula_sum   'Zr4 Tc4 B8 Ru6'
_cell_volume   267.42947140
_cell_formula_units_Z   2
loop_
 _symmetry_equiv_pos_site_id
 _symmetry_equiv_pos_as_xyz
  1  'x, y, z'
loop_
 _atom_site_type_symbol
 _atom_site_label
 _atom_site_symmetry_multiplicity
 _atom_site_fract_x
 _atom_site_fract_y
 _atom_site_fract_z
 _atom_site_occupancy
  Zr  Zr0  1  0.500000  0.838612  0.181500  1
  Zr  Zr1  1  0.500000  0.161388  0.818500  1
  Zr  Zr2  1  0.500000  0.661382  0.681512  1
  Zr  Zr3  1  0.500000  0.338618  0.318488  1
  Tc  Tc4  1  0.000000  0.661190  0.952774  1
  Tc  Tc5  1  0.000000  0.338810  0.047226  1
  Tc  Tc6  1  0.000000  0.838796  0.452782  1
  Tc  Tc7  1  0.000000  0.161204  0.547218  1
  B  B8  1  0.500000  0.965821  0.586734  1
  B  B9  1  0.500000  0.034179  0.413266  1
  B  B10  1  0.500000  0.849714  0.900495  1
  B  B11  1  0.500000  0.150286  0.099505  1
  B  B12  1  0.500000  0.650316  0.400536  1
  B  B13  1  0.500000  0.349684  0.599464  1
  B  B14  1  0.500000  0.465782  0.913269  1
  B  B15  1  0.500000  0.534218  0.086731  1
  Ru  Ru16  1  0.000000  0.000000  0.000000  1
  Ru  Ru17  1  0.000000  0.408714  0.760729  1
  Ru  Ru18  1  0.000000  0.591286  0.239271  1
  Ru  Ru19  1  0.000000  0.500000  0.500000  1
  Ru  Ru20  1  0.000000  0.908721  0.739270  1
  Ru  Ru21  1  0.000000  0.091279  0.260730  1
