# generated using pymatgen
data_Nd3Y2(In2Pd)2
_symmetry_space_group_name_H-M   'P 1'
_cell_length_a   3.72447900
_cell_length_b   8.31592500
_cell_length_c   18.53352000
_cell_angle_alpha   90.00000000
_cell_angle_beta   90.00000000
_cell_angle_gamma   90.00000000
_symmetry_Int_Tables_number   1
_chemical_formula_structural   Nd3Y2(In2Pd)2
_chemical_formula_sum   'Nd6 Y4 In8 Pd4'
_cell_volume   574.02922632
_cell_formula_units_Z   2
loop_
 _symmetry_equiv_pos_site_id
 _symmetry_equiv_pos_as_xyz
  1  'x, y, z'
loop_
 _atom_site_type_symbol
 _atom_site_label
 _atom_site_symmetry_multiplicity
 _atom_site_fract_x
 _atom_site_fract_y
 _atom_site_fract_z
 _atom_site_occupancy
  Nd  Nd0  1  0.500000  0.237526  0.785255  1
  Nd  Nd1  1  0.500000  0.762474  0.214745  1
  Nd  Nd2  1  0.500000  0.262474  0.285255  1
  Nd  Nd3  1  0.500000  0.737526  0.714745  1
  Nd  Nd4  1  0.500000  0.000000  0.000000  1
  Nd  Nd5  1  0.500000  0.500000  0.500000  1
  Y  Y6  1  0.500000  0.121382  0.584705  1
  Y  Y7  1  0.500000  0.878618  0.415295  1
  Y  Y8  1  0.500000  0.378618  0.084705  1
  Y  Y9  1  0.500000  0.621382  0.915295  1
  In  In10  1  0.000000  0.086701  0.152537  1
  In  In11  1  0.000000  0.913299  0.847463  1
  In  In12  1  0.000000  0.413299  0.652537  1
  In  In13  1  0.000000  0.586701  0.347463  1
  In  In14  1  0.000000  0.194863  0.437059  1
  In  In15  1  0.000000  0.805137  0.562941  1
  In  In16  1  0.000000  0.305137  0.937059  1
  In  In17  1  0.000000  0.694863  0.062941  1
  Pd  Pd18  1  0.000000  0.024914  0.694473  1
  Pd  Pd19  1  0.000000  0.975086  0.305527  1
  Pd  Pd20  1  0.000000  0.475086  0.194473  1
  Pd  Pd21  1  0.000000  0.524914  0.805527  1
