# generated using pymatgen
data_TlSb(PO3)6
_symmetry_space_group_name_H-M   'P 1'
_cell_length_a   5.39428431
_cell_length_b   7.08527998
_cell_length_c   11.14984600
_cell_angle_alpha   98.47130139
_cell_angle_beta   92.43014763
_cell_angle_gamma   93.21298977
_symmetry_Int_Tables_number   1
_chemical_formula_structural   TlSb(PO3)6
_chemical_formula_sum   'Tl1 Sb1 P6 O18'
_cell_volume   420.28129141
_cell_formula_units_Z   1
loop_
 _symmetry_equiv_pos_site_id
 _symmetry_equiv_pos_as_xyz
  1  'x, y, z'
loop_
 _atom_site_type_symbol
 _atom_site_label
 _atom_site_symmetry_multiplicity
 _atom_site_fract_x
 _atom_site_fract_y
 _atom_site_fract_z
 _atom_site_occupancy
  Tl  Tl0  1  0.000000  0.000000  0.000000  1
  Sb  Sb1  1  0.000000  0.500000  0.500000  1
  P  P2  1  0.519506  0.960154  0.181959  1
  P  P3  1  0.251049  0.315795  0.227541  1
  P  P4  1  0.498596  0.321272  0.646738  1
  P  P5  1  0.480494  0.039846  0.818041  1
  P  P6  1  0.748951  0.684205  0.772459  1
  P  P7  1  0.501404  0.678728  0.353262  1
  O  O8  1  0.486636  0.183515  0.225489  1
  O  O9  1  0.113733  0.286366  0.105011  1
  O  O10  1  0.332515  0.877337  0.081044  1
  O  O11  1  0.224527  0.347169  0.631547  1
  O  O12  1  0.652806  0.323934  0.537308  1
  O  O13  1  0.210365  0.066501  0.839267  1
  O  O14  1  0.612175  0.475422  0.760169  1
  O  O15  1  0.886267  0.713634  0.894989  1
  O  O16  1  0.545643  0.124733  0.695869  1
  O  O17  1  0.775473  0.652831  0.368453  1
  O  O18  1  0.891353  0.708165  0.661741  1
  O  O19  1  0.789635  0.933499  0.160733  1
  O  O20  1  0.513364  0.816485  0.774511  1
  O  O21  1  0.667485  0.122663  0.918956  1
  O  O22  1  0.454357  0.875267  0.304131  1
  O  O23  1  0.108647  0.291835  0.338259  1
  O  O24  1  0.387825  0.524578  0.239831  1
  O  O25  1  0.347194  0.676066  0.462692  1
