# generated using pymatgen
data_Pr3InPd3Au2
_symmetry_space_group_name_H-M   'P 1'
_cell_length_a   7.79571367
_cell_length_b   7.65105079
_cell_length_c   3.97971000
_cell_angle_alpha   90.00000000
_cell_angle_beta   90.00000000
_cell_angle_gamma   119.38803221
_symmetry_Int_Tables_number   1
_chemical_formula_structural   Pr3InPd3Au2
_chemical_formula_sum   'Pr3 In1 Pd3 Au2'
_cell_volume   206.82557714
_cell_formula_units_Z   1
loop_
 _symmetry_equiv_pos_site_id
 _symmetry_equiv_pos_as_xyz
  1  'x, y, z'
loop_
 _atom_site_type_symbol
 _atom_site_label
 _atom_site_symmetry_multiplicity
 _atom_site_fract_x
 _atom_site_fract_y
 _atom_site_fract_z
 _atom_site_occupancy
  Pr  Pr0  1  0.410190  0.396096  0.500000  1
  Pr  Pr1  1  0.589810  0.985906  0.500000  1
  Pr  Pr2  1  0.000000  0.622730  0.500000  1
  In  In3  1  0.000000  0.257869  0.000000  1
  Pd  Pd4  1  0.677566  0.329723  0.000000  1
  Pd  Pd5  1  0.322434  0.652158  0.000000  1
  Pd  Pd6  1  0.000000  0.015166  0.500000  1
  Au  Au7  1  0.732228  0.736289  0.000000  1
  Au  Au8  1  0.267772  0.004062  0.000000  1
