# generated using pymatgen
data_YbDy6CoI12
_symmetry_space_group_name_H-M   'P 1'
_cell_length_a   9.74953449
_cell_length_b   9.74953420
_cell_length_c   9.74953518
_cell_angle_alpha   107.00379829
_cell_angle_beta   107.00380262
_cell_angle_gamma   107.00380701
_symmetry_Int_Tables_number   1
_chemical_formula_structural   YbDy6CoI12
_chemical_formula_sum   'Yb1 Dy6 Co1 I12'
_cell_volume   771.70676096
_cell_formula_units_Z   1
loop_
 _symmetry_equiv_pos_site_id
 _symmetry_equiv_pos_as_xyz
  1  'x, y, z'
loop_
 _atom_site_type_symbol
 _atom_site_label
 _atom_site_symmetry_multiplicity
 _atom_site_fract_x
 _atom_site_fract_y
 _atom_site_fract_z
 _atom_site_occupancy
  Yb  Yb0  1  0.996944  0.996944  0.996944  1
  Dy  Dy1  1  0.519231  0.591207  0.789368  1
  Dy  Dy2  1  0.789368  0.519231  0.591207  1
  Dy  Dy3  1  0.591207  0.789368  0.519231  1
  Dy  Dy4  1  0.478895  0.406859  0.208965  1
  Dy  Dy5  1  0.208965  0.478895  0.406859  1
  Dy  Dy6  1  0.406859  0.208965  0.478895  1
  Co  Co7  1  0.499219  0.499219  0.499219  1
  I  I8  1  0.274912  0.821659  0.425709  1
  I  I9  1  0.425709  0.274912  0.821659  1
  I  I10  1  0.821659  0.425709  0.274912  1
  I  I11  1  0.723382  0.176626  0.572311  1
  I  I12  1  0.572311  0.723382  0.176626  1
  I  I13  1  0.176626  0.572311  0.723382  1
  I  I14  1  0.043876  0.122401  0.348451  1
  I  I15  1  0.348451  0.043876  0.122401  1
  I  I16  1  0.122401  0.348451  0.043876  1
  I  I17  1  0.953753  0.874961  0.646637  1
  I  I18  1  0.646637  0.953753  0.874961  1
  I  I19  1  0.874961  0.646637  0.953753  1
