# generated using pymatgen
data_YTm3(Co5As3)4
_symmetry_space_group_name_H-M   'P 1'
_cell_length_a   3.77509900
_cell_length_b   12.16492769
_cell_length_c   10.65866561
_cell_angle_alpha   89.96140544
_cell_angle_beta   90.00000000
_cell_angle_gamma   90.00000000
_symmetry_Int_Tables_number   1
_chemical_formula_structural   YTm3(Co5As3)4
_chemical_formula_sum   'Y1 Tm3 Co20 As12'
_cell_volume   489.48638420
_cell_formula_units_Z   1
loop_
 _symmetry_equiv_pos_site_id
 _symmetry_equiv_pos_as_xyz
  1  'x, y, z'
loop_
 _atom_site_type_symbol
 _atom_site_label
 _atom_site_symmetry_multiplicity
 _atom_site_fract_x
 _atom_site_fract_y
 _atom_site_fract_z
 _atom_site_occupancy
  Y  Y0  1  0.750000  0.202112  0.418391  1
  Tm  Tm1  1  0.750000  0.701882  0.081091  1
  Tm  Tm2  1  0.250000  0.298131  0.918892  1
  Tm  Tm3  1  0.250000  0.798106  0.581213  1
  Co  Co4  1  0.750000  0.697439  0.383723  1
  Co  Co5  1  0.250000  0.303099  0.617089  1
  Co  Co6  1  0.250000  0.802625  0.883762  1
  Co  Co7  1  0.750000  0.197330  0.115703  1
  Co  Co8  1  0.750000  0.991003  0.212292  1
  Co  Co9  1  0.250000  0.008642  0.787770  1
  Co  Co10  1  0.250000  0.508938  0.712540  1
  Co  Co11  1  0.750000  0.491147  0.287547  1
  Co  Co12  1  0.750000  0.677512  0.783622  1
  Co  Co13  1  0.250000  0.322752  0.215958  1
  Co  Co14  1  0.250000  0.822399  0.283464  1
  Co  Co15  1  0.750000  0.177435  0.716818  1
  Co  Co16  1  0.750000  0.931610  0.968974  1
  Co  Co17  1  0.250000  0.068129  0.030515  1
  Co  Co18  1  0.250000  0.568753  0.469087  1
  Co  Co19  1  0.750000  0.432412  0.531343  1
  Co  Co20  1  0.750000  0.986904  0.592921  1
  Co  Co21  1  0.250000  0.011540  0.407390  1
  Co  Co22  1  0.250000  0.512829  0.092629  1
  Co  Co23  1  0.750000  0.487232  0.907352  1
  As  As24  1  0.750000  0.614773  0.584487  1
  As  As25  1  0.250000  0.386505  0.415606  1
  As  As26  1  0.250000  0.885402  0.084355  1
  As  As27  1  0.750000  0.114459  0.915588  1
  As  As28  1  0.750000  0.890197  0.399999  1
  As  As29  1  0.250000  0.109268  0.600934  1
  As  As30  1  0.250000  0.609732  0.899982  1
  As  As31  1  0.750000  0.390259  0.099992  1
  As  As32  1  0.750000  0.869884  0.768022  1
  As  As33  1  0.250000  0.129518  0.230988  1
  As  As34  1  0.250000  0.630108  0.267842  1
  As  As35  1  0.750000  0.369934  0.732119  1
