# generated using pymatgen
data_TbTaNb5Cl18
_symmetry_space_group_name_H-M   'P 1'
_cell_length_a   10.20251672
_cell_length_b   10.20177391
_cell_length_c   10.20576201
_cell_angle_alpha   55.96790458
_cell_angle_beta   55.96168904
_cell_angle_gamma   55.99253995
_symmetry_Int_Tables_number   1
_chemical_formula_structural   TbTaNb5Cl18
_chemical_formula_sum   'Tb1 Ta1 Nb5 Cl18'
_cell_volume   681.06149682
_cell_formula_units_Z   1
loop_
 _symmetry_equiv_pos_site_id
 _symmetry_equiv_pos_as_xyz
  1  'x, y, z'
loop_
 _atom_site_type_symbol
 _atom_site_label
 _atom_site_symmetry_multiplicity
 _atom_site_fract_x
 _atom_site_fract_y
 _atom_site_fract_z
 _atom_site_occupancy
  Tb  Tb0  1  0.999420  0.999687  0.000329  1
  Ta  Ta1  1  0.408552  0.300447  0.649613  1
  Nb  Nb2  1  0.350246  0.591793  0.699721  1
  Nb  Nb3  1  0.700116  0.350380  0.591315  1
  Nb  Nb4  1  0.300214  0.650098  0.408290  1
  Nb  Nb5  1  0.650064  0.408686  0.299891  1
  Nb  Nb6  1  0.591973  0.700522  0.349625  1
  Cl  Cl7  1  0.566279  0.162314  0.444712  1
  Cl  Cl8  1  0.225018  0.369195  0.905703  1
  Cl  Cl9  1  0.907271  0.223855  0.371200  1
  Cl  Cl10  1  0.371246  0.907409  0.224000  1
  Cl  Cl11  1  0.776169  0.629127  0.092533  1
  Cl  Cl12  1  0.092612  0.775725  0.629088  1
  Cl  Cl13  1  0.702777  0.958109  0.160235  1
  Cl  Cl14  1  0.957105  0.159864  0.703383  1
  Cl  Cl15  1  0.160797  0.702755  0.957345  1
  Cl  Cl16  1  0.298242  0.046338  0.836982  1
  Cl  Cl17  1  0.042938  0.838894  0.297006  1
  Cl  Cl18  1  0.839336  0.296258  0.043336  1
  Cl  Cl19  1  0.558162  0.431433  0.837776  1
  Cl  Cl20  1  0.164039  0.439026  0.570194  1
  Cl  Cl21  1  0.441744  0.568210  0.162430  1
  Cl  Cl22  1  0.431748  0.837887  0.558023  1
  Cl  Cl23  1  0.837882  0.558459  0.431414  1
  Cl  Cl24  1  0.626050  0.093530  0.775856  1
