# generated using pymatgen
data_Ba3LiTaO6
_symmetry_space_group_name_H-M   'P 1'
_cell_length_a   7.16981206
_cell_length_b   7.16981126
_cell_length_c   7.16981225
_cell_angle_alpha   93.32969309
_cell_angle_beta   93.32970046
_cell_angle_gamma   93.32968453
_symmetry_Int_Tables_number   1
_chemical_formula_structural   Ba3LiTaO6
_chemical_formula_sum   'Ba6 Li2 Ta2 O12'
_cell_volume   366.63042060
_cell_formula_units_Z   2
loop_
 _symmetry_equiv_pos_site_id
 _symmetry_equiv_pos_as_xyz
  1  'x, y, z'
loop_
 _atom_site_type_symbol
 _atom_site_label
 _atom_site_symmetry_multiplicity
 _atom_site_fract_x
 _atom_site_fract_y
 _atom_site_fract_z
 _atom_site_occupancy
  Ba  Ba0  1  0.899349  0.250000  0.600651  1
  Ba  Ba1  1  0.600651  0.899349  0.250000  1
  Ba  Ba2  1  0.750000  0.399349  0.100651  1
  Ba  Ba3  1  0.100651  0.750000  0.399349  1
  Ba  Ba4  1  0.399349  0.100651  0.750000  1
  Ba  Ba5  1  0.250000  0.600651  0.899349  1
  Li  Li6  1  0.250000  0.250000  0.250000  1
  Li  Li7  1  0.750000  0.750000  0.750000  1
  Ta  Ta8  1  0.000000  0.000000  0.000000  1
  Ta  Ta9  1  0.500000  0.500000  0.500000  1
  O  O10  1  0.543633  0.231582  0.417555  1
  O  O11  1  0.417555  0.543633  0.231582  1
  O  O12  1  0.231582  0.417555  0.543633  1
  O  O13  1  0.956367  0.082445  0.268418  1
  O  O14  1  0.268418  0.956367  0.082445  1
  O  O15  1  0.082445  0.268418  0.956367  1
  O  O16  1  0.456367  0.768418  0.582445  1
  O  O17  1  0.582445  0.456367  0.768418  1
  O  O18  1  0.768418  0.582445  0.456367  1
  O  O19  1  0.043633  0.917555  0.731582  1
  O  O20  1  0.917555  0.731582  0.043633  1
  O  O21  1  0.731582  0.043633  0.917555  1
