# generated using pymatgen
data_Dy7Y5Co5Hg
_symmetry_space_group_name_H-M   'P 1'
_cell_length_a   8.28727970
_cell_length_b   8.28804968
_cell_length_c   8.28728044
_cell_angle_alpha   107.95613908
_cell_angle_beta   109.98333310
_cell_angle_gamma   110.48139719
_symmetry_Int_Tables_number   1
_chemical_formula_structural   Dy7Y5Co5Hg
_chemical_formula_sum   'Dy7 Y5 Co5 Hg1'
_cell_volume   437.96485081
_cell_formula_units_Z   1
loop_
 _symmetry_equiv_pos_site_id
 _symmetry_equiv_pos_as_xyz
  1  'x, y, z'
loop_
 _atom_site_type_symbol
 _atom_site_label
 _atom_site_symmetry_multiplicity
 _atom_site_fract_x
 _atom_site_fract_y
 _atom_site_fract_z
 _atom_site_occupancy
  Dy  Dy0  1  0.303260  0.986161  0.682900  1
  Dy  Dy1  1  0.696743  0.380104  0.683362  1
  Dy  Dy2  1  0.695856  0.012363  0.316508  1
  Dy  Dy3  1  0.192801  0.207642  0.401352  1
  Dy  Dy4  1  0.807043  0.792408  0.599364  1
  Dy  Dy5  1  0.193044  0.792408  0.985365  1
  Dy  Dy6  1  0.806290  0.207642  0.014843  1
  Y  Y7  1  0.477508  0.292080  0.185114  1
  Y  Y8  1  0.106966  0.292080  0.814571  1
  Y  Y9  1  0.892136  0.707394  0.184936  1
  Y  Y10  1  0.522458  0.707394  0.815258  1
  Y  Y11  1  0.302253  0.618847  0.316595  1
  Co  Co12  1  0.500635  0.612879  0.112244  1
  Co  Co13  1  0.499631  0.385254  0.885624  1
  Co  Co14  1  0.380661  0.002118  0.380326  1
  Co  Co15  1  0.621792  0.002118  0.621458  1
  Co  Co16  1  0.000573  0.000730  0.000157  1
  Hg  Hg17  1  0.000349  0.500377  0.500027  1
