# generated using pymatgen
data_Pr3NdCu2(SeO3)8
_symmetry_space_group_name_H-M   'P 1'
_cell_length_a   7.15760200
_cell_length_b   8.35744898
_cell_length_c   10.87054722
_cell_angle_alpha   70.11815599
_cell_angle_beta   89.83361741
_cell_angle_gamma   89.98360893
_symmetry_Int_Tables_number   1
_chemical_formula_structural   Pr3NdCu2(SeO3)8
_chemical_formula_sum   'Pr3 Nd1 Cu2 Se8 O24'
_cell_volume   611.50706645
_cell_formula_units_Z   1
loop_
 _symmetry_equiv_pos_site_id
 _symmetry_equiv_pos_as_xyz
  1  'x, y, z'
loop_
 _atom_site_type_symbol
 _atom_site_label
 _atom_site_symmetry_multiplicity
 _atom_site_fract_x
 _atom_site_fract_y
 _atom_site_fract_z
 _atom_site_occupancy
  Pr  Pr0  1  0.838253  0.740347  0.412886  1
  Pr  Pr1  1  0.338244  0.760193  0.586953  1
  Pr  Pr2  1  0.161458  0.259208  0.587430  1
  Nd  Nd3  1  0.660540  0.241231  0.411299  1
  Cu  Cu4  1  0.999730  0.999324  0.000192  1
  Cu  Cu5  1  0.500005  0.499961  0.000211  1
  Se  Se6  1  0.822493  0.866081  0.683304  1
  Se  Se7  1  0.168848  0.373917  0.870520  1
  Se  Se8  1  0.676347  0.365881  0.681809  1
  Se  Se9  1  0.331927  0.873983  0.870254  1
  Se  Se10  1  0.323869  0.634230  0.316397  1
  Se  Se11  1  0.175729  0.134883  0.316927  1
  Se  Se12  1  0.831198  0.625005  0.130352  1
  Se  Se13  1  0.667892  0.125570  0.130789  1
  O  O14  1  0.717347  0.032307  0.294885  1
  O  O15  1  0.842683  0.409499  0.555221  1
  O  O16  1  0.158404  0.589726  0.443884  1
  O  O17  1  0.507374  0.284404  0.604925  1
  O  O18  1  0.217864  0.468588  0.706258  1
  O  O19  1  0.782042  0.529641  0.294431  1
  O  O20  1  0.658211  0.912639  0.555482  1
  O  O21  1  0.880408  0.822196  0.148306  1
  O  O22  1  0.115648  0.929251  0.340313  1
  O  O23  1  0.283155  0.968548  0.706280  1
  O  O24  1  0.116514  0.824200  0.946978  1
  O  O25  1  0.384308  0.324892  0.946418  1
  O  O26  1  0.885589  0.070105  0.662161  1
  O  O27  1  0.119818  0.176531  0.852999  1
  O  O28  1  0.381321  0.676660  0.852613  1
  O  O29  1  0.341881  0.091092  0.443497  1
  O  O30  1  0.618572  0.323133  0.148091  1
  O  O31  1  0.493570  0.716798  0.391923  1
  O  O32  1  0.004678  0.214736  0.394084  1
  O  O33  1  0.993207  0.784890  0.606804  1
  O  O34  1  0.615630  0.571983  0.657111  1
  O  O35  1  0.616056  0.674895  0.054027  1
  O  O36  1  0.883168  0.174536  0.053861  1
  O  O37  1  0.386020  0.428933  0.340126  1
