# generated using pymatgen
data_LuAl3Zn5
_symmetry_space_group_name_H-M   'P 1'
_cell_length_a   8.49617983
_cell_length_b   8.49617934
_cell_length_c   10.32537444
_cell_angle_alpha   114.29421492
_cell_angle_beta   114.29421689
_cell_angle_gamma   89.99999961
_symmetry_Int_Tables_number   1
_chemical_formula_structural   LuAl3Zn5
_chemical_formula_sum   'Lu4 Al12 Zn20'
_cell_volume   606.18621330
_cell_formula_units_Z   4
loop_
 _symmetry_equiv_pos_site_id
 _symmetry_equiv_pos_as_xyz
  1  'x, y, z'
loop_
 _atom_site_type_symbol
 _atom_site_label
 _atom_site_symmetry_multiplicity
 _atom_site_fract_x
 _atom_site_fract_y
 _atom_site_fract_z
 _atom_site_occupancy
  Lu  Lu0  1  0.500000  0.000000  0.000000  1
  Lu  Lu1  1  0.000000  0.500000  0.000000  1
  Lu  Lu2  1  0.720695  0.720695  0.441393  1
  Lu  Lu3  1  0.279304  0.279304  0.558607  1
  Al  Al4  1  0.369899  0.137289  0.274579  1
  Al  Al5  1  0.904682  0.137289  0.274579  1
  Al  Al6  1  0.137289  0.369899  0.274579  1
  Al  Al7  1  0.137289  0.904682  0.274579  1
  Al  Al8  1  0.000000  0.000000  0.500000  1
  Al  Al9  1  0.500000  0.000000  0.500000  1
  Al  Al10  1  0.000000  0.500000  0.500000  1
  Al  Al11  1  0.500000  0.500000  0.500000  1
  Al  Al12  1  0.862710  0.095319  0.725420  1
  Al  Al13  1  0.862710  0.630100  0.725420  1
  Al  Al14  1  0.095319  0.862710  0.725420  1
  Al  Al15  1  0.630100  0.862710  0.725420  1
  Zn  Zn16  1  0.153355  0.153355  0.000000  1
  Zn  Zn17  1  0.846645  0.153355  0.000000  1
  Zn  Zn18  1  0.153355  0.846645  0.000000  1
  Zn  Zn19  1  0.846645  0.846645  0.000000  1
  Zn  Zn20  1  0.417786  0.417786  0.155937  1
  Zn  Zn21  1  0.738151  0.417786  0.155937  1
  Zn  Zn22  1  0.417786  0.738151  0.155937  1
  Zn  Zn23  1  0.738151  0.738151  0.155937  1
  Zn  Zn24  1  0.671856  0.019920  0.343713  1
  Zn  Zn25  1  0.671856  0.323792  0.343713  1
  Zn  Zn26  1  0.019920  0.671856  0.343713  1
  Zn  Zn27  1  0.323792  0.671856  0.343713  1
  Zn  Zn28  1  0.676208  0.328144  0.656287  1
  Zn  Zn29  1  0.980080  0.328144  0.656287  1
  Zn  Zn30  1  0.328144  0.676208  0.656287  1
  Zn  Zn31  1  0.328144  0.980080  0.656287  1
  Zn  Zn32  1  0.261850  0.261850  0.844063  1
  Zn  Zn33  1  0.582215  0.261850  0.844063  1
  Zn  Zn34  1  0.261850  0.582215  0.844063  1
  Zn  Zn35  1  0.582215  0.582215  0.844063  1
