# generated using pymatgen
data_Y13Th3(InIr)4
_symmetry_space_group_name_H-M   'P 1'
_cell_length_a   9.77621481
_cell_length_b   9.80982677
_cell_length_c   9.80982700
_cell_angle_alpha   59.99999586
_cell_angle_beta   59.88619789
_cell_angle_gamma   59.88620404
_symmetry_Int_Tables_number   1
_chemical_formula_structural   Y13Th3(InIr)4
_chemical_formula_sum   'Y13 Th3 In4 Ir4'
_cell_volume   664.09352857
_cell_formula_units_Z   1
loop_
 _symmetry_equiv_pos_site_id
 _symmetry_equiv_pos_as_xyz
  1  'x, y, z'
loop_
 _atom_site_type_symbol
 _atom_site_label
 _atom_site_symmetry_multiplicity
 _atom_site_fract_x
 _atom_site_fract_y
 _atom_site_fract_z
 _atom_site_occupancy
  Y  Y0  1  0.947890  0.350704  0.350704  1
  Y  Y1  1  0.811466  0.190049  0.190049  1
  Y  Y2  1  0.189560  0.810747  0.810747  1
  Y  Y3  1  0.189560  0.810747  0.188944  1
  Y  Y4  1  0.811466  0.190049  0.808437  1
  Y  Y5  1  0.189560  0.188944  0.810747  1
  Y  Y6  1  0.811466  0.808437  0.190049  1
  Y  Y7  1  0.938860  0.561113  0.561113  1
  Y  Y8  1  0.561636  0.938816  0.938816  1
  Y  Y9  1  0.561636  0.938816  0.560731  1
  Y  Y10  1  0.938860  0.561113  0.938912  1
  Y  Y11  1  0.561636  0.560731  0.938816  1
  Y  Y12  1  0.938860  0.938912  0.561113  1
  Th  Th13  1  0.346018  0.348303  0.348303  1
  Th  Th14  1  0.346018  0.348303  0.957377  1
  Th  Th15  1  0.346018  0.957377  0.348303  1
  In  In16  1  0.585333  0.583743  0.583743  1
  In  In17  1  0.585333  0.583743  0.247182  1
  In  In18  1  0.585333  0.247182  0.583743  1
  In  In19  1  0.246996  0.584335  0.584335  1
  Ir  Ir20  1  0.145452  0.141351  0.141351  1
  Ir  Ir21  1  0.145452  0.141351  0.571846  1
  Ir  Ir22  1  0.145452  0.571846  0.141351  1
  Ir  Ir23  1  0.570141  0.143286  0.143286  1
