# generated using pymatgen
data_PuScB6W
_symmetry_space_group_name_H-M   'P 1'
_cell_length_a   3.55780600
_cell_length_b   9.13782600
_cell_length_c   11.52761300
_cell_angle_alpha   90.00000000
_cell_angle_beta   90.00000000
_cell_angle_gamma   90.00000000
_symmetry_Int_Tables_number   1
_chemical_formula_structural   PuScB6W
_chemical_formula_sum   'Pu4 Sc4 B24 W4'
_cell_volume   374.76975549
_cell_formula_units_Z   4
loop_
 _symmetry_equiv_pos_site_id
 _symmetry_equiv_pos_as_xyz
  1  'x, y, z'
loop_
 _atom_site_type_symbol
 _atom_site_label
 _atom_site_symmetry_multiplicity
 _atom_site_fract_x
 _atom_site_fract_y
 _atom_site_fract_z
 _atom_site_occupancy
  Pu  Pu0  1  0.000000  0.319618  0.414337  1
  Pu  Pu1  1  0.000000  0.680382  0.585663  1
  Pu  Pu2  1  0.000000  0.819618  0.085663  1
  Pu  Pu3  1  0.000000  0.180382  0.914337  1
  Sc  Sc4  1  0.000000  0.945062  0.372832  1
  Sc  Sc5  1  0.000000  0.054938  0.627168  1
  Sc  Sc6  1  0.000000  0.445062  0.127168  1
  Sc  Sc7  1  0.000000  0.554938  0.872832  1
  B  B8  1  0.500000  0.552148  0.434791  1
  B  B9  1  0.500000  0.447852  0.565209  1
  B  B10  1  0.500000  0.052148  0.065209  1
  B  B11  1  0.500000  0.947852  0.934791  1
  B  B12  1  0.500000  0.755605  0.421110  1
  B  B13  1  0.500000  0.244395  0.578890  1
  B  B14  1  0.500000  0.255605  0.078890  1
  B  B15  1  0.500000  0.744395  0.921110  1
  B  B16  1  0.500000  0.797044  0.263783  1
  B  B17  1  0.500000  0.202956  0.736217  1
  B  B18  1  0.500000  0.297044  0.236217  1
  B  B19  1  0.500000  0.702956  0.763783  1
  B  B20  1  0.500000  0.629751  0.180797  1
  B  B21  1  0.500000  0.370249  0.819203  1
  B  B22  1  0.500000  0.129751  0.319203  1
  B  B23  1  0.500000  0.870249  0.680797  1
  B  B24  1  0.500000  0.978271  0.214216  1
  B  B25  1  0.500000  0.021729  0.785784  1
  B  B26  1  0.500000  0.478271  0.285784  1
  B  B27  1  0.500000  0.521729  0.714216  1
  B  B28  1  0.500000  0.597700  0.026951  1
  B  B29  1  0.500000  0.402300  0.973049  1
  B  B30  1  0.500000  0.097700  0.473049  1
  B  B31  1  0.500000  0.902300  0.526951  1
  W  W32  1  0.000000  0.640358  0.319453  1
  W  W33  1  0.000000  0.359642  0.680547  1
  W  W34  1  0.000000  0.140358  0.180547  1
  W  W35  1  0.000000  0.859642  0.819453  1
