# generated using pymatgen
data_LiCe2(PrRh)6
_symmetry_space_group_name_H-M   'P 1'
_cell_length_a   7.68591972
_cell_length_b   7.68591965
_cell_length_c   7.68591949
_cell_angle_alpha   68.39690176
_cell_angle_beta   68.39690193
_cell_angle_gamma   68.39689423
_symmetry_Int_Tables_number   1
_chemical_formula_structural   LiCe2(PrRh)6
_chemical_formula_sum   'Li1 Ce2 Pr6 Rh6'
_cell_volume   378.00975979
_cell_formula_units_Z   1
loop_
 _symmetry_equiv_pos_site_id
 _symmetry_equiv_pos_as_xyz
  1  'x, y, z'
loop_
 _atom_site_type_symbol
 _atom_site_label
 _atom_site_symmetry_multiplicity
 _atom_site_fract_x
 _atom_site_fract_y
 _atom_site_fract_z
 _atom_site_occupancy
  Li  Li0  1  0.000000  0.000000  0.000000  1
  Ce  Ce1  1  0.811159  0.811159  0.811159  1
  Ce  Ce2  1  0.188841  0.188841  0.188841  1
  Pr  Pr3  1  0.149416  0.381637  0.674427  1
  Pr  Pr4  1  0.674427  0.149416  0.381637  1
  Pr  Pr5  1  0.381637  0.674427  0.149416  1
  Pr  Pr6  1  0.850584  0.618363  0.325573  1
  Pr  Pr7  1  0.325573  0.850584  0.618363  1
  Pr  Pr8  1  0.618363  0.325573  0.850584  1
  Rh  Rh9  1  0.960762  0.178596  0.558258  1
  Rh  Rh10  1  0.558258  0.960762  0.178596  1
  Rh  Rh11  1  0.178596  0.558258  0.960762  1
  Rh  Rh12  1  0.039238  0.821404  0.441742  1
  Rh  Rh13  1  0.441742  0.039238  0.821404  1
  Rh  Rh14  1  0.821404  0.441742  0.039238  1
