# generated using pymatgen
data_GdUSbN2
_symmetry_space_group_name_H-M   'P 1'
_cell_length_a   6.80695576
_cell_length_b   6.80695577
_cell_length_c   6.80695488
_cell_angle_alpha   146.60841913
_cell_angle_beta   146.60842395
_cell_angle_gamma   47.94392842
_symmetry_Int_Tables_number   1
_chemical_formula_structural   GdUSbN2
_chemical_formula_sum   'Gd1 U1 Sb1 N2'
_cell_volume   95.14475170
_cell_formula_units_Z   1
loop_
 _symmetry_equiv_pos_site_id
 _symmetry_equiv_pos_as_xyz
  1  'x, y, z'
loop_
 _atom_site_type_symbol
 _atom_site_label
 _atom_site_symmetry_multiplicity
 _atom_site_fract_x
 _atom_site_fract_y
 _atom_site_fract_z
 _atom_site_occupancy
  Gd  Gd0  1  0.343649  0.343649  0.000000  1
  U  U1  1  0.666341  0.666341  0.000000  1
  Sb  Sb2  1  0.009614  0.009614  0.000000  1
  N  N3  1  0.740198  0.240198  0.500000  1
  N  N4  1  0.240198  0.740198  0.500000  1
