# generated using pymatgen
data_TbNd4Co19(SiP3)3
_symmetry_space_group_name_H-M   'P 1'
_cell_length_a   12.14343106
_cell_length_b   12.14343107
_cell_length_c   3.73633700
_cell_angle_alpha   90.00000000
_cell_angle_beta   90.00000000
_cell_angle_gamma   119.93326516
_symmetry_Int_Tables_number   1
_chemical_formula_structural   TbNd4Co19(SiP3)3
_chemical_formula_sum   'Tb1 Nd4 Co19 Si3 P9'
_cell_volume   477.47556464
_cell_formula_units_Z   1
loop_
 _symmetry_equiv_pos_site_id
 _symmetry_equiv_pos_as_xyz
  1  'x, y, z'
loop_
 _atom_site_type_symbol
 _atom_site_label
 _atom_site_symmetry_multiplicity
 _atom_site_fract_x
 _atom_site_fract_y
 _atom_site_fract_z
 _atom_site_occupancy
  Tb  Tb0  1  0.813376  0.813376  0.500000  1
  Nd  Nd1  1  0.333444  0.666936  0.000000  1
  Nd  Nd2  1  0.666936  0.333444  0.000000  1
  Nd  Nd3  1  0.185066  0.999374  0.500000  1
  Nd  Nd4  1  0.999374  0.185066  0.500000  1
  Co  Co5  1  0.204364  0.379269  0.000000  1
  Co  Co6  1  0.622454  0.824381  0.000000  1
  Co  Co7  1  0.173694  0.795812  0.000000  1
  Co  Co8  1  0.824381  0.622454  0.000000  1
  Co  Co9  1  0.795812  0.173694  0.000000  1
  Co  Co10  1  0.379269  0.204364  0.000000  1
  Co  Co11  1  0.558614  0.999420  0.000000  1
  Co  Co12  1  0.999420  0.558614  0.000000  1
  Co  Co13  1  0.442996  0.442996  0.000000  1
  Co  Co14  1  0.125360  0.485402  0.500000  1
  Co  Co15  1  0.516339  0.641175  0.500000  1
  Co  Co16  1  0.359606  0.874718  0.500000  1
  Co  Co17  1  0.641175  0.516339  0.500000  1
  Co  Co18  1  0.874718  0.359606  0.500000  1
  Co  Co19  1  0.485402  0.125360  0.500000  1
  Co  Co20  1  0.715089  0.998542  0.500000  1
  Co  Co21  1  0.998542  0.715089  0.500000  1
  Co  Co22  1  0.285665  0.285665  0.500000  1
  Co  Co23  1  0.998190  0.998190  0.000000  1
  Si  Si24  1  0.373158  0.000085  0.000000  1
  Si  Si25  1  0.000085  0.373158  0.000000  1
  Si  Si26  1  0.629480  0.629480  0.000000  1
  P  P27  1  0.313174  0.477299  0.500000  1
  P  P28  1  0.523358  0.835665  0.500000  1
  P  P29  1  0.163765  0.687805  0.500000  1
  P  P30  1  0.835665  0.523358  0.500000  1
  P  P31  1  0.687805  0.163765  0.500000  1
  P  P32  1  0.477299  0.313174  0.500000  1
  P  P33  1  0.815009  0.997048  0.000000  1
  P  P34  1  0.997048  0.815009  0.000000  1
  P  P35  1  0.184868  0.184868  0.000000  1
