# generated using pymatgen
data_Ta12Al7Ga(IrC)4
_symmetry_space_group_name_H-M   'P 1'
_cell_length_a   8.31530289
_cell_length_b   8.31530346
_cell_length_c   8.31530241
_cell_angle_alpha   60.02945449
_cell_angle_beta   60.02945281
_cell_angle_gamma   60.02945075
_symmetry_Int_Tables_number   1
_chemical_formula_structural   Ta12Al7Ga(IrC)4
_chemical_formula_sum   'Ta12 Al7 Ga1 Ir4 C4'
_cell_volume   406.82635816
_cell_formula_units_Z   1
loop_
 _symmetry_equiv_pos_site_id
 _symmetry_equiv_pos_as_xyz
  1  'x, y, z'
loop_
 _atom_site_type_symbol
 _atom_site_label
 _atom_site_symmetry_multiplicity
 _atom_site_fract_x
 _atom_site_fract_y
 _atom_site_fract_z
 _atom_site_occupancy
  Ta  Ta0  1  0.564101  0.935923  0.564101  1
  Ta  Ta1  1  0.314165  0.686240  0.686240  1
  Ta  Ta2  1  0.685395  0.314051  0.314051  1
  Ta  Ta3  1  0.314051  0.685395  0.314051  1
  Ta  Ta4  1  0.686240  0.686240  0.314165  1
  Ta  Ta5  1  0.314051  0.314051  0.685395  1
  Ta  Ta6  1  0.564101  0.564101  0.935923  1
  Ta  Ta7  1  0.935923  0.564101  0.564101  1
  Ta  Ta8  1  0.563044  0.936661  0.936661  1
  Ta  Ta9  1  0.936661  0.936661  0.563044  1
  Ta  Ta10  1  0.686240  0.314165  0.686240  1
  Ta  Ta11  1  0.936661  0.563044  0.936661  1
  Al  Al12  1  0.999492  0.333484  0.333484  1
  Al  Al13  1  0.333484  0.999492  0.333484  1
  Al  Al14  1  0.333484  0.333484  0.999492  1
  Al  Al15  1  0.916475  0.250172  0.916475  1
  Al  Al16  1  0.916475  0.916475  0.250172  1
  Al  Al17  1  0.250172  0.916475  0.916475  1
  Al  Al18  1  0.333336  0.333336  0.333336  1
  Ga  Ga19  1  0.914468  0.914468  0.914468  1
  Ir  Ir20  1  0.124808  0.124808  0.124808  1
  Ir  Ir21  1  0.624145  0.126354  0.126354  1
  Ir  Ir22  1  0.126354  0.624145  0.126354  1
  Ir  Ir23  1  0.126354  0.126354  0.624145  1
  C  C24  1  0.624943  0.624943  0.624943  1
  C  C25  1  0.124974  0.625202  0.625202  1
  C  C26  1  0.625202  0.124974  0.625202  1
  C  C27  1  0.625202  0.625202  0.124974  1
