# generated using pymatgen
data_Tb2Er2ReOs7
_symmetry_space_group_name_H-M   'P 1'
_cell_length_a   5.38552300
_cell_length_b   5.27230985
_cell_length_c   8.91410436
_cell_angle_alpha   89.99564982
_cell_angle_beta   90.00000000
_cell_angle_gamma   120.71289911
_symmetry_Int_Tables_number   1
_chemical_formula_structural   Tb2Er2ReOs7
_chemical_formula_sum   'Tb2 Er2 Re1 Os7'
_cell_volume   217.60671706
_cell_formula_units_Z   1
loop_
 _symmetry_equiv_pos_site_id
 _symmetry_equiv_pos_as_xyz
  1  'x, y, z'
loop_
 _atom_site_type_symbol
 _atom_site_label
 _atom_site_symmetry_multiplicity
 _atom_site_fract_x
 _atom_site_fract_y
 _atom_site_fract_z
 _atom_site_occupancy
  Tb  Tb0  1  0.663794  0.327587  0.434489  1
  Tb  Tb1  1  0.328465  0.656931  0.564494  1
  Er  Er2  1  0.328182  0.656364  0.935876  1
  Er  Er3  1  0.664101  0.328201  0.064929  1
  Re  Re4  1  0.841252  0.682503  0.751400  1
  Os  Os5  1  0.987695  0.975389  0.499755  1
  Os  Os6  1  0.987928  0.975856  0.000216  1
  Os  Os7  1  0.669011  0.838077  0.248478  1
  Os  Os8  1  0.169066  0.838077  0.248478  1
  Os  Os9  1  0.179646  0.359292  0.248219  1
  Os  Os10  1  0.355011  0.180860  0.751834  1
  Os  Os11  1  0.825850  0.180860  0.751834  1
