# generated using pymatgen
data_Tb6YbCoBr12
_symmetry_space_group_name_H-M   'P 1'
_cell_length_a   9.23327070
_cell_length_b   9.23327069
_cell_length_c   9.23327078
_cell_angle_alpha   107.07868277
_cell_angle_beta   107.07867494
_cell_angle_gamma   107.07866764
_symmetry_Int_Tables_number   1
_chemical_formula_structural   Tb6YbCoBr12
_chemical_formula_sum   'Tb6 Yb1 Co1 Br12'
_cell_volume   654.14791266
_cell_formula_units_Z   1
loop_
 _symmetry_equiv_pos_site_id
 _symmetry_equiv_pos_as_xyz
  1  'x, y, z'
loop_
 _atom_site_type_symbol
 _atom_site_label
 _atom_site_symmetry_multiplicity
 _atom_site_fract_x
 _atom_site_fract_y
 _atom_site_fract_z
 _atom_site_occupancy
  Tb  Tb0  1  0.977003  0.900313  0.693932  1
  Tb  Tb1  1  0.022997  0.099687  0.306068  1
  Tb  Tb2  1  0.099687  0.306068  0.022997  1
  Tb  Tb3  1  0.306068  0.022997  0.099687  1
  Tb  Tb4  1  0.900313  0.693932  0.977003  1
  Tb  Tb5  1  0.693932  0.977003  0.900313  1
  Yb  Yb6  1  0.500000  0.500000  0.500000  1
  Co  Co7  1  0.000000  0.000000  0.000000  1
  Br  Br8  1  0.543792  0.622090  0.842438  1
  Br  Br9  1  0.456208  0.377910  0.157562  1
  Br  Br10  1  0.320024  0.928646  0.778429  1
  Br  Br11  1  0.377910  0.157562  0.456208  1
  Br  Br12  1  0.928646  0.778429  0.320024  1
  Br  Br13  1  0.679976  0.071354  0.221571  1
  Br  Br14  1  0.071354  0.221571  0.679976  1
  Br  Br15  1  0.778429  0.320024  0.928646  1
  Br  Br16  1  0.221571  0.679976  0.071354  1
  Br  Br17  1  0.842438  0.543792  0.622090  1
  Br  Br18  1  0.157562  0.456208  0.377910  1
  Br  Br19  1  0.622090  0.842438  0.543792  1
