# generated using pymatgen
data_Ho3Cd5Ir
_symmetry_space_group_name_H-M   'P 1'
_cell_length_a   8.11236300
_cell_length_b   8.11236410
_cell_length_c   3.74914700
_cell_angle_alpha   90.00000000
_cell_angle_beta   90.00000000
_cell_angle_gamma   119.99999144
_symmetry_Int_Tables_number   1
_chemical_formula_structural   Ho3Cd5Ir
_chemical_formula_sum   'Ho3 Cd5 Ir1'
_cell_volume   213.67708389
_cell_formula_units_Z   1
loop_
 _symmetry_equiv_pos_site_id
 _symmetry_equiv_pos_as_xyz
  1  'x, y, z'
loop_
 _atom_site_type_symbol
 _atom_site_label
 _atom_site_symmetry_multiplicity
 _atom_site_fract_x
 _atom_site_fract_y
 _atom_site_fract_z
 _atom_site_occupancy
  Ho  Ho0  1  0.574064  0.618693  0.000000  1
  Ho  Ho1  1  0.381307  0.955371  0.000000  1
  Ho  Ho2  1  0.044629  0.425936  0.000000  1
  Cd  Cd3  1  0.000000  0.000000  0.000000  1
  Cd  Cd4  1  0.666667  0.333333  0.500000  1
  Cd  Cd5  1  0.993004  0.719867  0.500000  1
  Cd  Cd6  1  0.280133  0.273137  0.500000  1
  Cd  Cd7  1  0.726863  0.006996  0.500000  1
  Ir  Ir8  1  0.333333  0.666667  0.500000  1
