# generated using pymatgen
data_Tb2Nd4Ga3Si
_symmetry_space_group_name_H-M   'P 1'
_cell_length_a   7.73107163
_cell_length_b   7.73107163
_cell_length_c   4.52314500
_cell_angle_alpha   90.00000000
_cell_angle_beta   90.00000000
_cell_angle_gamma   89.36517637
_symmetry_Int_Tables_number   1
_chemical_formula_structural   Tb2Nd4Ga3Si
_chemical_formula_sum   'Tb2 Nd4 Ga3 Si1'
_cell_volume   270.32937928
_cell_formula_units_Z   1
loop_
 _symmetry_equiv_pos_site_id
 _symmetry_equiv_pos_as_xyz
  1  'x, y, z'
loop_
 _atom_site_type_symbol
 _atom_site_label
 _atom_site_symmetry_multiplicity
 _atom_site_fract_x
 _atom_site_fract_y
 _atom_site_fract_z
 _atom_site_occupancy
  Tb  Tb0  1  0.003040  0.999111  0.000000  1
  Tb  Tb1  1  0.500889  0.496960  0.000000  1
  Nd  Nd2  1  0.672680  0.175940  0.500000  1
  Nd  Nd3  1  0.324060  0.827320  0.500000  1
  Nd  Nd4  1  0.181126  0.318874  0.500000  1
  Nd  Nd5  1  0.822974  0.677026  0.500000  1
  Ga  Ga6  1  0.117896  0.618184  0.000000  1
  Ga  Ga7  1  0.881816  0.382104  0.000000  1
  Ga  Ga8  1  0.614842  0.885158  0.000000  1
  Si  Si9  1  0.380675  0.119325  0.000000  1
