# generated using pymatgen
data_Na12Li8Ti(SnP4)3
_symmetry_space_group_name_H-M   'P 1'
_cell_length_a   9.48461379
_cell_length_b   9.48461461
_cell_length_c   13.78071762
_cell_angle_alpha   89.98384553
_cell_angle_beta   89.98384571
_cell_angle_gamma   143.37623757
_symmetry_Int_Tables_number   1
_chemical_formula_structural   Na12Li8Ti(SnP4)3
_chemical_formula_sum   'Na12 Li8 Ti1 Sn3 P12'
_cell_volume   739.54313781
_cell_formula_units_Z   1
loop_
 _symmetry_equiv_pos_site_id
 _symmetry_equiv_pos_as_xyz
  1  'x, y, z'
loop_
 _atom_site_type_symbol
 _atom_site_label
 _atom_site_symmetry_multiplicity
 _atom_site_fract_x
 _atom_site_fract_y
 _atom_site_fract_z
 _atom_site_occupancy
  Na  Na0  1  0.098114  0.438774  0.677957  1
  Na  Na1  1  0.729727  0.729940  0.680275  1
  Na  Na2  1  0.232581  0.232900  0.817697  1
  Na  Na3  1  0.767100  0.767419  0.182303  1
  Na  Na4  1  0.939681  0.597040  0.817299  1
  Na  Na5  1  0.561226  0.901886  0.322043  1
  Na  Na6  1  0.402960  0.060319  0.182701  1
  Na  Na7  1  0.058663  0.400406  0.180012  1
  Na  Na8  1  0.897393  0.556272  0.324969  1
  Na  Na9  1  0.443728  0.102607  0.675031  1
  Na  Na10  1  0.599594  0.941338  0.819988  1
  Na  Na11  1  0.270060  0.270273  0.319725  1
  Li  Li12  1  0.917020  0.082980  0.000000  1
  Li  Li13  1  0.583376  0.416624  0.500000  1
  Li  Li14  1  0.083194  0.916806  0.000000  1
  Li  Li15  1  0.416852  0.583148  0.500000  1
  Li  Li16  1  0.756282  0.243718  0.000000  1
  Li  Li17  1  0.744280  0.255720  0.500000  1
  Li  Li18  1  0.243448  0.756552  0.000000  1
  Li  Li19  1  0.253468  0.746532  0.500000  1
  Ti  Ti20  1  0.085715  0.914285  0.500000  1
  Sn  Sn21  1  0.407450  0.592550  0.000000  1
  Sn  Sn22  1  0.911918  0.088082  0.500000  1
  Sn  Sn23  1  0.592846  0.407154  0.000000  1
  P  P24  1  0.913189  0.580302  0.112377  1
  P  P25  1  0.419698  0.086811  0.887623  1
  P  P26  1  0.590350  0.919645  0.610195  1
  P  P27  1  0.934696  0.613230  0.602060  1
  P  P28  1  0.086620  0.419713  0.888401  1
  P  P29  1  0.580287  0.913380  0.111599  1
  P  P30  1  0.386770  0.065304  0.397940  1
  P  P31  1  0.238667  0.227740  0.601413  1
  P  P32  1  0.736217  0.735784  0.896153  1
  P  P33  1  0.264216  0.263783  0.103847  1
  P  P34  1  0.080355  0.409650  0.389805  1
  P  P35  1  0.772260  0.761333  0.398587  1
