# generated using pymatgen
data_Pr10GaSi4Sn
_symmetry_space_group_name_H-M   'P 1'
_cell_length_a   7.96204000
_cell_length_b   9.14580953
_cell_length_c   7.96204000
_cell_angle_alpha   115.80333492
_cell_angle_beta   90.00000000
_cell_angle_gamma   115.80333492
_symmetry_Int_Tables_number   1
_chemical_formula_structural   Pr10GaSi4Sn
_chemical_formula_sum   'Pr10 Ga1 Si4 Sn1'
_cell_volume   456.91607163
_cell_formula_units_Z   1
loop_
 _symmetry_equiv_pos_site_id
 _symmetry_equiv_pos_as_xyz
  1  'x, y, z'
loop_
 _atom_site_type_symbol
 _atom_site_label
 _atom_site_symmetry_multiplicity
 _atom_site_fract_x
 _atom_site_fract_y
 _atom_site_fract_z
 _atom_site_occupancy
  Pr  Pr0  1  0.996140  0.992281  0.996140  1
  Pr  Pr1  1  0.503860  0.007719  0.503860  1
  Pr  Pr2  1  0.538209  0.716652  0.683304  1
  Pr  Pr3  1  0.178443  0.716652  0.033349  1
  Pr  Pr4  1  0.683304  0.716652  0.178443  1
  Pr  Pr5  1  0.033349  0.716652  0.538209  1
  Pr  Pr6  1  0.466651  0.283348  0.321557  1
  Pr  Pr7  1  0.816696  0.283348  0.961791  1
  Pr  Pr8  1  0.321557  0.283348  0.816696  1
  Pr  Pr9  1  0.961791  0.283348  0.466651  1
  Ga  Ga10  1  0.750000  0.500000  0.750000  1
  Si  Si11  1  0.885759  0.000000  0.614241  1
  Si  Si12  1  0.114241  0.000000  0.385759  1
  Si  Si13  1  0.614241  0.000000  0.114241  1
  Si  Si14  1  0.385759  0.000000  0.885759  1
  Sn  Sn15  1  0.250000  0.500000  0.250000  1
