# generated using pymatgen
data_Ho8Ti10Nb2Si15Pb
_symmetry_space_group_name_H-M   'P 1'
_cell_length_a   7.11064871
_cell_length_b   7.06632711
_cell_length_c   13.03225820
_cell_angle_alpha   89.98080109
_cell_angle_beta   89.80655387
_cell_angle_gamma   89.90786026
_symmetry_Int_Tables_number   1
_chemical_formula_structural   Ho8Ti10Nb2Si15Pb
_chemical_formula_sum   'Ho8 Ti10 Nb2 Si15 Pb1'
_cell_volume   654.81644326
_cell_formula_units_Z   1
loop_
 _symmetry_equiv_pos_site_id
 _symmetry_equiv_pos_as_xyz
  1  'x, y, z'
loop_
 _atom_site_type_symbol
 _atom_site_label
 _atom_site_symmetry_multiplicity
 _atom_site_fract_x
 _atom_site_fract_y
 _atom_site_fract_z
 _atom_site_occupancy
  Ho  Ho0  1  0.344269  0.997772  0.460002  1
  Ho  Ho1  1  0.507446  0.833881  0.718723  1
  Ho  Ho2  1  0.501101  0.159388  0.216736  1
  Ho  Ho3  1  0.841205  0.497726  0.281738  1
  Ho  Ho4  1  0.159318  0.510574  0.786835  1
  Ho  Ho5  1  0.661831  0.996970  0.969432  1
  Ho  Ho6  1  0.990427  0.349563  0.525956  1
  Ho  Ho7  1  0.000761  0.658812  0.034548  1
  Ti  Ti8  1  0.814045  0.175552  0.752640  1
  Ti  Ti9  1  0.672042  0.673022  0.499443  1
  Ti  Ti10  1  0.154101  0.008618  0.884383  1
  Ti  Ti11  1  0.491573  0.650474  0.126216  1
  Ti  Ti12  1  0.516032  0.354723  0.626028  1
  Ti  Ti13  1  0.654367  0.493796  0.876846  1
  Ti  Ti14  1  0.345676  0.509723  0.372597  1
  Ti  Ti15  1  0.846810  0.992356  0.374547  1
  Ti  Ti16  1  0.010562  0.151895  0.124138  1
  Ti  Ti17  1  0.977095  0.832161  0.618260  1
  Nb  Nb18  1  0.326763  0.326873  0.001474  1
  Nb  Nb19  1  0.173817  0.826394  0.249698  1
  Si  Si20  1  0.372095  0.703812  0.935613  1
  Si  Si21  1  0.626788  0.297953  0.432408  1
  Si  Si22  1  0.704521  0.370152  0.067079  1
  Si  Si23  1  0.296969  0.630200  0.565495  1
  Si  Si24  1  0.797315  0.870526  0.184006  1
  Si  Si25  1  0.129208  0.203524  0.315479  1
  Si  Si26  1  0.871472  0.800852  0.816465  1
  Si  Si27  1  0.294633  0.952151  0.066200  1
  Si  Si28  1  0.550416  0.789011  0.313361  1
  Si  Si29  1  0.462970  0.209454  0.820431  1
  Si  Si30  1  0.794505  0.543408  0.687071  1
  Si  Si31  1  0.208151  0.452521  0.186393  1
  Si  Si32  1  0.705480  0.047994  0.564314  1
  Si  Si33  1  0.952387  0.292287  0.935386  1
  Si  Si34  1  0.046531  0.709842  0.433382  1
  Pb  Pb35  1  0.197316  0.126041  0.676675  1
