# generated using pymatgen
data_Yb2MnN3
_symmetry_space_group_name_H-M   'P 1'
_cell_length_a   5.81731754
_cell_length_b   5.81731745
_cell_length_c   11.50656600
_cell_angle_alpha   90.00000000
_cell_angle_beta   90.00000000
_cell_angle_gamma   125.31554278
_symmetry_Int_Tables_number   1
_chemical_formula_structural   Yb2MnN3
_chemical_formula_sum   'Yb8 Mn4 N12'
_cell_volume   317.73950092
_cell_formula_units_Z   4
loop_
 _symmetry_equiv_pos_site_id
 _symmetry_equiv_pos_as_xyz
  1  'x, y, z'
loop_
 _atom_site_type_symbol
 _atom_site_label
 _atom_site_symmetry_multiplicity
 _atom_site_fract_x
 _atom_site_fract_y
 _atom_site_fract_z
 _atom_site_occupancy
  Yb  Yb0  1  0.449718  0.550282  0.354152  1
  Yb  Yb1  1  0.550282  0.449718  0.645848  1
  Yb  Yb2  1  0.050282  0.949718  0.854152  1
  Yb  Yb3  1  0.949718  0.050282  0.145848  1
  Yb  Yb4  1  0.140637  0.859363  0.421954  1
  Yb  Yb5  1  0.859363  0.140637  0.578046  1
  Yb  Yb6  1  0.359363  0.640637  0.921954  1
  Yb  Yb7  1  0.640637  0.359363  0.078046  1
  Mn  Mn8  1  0.254208  0.745792  0.159133  1
  Mn  Mn9  1  0.745792  0.254208  0.840867  1
  Mn  Mn10  1  0.245792  0.754208  0.659133  1
  Mn  Mn11  1  0.754208  0.245792  0.340867  1
  N  N12  1  0.155465  0.844535  0.036291  1
  N  N13  1  0.844535  0.155465  0.963709  1
  N  N14  1  0.344535  0.655465  0.536291  1
  N  N15  1  0.655465  0.344535  0.463709  1
  N  N16  1  0.422659  0.577341  0.133306  1
  N  N17  1  0.577341  0.422659  0.866694  1
  N  N18  1  0.077341  0.922659  0.633306  1
  N  N19  1  0.922659  0.077341  0.366694  1
  N  N20  1  0.960402  0.539598  0.250000  1
  N  N21  1  0.539598  0.960402  0.750000  1
  N  N22  1  0.039598  0.460402  0.750000  1
  N  N23  1  0.460402  0.039598  0.250000  1
