# generated using pymatgen
data_YbFe2(Sb6Rh)2
_symmetry_space_group_name_H-M   'P 1'
_cell_length_a   8.02130115
_cell_length_b   8.04729871
_cell_length_c   8.02130093
_cell_angle_alpha   109.43691229
_cell_angle_beta   109.39220761
_cell_angle_gamma   109.45341679
_symmetry_Int_Tables_number   1
_chemical_formula_structural   YbFe2(Sb6Rh)2
_chemical_formula_sum   'Yb1 Fe2 Sb12 Rh2'
_cell_volume   399.22578249
_cell_formula_units_Z   1
loop_
 _symmetry_equiv_pos_site_id
 _symmetry_equiv_pos_as_xyz
  1  'x, y, z'
loop_
 _atom_site_type_symbol
 _atom_site_label
 _atom_site_symmetry_multiplicity
 _atom_site_fract_x
 _atom_site_fract_y
 _atom_site_fract_z
 _atom_site_occupancy
  Yb  Yb0  1  0.000000  0.000000  0.000000  1
  Fe  Fe1  1  0.500000  0.500000  0.500000  1
  Fe  Fe2  1  0.000000  0.500000  0.000000  1
  Sb  Sb3  1  0.833979  0.655984  0.503967  1
  Sb  Sb4  1  0.166021  0.344016  0.496033  1
  Sb  Sb5  1  0.152017  0.655984  0.822004  1
  Sb  Sb6  1  0.847983  0.344016  0.177996  1
  Sb  Sb7  1  0.668109  0.505674  0.837565  1
  Sb  Sb8  1  0.331891  0.494326  0.162435  1
  Sb  Sb9  1  0.657527  0.812248  0.154722  1
  Sb  Sb10  1  0.342473  0.187752  0.845278  1
  Sb  Sb11  1  0.504435  0.834255  0.656272  1
  Sb  Sb12  1  0.495565  0.165745  0.343728  1
  Sb  Sb13  1  0.177984  0.834255  0.329820  1
  Sb  Sb14  1  0.822016  0.165745  0.670180  1
  Rh  Rh15  1  0.500000  0.000000  0.000000  1
  Rh  Rh16  1  0.000000  0.000000  0.500000  1
