# generated using pymatgen
data_TbYHo(AgGe)3
_symmetry_space_group_name_H-M   'P 1'
_cell_length_a   7.20631909
_cell_length_b   7.21426721
_cell_length_c   4.19549700
_cell_angle_alpha   90.00000000
_cell_angle_beta   90.00000000
_cell_angle_gamma   120.00948750
_symmetry_Int_Tables_number   1
_chemical_formula_structural   TbYHo(AgGe)3
_chemical_formula_sum   'Tb1 Y1 Ho1 Ag3 Ge3'
_cell_volume   188.87663273
_cell_formula_units_Z   1
loop_
 _symmetry_equiv_pos_site_id
 _symmetry_equiv_pos_as_xyz
  1  'x, y, z'
loop_
 _atom_site_type_symbol
 _atom_site_label
 _atom_site_symmetry_multiplicity
 _atom_site_fract_x
 _atom_site_fract_y
 _atom_site_fract_z
 _atom_site_occupancy
  Tb  Tb0  1  0.585561  0.000086  0.000000  1
  Y  Y1  1  0.414369  0.414507  0.000000  1
  Ho  Ho2  1  0.999961  0.585750  0.000000  1
  Ag  Ag3  1  0.252289  0.999661  0.500000  1
  Ag  Ag4  1  0.000048  0.253030  0.500000  1
  Ag  Ag5  1  0.747715  0.747336  0.500000  1
  Ge  Ge6  1  0.332549  0.666562  0.500000  1
  Ge  Ge7  1  0.667792  0.333992  0.500000  1
  Ge  Ge8  1  0.999717  0.999075  0.000000  1
