# generated using pymatgen
data_Y7Sn23(OsRh)3
_symmetry_space_group_name_H-M   'P 1'
_cell_length_a   9.90156200
_cell_length_b   9.90156453
_cell_length_c   10.10000500
_cell_angle_alpha   90.00000000
_cell_angle_beta   90.00000000
_cell_angle_gamma   120.00000490
_symmetry_Int_Tables_number   1
_chemical_formula_structural   Y7Sn23(OsRh)3
_chemical_formula_sum   'Y7 Sn23 Os3 Rh3'
_cell_volume   857.55055548
_cell_formula_units_Z   1
loop_
 _symmetry_equiv_pos_site_id
 _symmetry_equiv_pos_as_xyz
  1  'x, y, z'
loop_
 _atom_site_type_symbol
 _atom_site_label
 _atom_site_symmetry_multiplicity
 _atom_site_fract_x
 _atom_site_fract_y
 _atom_site_fract_z
 _atom_site_occupancy
  Y  Y0  1  0.000000  0.000000  0.987370  1
  Y  Y1  1  0.040582  0.520291  0.307779  1
  Y  Y2  1  0.479709  0.959418  0.307779  1
  Y  Y3  1  0.479709  0.520291  0.307779  1
  Y  Y4  1  0.965097  0.482548  0.695850  1
  Y  Y5  1  0.517452  0.034903  0.695850  1
  Y  Y6  1  0.517452  0.482548  0.695850  1
  Sn  Sn7  1  0.000000  0.000000  0.495243  1
  Sn  Sn8  1  0.117734  0.882266  0.278289  1
  Sn  Sn9  1  0.764530  0.882266  0.278289  1
  Sn  Sn10  1  0.117734  0.235470  0.278289  1
  Sn  Sn11  1  0.882917  0.117083  0.720133  1
  Sn  Sn12  1  0.234166  0.117083  0.720133  1
  Sn  Sn13  1  0.882917  0.765834  0.720133  1
  Sn  Sn14  1  0.350001  0.998928  0.000751  1
  Sn  Sn15  1  0.648927  0.649999  0.000751  1
  Sn  Sn16  1  0.001072  0.351073  0.000751  1
  Sn  Sn17  1  0.350001  0.351073  0.000751  1
  Sn  Sn18  1  0.001072  0.649999  0.000751  1
  Sn  Sn19  1  0.648927  0.998928  0.000751  1
  Sn  Sn20  1  0.778510  0.557020  0.457309  1
  Sn  Sn21  1  0.778510  0.221490  0.457309  1
  Sn  Sn22  1  0.442980  0.221490  0.457309  1
  Sn  Sn23  1  0.221421  0.442843  0.543191  1
  Sn  Sn24  1  0.221421  0.778579  0.543191  1
  Sn  Sn25  1  0.557157  0.778579  0.543191  1
  Sn  Sn26  1  0.666667  0.333333  0.182318  1
  Sn  Sn27  1  0.333333  0.666667  0.822381  1
  Sn  Sn28  1  0.666667  0.333333  0.879149  1
  Sn  Sn29  1  0.333333  0.666667  0.123046  1
  Os  Os30  1  0.168159  0.831841  0.800333  1
  Os  Os31  1  0.663682  0.831841  0.800333  1
  Os  Os32  1  0.168159  0.336318  0.800333  1
  Rh  Rh33  1  0.830201  0.169799  0.199111  1
  Rh  Rh34  1  0.339598  0.169799  0.199111  1
  Rh  Rh35  1  0.830201  0.660402  0.199111  1
