# generated using pymatgen
data_Ho3Hf3Sn6IrRh5
_symmetry_space_group_name_H-M   'P 1'
_cell_length_a   7.46294800
_cell_length_b   7.46294889
_cell_length_c   7.50401600
_cell_angle_alpha   90.00000000
_cell_angle_beta   90.00000000
_cell_angle_gamma   120.00000494
_symmetry_Int_Tables_number   1
_chemical_formula_structural   Ho3Hf3Sn6IrRh5
_chemical_formula_sum   'Ho3 Hf3 Sn6 Ir1 Rh5'
_cell_volume   361.94721900
_cell_formula_units_Z   1
loop_
 _symmetry_equiv_pos_site_id
 _symmetry_equiv_pos_as_xyz
  1  'x, y, z'
loop_
 _atom_site_type_symbol
 _atom_site_label
 _atom_site_symmetry_multiplicity
 _atom_site_fract_x
 _atom_site_fract_y
 _atom_site_fract_z
 _atom_site_occupancy
  Ho  Ho0  1  0.000425  0.406381  0.749569  1
  Ho  Ho1  1  0.593619  0.594045  0.749569  1
  Ho  Ho2  1  0.405955  0.999575  0.749569  1
  Hf  Hf3  1  0.998740  0.392888  0.250284  1
  Hf  Hf4  1  0.607112  0.605852  0.250284  1
  Hf  Hf5  1  0.394148  0.001260  0.250284  1
  Sn  Sn6  1  0.266351  0.266461  0.493784  1
  Sn  Sn7  1  0.000110  0.733649  0.493784  1
  Sn  Sn8  1  0.001360  0.733890  0.006119  1
  Sn  Sn9  1  0.733539  0.999890  0.493784  1
  Sn  Sn10  1  0.732529  0.998640  0.006119  1
  Sn  Sn11  1  0.266110  0.267471  0.006119  1
  Ir  Ir12  1  0.333333  0.666667  0.460358  1
  Rh  Rh13  1  0.666667  0.333333  0.463121  1
  Rh  Rh14  1  0.333333  0.666667  0.040593  1
  Rh  Rh15  1  0.000000  0.000000  0.749737  1
  Rh  Rh16  1  0.000000  0.000000  0.250303  1
  Rh  Rh17  1  0.666667  0.333333  0.036621  1
