# generated using pymatgen
data_La4Zr3OsF28
_symmetry_space_group_name_H-M   'P 1'
_cell_length_a   5.88520006
_cell_length_b   9.42057419
_cell_length_c   12.64485800
_cell_angle_alpha   62.15552632
_cell_angle_beta   89.99180265
_cell_angle_gamma   89.94176180
_symmetry_Int_Tables_number   1
_chemical_formula_structural   La4Zr3OsF28
_chemical_formula_sum   'La4 Zr3 Os1 F28'
_cell_volume   619.88624390
_cell_formula_units_Z   1
loop_
 _symmetry_equiv_pos_site_id
 _symmetry_equiv_pos_as_xyz
  1  'x, y, z'
loop_
 _atom_site_type_symbol
 _atom_site_label
 _atom_site_symmetry_multiplicity
 _atom_site_fract_x
 _atom_site_fract_y
 _atom_site_fract_z
 _atom_site_occupancy
  La  La0  1  0.758337  0.810668  0.261613  1
  La  La1  1  0.257465  0.187396  0.234399  1
  La  La2  1  0.242609  0.187347  0.734288  1
  La  La3  1  0.743530  0.811109  0.769553  1
  Zr  Zr4  1  0.245642  0.725652  0.543436  1
  Zr  Zr5  1  0.745570  0.274812  0.956752  1
  Zr  Zr6  1  0.754587  0.273964  0.456604  1
  Os  Os7  1  0.256539  0.725489  0.044061  1
  F  F8  1  0.960340  0.717533  0.453241  1
  F  F9  1  0.457364  0.285702  0.044048  1
  F  F10  1  0.043032  0.283935  0.544316  1
  F  F11  1  0.534779  0.717102  0.956691  1
  F  F12  1  0.059942  0.708232  0.922484  1
  F  F13  1  0.548182  0.290557  0.579626  1
  F  F14  1  0.951257  0.289508  0.080410  1
  F  F15  1  0.453662  0.711300  0.420141  1
  F  F16  1  0.733927  0.517957  0.860329  1
  F  F17  1  0.230818  0.481665  0.639889  1
  F  F18  1  0.259266  0.493749  0.136011  1
  F  F19  1  0.769244  0.517354  0.359755  1
  F  F20  1  0.737415  0.031552  0.053077  1
  F  F21  1  0.238948  0.969820  0.444723  1
  F  F22  1  0.262238  0.956936  0.953748  1
  F  F23  1  0.762275  0.031069  0.556577  1
  F  F24  1  0.043759  0.744863  0.668509  1
  F  F25  1  0.546116  0.254076  0.831567  1
  F  F26  1  0.953009  0.255268  0.330254  1
  F  F27  1  0.449731  0.743099  0.166780  1
  F  F28  1  0.022292  0.265982  0.862764  1
  F  F29  1  0.518269  0.732141  0.640677  1
  F  F30  1  0.983892  0.730870  0.135194  1
  F  F31  1  0.478985  0.269972  0.359793  1
  F  F32  1  0.084098  0.969748  0.231251  1
  F  F33  1  0.584647  0.031171  0.265552  1
  F  F34  1  0.913539  0.033414  0.769568  1
  F  F35  1  0.414692  0.968988  0.732315  1
