# generated using pymatgen
data_Na2CdSiO4
_symmetry_space_group_name_H-M   'P 1'
_cell_length_a   5.85307600
_cell_length_b   5.52230194
_cell_length_c   8.97069112
_cell_angle_alpha   52.29799070
_cell_angle_beta   90.00000000
_cell_angle_gamma   90.00000000
_symmetry_Int_Tables_number   1
_chemical_formula_structural   Na2CdSiO4
_chemical_formula_sum   'Na4 Cd2 Si2 O8'
_cell_volume   229.41279662
_cell_formula_units_Z   2
loop_
 _symmetry_equiv_pos_site_id
 _symmetry_equiv_pos_as_xyz
  1  'x, y, z'
loop_
 _atom_site_type_symbol
 _atom_site_label
 _atom_site_symmetry_multiplicity
 _atom_site_fract_x
 _atom_site_fract_y
 _atom_site_fract_z
 _atom_site_occupancy
  Na  Na0  1  0.844364  0.506027  0.000152  1
  Na  Na1  1  0.682936  0.756488  0.245647  1
  Na  Na2  1  0.155636  0.506027  0.500152  1
  Na  Na3  1  0.317064  0.756488  0.745647  1
  Cd  Cd4  1  0.319841  0.243813  0.255188  1
  Cd  Cd5  1  0.680159  0.243813  0.755188  1
  Si  Si6  1  0.183521  0.993559  0.000198  1
  Si  Si7  1  0.816479  0.993559  0.500198  1
  O  O8  1  0.305046  0.908499  0.194394  1
  O  O9  1  0.683212  0.279959  0.306112  1
  O  O10  1  0.805450  0.686416  0.508162  1
  O  O11  1  0.086684  0.093839  0.491448  1
  O  O12  1  0.694954  0.908499  0.694394  1
  O  O13  1  0.316788  0.279959  0.806112  1
  O  O14  1  0.913316  0.093839  0.991448  1
  O  O15  1  0.194550  0.686416  0.008162  1
