# generated using pymatgen
data_Yb3LuMn3CrB16
_symmetry_space_group_name_H-M   'P 1'
_cell_length_a   3.36143400
_cell_length_b   5.89185608
_cell_length_c   11.40179610
_cell_angle_alpha   90.00187449
_cell_angle_beta   90.00000000
_cell_angle_gamma   90.00000000
_symmetry_Int_Tables_number   1
_chemical_formula_structural   Yb3LuMn3CrB16
_chemical_formula_sum   'Yb3 Lu1 Mn3 Cr1 B16'
_cell_volume   225.81354496
_cell_formula_units_Z   1
loop_
 _symmetry_equiv_pos_site_id
 _symmetry_equiv_pos_as_xyz
  1  'x, y, z'
loop_
 _atom_site_type_symbol
 _atom_site_label
 _atom_site_symmetry_multiplicity
 _atom_site_fract_x
 _atom_site_fract_y
 _atom_site_fract_z
 _atom_site_occupancy
  Yb  Yb0  1  0.500000  0.625507  0.848876  1
  Yb  Yb1  1  0.500000  0.123899  0.652660  1
  Yb  Yb2  1  0.500000  0.876039  0.348608  1
  Lu  Lu3  1  0.500000  0.374129  0.150300  1
  Mn  Mn4  1  0.500000  0.623420  0.580844  1
  Mn  Mn5  1  0.500000  0.124306  0.921102  1
  Mn  Mn6  1  0.500000  0.876998  0.080728  1
  Cr  Cr7  1  0.500000  0.376606  0.417752  1
  B  B8  1  0.000000  0.113529  0.047397  1
  B  B9  1  0.000000  0.887647  0.953842  1
  B  B10  1  0.000000  0.386761  0.547144  1
  B  B11  1  0.000000  0.614664  0.452989  1
  B  B12  1  0.000000  0.136925  0.466473  1
  B  B13  1  0.000000  0.862283  0.532766  1
  B  B14  1  0.000000  0.362116  0.968251  1
  B  B15  1  0.000000  0.637714  0.032907  1
  B  B16  1  0.000000  0.024561  0.190853  1
  B  B17  1  0.000000  0.977070  0.810287  1
  B  B18  1  0.000000  0.476143  0.691405  1
  B  B19  1  0.000000  0.523930  0.306715  1
  B  B20  1  0.000000  0.217362  0.314037  1
  B  B21  1  0.000000  0.780483  0.683598  1
  B  B22  1  0.000000  0.278925  0.818007  1
  B  B23  1  0.000000  0.718983  0.182457  1
