# generated using pymatgen
data_Tb2TmPaCo3
_symmetry_space_group_name_H-M   'P 1'
_cell_length_a   5.89689512
_cell_length_b   5.89689488
_cell_length_c   14.06693100
_cell_angle_alpha   90.00000000
_cell_angle_beta   90.00000000
_cell_angle_gamma   143.59539948
_symmetry_Int_Tables_number   1
_chemical_formula_structural   Tb2TmPaCo3
_chemical_formula_sum   'Tb4 Tm2 Pa2 Co6'
_cell_volume   290.30519376
_cell_formula_units_Z   2
loop_
 _symmetry_equiv_pos_site_id
 _symmetry_equiv_pos_as_xyz
  1  'x, y, z'
loop_
 _atom_site_type_symbol
 _atom_site_label
 _atom_site_symmetry_multiplicity
 _atom_site_fract_x
 _atom_site_fract_y
 _atom_site_fract_z
 _atom_site_occupancy
  Tb  Tb0  1  0.781851  0.218149  0.384712  1
  Tb  Tb1  1  0.218149  0.781851  0.615288  1
  Tb  Tb2  1  0.781851  0.218149  0.115288  1
  Tb  Tb3  1  0.218149  0.781851  0.884712  1
  Tm  Tm4  1  0.508587  0.491413  0.250000  1
  Tm  Tm5  1  0.491413  0.508587  0.750000  1
  Pa  Pa6  1  0.500000  0.500000  0.500000  1
  Pa  Pa7  1  0.500000  0.500000  0.000000  1
  Co  Co8  1  0.077086  0.922914  0.397534  1
  Co  Co9  1  0.922914  0.077086  0.602466  1
  Co  Co10  1  0.077086  0.922914  0.102466  1
  Co  Co11  1  0.922914  0.077086  0.897534  1
  Co  Co12  1  0.202038  0.797962  0.250000  1
  Co  Co13  1  0.797962  0.202038  0.750000  1
