# generated using pymatgen
data_Tb4InPd6Pt5
_symmetry_space_group_name_H-M   'P 1'
_cell_length_a   4.21939100
_cell_length_b   5.85994776
_cell_length_c   11.67808074
_cell_angle_alpha   87.06065767
_cell_angle_beta   90.00000000
_cell_angle_gamma   90.00000000
_symmetry_Int_Tables_number   1
_chemical_formula_structural   Tb4InPd6Pt5
_chemical_formula_sum   'Tb4 In1 Pd6 Pt5'
_cell_volume   288.36546571
_cell_formula_units_Z   1
loop_
 _symmetry_equiv_pos_site_id
 _symmetry_equiv_pos_as_xyz
  1  'x, y, z'
loop_
 _atom_site_type_symbol
 _atom_site_label
 _atom_site_symmetry_multiplicity
 _atom_site_fract_x
 _atom_site_fract_y
 _atom_site_fract_z
 _atom_site_occupancy
  Tb  Tb0  1  0.500000  0.755733  0.375752  1
  Tb  Tb1  1  0.500000  0.716152  0.860401  1
  Tb  Tb2  1  0.500000  0.283848  0.139599  1
  Tb  Tb3  1  0.500000  0.244267  0.624248  1
  In  In4  1  0.000000  0.000000  0.000000  1
  Pd  Pd5  1  0.000000  0.500000  0.500000  1
  Pd  Pd6  1  0.500000  0.254758  0.377613  1
  Pd  Pd7  1  0.500000  0.225662  0.881932  1
  Pd  Pd8  1  0.500000  0.774338  0.118068  1
  Pd  Pd9  1  0.500000  0.745242  0.622387  1
  Pd  Pd10  1  0.000000  0.000000  0.500000  1
  Pt  Pt11  1  0.000000  0.013744  0.250748  1
  Pt  Pt12  1  0.000000  0.986256  0.749252  1
  Pt  Pt13  1  0.000000  0.500000  0.000000  1
  Pt  Pt14  1  0.000000  0.519044  0.250706  1
  Pt  Pt15  1  0.000000  0.480956  0.749294  1
