# generated using pymatgen
data_La4TeC4I
_symmetry_space_group_name_H-M   'P 1'
_cell_length_a   7.93306141
_cell_length_b   7.93306233
_cell_length_c   7.20023326
_cell_angle_alpha   80.39949975
_cell_angle_beta   80.39949955
_cell_angle_gamma   32.72147331
_symmetry_Int_Tables_number   1
_chemical_formula_structural   La4TeC4I
_chemical_formula_sum   'La4 Te1 C4 I1'
_cell_volume   241.21655043
_cell_formula_units_Z   1
loop_
 _symmetry_equiv_pos_site_id
 _symmetry_equiv_pos_as_xyz
  1  'x, y, z'
loop_
 _atom_site_type_symbol
 _atom_site_label
 _atom_site_symmetry_multiplicity
 _atom_site_fract_x
 _atom_site_fract_y
 _atom_site_fract_z
 _atom_site_occupancy
  La  La0  1  0.546040  0.140881  0.141860  1
  La  La1  1  0.142781  0.550856  0.655717  1
  La  La2  1  0.449144  0.857219  0.844283  1
  La  La3  1  0.859119  0.453960  0.358140  1
  Te  Te4  1  0.788938  0.211062  0.750000  1
  C  C5  1  0.361905  0.101805  0.471172  1
  C  C6  1  0.898195  0.638095  0.028828  1
  C  C7  1  0.644349  0.899371  0.526930  1
  C  C8  1  0.100629  0.355651  0.973070  1
  I  I9  1  0.208903  0.791097  0.250000  1
