# generated using pymatgen
data_Y3Ho5Cd2RuPt
_symmetry_space_group_name_H-M   'P 1'
_cell_length_a   9.63667546
_cell_length_b   9.63667691
_cell_length_c   9.67577300
_cell_angle_alpha   59.86570765
_cell_angle_beta   59.86570263
_cell_angle_gamma   59.77380970
_symmetry_Int_Tables_number   1
_chemical_formula_structural   Y3Ho5Cd2RuPt
_chemical_formula_sum   'Y6 Ho10 Cd4 Ru2 Pt2'
_cell_volume   632.98843069
_cell_formula_units_Z   2
loop_
 _symmetry_equiv_pos_site_id
 _symmetry_equiv_pos_as_xyz
  1  'x, y, z'
loop_
 _atom_site_type_symbol
 _atom_site_label
 _atom_site_symmetry_multiplicity
 _atom_site_fract_x
 _atom_site_fract_y
 _atom_site_fract_z
 _atom_site_occupancy
  Y  Y0  1  0.937695  0.558981  0.565965  1
  Y  Y1  1  0.558981  0.937695  0.937360  1
  Y  Y2  1  0.558981  0.937695  0.565965  1
  Y  Y3  1  0.937695  0.558981  0.937360  1
  Y  Y4  1  0.562994  0.562994  0.937006  1
  Y  Y5  1  0.938463  0.938463  0.561537  1
  Ho  Ho6  1  0.349290  0.349290  0.352235  1
  Ho  Ho7  1  0.349290  0.349290  0.949185  1
  Ho  Ho8  1  0.346462  0.954530  0.349504  1
  Ho  Ho9  1  0.954530  0.346462  0.349504  1
  Ho  Ho10  1  0.815176  0.187844  0.190225  1
  Ho  Ho11  1  0.187844  0.815176  0.806756  1
  Ho  Ho12  1  0.187844  0.815176  0.190225  1
  Ho  Ho13  1  0.815176  0.187844  0.806756  1
  Ho  Ho14  1  0.187799  0.187799  0.812201  1
  Ho  Ho15  1  0.808565  0.808565  0.191435  1
  Cd  Cd16  1  0.579805  0.579805  0.581278  1
  Cd  Cd17  1  0.579805  0.579805  0.259113  1
  Cd  Cd18  1  0.580899  0.255738  0.581681  1
  Cd  Cd19  1  0.255738  0.580899  0.581681  1
  Ru  Ru20  1  0.144080  0.144080  0.137963  1
  Ru  Ru21  1  0.144080  0.144080  0.573879  1
  Pt  Pt22  1  0.144656  0.574154  0.140595  1
  Pt  Pt23  1  0.574154  0.144656  0.140595  1
