# generated using pymatgen
data_TbHoIr2O7
_symmetry_space_group_name_H-M   'P 1'
_cell_length_a   7.22877034
_cell_length_b   7.24651886
_cell_length_c   7.24651832
_cell_angle_alpha   60.13743766
_cell_angle_beta   60.08098459
_cell_angle_gamma   60.08098392
_symmetry_Int_Tables_number   1
_chemical_formula_structural   TbHoIr2O7
_chemical_formula_sum   'Tb2 Ho2 Ir4 O14'
_cell_volume   269.02271212
_cell_formula_units_Z   2
loop_
 _symmetry_equiv_pos_site_id
 _symmetry_equiv_pos_as_xyz
  1  'x, y, z'
loop_
 _atom_site_type_symbol
 _atom_site_label
 _atom_site_symmetry_multiplicity
 _atom_site_fract_x
 _atom_site_fract_y
 _atom_site_fract_z
 _atom_site_occupancy
  Tb  Tb0  1  0.125000  0.125000  0.625000  1
  Tb  Tb1  1  0.125000  0.625000  0.125000  1
  Ho  Ho2  1  0.125000  0.125000  0.125000  1
  Ho  Ho3  1  0.625000  0.125000  0.125000  1
  Ir  Ir4  1  0.625000  0.625000  0.625000  1
  Ir  Ir5  1  0.125000  0.625000  0.625000  1
  Ir  Ir6  1  0.625000  0.625000  0.125000  1
  Ir  Ir7  1  0.625000  0.125000  0.625000  1
  O  O8  1  0.998544  0.001456  0.001456  1
  O  O9  1  0.251456  0.248544  0.248544  1
  O  O10  1  0.287801  0.287424  0.714689  1
  O  O11  1  0.539913  0.535311  0.962576  1
  O  O12  1  0.710087  0.287424  0.714689  1
  O  O13  1  0.713053  0.286947  0.286947  1
  O  O14  1  0.287575  0.712425  0.712425  1
  O  O15  1  0.287801  0.714689  0.287424  1
  O  O16  1  0.710087  0.714689  0.287424  1
  O  O17  1  0.962425  0.537575  0.537575  1
  O  O18  1  0.536947  0.963053  0.963053  1
  O  O19  1  0.962199  0.962576  0.535311  1
  O  O20  1  0.962199  0.535311  0.962576  1
  O  O21  1  0.539913  0.962576  0.535311  1
