# generated using pymatgen
data_Tm8Sc12Ga15Sb
_symmetry_space_group_name_H-M   'P 1'
_cell_length_a   7.23548501
_cell_length_b   7.53293208
_cell_length_c   14.47899561
_cell_angle_alpha   90.09684353
_cell_angle_beta   89.78851495
_cell_angle_gamma   89.92104691
_symmetry_Int_Tables_number   1
_chemical_formula_structural   Tm8Sc12Ga15Sb
_chemical_formula_sum   'Tm8 Sc12 Ga15 Sb1'
_cell_volume   789.16195770
_cell_formula_units_Z   1
loop_
 _symmetry_equiv_pos_site_id
 _symmetry_equiv_pos_as_xyz
  1  'x, y, z'
loop_
 _atom_site_type_symbol
 _atom_site_label
 _atom_site_symmetry_multiplicity
 _atom_site_fract_x
 _atom_site_fract_y
 _atom_site_fract_z
 _atom_site_occupancy
  Tm  Tm0  1  0.009941  0.179537  0.094501  1
  Tm  Tm1  1  0.991267  0.821721  0.905878  1
  Tm  Tm2  1  0.490437  0.677079  0.906041  1
  Tm  Tm3  1  0.989855  0.826723  0.596034  1
  Tm  Tm4  1  0.509500  0.321906  0.094489  1
  Tm  Tm5  1  0.002497  0.174561  0.401561  1
  Tm  Tm6  1  0.510486  0.314891  0.402209  1
  Tm  Tm7  1  0.504645  0.686247  0.598381  1
  Sc  Sc8  1  0.167626  0.503093  0.754325  1
  Sc  Sc9  1  0.832531  0.496156  0.248693  1
  Sc  Sc10  1  0.332320  0.006113  0.249755  1
  Sc  Sc11  1  0.669635  0.996672  0.752214  1
  Sc  Sc12  1  0.341220  0.158649  0.628235  1
  Sc  Sc13  1  0.663547  0.831562  0.373449  1
  Sc  Sc14  1  0.162572  0.680276  0.371087  1
  Sc  Sc15  1  0.667551  0.826019  0.123117  1
  Sc  Sc16  1  0.826392  0.325224  0.625765  1
  Sc  Sc17  1  0.331031  0.173621  0.876814  1
  Sc  Sc18  1  0.831899  0.326448  0.876526  1
  Sc  Sc19  1  0.169238  0.673394  0.124210  1
  Ga  Ga20  1  0.035922  0.116736  0.749461  1
  Ga  Ga21  1  0.963532  0.885854  0.247109  1
  Ga  Ga22  1  0.465167  0.614660  0.250724  1
  Ga  Ga23  1  0.534805  0.383934  0.751661  1
  Ga  Ga24  1  0.288073  0.866179  0.751622  1
  Ga  Ga25  1  0.711234  0.130269  0.248187  1
  Ga  Ga26  1  0.210547  0.370678  0.250876  1
  Ga  Ga27  1  0.791151  0.630285  0.750292  1
  Ga  Ga28  1  0.822553  0.538280  0.457783  1
  Ga  Ga29  1  0.334632  0.964624  0.460384  1
  Ga  Ga30  1  0.837971  0.533084  0.040713  1
  Ga  Ga31  1  0.665685  0.037700  0.538219  1
  Ga  Ga32  1  0.161235  0.466158  0.960282  1
  Ga  Ga33  1  0.661709  0.034322  0.959456  1
  Ga  Ga34  1  0.338299  0.965369  0.040736  1
  Sb  Sb35  1  0.173291  0.461973  0.539216  1
