# generated using pymatgen
data_Eu8Y12Si15Ni
_symmetry_space_group_name_H-M   'P 1'
_cell_length_a   7.77891808
_cell_length_b   7.79347075
_cell_length_c   14.37437900
_cell_angle_alpha   89.62634380
_cell_angle_beta   89.77669895
_cell_angle_gamma   89.99484584
_symmetry_Int_Tables_number   1
_chemical_formula_structural   Eu8Y12Si15Ni
_chemical_formula_sum   'Eu8 Y12 Si15 Ni1'
_cell_volume   871.41827623
_cell_formula_units_Z   1
loop_
 _symmetry_equiv_pos_site_id
 _symmetry_equiv_pos_as_xyz
  1  'x, y, z'
loop_
 _atom_site_type_symbol
 _atom_site_label
 _atom_site_symmetry_multiplicity
 _atom_site_fract_x
 _atom_site_fract_y
 _atom_site_fract_z
 _atom_site_occupancy
  Eu  Eu0  1  0.635722  0.985649  0.461924  1
  Eu  Eu1  1  0.362509  0.011867  0.957504  1
  Eu  Eu2  1  0.985294  0.637744  0.540155  1
  Eu  Eu3  1  0.487428  0.860274  0.208943  1
  Eu  Eu4  1  0.511522  0.142324  0.708826  1
  Eu  Eu5  1  0.861773  0.491988  0.791376  1
  Eu  Eu6  1  0.139326  0.508954  0.291688  1
  Eu  Eu7  1  0.013219  0.360864  0.040796  1
  Y  Y8  1  0.486998  0.362593  0.124829  1
  Y  Y9  1  0.989200  0.140672  0.626482  1
  Y  Y10  1  0.864620  0.013128  0.873952  1
  Y  Y11  1  0.136877  0.980219  0.379000  1
  Y  Y12  1  0.514383  0.634475  0.623514  1
  Y  Y13  1  0.364231  0.491610  0.874597  1
  Y  Y14  1  0.632308  0.509474  0.375146  1
  Y  Y15  1  0.013510  0.864869  0.125400  1
  Y  Y16  1  0.313683  0.309141  0.502267  1
  Y  Y17  1  0.190085  0.824098  0.741277  1
  Y  Y18  1  0.815527  0.182741  0.251509  1
  Y  Y19  1  0.687244  0.685602  0.999862  1
  Si  Si20  1  0.715269  0.072144  0.060735  1
  Si  Si21  1  0.927905  0.283622  0.439625  1
  Si  Si22  1  0.428673  0.210942  0.311423  1
  Si  Si23  1  0.572257  0.788107  0.810019  1
  Si  Si24  1  0.213919  0.433014  0.690148  1
  Si  Si25  1  0.784858  0.571102  0.189170  1
  Si  Si26  1  0.072926  0.717278  0.937616  1
  Si  Si27  1  0.796293  0.847898  0.692023  1
  Si  Si28  1  0.202850  0.152416  0.195781  1
  Si  Si29  1  0.843709  0.794643  0.306805  1
  Si  Si30  1  0.345038  0.698520  0.447647  1
  Si  Si31  1  0.655017  0.297814  0.943747  1
  Si  Si32  1  0.703524  0.345182  0.555727  1
  Si  Si33  1  0.297019  0.655116  0.055717  1
  Si  Si34  1  0.153482  0.208469  0.807746  1
  Ni  Ni35  1  0.281804  0.925446  0.557020  1
