# generated using pymatgen
data_Dy2Ho4Tm6InCo5
_symmetry_space_group_name_H-M   'P 1'
_cell_length_a   8.21073281
_cell_length_b   8.21073168
_cell_length_c   8.20395659
_cell_angle_alpha   106.85052141
_cell_angle_beta   110.79674124
_cell_angle_gamma   110.83038841
_symmetry_Int_Tables_number   1
_chemical_formula_structural   Dy2Ho4Tm6InCo5
_chemical_formula_sum   'Dy2 Ho4 Tm6 In1 Co5'
_cell_volume   424.92058746
_cell_formula_units_Z   1
loop_
 _symmetry_equiv_pos_site_id
 _symmetry_equiv_pos_as_xyz
  1  'x, y, z'
loop_
 _atom_site_type_symbol
 _atom_site_label
 _atom_site_symmetry_multiplicity
 _atom_site_fract_x
 _atom_site_fract_y
 _atom_site_fract_z
 _atom_site_occupancy
  Dy  Dy0  1  0.192297  0.788934  0.981229  1
  Dy  Dy1  1  0.807703  0.211066  0.018771  1
  Ho  Ho2  1  0.475476  0.290362  0.186520  1
  Ho  Ho3  1  0.103842  0.288958  0.813480  1
  Ho  Ho4  1  0.896158  0.711042  0.186520  1
  Ho  Ho5  1  0.524524  0.709638  0.813480  1
  Tm  Tm6  1  0.307318  0.620740  0.316100  1
  Tm  Tm7  1  0.304639  0.991219  0.683900  1
  Tm  Tm8  1  0.692682  0.379260  0.683900  1
  Tm  Tm9  1  0.695361  0.008781  0.316100  1
  Tm  Tm10  1  0.193141  0.211625  0.404767  1
  Tm  Tm11  1  0.806859  0.788375  0.595233  1
  In  In12  1  0.000000  0.500000  0.500000  1
  Co  Co13  1  0.501638  0.613131  0.114769  1
  Co  Co14  1  0.498362  0.386869  0.885231  1
  Co  Co15  1  0.377657  0.000803  0.378458  1
  Co  Co16  1  0.622343  0.999197  0.621542  1
  Co  Co17  1  0.000000  0.000000  0.000000  1
