# generated using pymatgen
data_NdTm3ScBi3
_symmetry_space_group_name_H-M   'P 1'
_cell_length_a   8.18243200
_cell_length_b   9.38977600
_cell_length_c   12.01041200
_cell_angle_alpha   90.00000000
_cell_angle_beta   90.00000000
_cell_angle_gamma   90.00000000
_symmetry_Int_Tables_number   1
_chemical_formula_structural   NdTm3ScBi3
_chemical_formula_sum   'Nd4 Tm12 Sc4 Bi12'
_cell_volume   922.77440987
_cell_formula_units_Z   4
loop_
 _symmetry_equiv_pos_site_id
 _symmetry_equiv_pos_as_xyz
  1  'x, y, z'
loop_
 _atom_site_type_symbol
 _atom_site_label
 _atom_site_symmetry_multiplicity
 _atom_site_fract_x
 _atom_site_fract_y
 _atom_site_fract_z
 _atom_site_occupancy
  Nd  Nd0  1  0.330883  0.750000  0.277416  1
  Nd  Nd1  1  0.169117  0.750000  0.777416  1
  Nd  Nd2  1  0.669117  0.250000  0.722584  1
  Nd  Nd3  1  0.830883  0.250000  0.222584  1
  Tm  Tm4  1  0.690576  0.934129  0.438134  1
  Tm  Tm5  1  0.809424  0.565871  0.938134  1
  Tm  Tm6  1  0.309424  0.434129  0.561866  1
  Tm  Tm7  1  0.190576  0.065871  0.061866  1
  Tm  Tm8  1  0.309424  0.065871  0.561866  1
  Tm  Tm9  1  0.190576  0.434129  0.061866  1
  Tm  Tm10  1  0.690576  0.565871  0.438134  1
  Tm  Tm11  1  0.809424  0.934129  0.938134  1
  Tm  Tm12  1  0.830322  0.750000  0.212844  1
  Tm  Tm13  1  0.669678  0.750000  0.712844  1
  Tm  Tm14  1  0.169678  0.250000  0.787156  1
  Tm  Tm15  1  0.330322  0.250000  0.287156  1
  Sc  Sc16  1  0.020788  0.750000  0.496321  1
  Sc  Sc17  1  0.479212  0.750000  0.996321  1
  Sc  Sc18  1  0.979212  0.250000  0.503679  1
  Sc  Sc19  1  0.520788  0.250000  0.003679  1
  Bi  Bi20  1  0.103361  0.750000  0.039206  1
  Bi  Bi21  1  0.396639  0.750000  0.539206  1
  Bi  Bi22  1  0.896639  0.250000  0.960794  1
  Bi  Bi23  1  0.603361  0.250000  0.460794  1
  Bi  Bi24  1  0.562195  0.994104  0.167353  1
  Bi  Bi25  1  0.937805  0.505896  0.667354  1
  Bi  Bi26  1  0.437805  0.494104  0.832646  1
  Bi  Bi27  1  0.062195  0.005896  0.332647  1
  Bi  Bi28  1  0.437805  0.005896  0.832646  1
  Bi  Bi29  1  0.062195  0.494104  0.332647  1
  Bi  Bi30  1  0.562195  0.505896  0.167353  1
  Bi  Bi31  1  0.937805  0.994104  0.667354  1
