# generated using pymatgen
data_Zr4IrPt3
_symmetry_space_group_name_H-M   'P 1'
_cell_length_a   4.39873500
_cell_length_b   5.48803009
_cell_length_c   6.40696796
_cell_angle_alpha   89.59738242
_cell_angle_beta   90.00000000
_cell_angle_gamma   90.00000000
_symmetry_Int_Tables_number   1
_chemical_formula_structural   Zr4IrPt3
_chemical_formula_sum   'Zr4 Ir1 Pt3'
_cell_volume   154.66288696
_cell_formula_units_Z   1
loop_
 _symmetry_equiv_pos_site_id
 _symmetry_equiv_pos_as_xyz
  1  'x, y, z'
loop_
 _atom_site_type_symbol
 _atom_site_label
 _atom_site_symmetry_multiplicity
 _atom_site_fract_x
 _atom_site_fract_y
 _atom_site_fract_z
 _atom_site_occupancy
  Zr  Zr0  1  0.750000  0.863588  0.822094  1
  Zr  Zr1  1  0.250000  0.355287  0.671079  1
  Zr  Zr2  1  0.750000  0.634629  0.324694  1
  Zr  Zr3  1  0.250000  0.143491  0.183144  1
  Ir  Ir4  1  0.750000  0.164365  0.457556  1
  Pt  Pt5  1  0.250000  0.836931  0.544743  1
  Pt  Pt6  1  0.250000  0.661843  0.040360  1
  Pt  Pt7  1  0.750000  0.339866  0.956331  1
