# generated using pymatgen
data_PrNd2Co8ReP6
_symmetry_space_group_name_H-M   'P 1'
_cell_length_a   3.78746000
_cell_length_b   10.66584300
_cell_length_c   12.42491100
_cell_angle_alpha   90.00000000
_cell_angle_beta   90.00000000
_cell_angle_gamma   90.00000000
_symmetry_Int_Tables_number   1
_chemical_formula_structural   PrNd2Co8ReP6
_chemical_formula_sum   'Pr2 Nd4 Co16 Re2 P12'
_cell_volume   501.92234230
_cell_formula_units_Z   2
loop_
 _symmetry_equiv_pos_site_id
 _symmetry_equiv_pos_as_xyz
  1  'x, y, z'
loop_
 _atom_site_type_symbol
 _atom_site_label
 _atom_site_symmetry_multiplicity
 _atom_site_fract_x
 _atom_site_fract_y
 _atom_site_fract_z
 _atom_site_occupancy
  Pr  Pr0  1  0.000000  0.500000  0.522686  1
  Pr  Pr1  1  0.500000  0.000000  0.477314  1
  Nd  Nd2  1  0.500000  0.817871  0.205517  1
  Nd  Nd3  1  0.500000  0.182129  0.205517  1
  Nd  Nd4  1  0.000000  0.682129  0.794483  1
  Nd  Nd5  1  0.000000  0.317871  0.794483  1
  Co  Co6  1  0.500000  0.500000  0.704607  1
  Co  Co7  1  0.000000  0.000000  0.295393  1
  Co  Co8  1  0.000000  0.500000  0.988533  1
  Co  Co9  1  0.500000  0.000000  0.011467  1
  Co  Co10  1  0.500000  0.332338  0.991736  1
  Co  Co11  1  0.500000  0.667662  0.991736  1
  Co  Co12  1  0.000000  0.167662  0.008264  1
  Co  Co13  1  0.000000  0.832338  0.008264  1
  Co  Co14  1  0.500000  0.296532  0.429924  1
  Co  Co15  1  0.500000  0.703468  0.429924  1
  Co  Co16  1  0.000000  0.203468  0.570076  1
  Co  Co17  1  0.000000  0.796532  0.570076  1
  Co  Co18  1  0.500000  0.881646  0.711447  1
  Co  Co19  1  0.500000  0.118354  0.711447  1
  Co  Co20  1  0.000000  0.618354  0.288553  1
  Co  Co21  1  0.000000  0.381646  0.288553  1
  Re  Re22  1  0.500000  0.500000  0.153634  1
  Re  Re23  1  0.000000  0.000000  0.846366  1
  P  P24  1  0.500000  0.500000  0.884816  1
  P  P25  1  0.000000  0.000000  0.115184  1
  P  P26  1  0.500000  0.500000  0.342946  1
  P  P27  1  0.000000  0.000000  0.657054  1
  P  P28  1  0.500000  0.306364  0.614591  1
  P  P29  1  0.500000  0.693636  0.614591  1
  P  P30  1  0.000000  0.193636  0.385409  1
  P  P31  1  0.000000  0.806364  0.385409  1
  P  P32  1  0.500000  0.847554  0.895082  1
  P  P33  1  0.500000  0.152446  0.895082  1
  P  P34  1  0.000000  0.652446  0.104918  1
  P  P35  1  0.000000  0.347554  0.104918  1
