# generated using pymatgen
data_YbDyAlCdPt2
_symmetry_space_group_name_H-M   'P 1'
_cell_length_a   4.19205000
_cell_length_b   7.09057633
_cell_length_c   8.45380224
_cell_angle_alpha   91.08546173
_cell_angle_beta   90.00000000
_cell_angle_gamma   90.00000000
_symmetry_Int_Tables_number   1
_chemical_formula_structural   YbDyAlCdPt2
_chemical_formula_sum   'Yb2 Dy2 Al2 Cd2 Pt4'
_cell_volume   251.23615273
_cell_formula_units_Z   2
loop_
 _symmetry_equiv_pos_site_id
 _symmetry_equiv_pos_as_xyz
  1  'x, y, z'
loop_
 _atom_site_type_symbol
 _atom_site_label
 _atom_site_symmetry_multiplicity
 _atom_site_fract_x
 _atom_site_fract_y
 _atom_site_fract_z
 _atom_site_occupancy
  Yb  Yb0  1  0.250000  0.463606  0.177926  1
  Yb  Yb1  1  0.750000  0.536394  0.822074  1
  Dy  Dy2  1  0.750000  0.042308  0.678104  1
  Dy  Dy3  1  0.250000  0.957692  0.321896  1
  Al  Al4  1  0.750000  0.634562  0.441148  1
  Al  Al5  1  0.250000  0.365438  0.558852  1
  Cd  Cd6  1  0.250000  0.851274  0.934357  1
  Cd  Cd7  1  0.750000  0.148726  0.065643  1
  Pt  Pt8  1  0.250000  0.732017  0.603044  1
  Pt  Pt9  1  0.750000  0.267983  0.396956  1
  Pt  Pt10  1  0.750000  0.751073  0.155820  1
  Pt  Pt11  1  0.250000  0.248927  0.844180  1
