# generated using pymatgen
data_Tm8Al2NiRu
_symmetry_space_group_name_H-M   'P 1'
_cell_length_a   9.34886427
_cell_length_b   9.34886577
_cell_length_c   9.38037700
_cell_angle_alpha   59.88844241
_cell_angle_beta   59.88843709
_cell_angle_gamma   59.91256457
_symmetry_Int_Tables_number   1
_chemical_formula_structural   Tm8Al2NiRu
_chemical_formula_sum   'Tm16 Al4 Ni2 Ru2'
_cell_volume   578.36480952
_cell_formula_units_Z   2
loop_
 _symmetry_equiv_pos_site_id
 _symmetry_equiv_pos_as_xyz
  1  'x, y, z'
loop_
 _atom_site_type_symbol
 _atom_site_label
 _atom_site_symmetry_multiplicity
 _atom_site_fract_x
 _atom_site_fract_y
 _atom_site_fract_z
 _atom_site_occupancy
  Tm  Tm0  1  0.351548  0.351548  0.349065  1
  Tm  Tm1  1  0.351548  0.351548  0.947839  1
  Tm  Tm2  1  0.355693  0.945403  0.349453  1
  Tm  Tm3  1  0.945403  0.355693  0.349453  1
  Tm  Tm4  1  0.807674  0.190869  0.193786  1
  Tm  Tm5  1  0.190869  0.807674  0.807671  1
  Tm  Tm6  1  0.190869  0.807674  0.193786  1
  Tm  Tm7  1  0.807674  0.190869  0.807671  1
  Tm  Tm8  1  0.192960  0.192960  0.807040  1
  Tm  Tm9  1  0.807267  0.807267  0.192733  1
  Tm  Tm10  1  0.937254  0.560167  0.565505  1
  Tm  Tm11  1  0.560167  0.937254  0.937074  1
  Tm  Tm12  1  0.560167  0.937254  0.565505  1
  Tm  Tm13  1  0.937254  0.560167  0.937074  1
  Tm  Tm14  1  0.564724  0.564724  0.935276  1
  Tm  Tm15  1  0.941122  0.941122  0.558878  1
  Al  Al16  1  0.577169  0.577169  0.579823  1
  Al  Al17  1  0.577169  0.577169  0.265841  1
  Al  Al18  1  0.576273  0.265755  0.578986  1
  Al  Al19  1  0.265755  0.576273  0.578986  1
  Ni  Ni20  1  0.141823  0.575905  0.141137  1
  Ni  Ni21  1  0.575905  0.141823  0.141137  1
  Ru  Ru22  1  0.141858  0.141858  0.143134  1
  Ru  Ru23  1  0.141858  0.141858  0.573150  1
