# generated using pymatgen
data_YGaHgPt3
_symmetry_space_group_name_H-M   'P 1'
_cell_length_a   5.53950024
_cell_length_b   5.53950018
_cell_length_c   5.23674900
_cell_angle_alpha   58.06839946
_cell_angle_beta   58.06840379
_cell_angle_gamma   60.00000061
_symmetry_Int_Tables_number   1
_chemical_formula_structural   YGaHgPt3
_chemical_formula_sum   'Y1 Ga1 Hg1 Pt3'
_cell_volume   110.19731258
_cell_formula_units_Z   1
loop_
 _symmetry_equiv_pos_site_id
 _symmetry_equiv_pos_as_xyz
  1  'x, y, z'
loop_
 _atom_site_type_symbol
 _atom_site_label
 _atom_site_symmetry_multiplicity
 _atom_site_fract_x
 _atom_site_fract_y
 _atom_site_fract_z
 _atom_site_occupancy
  Y  Y0  1  0.004173  0.004173  0.987481  1
  Ga  Ga1  1  0.622761  0.622761  0.131714  1
  Hg  Hg2  1  0.251713  0.251713  0.244861  1
  Pt  Pt3  1  0.623497  0.124356  0.628647  1
  Pt  Pt4  1  0.623497  0.623497  0.628647  1
  Pt  Pt5  1  0.124356  0.623497  0.628647  1
