# generated using pymatgen
data_HfZr5Al5Ga(IrPt2)2
_symmetry_space_group_name_H-M   'P 1'
_cell_length_a   7.11745900
_cell_length_b   7.12096853
_cell_length_c   7.28754300
_cell_angle_alpha   90.00000000
_cell_angle_beta   90.00000000
_cell_angle_gamma   119.81799019
_symmetry_Int_Tables_number   1
_chemical_formula_structural   HfZr5Al5Ga(IrPt2)2
_chemical_formula_sum   'Hf1 Zr5 Al5 Ga1 Ir2 Pt4'
_cell_volume   320.45673470
_cell_formula_units_Z   1
loop_
 _symmetry_equiv_pos_site_id
 _symmetry_equiv_pos_as_xyz
  1  'x, y, z'
loop_
 _atom_site_type_symbol
 _atom_site_label
 _atom_site_symmetry_multiplicity
 _atom_site_fract_x
 _atom_site_fract_y
 _atom_site_fract_z
 _atom_site_occupancy
  Hf  Hf0  1  0.414905  0.393406  0.249780  1
  Zr  Zr1  1  0.589003  0.990922  0.750755  1
  Zr  Zr2  1  0.007480  0.597018  0.750099  1
  Zr  Zr3  1  0.404937  0.413361  0.750352  1
  Zr  Zr4  1  0.977794  0.586928  0.249560  1
  Zr  Zr5  1  0.607200  0.020695  0.249723  1
  Al  Al6  1  0.258507  0.999209  0.999532  1
  Al  Al7  1  0.002522  0.260178  0.999532  1
  Al  Al8  1  0.741943  0.744004  0.498995  1
  Al  Al9  1  0.257662  0.998573  0.500464  1
  Al  Al10  1  0.002082  0.259447  0.500422  1
  Ga  Ga11  1  0.736260  0.737809  0.000976  1
  Ir  Ir12  1  0.664174  0.328593  0.984137  1
  Ir  Ir13  1  0.664688  0.333330  0.515424  1
  Pt  Pt14  1  0.002602  0.002500  0.749907  1
  Pt  Pt15  1  0.005940  0.006132  0.249948  1
  Pt  Pt16  1  0.333651  0.664249  0.471417  1
  Pt  Pt17  1  0.328652  0.663645  0.028978  1
