# generated using pymatgen
data_Dy13Y7(In3Ru)2
_symmetry_space_group_name_H-M   'P 1'
_cell_length_a   9.74747000
_cell_length_b   9.74746894
_cell_length_c   9.77141100
_cell_angle_alpha   90.00000000
_cell_angle_beta   90.00000000
_cell_angle_gamma   119.99999680
_symmetry_Int_Tables_number   1
_chemical_formula_structural   Dy13Y7(In3Ru)2
_chemical_formula_sum   'Dy13 Y7 In6 Ru2'
_cell_volume   804.02896391
_cell_formula_units_Z   1
loop_
 _symmetry_equiv_pos_site_id
 _symmetry_equiv_pos_as_xyz
  1  'x, y, z'
loop_
 _atom_site_type_symbol
 _atom_site_label
 _atom_site_symmetry_multiplicity
 _atom_site_fract_x
 _atom_site_fract_y
 _atom_site_fract_z
 _atom_site_occupancy
  Dy  Dy0  1  0.000000  0.000000  0.500000  1
  Dy  Dy1  1  0.209930  0.790070  0.438656  1
  Dy  Dy2  1  0.209930  0.419862  0.438656  1
  Dy  Dy3  1  0.580138  0.790070  0.438656  1
  Dy  Dy4  1  0.790070  0.209930  0.561344  1
  Dy  Dy5  1  0.790070  0.580138  0.561344  1
  Dy  Dy6  1  0.419862  0.209930  0.561344  1
  Dy  Dy7  1  0.790060  0.209940  0.938566  1
  Dy  Dy8  1  0.790060  0.580119  0.938566  1
  Dy  Dy9  1  0.419881  0.209940  0.938566  1
  Dy  Dy10  1  0.209940  0.790060  0.061434  1
  Dy  Dy11  1  0.209940  0.419881  0.061434  1
  Dy  Dy12  1  0.580119  0.790060  0.061434  1
  Y  Y13  1  0.000000  0.000000  0.000000  1
  Y  Y14  1  0.539638  0.460362  0.250001  1
  Y  Y15  1  0.539638  0.079278  0.250001  1
  Y  Y16  1  0.920722  0.460362  0.250001  1
  Y  Y17  1  0.460362  0.539638  0.749999  1
  Y  Y18  1  0.460362  0.920722  0.749999  1
  Y  Y19  1  0.079278  0.539638  0.749999  1
  In  In20  1  0.884298  0.115702  0.250026  1
  In  In21  1  0.884298  0.768597  0.250026  1
  In  In22  1  0.231403  0.115702  0.250026  1
  In  In23  1  0.115702  0.884298  0.749974  1
  In  In24  1  0.115702  0.231403  0.749974  1
  In  In25  1  0.768597  0.884298  0.749974  1
  Ru  Ru26  1  0.333333  0.666667  0.249960  1
  Ru  Ru27  1  0.666667  0.333333  0.750040  1
