# generated using pymatgen
data_Li4YW7N12
_symmetry_space_group_name_H-M   'P 1'
_cell_length_a   5.05488300
_cell_length_b   5.05488181
_cell_length_c   10.54045100
_cell_angle_alpha   90.00000000
_cell_angle_beta   90.00000000
_cell_angle_gamma   120.00000128
_symmetry_Int_Tables_number   1
_chemical_formula_structural   Li4YW7N12
_chemical_formula_sum   'Li4 Y1 W7 N12'
_cell_volume   233.24477992
_cell_formula_units_Z   1
loop_
 _symmetry_equiv_pos_site_id
 _symmetry_equiv_pos_as_xyz
  1  'x, y, z'
loop_
 _atom_site_type_symbol
 _atom_site_label
 _atom_site_symmetry_multiplicity
 _atom_site_fract_x
 _atom_site_fract_y
 _atom_site_fract_z
 _atom_site_occupancy
  Li  Li0  1  0.333333  0.666667  0.000000  1
  Li  Li1  1  0.333333  0.666667  0.500000  1
  Li  Li2  1  0.666667  0.333333  0.500000  1
  Li  Li3  1  0.666667  0.333333  0.000000  1
  Y  Y4  1  0.000000  0.000000  0.000000  1
  W  W5  1  0.000000  0.336229  0.259716  1
  W  W6  1  0.663771  0.000000  0.740284  1
  W  W7  1  0.336229  0.336229  0.740284  1
  W  W8  1  0.000000  0.000000  0.500000  1
  W  W9  1  0.663771  0.663771  0.259716  1
  W  W10  1  0.336229  0.000000  0.259716  1
  W  W11  1  0.000000  0.663771  0.740284  1
  N  N12  1  0.668734  0.668734  0.617369  1
  N  N13  1  0.657879  0.657879  0.861310  1
  N  N14  1  0.342121  0.342121  0.138690  1
  N  N15  1  0.331266  0.331266  0.382631  1
  N  N16  1  0.342121  0.000000  0.861310  1
  N  N17  1  0.331266  0.000000  0.617369  1
  N  N18  1  0.000000  0.668734  0.382631  1
  N  N19  1  0.000000  0.657879  0.138690  1
  N  N20  1  0.657879  0.000000  0.138690  1
  N  N21  1  0.668734  0.000000  0.382631  1
  N  N22  1  0.000000  0.342121  0.861310  1
  N  N23  1  0.000000  0.331266  0.617369  1
