# generated using pymatgen
data_Cs12Na8Zr4AsP11
_symmetry_space_group_name_H-M   'P 1'
_cell_length_a   10.91188442
_cell_length_b   10.90414920
_cell_length_c   16.54891142
_cell_angle_alpha   90.02831031
_cell_angle_beta   89.94429098
_cell_angle_gamma   142.76572774
_symmetry_Int_Tables_number   1
_chemical_formula_structural   Cs12Na8Zr4AsP11
_chemical_formula_sum   'Cs12 Na8 Zr4 As1 P11'
_cell_volume   1191.43475022
_cell_formula_units_Z   1
loop_
 _symmetry_equiv_pos_site_id
 _symmetry_equiv_pos_as_xyz
  1  'x, y, z'
loop_
 _atom_site_type_symbol
 _atom_site_label
 _atom_site_symmetry_multiplicity
 _atom_site_fract_x
 _atom_site_fract_y
 _atom_site_fract_z
 _atom_site_occupancy
  Cs  Cs0  1  0.947494  0.608453  0.824560  1
  Cs  Cs1  1  0.552610  0.891658  0.324690  1
  Cs  Cs2  1  0.391600  0.052407  0.176167  1
  Cs  Cs3  1  0.053005  0.391046  0.175717  1
  Cs  Cs4  1  0.891608  0.552530  0.325361  1
  Cs  Cs5  1  0.447333  0.108441  0.675207  1
  Cs  Cs6  1  0.608530  0.947388  0.824398  1
  Cs  Cs7  1  0.279447  0.279258  0.316406  1
  Cs  Cs8  1  0.778645  0.780354  0.184170  1
  Cs  Cs9  1  0.220120  0.220481  0.815907  1
  Cs  Cs10  1  0.720603  0.720614  0.683515  1
  Cs  Cs11  1  0.108450  0.447401  0.675274  1
  Na  Na12  1  0.919699  0.080251  0.000011  1
  Na  Na13  1  0.580244  0.419773  0.500002  1
  Na  Na14  1  0.080805  0.921386  0.999395  1
  Na  Na15  1  0.419756  0.580211  0.499994  1
  Na  Na16  1  0.753943  0.243103  0.999402  1
  Na  Na17  1  0.745245  0.254848  0.500005  1
  Na  Na18  1  0.247425  0.755977  0.999568  1
  Na  Na19  1  0.254734  0.745154  0.499997  1
  Zr  Zr20  1  0.581872  0.412120  0.998616  1
  Zr  Zr21  1  0.914199  0.085836  0.500078  1
  Zr  Zr22  1  0.413795  0.586047  0.999797  1
  Zr  Zr23  1  0.085769  0.914098  0.500027  1
  As  As24  1  0.874480  0.560532  0.092456  1
  P  P25  1  0.440698  0.130121  0.910048  1
  P  P26  1  0.630315  0.941346  0.589362  1
  P  P27  1  0.941274  0.630366  0.589360  1
  P  P28  1  0.130567  0.441390  0.910573  1
  P  P29  1  0.558705  0.869490  0.089024  1
  P  P30  1  0.369671  0.058699  0.410935  1
  P  P31  1  0.196833  0.197013  0.580817  1
  P  P32  1  0.696419  0.696914  0.918730  1
  P  P33  1  0.302079  0.302541  0.080340  1
  P  P34  1  0.058847  0.369631  0.410816  1
  P  P35  1  0.803181  0.803121  0.419275  1
