# generated using pymatgen
data_Ce7Er(AlRu)8
_symmetry_space_group_name_H-M   'P 1'
_cell_length_a   4.03445800
_cell_length_b   7.29546294
_cell_length_c   15.82412518
_cell_angle_alpha   90.57642558
_cell_angle_beta   90.00000000
_cell_angle_gamma   90.00000000
_symmetry_Int_Tables_number   1
_chemical_formula_structural   Ce7Er(AlRu)8
_chemical_formula_sum   'Ce7 Er1 Al8 Ru8'
_cell_volume   465.73168512
_cell_formula_units_Z   1
loop_
 _symmetry_equiv_pos_site_id
 _symmetry_equiv_pos_as_xyz
  1  'x, y, z'
loop_
 _atom_site_type_symbol
 _atom_site_label
 _atom_site_symmetry_multiplicity
 _atom_site_fract_x
 _atom_site_fract_y
 _atom_site_fract_z
 _atom_site_occupancy
  Ce  Ce0  1  0.250000  0.169491  0.561072  1
  Ce  Ce1  1  0.750000  0.829516  0.436736  1
  Ce  Ce2  1  0.750000  0.455678  0.280503  1
  Ce  Ce3  1  0.750000  0.330258  0.062413  1
  Ce  Ce4  1  0.250000  0.670832  0.938781  1
  Ce  Ce5  1  0.250000  0.046361  0.781190  1
  Ce  Ce6  1  0.250000  0.546630  0.718935  1
  Er  Er7  1  0.750000  0.958112  0.217990  1
  Al  Al8  1  0.750000  0.503243  0.562667  1
  Al  Al9  1  0.750000  0.367428  0.849217  1
  Al  Al10  1  0.750000  0.003695  0.937466  1
  Al  Al11  1  0.750000  0.868101  0.650900  1
  Al  Al12  1  0.250000  0.491966  0.436954  1
  Al  Al13  1  0.250000  0.997729  0.066390  1
  Al  Al14  1  0.250000  0.640483  0.152174  1
  Al  Al15  1  0.250000  0.127846  0.345307  1
  Ru  Ru16  1  0.750000  0.738808  0.818824  1
  Ru  Ru17  1  0.250000  0.234820  0.935671  1
  Ru  Ru18  1  0.750000  0.259406  0.434876  1
  Ru  Ru19  1  0.250000  0.751100  0.322795  1
  Ru  Ru20  1  0.750000  0.762161  0.062171  1
  Ru  Ru21  1  0.750000  0.240092  0.680074  1
  Ru  Ru22  1  0.250000  0.271917  0.181445  1
  Ru  Ru23  1  0.250000  0.734327  0.565451  1
