# generated using pymatgen
data_Ho5Er11(InRu)4
_symmetry_space_group_name_H-M   'P 1'
_cell_length_a   9.57859809
_cell_length_b   9.57034205
_cell_length_c   9.60127500
_cell_angle_alpha   59.89302651
_cell_angle_beta   59.92165770
_cell_angle_gamma   59.81191712
_symmetry_Int_Tables_number   1
_chemical_formula_structural   Ho5Er11(InRu)4
_chemical_formula_sum   'Ho5 Er11 In4 Ru4'
_cell_volume   620.60348342
_cell_formula_units_Z   1
loop_
 _symmetry_equiv_pos_site_id
 _symmetry_equiv_pos_as_xyz
  1  'x, y, z'
loop_
 _atom_site_type_symbol
 _atom_site_label
 _atom_site_symmetry_multiplicity
 _atom_site_fract_x
 _atom_site_fract_y
 _atom_site_fract_z
 _atom_site_occupancy
  Ho  Ho0  1  0.440534  0.059721  0.058251  1
  Ho  Ho1  1  0.058161  0.058693  0.441573  1
  Ho  Ho2  1  0.650871  0.046162  0.651484  1
  Ho  Ho3  1  0.809698  0.809041  0.190630  1
  Ho  Ho4  1  0.440534  0.059721  0.441495  1
  Er  Er5  1  0.440801  0.441350  0.058924  1
  Er  Er6  1  0.651223  0.650934  0.045724  1
  Er  Er7  1  0.191305  0.809512  0.190650  1
  Er  Er8  1  0.059156  0.441222  0.058096  1
  Er  Er9  1  0.191305  0.809512  0.808533  1
  Er  Er10  1  0.059156  0.441222  0.441527  1
  Er  Er11  1  0.810108  0.191197  0.190343  1
  Er  Er12  1  0.651223  0.650934  0.652120  1
  Er  Er13  1  0.810108  0.191197  0.808351  1
  Er  Er14  1  0.190561  0.190705  0.809367  1
  Er  Er15  1  0.046020  0.650736  0.651623  1
  In  In16  1  0.416791  0.418068  0.416428  1
  In  In17  1  0.416791  0.418068  0.748714  1
  In  In18  1  0.417338  0.747237  0.417714  1
  In  In19  1  0.748385  0.418250  0.416682  1
  Ru  Ru20  1  0.420725  0.857996  0.860639  1
  Ru  Ru21  1  0.860222  0.858778  0.860989  1
  Ru  Ru22  1  0.858765  0.420968  0.860133  1
  Ru  Ru23  1  0.860222  0.858778  0.420009  1
