# generated using pymatgen
data_V6ZnSiIr8
_symmetry_space_group_name_H-M   'P 1'
_cell_length_a   8.71917987
_cell_length_b   8.71917966
_cell_length_c   6.63971560
_cell_angle_alpha   69.42775392
_cell_angle_beta   69.42776086
_cell_angle_gamma   80.80754492
_symmetry_Int_Tables_number   1
_chemical_formula_structural   V6ZnSiIr8
_chemical_formula_sum   'V12 Zn2 Si2 Ir16'
_cell_volume   442.07245061
_cell_formula_units_Z   2
loop_
 _symmetry_equiv_pos_site_id
 _symmetry_equiv_pos_as_xyz
  1  'x, y, z'
loop_
 _atom_site_type_symbol
 _atom_site_label
 _atom_site_symmetry_multiplicity
 _atom_site_fract_x
 _atom_site_fract_y
 _atom_site_fract_z
 _atom_site_occupancy
  V  V0  1  0.010865  0.263422  0.280728  1
  V  V1  1  0.263422  0.010865  0.280728  1
  V  V2  1  0.763077  0.516434  0.272303  1
  V  V3  1  0.516434  0.763077  0.272303  1
  V  V4  1  0.124170  0.374903  0.500300  1
  V  V5  1  0.374903  0.124170  0.500300  1
  V  V6  1  0.875830  0.625097  0.499700  1
  V  V7  1  0.625097  0.875830  0.499700  1
  V  V8  1  0.736578  0.989135  0.719272  1
  V  V9  1  0.989135  0.736578  0.719272  1
  V  V10  1  0.483566  0.236923  0.727697  1
  V  V11  1  0.236923  0.483566  0.727697  1
  Zn  Zn12  1  0.618355  0.381645  0.000000  1
  Zn  Zn13  1  0.381645  0.618355  0.000000  1
  Si  Si14  1  0.869227  0.130773  0.000000  1
  Si  Si15  1  0.130773  0.869227  0.000000  1
  Ir  Ir16  1  0.316085  0.316085  0.110080  1
  Ir  Ir17  1  0.046633  0.046633  0.657959  1
  Ir  Ir18  1  0.830647  0.830647  0.094252  1
  Ir  Ir19  1  0.556964  0.556964  0.632016  1
  Ir  Ir20  1  0.443036  0.443036  0.367984  1
  Ir  Ir21  1  0.169353  0.169353  0.905748  1
  Ir  Ir22  1  0.953367  0.953367  0.342041  1
  Ir  Ir23  1  0.683915  0.683915  0.889920  1
  Ir  Ir24  1  0.071891  0.575306  0.101850  1
  Ir  Ir25  1  0.575306  0.071891  0.101850  1
  Ir  Ir26  1  0.801505  0.299921  0.647605  1
  Ir  Ir27  1  0.299921  0.801505  0.647605  1
  Ir  Ir28  1  0.198495  0.700079  0.352395  1
  Ir  Ir29  1  0.700079  0.198495  0.352395  1
  Ir  Ir30  1  0.928109  0.424694  0.898150  1
  Ir  Ir31  1  0.424694  0.928109  0.898150  1
