# generated using pymatgen
data_Tb3Dy6Ho3Rh4
_symmetry_space_group_name_H-M   'P 1'
_cell_length_a   6.28377110
_cell_length_b   7.16837346
_cell_length_c   9.49313416
_cell_angle_alpha   89.99752012
_cell_angle_beta   89.97925465
_cell_angle_gamma   89.97868884
_symmetry_Int_Tables_number   1
_chemical_formula_structural   Tb3Dy6Ho3Rh4
_chemical_formula_sum   'Tb3 Dy6 Ho3 Rh4'
_cell_volume   427.61264528
_cell_formula_units_Z   1
loop_
 _symmetry_equiv_pos_site_id
 _symmetry_equiv_pos_as_xyz
  1  'x, y, z'
loop_
 _atom_site_type_symbol
 _atom_site_label
 _atom_site_symmetry_multiplicity
 _atom_site_fract_x
 _atom_site_fract_y
 _atom_site_fract_z
 _atom_site_occupancy
  Tb  Tb0  1  0.866058  0.532858  0.250039  1
  Tb  Tb1  1  0.634095  0.032624  0.250117  1
  Tb  Tb2  1  0.134390  0.467091  0.749880  1
  Dy  Dy3  1  0.829600  0.823062  0.936817  1
  Dy  Dy4  1  0.670028  0.322969  0.936708  1
  Dy  Dy5  1  0.829569  0.823184  0.563182  1
  Dy  Dy6  1  0.329926  0.677103  0.436918  1
  Dy  Dy7  1  0.170414  0.176876  0.063023  1
  Dy  Dy8  1  0.365423  0.967011  0.749965  1
  Ho  Ho9  1  0.329973  0.677177  0.063222  1
  Ho  Ho10  1  0.170378  0.176942  0.437069  1
  Ho  Ho11  1  0.670065  0.322868  0.563243  1
  Rh  Rh12  1  0.061471  0.882079  0.249978  1
  Rh  Rh13  1  0.438678  0.382019  0.250087  1
  Rh  Rh14  1  0.939499  0.117905  0.749715  1
  Rh  Rh15  1  0.560435  0.618233  0.750037  1
