# generated using pymatgen
data_La7(HoIn4)5
_symmetry_space_group_name_H-M   'P 1'
_cell_length_a   6.67825416
_cell_length_b   10.55462444
_cell_length_c   12.44626000
_cell_angle_alpha   90.19136584
_cell_angle_beta   90.07121807
_cell_angle_gamma   90.09162318
_symmetry_Int_Tables_number   1
_chemical_formula_structural   La7(HoIn4)5
_chemical_formula_sum   'La7 Ho5 In20'
_cell_volume   877.28616556
_cell_formula_units_Z   1
loop_
 _symmetry_equiv_pos_site_id
 _symmetry_equiv_pos_as_xyz
  1  'x, y, z'
loop_
 _atom_site_type_symbol
 _atom_site_label
 _atom_site_symmetry_multiplicity
 _atom_site_fract_x
 _atom_site_fract_y
 _atom_site_fract_z
 _atom_site_occupancy
  La  La0  1  0.887409  0.488716  0.144311  1
  La  La1  1  0.613550  0.011872  0.645345  1
  La  La2  1  0.112223  0.988829  0.854196  1
  La  La3  1  0.386698  0.511562  0.356371  1
  La  La4  1  0.112218  0.510926  0.855756  1
  La  La5  1  0.387664  0.989082  0.356143  1
  La  La6  1  0.886194  0.010056  0.144730  1
  Ho  Ho7  1  0.352596  0.749294  0.061775  1
  Ho  Ho8  1  0.149540  0.752853  0.562009  1
  Ho  Ho9  1  0.647548  0.248466  0.937994  1
  Ho  Ho10  1  0.853451  0.250708  0.438791  1
  Ho  Ho11  1  0.612324  0.488067  0.643556  1
  In  In12  1  0.615310  0.746465  0.509825  1
  In  In13  1  0.884059  0.748644  0.003659  1
  In  In14  1  0.389012  0.252314  0.495668  1
  In  In15  1  0.114336  0.249567  0.995232  1
  In  In16  1  0.655304  0.749266  0.245883  1
  In  In17  1  0.841862  0.745567  0.742621  1
  In  In18  1  0.345418  0.253276  0.753882  1
  In  In19  1  0.155566  0.249802  0.254835  1
  In  In20  1  0.106935  0.749929  0.285080  1
  In  In21  1  0.392240  0.748850  0.784539  1
  In  In22  1  0.888354  0.255287  0.714062  1
  In  In23  1  0.608029  0.250101  0.215096  1
  In  In24  1  0.871972  0.545753  0.407578  1
  In  In25  1  0.627208  0.952278  0.906349  1
  In  In26  1  0.127997  0.050006  0.593788  1
  In  In27  1  0.374395  0.453281  0.093532  1
  In  In28  1  0.130949  0.456385  0.595206  1
  In  In29  1  0.372352  0.046274  0.093997  1
  In  In30  1  0.872165  0.952856  0.406925  1
  In  In31  1  0.625126  0.543668  0.901267  1
