# generated using pymatgen
data_Sc4Ga2AgRu
_symmetry_space_group_name_H-M   'P 1'
_cell_length_a   6.80808100
_cell_length_b   6.50681100
_cell_length_c   6.80927800
_cell_angle_alpha   89.99929438
_cell_angle_beta   89.99983191
_cell_angle_gamma   89.99996556
_symmetry_Int_Tables_number   1
_chemical_formula_structural   Sc4Ga2AgRu
_chemical_formula_sum   'Sc8 Ga4 Ag2 Ru2'
_cell_volume   301.64350039
_cell_formula_units_Z   2
loop_
 _symmetry_equiv_pos_site_id
 _symmetry_equiv_pos_as_xyz
  1  'x, y, z'
loop_
 _atom_site_type_symbol
 _atom_site_label
 _atom_site_symmetry_multiplicity
 _atom_site_fract_x
 _atom_site_fract_y
 _atom_site_fract_z
 _atom_site_occupancy
  Sc  Sc0  1  0.263433  0.500219  0.236556  1
  Sc  Sc1  1  0.263433  0.999779  0.236554  1
  Sc  Sc2  1  0.736564  0.000247  0.236556  1
  Sc  Sc3  1  0.736574  0.499752  0.236557  1
  Sc  Sc4  1  0.263433  0.500206  0.763441  1
  Sc  Sc5  1  0.263432  0.999790  0.763438  1
  Sc  Sc6  1  0.736565  0.000257  0.763444  1
  Sc  Sc7  1  0.736572  0.499746  0.763447  1
  Ga  Ga8  1  0.000451  0.249999  0.000017  1
  Ga  Ga9  1  0.999554  0.750002  0.999988  1
  Ga  Ga10  1  0.500386  0.750001  0.500003  1
  Ga  Ga11  1  0.499616  0.250000  0.499991  1
  Ag  Ag12  1  0.000501  0.250000  0.499959  1
  Ag  Ag13  1  0.999496  0.750001  0.500046  1
  Ru  Ru14  1  0.499683  0.250001  0.000011  1
  Ru  Ru15  1  0.500307  0.750000  0.999995  1
