# generated using pymatgen
data_YZnBPd6
_symmetry_space_group_name_H-M   'P 1'
_cell_length_a   5.82494941
_cell_length_b   5.82495013
_cell_length_c   5.82494900
_cell_angle_alpha   60.00000075
_cell_angle_beta   59.99999668
_cell_angle_gamma   60.00000186
_symmetry_Int_Tables_number   1
_chemical_formula_structural   YZnBPd6
_chemical_formula_sum   'Y1 Zn1 B1 Pd6'
_cell_volume   139.75311504
_cell_formula_units_Z   1
loop_
 _symmetry_equiv_pos_site_id
 _symmetry_equiv_pos_as_xyz
  1  'x, y, z'
loop_
 _atom_site_type_symbol
 _atom_site_label
 _atom_site_symmetry_multiplicity
 _atom_site_fract_x
 _atom_site_fract_y
 _atom_site_fract_z
 _atom_site_occupancy
  Y  Y0  1  0.750000  0.750000  0.750000  1
  Zn  Zn1  1  0.250000  0.250000  0.250000  1
  B  B2  1  0.000000  0.000000  0.000000  1
  Pd  Pd3  1  0.744162  0.255839  0.255839  1
  Pd  Pd4  1  0.255839  0.744162  0.255839  1
  Pd  Pd5  1  0.744161  0.744161  0.255840  1
  Pd  Pd6  1  0.255839  0.255839  0.744162  1
  Pd  Pd7  1  0.744161  0.255840  0.744161  1
  Pd  Pd8  1  0.255840  0.744161  0.744161  1
