# generated using pymatgen
data_SmHo15(AgRh)4
_symmetry_space_group_name_H-M   'P 1'
_cell_length_a   9.50173139
_cell_length_b   9.50173155
_cell_length_c   9.45655400
_cell_angle_alpha   60.15715880
_cell_angle_beta   60.15715826
_cell_angle_gamma   60.30364441
_symmetry_Int_Tables_number   1
_chemical_formula_structural   SmHo15(AgRh)4
_chemical_formula_sum   'Sm1 Ho15 Ag4 Rh4'
_cell_volume   606.51623909
_cell_formula_units_Z   1
loop_
 _symmetry_equiv_pos_site_id
 _symmetry_equiv_pos_as_xyz
  1  'x, y, z'
loop_
 _atom_site_type_symbol
 _atom_site_label
 _atom_site_symmetry_multiplicity
 _atom_site_fract_x
 _atom_site_fract_y
 _atom_site_fract_z
 _atom_site_occupancy
  Sm  Sm0  1  0.934856  0.934856  0.565144  1
  Ho  Ho1  1  0.564967  0.564967  0.935033  1
  Ho  Ho2  1  0.688820  0.688820  0.311180  1
  Ho  Ho3  1  0.147890  0.558264  0.146922  1
  Ho  Ho4  1  0.687327  0.314266  0.687029  1
  Ho  Ho5  1  0.147244  0.147244  0.147372  1
  Ho  Ho6  1  0.558264  0.147890  0.146922  1
  Ho  Ho7  1  0.687327  0.314266  0.311378  1
  Ho  Ho8  1  0.147244  0.147244  0.558140  1
  Ho  Ho9  1  0.314266  0.687327  0.311378  1
  Ho  Ho10  1  0.314266  0.687327  0.687029  1
  Ho  Ho11  1  0.935115  0.563454  0.564075  1
  Ho  Ho12  1  0.935115  0.563454  0.937355  1
  Ho  Ho13  1  0.563454  0.935115  0.564075  1
  Ho  Ho14  1  0.563454  0.935115  0.937355  1
  Ho  Ho15  1  0.312697  0.312697  0.687303  1
  Ag  Ag16  1  0.916668  0.916668  0.245868  1
  Ag  Ag17  1  0.246307  0.917128  0.918283  1
  Ag  Ag18  1  0.916668  0.916668  0.920795  1
  Ag  Ag19  1  0.917128  0.246307  0.918283  1
  Rh  Rh20  1  0.356354  0.356354  0.929390  1
  Rh  Rh21  1  0.358307  0.929909  0.355892  1
  Rh  Rh22  1  0.929909  0.358307  0.355892  1
  Rh  Rh23  1  0.356354  0.356354  0.357902  1
