# generated using pymatgen
data_K11Ca(TaAs4)2
_symmetry_space_group_name_H-M   'P 1'
_cell_length_a   10.50919265
_cell_length_b   10.36845418
_cell_length_c   8.02450746
_cell_angle_alpha   87.85200211
_cell_angle_beta   89.88735825
_cell_angle_gamma   120.34623130
_symmetry_Int_Tables_number   1
_chemical_formula_structural   K11Ca(TaAs4)2
_chemical_formula_sum   'K11 Ca1 Ta2 As8'
_cell_volume   753.83053325
_cell_formula_units_Z   1
loop_
 _symmetry_equiv_pos_site_id
 _symmetry_equiv_pos_as_xyz
  1  'x, y, z'
loop_
 _atom_site_type_symbol
 _atom_site_label
 _atom_site_symmetry_multiplicity
 _atom_site_fract_x
 _atom_site_fract_y
 _atom_site_fract_z
 _atom_site_occupancy
  K  K0  1  0.469526  0.531810  0.603741  1
  K  K1  1  0.059281  0.529809  0.605971  1
  K  K2  1  0.529063  0.466097  0.108539  1
  K  K3  1  0.529400  0.059601  0.113086  1
  K  K4  1  0.864094  0.148683  0.807517  1
  K  K5  1  0.291808  0.152136  0.811850  1
  K  K6  1  0.857032  0.715188  0.774866  1
  K  K7  1  0.137917  0.853994  0.276128  1
  K  K8  1  0.715417  0.854388  0.273819  1
  K  K9  1  0.147654  0.295326  0.317289  1
  K  K10  1  0.936860  0.465750  0.108557  1
  Ca  Ca11  1  0.468634  0.937015  0.603350  1
  Ta  Ta12  1  0.661779  0.324036  0.501995  1
  Ta  Ta13  1  0.336644  0.674934  0.995633  1
  As  As14  1  0.667450  0.330354  0.809346  1
  As  As15  1  0.345977  0.692841  0.308811  1
  As  As16  1  0.212137  0.807376  0.872140  1
  As  As17  1  0.593402  0.806409  0.871425  1
  As  As18  1  0.203317  0.406292  0.917741  1
  As  As19  1  0.782648  0.178809  0.419540  1
  As  As20  1  0.395943  0.179186  0.421022  1
  As  As21  1  0.794017  0.589966  0.392034  1
