# generated using pymatgen
data_Tm20FeNi3Sb8
_symmetry_space_group_name_H-M   'P 1'
_cell_length_a   7.79674560
_cell_length_b   8.72529200
_cell_length_c   12.00132727
_cell_angle_alpha   90.00000000
_cell_angle_beta   89.89912571
_cell_angle_gamma   90.00000000
_symmetry_Int_Tables_number   1
_chemical_formula_structural   Tm20FeNi3Sb8
_chemical_formula_sum   'Tm20 Fe1 Ni3 Sb8'
_cell_volume   816.43561117
_cell_formula_units_Z   1
loop_
 _symmetry_equiv_pos_site_id
 _symmetry_equiv_pos_as_xyz
  1  'x, y, z'
loop_
 _atom_site_type_symbol
 _atom_site_label
 _atom_site_symmetry_multiplicity
 _atom_site_fract_x
 _atom_site_fract_y
 _atom_site_fract_z
 _atom_site_occupancy
  Tm  Tm0  1  0.320660  0.539227  0.432853  1
  Tm  Tm1  1  0.874741  0.250000  0.803557  1
  Tm  Tm2  1  0.177715  0.542679  0.935911  1
  Tm  Tm3  1  0.320660  0.960773  0.432853  1
  Tm  Tm4  1  0.122085  0.750000  0.194425  1
  Tm  Tm5  1  0.846491  0.750000  0.798734  1
  Tm  Tm6  1  0.375124  0.750000  0.693415  1
  Tm  Tm7  1  0.953494  0.750000  0.501332  1
  Tm  Tm8  1  0.455051  0.250000  0.998377  1
  Tm  Tm9  1  0.677890  0.459824  0.565898  1
  Tm  Tm10  1  0.822507  0.033277  0.064626  1
  Tm  Tm11  1  0.661349  0.750000  0.289727  1
  Tm  Tm12  1  0.548479  0.750000  0.001868  1
  Tm  Tm13  1  0.045566  0.250000  0.500499  1
  Tm  Tm14  1  0.677890  0.040176  0.565898  1
  Tm  Tm15  1  0.177715  0.957321  0.935911  1
  Tm  Tm16  1  0.624929  0.250000  0.305798  1
  Tm  Tm17  1  0.340166  0.250000  0.708371  1
  Tm  Tm18  1  0.822507  0.466723  0.064626  1
  Tm  Tm19  1  0.155941  0.250000  0.204503  1
  Fe  Fe20  1  0.928747  0.750000  0.013165  1
  Ni  Ni21  1  0.569627  0.750000  0.508028  1
  Ni  Ni22  1  0.072912  0.250000  0.986922  1
  Ni  Ni23  1  0.428921  0.250000  0.490489  1
  Sb  Sb24  1  0.929580  0.490273  0.328533  1
  Sb  Sb25  1  0.430014  0.507377  0.172965  1
  Sb  Sb26  1  0.430014  0.992623  0.172965  1
  Sb  Sb27  1  0.569293  0.492391  0.826929  1
  Sb  Sb28  1  0.070529  0.509014  0.672679  1
  Sb  Sb29  1  0.569293  0.007609  0.826929  1
  Sb  Sb30  1  0.929580  0.009727  0.328533  1
  Sb  Sb31  1  0.070529  0.990986  0.672679  1
