# generated using pymatgen
data_Li2Pa2Ta2Zn7
_symmetry_space_group_name_H-M   'P 1'
_cell_length_a   10.30477052
_cell_length_b   10.30477006
_cell_length_c   10.30477042
_cell_angle_alpha   28.97709585
_cell_angle_beta   28.97709863
_cell_angle_gamma   28.97709740
_symmetry_Int_Tables_number   1
_chemical_formula_structural   Li2Pa2Ta2Zn7
_chemical_formula_sum   'Li2 Pa2 Ta2 Zn7'
_cell_volume   227.14834405
_cell_formula_units_Z   1
loop_
 _symmetry_equiv_pos_site_id
 _symmetry_equiv_pos_as_xyz
  1  'x, y, z'
loop_
 _atom_site_type_symbol
 _atom_site_label
 _atom_site_symmetry_multiplicity
 _atom_site_fract_x
 _atom_site_fract_y
 _atom_site_fract_z
 _atom_site_occupancy
  Li  Li0  1  0.649040  0.649040  0.649040  1
  Li  Li1  1  0.350960  0.350960  0.350960  1
  Pa  Pa2  1  0.833263  0.833263  0.833263  1
  Pa  Pa3  1  0.166737  0.166737  0.166737  1
  Ta  Ta4  1  0.545170  0.545170  0.545170  1
  Ta  Ta5  1  0.454830  0.454830  0.454830  1
  Zn  Zn6  1  0.000000  0.000000  0.000000  1
  Zn  Zn7  1  0.905068  0.409096  0.905068  1
  Zn  Zn8  1  0.905068  0.905068  0.409096  1
  Zn  Zn9  1  0.409096  0.905068  0.905068  1
  Zn  Zn10  1  0.094932  0.590904  0.094932  1
  Zn  Zn11  1  0.094932  0.094932  0.590904  1
  Zn  Zn12  1  0.590904  0.094932  0.094932  1
