# generated using pymatgen
data_Mg2In(P3Pd10)2
_symmetry_space_group_name_H-M   'P 1'
_cell_length_a   8.58984476
_cell_length_b   8.58984532
_cell_length_c   8.58984500
_cell_angle_alpha   60.00000507
_cell_angle_beta   60.00000294
_cell_angle_gamma   60.00000853
_symmetry_Int_Tables_number   1
_chemical_formula_structural   Mg2In(P3Pd10)2
_chemical_formula_sum   'Mg2 In1 P6 Pd20'
_cell_volume   448.16820464
_cell_formula_units_Z   1
loop_
 _symmetry_equiv_pos_site_id
 _symmetry_equiv_pos_as_xyz
  1  'x, y, z'
loop_
 _atom_site_type_symbol
 _atom_site_label
 _atom_site_symmetry_multiplicity
 _atom_site_fract_x
 _atom_site_fract_y
 _atom_site_fract_z
 _atom_site_occupancy
  Mg  Mg0  1  0.250000  0.250000  0.250000  1
  Mg  Mg1  1  0.000000  0.000000  0.000000  1
  In  In2  1  0.750000  0.750000  0.750000  1
  P  P3  1  0.734304  0.265696  0.265696  1
  P  P4  1  0.265696  0.734304  0.734304  1
  P  P5  1  0.265696  0.734304  0.265696  1
  P  P6  1  0.734304  0.265696  0.734304  1
  P  P7  1  0.265696  0.265696  0.734304  1
  P  P8  1  0.734304  0.734304  0.265696  1
  Pd  Pd9  1  0.382473  0.382473  0.382473  1
  Pd  Pd10  1  0.617401  0.617401  0.617401  1
  Pd  Pd11  1  0.382473  0.382473  0.852582  1
  Pd  Pd12  1  0.382473  0.852582  0.382473  1
  Pd  Pd13  1  0.617401  0.617401  0.147797  1
  Pd  Pd14  1  0.617401  0.147797  0.617401  1
  Pd  Pd15  1  0.852582  0.382473  0.382473  1
  Pd  Pd16  1  0.147797  0.617401  0.617401  1
  Pd  Pd17  1  0.341685  0.000810  0.000810  1
  Pd  Pd18  1  0.656695  0.000810  0.000810  1
  Pd  Pd19  1  0.000810  0.341685  0.656695  1
  Pd  Pd20  1  0.000810  0.656695  0.341685  1
  Pd  Pd21  1  0.000810  0.341685  0.000810  1
  Pd  Pd22  1  0.656695  0.000810  0.341685  1
  Pd  Pd23  1  0.000810  0.656695  0.000810  1
  Pd  Pd24  1  0.341685  0.000810  0.656695  1
  Pd  Pd25  1  0.000810  0.000810  0.341685  1
  Pd  Pd26  1  0.000810  0.000810  0.656695  1
  Pd  Pd27  1  0.656695  0.341685  0.000810  1
  Pd  Pd28  1  0.341685  0.656695  0.000810  1
