# generated using pymatgen
data_TbZrTi3P7Rh9
_symmetry_space_group_name_H-M   'P 1'
_cell_length_a   3.84384800
_cell_length_b   9.62011071
_cell_length_c   9.61440847
_cell_angle_alpha   120.02839149
_cell_angle_beta   90.00133801
_cell_angle_gamma   89.99922711
_symmetry_Int_Tables_number   1
_chemical_formula_structural   TbZrTi3P7Rh9
_chemical_formula_sum   'Tb1 Zr1 Ti3 P7 Rh9'
_cell_volume   307.80463639
_cell_formula_units_Z   1
loop_
 _symmetry_equiv_pos_site_id
 _symmetry_equiv_pos_as_xyz
  1  'x, y, z'
loop_
 _atom_site_type_symbol
 _atom_site_label
 _atom_site_symmetry_multiplicity
 _atom_site_fract_x
 _atom_site_fract_y
 _atom_site_fract_z
 _atom_site_occupancy
  Tb  Tb0  1  0.261874  0.666671  0.333350  1
  Zr  Zr1  1  0.761921  0.333424  0.666592  1
  Ti  Ti2  1  0.761922  0.098476  0.876305  1
  Ti  Ti3  1  0.761919  0.123698  0.222155  1
  Ti  Ti4  1  0.761926  0.777741  0.901554  1
  P  P5  1  0.261860  0.999999  0.000019  1
  P  P6  1  0.761887  0.877163  0.591469  1
  P  P7  1  0.761880  0.408586  0.285750  1
  P  P8  1  0.761872  0.714311  0.122983  1
  P  P9  1  0.261923  0.117042  0.418211  1
  P  P10  1  0.261926  0.581805  0.698819  1
  P  P11  1  0.261935  0.301076  0.882908  1
  Rh  Rh12  1  0.261899  0.882625  0.161400  1
  Rh  Rh13  1  0.261900  0.838745  0.721413  1
  Rh  Rh14  1  0.261891  0.278791  0.117384  1
  Rh  Rh15  1  0.761941  0.606219  0.559351  1
  Rh  Rh16  1  0.761924  0.440685  0.046926  1
  Rh  Rh17  1  0.761918  0.952931  0.393664  1
  Rh  Rh18  1  0.261897  0.363718  0.440640  1
  Rh  Rh19  1  0.261896  0.559329  0.922859  1
  Rh  Rh20  1  0.261889  0.076962  0.636251  1
