# generated using pymatgen
data_Ho4Al18Pd5Ru
_symmetry_space_group_name_H-M   'P 1'
_cell_length_a   7.62354010
_cell_length_b   7.62354011
_cell_length_c   9.47374550
_cell_angle_alpha   89.95838490
_cell_angle_beta   89.95839025
_cell_angle_gamma   119.58309015
_symmetry_Int_Tables_number   1
_chemical_formula_structural   Ho4Al18Pd5Ru
_chemical_formula_sum   'Ho4 Al18 Pd5 Ru1'
_cell_volume   478.82242452
_cell_formula_units_Z   1
loop_
 _symmetry_equiv_pos_site_id
 _symmetry_equiv_pos_as_xyz
  1  'x, y, z'
loop_
 _atom_site_type_symbol
 _atom_site_label
 _atom_site_symmetry_multiplicity
 _atom_site_fract_x
 _atom_site_fract_y
 _atom_site_fract_z
 _atom_site_occupancy
  Ho  Ho0  1  0.994165  0.667733  0.249414  1
  Ho  Ho1  1  0.005835  0.332267  0.750586  1
  Ho  Ho2  1  0.667733  0.994165  0.249414  1
  Ho  Ho3  1  0.332267  0.005835  0.750586  1
  Al  Al4  1  0.125613  0.125613  0.245923  1
  Al  Al5  1  0.874387  0.874387  0.754077  1
  Al  Al6  1  0.998570  0.328652  0.074520  1
  Al  Al7  1  0.001430  0.671348  0.925480  1
  Al  Al8  1  0.999260  0.665551  0.578785  1
  Al  Al9  1  0.334449  0.000740  0.421215  1
  Al  Al10  1  0.000740  0.334449  0.421215  1
  Al  Al11  1  0.665551  0.999260  0.578785  1
  Al  Al12  1  0.671348  0.001430  0.925480  1
  Al  Al13  1  0.328652  0.998570  0.074520  1
  Al  Al14  1  0.334066  0.334066  0.559251  1
  Al  Al15  1  0.665934  0.665935  0.440749  1
  Al  Al16  1  0.672469  0.672470  0.053834  1
  Al  Al17  1  0.327531  0.327531  0.946166  1
  Al  Al18  1  0.339969  0.546756  0.248565  1
  Al  Al19  1  0.660031  0.453244  0.751435  1
  Al  Al20  1  0.546756  0.339969  0.248565  1
  Al  Al21  1  0.453244  0.660031  0.751435  1
  Pd  Pd22  1  0.672249  0.327751  0.000000  1
  Pd  Pd23  1  0.327751  0.672249  0.000000  1
  Pd  Pd24  1  0.327557  0.672443  0.500000  1
  Pd  Pd25  1  0.672443  0.327557  0.500000  1
  Pd  Pd26  1  0.000000  0.000000  0.500000  1
  Ru  Ru27  1  0.000000  0.000000  0.000000  1
