# generated using pymatgen
data_Ho3CdSn3IrRu
_symmetry_space_group_name_H-M   'P 1'
_cell_length_a   7.77755300
_cell_length_b   7.77755320
_cell_length_c   3.83554500
_cell_angle_alpha   90.00000000
_cell_angle_beta   90.00000000
_cell_angle_gamma   119.99999488
_symmetry_Int_Tables_number   1
_chemical_formula_structural   Ho3CdSn3IrRu
_chemical_formula_sum   'Ho3 Cd1 Sn3 Ir1 Ru1'
_cell_volume   200.92950132
_cell_formula_units_Z   1
loop_
 _symmetry_equiv_pos_site_id
 _symmetry_equiv_pos_as_xyz
  1  'x, y, z'
loop_
 _atom_site_type_symbol
 _atom_site_label
 _atom_site_symmetry_multiplicity
 _atom_site_fract_x
 _atom_site_fract_y
 _atom_site_fract_z
 _atom_site_occupancy
  Ho  Ho0  1  0.383921  0.412196  0.500000  1
  Ho  Ho1  1  0.587804  0.971726  0.500000  1
  Ho  Ho2  1  0.028274  0.616079  0.500000  1
  Cd  Cd3  1  0.666667  0.333333  0.000000  1
  Sn  Sn4  1  0.744928  0.744579  0.000000  1
  Sn  Sn5  1  0.255421  0.000350  0.000000  1
  Sn  Sn6  1  0.999650  0.255072  0.000000  1
  Ir  Ir7  1  0.333333  0.666667  0.000000  1
  Ru  Ru8  1  0.000000  0.000000  0.500000  1
