# generated using pymatgen
data_SbF7
_symmetry_space_group_name_H-M   'P 1'
_cell_length_a   4.10687872
_cell_length_b   6.14714253
_cell_length_c   6.58371335
_cell_angle_alpha   87.14932073
_cell_angle_beta   102.80372927
_cell_angle_gamma   111.06452895
_symmetry_Int_Tables_number   1
_chemical_formula_structural   SbF7
_chemical_formula_sum   'Sb1 F7'
_cell_volume   151.16442450
_cell_formula_units_Z   1
loop_
 _symmetry_equiv_pos_site_id
 _symmetry_equiv_pos_as_xyz
  1  'x, y, z'
loop_
 _atom_site_type_symbol
 _atom_site_label
 _atom_site_symmetry_multiplicity
 _atom_site_fract_x
 _atom_site_fract_y
 _atom_site_fract_z
 _atom_site_occupancy
  Sb  Sb0  1  0.888500  0.932481  0.453298  1
  F  F1  1  0.735305  0.612439  0.507855  1
  F  F2  1  0.388040  0.932299  0.452605  1
  F  F3  1  0.748004  0.861797  0.164688  1
  F  F4  1  0.940061  0.567569  0.995775  1
  F  F5  1  0.036846  0.252374  0.397994  1
  F  F6  1  0.033495  0.004865  0.741392  1
  F  F7  1  0.107867  0.437480  0.910681  1
