# generated using pymatgen
data_Tb7Nd2Er(In2Pt)4
_symmetry_space_group_name_H-M   'P 1'
_cell_length_a   3.65398000
_cell_length_b   8.22346880
_cell_length_c   18.45382377
_cell_angle_alpha   90.05041870
_cell_angle_beta   90.00000000
_cell_angle_gamma   90.00000000
_symmetry_Int_Tables_number   1
_chemical_formula_structural   Tb7Nd2Er(In2Pt)4
_chemical_formula_sum   'Tb7 Nd2 Er1 In8 Pt4'
_cell_volume   554.50748886
_cell_formula_units_Z   1
loop_
 _symmetry_equiv_pos_site_id
 _symmetry_equiv_pos_as_xyz
  1  'x, y, z'
loop_
 _atom_site_type_symbol
 _atom_site_label
 _atom_site_symmetry_multiplicity
 _atom_site_fract_x
 _atom_site_fract_y
 _atom_site_fract_z
 _atom_site_occupancy
  Tb  Tb0  1  0.000000  0.120008  0.413799  1
  Tb  Tb1  1  0.000000  0.879440  0.585521  1
  Tb  Tb2  1  0.000000  0.379582  0.914353  1
  Tb  Tb3  1  0.000000  0.620672  0.086139  1
  Tb  Tb4  1  0.000000  0.242598  0.219272  1
  Tb  Tb5  1  0.000000  0.757584  0.780771  1
  Tb  Tb6  1  0.000000  0.257754  0.719127  1
  Nd  Nd7  1  0.000000  0.000130  0.000397  1
  Nd  Nd8  1  0.000000  0.499965  0.499812  1
  Er  Er9  1  0.000000  0.742726  0.280463  1
  In  In10  1  0.500000  0.424408  0.348040  1
  In  In11  1  0.500000  0.576808  0.651805  1
  In  In12  1  0.500000  0.076843  0.848166  1
  In  In13  1  0.500000  0.921846  0.152512  1
  In  In14  1  0.500000  0.300475  0.067672  1
  In  In15  1  0.500000  0.700383  0.932354  1
  In  In16  1  0.500000  0.200082  0.567548  1
  In  In17  1  0.500000  0.799150  0.431645  1
  Pt  Pt18  1  0.500000  0.021813  0.303382  1
  Pt  Pt19  1  0.500000  0.974907  0.696226  1
  Pt  Pt20  1  0.500000  0.474989  0.803611  1
  Pt  Pt21  1  0.500000  0.527839  0.197384  1
