# generated using pymatgen
data_KAlTlSO4F3
_symmetry_space_group_name_H-M   'P 1'
_cell_length_a   6.96194000
_cell_length_b   8.47483800
_cell_length_c   11.12115000
_cell_angle_alpha   90.00000000
_cell_angle_beta   90.00000000
_cell_angle_gamma   90.00000000
_symmetry_Int_Tables_number   1
_chemical_formula_structural   KAlTlSO4F3
_chemical_formula_sum   'K4 Al4 Tl4 S4 O16 F12'
_cell_volume   656.16245947
_cell_formula_units_Z   4
loop_
 _symmetry_equiv_pos_site_id
 _symmetry_equiv_pos_as_xyz
  1  'x, y, z'
loop_
 _atom_site_type_symbol
 _atom_site_label
 _atom_site_symmetry_multiplicity
 _atom_site_fract_x
 _atom_site_fract_y
 _atom_site_fract_z
 _atom_site_occupancy
  K  K0  1  0.302105  0.825996  0.800597  1
  K  K1  1  0.802105  0.674004  0.699403  1
  K  K2  1  0.697895  0.674004  0.300597  1
  K  K3  1  0.197895  0.825996  0.199403  1
  Al  Al4  1  0.498773  0.502882  0.000328  1
  Al  Al5  1  0.998773  0.997118  0.499672  1
  Al  Al6  1  0.501227  0.997118  0.500328  1
  Al  Al7  1  0.001227  0.502882  0.999672  1
  Tl  Tl8  1  0.699686  0.172835  0.195781  1
  Tl  Tl9  1  0.199686  0.327165  0.304219  1
  Tl  Tl10  1  0.300314  0.327165  0.695781  1
  Tl  Tl11  1  0.800314  0.172835  0.804219  1
  S  S12  1  0.750000  0.307954  0.500000  1
  S  S13  1  0.250000  0.192046  0.000000  1
  S  S14  1  0.250000  0.692161  0.500000  1
  S  S15  1  0.750000  0.807839  0.000000  1
  O  O16  1  0.822712  0.403691  0.400138  1
  O  O17  1  0.322712  0.096309  0.099862  1
  O  O18  1  0.177288  0.096309  0.900138  1
  O  O19  1  0.677288  0.403691  0.599862  1
  O  O20  1  0.167203  0.598564  0.598134  1
  O  O21  1  0.667203  0.901436  0.901866  1
  O  O22  1  0.832797  0.901436  0.098134  1
  O  O23  1  0.332797  0.598564  0.401866  1
  O  O24  1  0.592152  0.201505  0.451861  1
  O  O25  1  0.092152  0.298495  0.048139  1
  O  O26  1  0.407848  0.298495  0.951861  1
  O  O27  1  0.907848  0.201505  0.548139  1
  O  O28  1  0.404943  0.796229  0.553679  1
  O  O29  1  0.904943  0.703771  0.946321  1
  O  O30  1  0.595057  0.703771  0.053679  1
  O  O31  1  0.095057  0.796229  0.446321  1
  F  F32  1  0.974136  0.043582  0.344308  1
  F  F33  1  0.474136  0.456418  0.155692  1
  F  F34  1  0.025864  0.456418  0.844308  1
  F  F35  1  0.525864  0.043582  0.655692  1
  F  F36  1  0.018882  0.943968  0.654305  1
  F  F37  1  0.518882  0.556032  0.845695  1
  F  F38  1  0.981118  0.556032  0.154305  1
  F  F39  1  0.481118  0.943968  0.345695  1
  F  F40  1  0.750000  0.422403  0.000000  1
  F  F41  1  0.250000  0.077597  0.500000  1
  F  F42  1  0.250000  0.588362  0.000000  1
  F  F43  1  0.750000  0.911638  0.500000  1
