# generated using pymatgen
data_Dy3Tm17(FeSb2)4
_symmetry_space_group_name_H-M   'P 1'
_cell_length_a   7.76502709
_cell_length_b   8.75285600
_cell_length_c   12.05703867
_cell_angle_alpha   90.00000000
_cell_angle_beta   90.06051891
_cell_angle_gamma   90.00000000
_symmetry_Int_Tables_number   1
_chemical_formula_structural   Dy3Tm17(FeSb2)4
_chemical_formula_sum   'Dy3 Tm17 Fe4 Sb8'
_cell_volume   819.47020996
_cell_formula_units_Z   1
loop_
 _symmetry_equiv_pos_site_id
 _symmetry_equiv_pos_as_xyz
  1  'x, y, z'
loop_
 _atom_site_type_symbol
 _atom_site_label
 _atom_site_symmetry_multiplicity
 _atom_site_fract_x
 _atom_site_fract_y
 _atom_site_fract_z
 _atom_site_occupancy
  Dy  Dy0  1  0.877602  0.750000  0.807507  1
  Dy  Dy1  1  0.377708  0.250000  0.692291  1
  Dy  Dy2  1  0.122245  0.250000  0.192280  1
  Tm  Tm3  1  0.155379  0.750000  0.204689  1
  Tm  Tm4  1  0.344572  0.750000  0.704805  1
  Tm  Tm5  1  0.844974  0.250000  0.795619  1
  Tm  Tm6  1  0.654915  0.250000  0.295622  1
  Tm  Tm7  1  0.448739  0.750000  0.995879  1
  Tm  Tm8  1  0.051452  0.750000  0.495901  1
  Tm  Tm9  1  0.551674  0.250000  0.004397  1
  Tm  Tm10  1  0.948187  0.250000  0.504099  1
  Tm  Tm11  1  0.621770  0.750000  0.308313  1
  Tm  Tm12  1  0.824159  0.535644  0.063982  1
  Tm  Tm13  1  0.675827  0.963619  0.563426  1
  Tm  Tm14  1  0.175912  0.036028  0.935999  1
  Tm  Tm15  1  0.324713  0.465073  0.435743  1
  Tm  Tm16  1  0.175912  0.463972  0.935999  1
  Tm  Tm17  1  0.324713  0.034927  0.435743  1
  Tm  Tm18  1  0.824159  0.964356  0.063982  1
  Tm  Tm19  1  0.675827  0.536381  0.563426  1
  Fe  Fe20  1  0.428455  0.750000  0.489228  1
  Fe  Fe21  1  0.071352  0.750000  0.989664  1
  Fe  Fe22  1  0.571786  0.250000  0.510423  1
  Fe  Fe23  1  0.928220  0.250000  0.010515  1
  Sb  Sb24  1  0.929060  0.507507  0.328369  1
  Sb  Sb25  1  0.570062  0.993148  0.828558  1
  Sb  Sb26  1  0.070113  0.006987  0.671564  1
  Sb  Sb27  1  0.430640  0.493629  0.171742  1
  Sb  Sb28  1  0.070113  0.493013  0.671564  1
  Sb  Sb29  1  0.430640  0.006371  0.171742  1
  Sb  Sb30  1  0.929060  0.992493  0.328369  1
  Sb  Sb31  1  0.570062  0.506852  0.828558  1
