# generated using pymatgen
data_NaGaI3
_symmetry_space_group_name_H-M   'P 1'
_cell_length_a   12.23939000
_cell_length_b   7.59624768
_cell_length_c   9.06329878
_cell_angle_alpha   88.62186448
_cell_angle_beta   90.00000000
_cell_angle_gamma   90.00000000
_symmetry_Int_Tables_number   1
_chemical_formula_structural   NaGaI3
_chemical_formula_sum   'Na4 Ga4 I12'
_cell_volume   842.40230283
_cell_formula_units_Z   4
loop_
 _symmetry_equiv_pos_site_id
 _symmetry_equiv_pos_as_xyz
  1  'x, y, z'
loop_
 _atom_site_type_symbol
 _atom_site_label
 _atom_site_symmetry_multiplicity
 _atom_site_fract_x
 _atom_site_fract_y
 _atom_site_fract_z
 _atom_site_occupancy
  Na  Na0  1  0.500000  0.000000  0.500000  1
  Na  Na1  1  0.500000  0.500000  0.000000  1
  Na  Na2  1  0.000000  0.000000  0.500000  1
  Na  Na3  1  0.000000  0.500000  0.000000  1
  Ga  Ga4  1  0.250000  0.039289  0.972888  1
  Ga  Ga5  1  0.750000  0.863944  0.765479  1
  Ga  Ga6  1  0.750000  0.960711  0.027112  1
  Ga  Ga7  1  0.250000  0.136056  0.234521  1
  I  I8  1  0.750000  0.303234  0.067822  1
  I  I9  1  0.581402  0.664956  0.686081  1
  I  I10  1  0.081402  0.335044  0.313919  1
  I  I11  1  0.418598  0.335044  0.313919  1
  I  I12  1  0.080400  0.168106  0.822408  1
  I  I13  1  0.580400  0.831894  0.177592  1
  I  I14  1  0.919600  0.831894  0.177592  1
  I  I15  1  0.419600  0.168106  0.822408  1
  I  I16  1  0.250000  0.696766  0.932178  1
  I  I17  1  0.750000  0.127507  0.568883  1
  I  I18  1  0.250000  0.872493  0.431117  1
  I  I19  1  0.918598  0.664956  0.686081  1
