# generated using pymatgen
data_Cr8Pt7Rh
_symmetry_space_group_name_H-M   'P 1'
_cell_length_a   8.59845300
_cell_length_b   8.59872380
_cell_length_c   6.65606763
_cell_angle_alpha   74.72549894
_cell_angle_beta   74.72759875
_cell_angle_gamma   78.62837375
_symmetry_Int_Tables_number   1
_chemical_formula_structural   Cr8Pt7Rh
_chemical_formula_sum   'Cr16 Pt14 Rh2'
_cell_volume   453.63361723
_cell_formula_units_Z   2
loop_
 _symmetry_equiv_pos_site_id
 _symmetry_equiv_pos_as_xyz
  1  'x, y, z'
loop_
 _atom_site_type_symbol
 _atom_site_label
 _atom_site_symmetry_multiplicity
 _atom_site_fract_x
 _atom_site_fract_y
 _atom_site_fract_z
 _atom_site_occupancy
  Cr  Cr0  1  0.000005  0.250364  0.250107  1
  Cr  Cr1  1  0.251580  0.998635  0.247698  1
  Cr  Cr2  1  0.748759  0.501720  0.247062  1
  Cr  Cr3  1  0.500600  0.750177  0.244574  1
  Cr  Cr4  1  0.874741  0.125298  0.000017  1
  Cr  Cr5  1  0.127598  0.874870  0.999502  1
  Cr  Cr6  1  0.624924  0.377471  0.999487  1
  Cr  Cr7  1  0.377765  0.627297  0.998898  1
  Cr  Cr8  1  0.124666  0.374666  0.500712  1
  Cr  Cr9  1  0.376064  0.123429  0.503027  1
  Cr  Cr10  1  0.873505  0.626166  0.501993  1
  Cr  Cr11  1  0.624741  0.874631  0.504506  1
  Cr  Cr12  1  0.747281  0.997721  0.750812  1
  Cr  Cr13  1  0.998000  0.749769  0.750219  1
  Cr  Cr14  1  0.499696  0.247969  0.750966  1
  Cr  Cr15  1  0.250176  0.499819  0.750513  1
  Pt  Pt16  1  0.312630  0.312024  0.124874  1
  Pt  Pt17  1  0.062572  0.061972  0.626088  1
  Pt  Pt18  1  0.811806  0.812393  0.124105  1
  Pt  Pt19  1  0.562888  0.563519  0.624933  1
  Pt  Pt20  1  0.437287  0.437290  0.374622  1
  Pt  Pt21  1  0.188431  0.186226  0.875582  1
  Pt  Pt22  1  0.937709  0.937762  0.375393  1
  Pt  Pt23  1  0.062321  0.562829  0.124168  1
  Pt  Pt24  1  0.562055  0.061537  0.124908  1
  Pt  Pt25  1  0.811976  0.312773  0.625805  1
  Pt  Pt26  1  0.313541  0.812759  0.625130  1
  Pt  Pt27  1  0.187462  0.687235  0.374431  1
  Pt  Pt28  1  0.687522  0.187691  0.375735  1
  Pt  Pt29  1  0.936382  0.438700  0.874957  1
  Rh  Rh30  1  0.686812  0.688737  0.874226  1
  Rh  Rh31  1  0.438503  0.936554  0.874953  1
