# generated using pymatgen
data_LiNd3Zn(SiAg)2
_symmetry_space_group_name_H-M   'P 1'
_cell_length_a   7.27833737
_cell_length_b   7.27833648
_cell_length_c   4.30552600
_cell_angle_alpha   90.00000000
_cell_angle_beta   90.00000000
_cell_angle_gamma   119.26596386
_symmetry_Int_Tables_number   1
_chemical_formula_structural   LiNd3Zn(SiAg)2
_chemical_formula_sum   'Li1 Nd3 Zn1 Si2 Ag2'
_cell_volume   198.96935348
_cell_formula_units_Z   1
loop_
 _symmetry_equiv_pos_site_id
 _symmetry_equiv_pos_as_xyz
  1  'x, y, z'
loop_
 _atom_site_type_symbol
 _atom_site_label
 _atom_site_symmetry_multiplicity
 _atom_site_fract_x
 _atom_site_fract_y
 _atom_site_fract_z
 _atom_site_occupancy
  Li  Li0  1  0.762069  0.762069  0.000000  1
  Nd  Nd1  1  0.418270  0.418270  0.500000  1
  Nd  Nd2  1  0.577494  0.996375  0.500000  1
  Nd  Nd3  1  0.996375  0.577494  0.500000  1
  Zn  Zn4  1  0.000804  0.000804  0.500000  1
  Si  Si5  1  0.666350  0.332412  0.000000  1
  Si  Si6  1  0.332412  0.666350  0.000000  1
  Ag  Ag7  1  0.246593  0.999635  0.000000  1
  Ag  Ag8  1  0.999635  0.246593  0.000000  1
