# generated using pymatgen
data_Ho9Tm(Bi2Ru)2
_symmetry_space_group_name_H-M   'P 1'
_cell_length_a   7.93697443
_cell_length_b   8.99222756
_cell_length_c   12.42066269
_cell_angle_alpha   89.97118410
_cell_angle_beta   90.02524323
_cell_angle_gamma   89.97189212
_symmetry_Int_Tables_number   1
_chemical_formula_structural   Ho9Tm(Bi2Ru)2
_chemical_formula_sum   'Ho18 Tm2 Bi8 Ru4'
_cell_volume   886.47580819
_cell_formula_units_Z   2
loop_
 _symmetry_equiv_pos_site_id
 _symmetry_equiv_pos_as_xyz
  1  'x, y, z'
loop_
 _atom_site_type_symbol
 _atom_site_label
 _atom_site_symmetry_multiplicity
 _atom_site_fract_x
 _atom_site_fract_y
 _atom_site_fract_z
 _atom_site_occupancy
  Ho  Ho0  1  0.840049  0.750083  0.792385  1
  Ho  Ho1  1  0.159951  0.249917  0.207615  1
  Ho  Ho2  1  0.340298  0.249866  0.707330  1
  Ho  Ho3  1  0.659702  0.750134  0.292670  1
  Ho  Ho4  1  0.375684  0.750297  0.690046  1
  Ho  Ho5  1  0.624316  0.249703  0.309954  1
  Ho  Ho6  1  0.875489  0.249922  0.809592  1
  Ho  Ho7  1  0.124511  0.750078  0.190408  1
  Ho  Ho8  1  0.945582  0.750324  0.504318  1
  Ho  Ho9  1  0.054418  0.249676  0.495682  1
  Ho  Ho10  1  0.445570  0.249983  0.995754  1
  Ho  Ho11  1  0.554430  0.750017  0.004246  1
  Ho  Ho12  1  0.174405  0.958200  0.935207  1
  Ho  Ho13  1  0.325551  0.541865  0.435236  1
  Ho  Ho14  1  0.825595  0.041800  0.064793  1
  Ho  Ho15  1  0.674449  0.458135  0.564764  1
  Ho  Ho16  1  0.825589  0.458217  0.064772  1
  Ho  Ho17  1  0.174411  0.541783  0.935228  1
  Tm  Tm18  1  0.673108  0.041807  0.564526  1
  Tm  Tm19  1  0.326892  0.958193  0.435474  1
  Bi  Bi20  1  0.567201  0.493209  0.827368  1
  Bi  Bi21  1  0.432799  0.506791  0.172632  1
  Bi  Bi22  1  0.067284  0.506842  0.672559  1
  Bi  Bi23  1  0.432692  0.993201  0.172700  1
  Bi  Bi24  1  0.932716  0.493158  0.327441  1
  Bi  Bi25  1  0.567308  0.006799  0.827300  1
  Bi  Bi26  1  0.933106  0.006784  0.327553  1
  Bi  Bi27  1  0.066894  0.993216  0.672447  1
  Ru  Ru28  1  0.573676  0.750818  0.509976  1
  Ru  Ru29  1  0.426324  0.249182  0.490024  1
  Ru  Ru30  1  0.074095  0.250042  0.989900  1
  Ru  Ru31  1  0.925905  0.749958  0.010100  1
