# generated using pymatgen
data_Tb5Sc3(Ni4As3)4
_symmetry_space_group_name_H-M   'P 1'
_cell_length_a   12.74895126
_cell_length_b   12.74895191
_cell_length_c   3.92888800
_cell_angle_alpha   90.00000000
_cell_angle_beta   90.00000000
_cell_angle_gamma   120.02867039
_symmetry_Int_Tables_number   1
_chemical_formula_structural   Tb5Sc3(Ni4As3)4
_chemical_formula_sum   'Tb5 Sc3 Ni16 As12'
_cell_volume   552.87083833
_cell_formula_units_Z   1
loop_
 _symmetry_equiv_pos_site_id
 _symmetry_equiv_pos_as_xyz
  1  'x, y, z'
loop_
 _atom_site_type_symbol
 _atom_site_label
 _atom_site_symmetry_multiplicity
 _atom_site_fract_x
 _atom_site_fract_y
 _atom_site_fract_z
 _atom_site_occupancy
  Tb  Tb0  1  0.666649  0.333315  0.000000  1
  Tb  Tb1  1  0.333315  0.666649  0.000000  1
  Tb  Tb2  1  0.185011  0.000027  0.500000  1
  Tb  Tb3  1  0.000027  0.185011  0.500000  1
  Tb  Tb4  1  0.814980  0.814980  0.500000  1
  Sc  Sc5  1  0.567158  0.000100  0.000000  1
  Sc  Sc6  1  0.432947  0.432947  0.000000  1
  Sc  Sc7  1  0.000100  0.567158  0.000000  1
  Ni  Ni8  1  0.999930  0.999930  0.000000  1
  Ni  Ni9  1  0.807083  0.185809  0.000000  1
  Ni  Ni10  1  0.378820  0.192948  0.000000  1
  Ni  Ni11  1  0.192948  0.378820  0.000000  1
  Ni  Ni12  1  0.814108  0.621034  0.000000  1
  Ni  Ni13  1  0.185808  0.807083  0.000000  1
  Ni  Ni14  1  0.621034  0.814108  0.000000  1
  Ni  Ni15  1  0.722168  0.000133  0.500000  1
  Ni  Ni16  1  0.482637  0.120127  0.500000  1
  Ni  Ni17  1  0.278028  0.278028  0.500000  1
  Ni  Ni18  1  0.879669  0.362162  0.500000  1
  Ni  Ni19  1  0.120126  0.482637  0.500000  1
  Ni  Ni20  1  0.637698  0.517671  0.500000  1
  Ni  Ni21  1  0.517670  0.637698  0.500000  1
  Ni  Ni22  1  0.000133  0.722168  0.500000  1
  Ni  Ni23  1  0.362162  0.879669  0.500000  1
  As  As24  1  0.358006  0.999966  0.000000  1
  As  As25  1  0.821455  0.999966  0.000000  1
  As  As26  1  0.178532  0.178532  0.000000  1
  As  As27  1  0.999966  0.358006  0.000000  1
  As  As28  1  0.641998  0.641998  0.000000  1
  As  As29  1  0.999966  0.821454  0.000000  1
  As  As30  1  0.693503  0.171691  0.500000  1
  As  As31  1  0.478240  0.306476  0.500000  1
  As  As32  1  0.306476  0.478240  0.500000  1
  As  As33  1  0.828318  0.521712  0.500000  1
  As  As34  1  0.171691  0.693503  0.500000  1
  As  As35  1  0.521711  0.828318  0.500000  1
