# generated using pymatgen
data_HoTm3V6O16
_symmetry_space_group_name_H-M   'P 1'
_cell_length_a   5.07953036
_cell_length_b   6.14795336
_cell_length_c   10.29554524
_cell_angle_alpha   89.80381454
_cell_angle_beta   83.70059691
_cell_angle_gamma   90.04786507
_symmetry_Int_Tables_number   1
_chemical_formula_structural   HoTm3V6O16
_chemical_formula_sum   'Ho1 Tm3 V6 O16'
_cell_volume   319.57325914
_cell_formula_units_Z   1
loop_
 _symmetry_equiv_pos_site_id
 _symmetry_equiv_pos_as_xyz
  1  'x, y, z'
loop_
 _atom_site_type_symbol
 _atom_site_label
 _atom_site_symmetry_multiplicity
 _atom_site_fract_x
 _atom_site_fract_y
 _atom_site_fract_z
 _atom_site_occupancy
  Ho  Ho0  1  0.440006  0.501595  0.222939  1
  Tm  Tm1  1  0.939348  0.001474  0.723667  1
  Tm  Tm2  1  0.059919  0.001579  0.274892  1
  Tm  Tm3  1  0.560757  0.501234  0.774592  1
  V  V4  1  0.001617  0.502853  0.500682  1
  V  V5  1  0.500283  0.234316  0.499035  1
  V  V6  1  0.498166  0.755379  0.501516  1
  V  V7  1  0.501743  0.002599  0.999883  1
  V  V8  1  0.000930  0.735038  0.997778  1
  V  V9  1  0.997921  0.255446  0.001007  1
  O  O10  1  0.678936  0.012764  0.396724  1
  O  O11  1  0.179193  0.513137  0.895770  1
  O  O12  1  0.829591  0.503975  0.102620  1
  O  O13  1  0.324387  0.004233  0.603069  1
  O  O14  1  0.685035  0.498947  0.396690  1
  O  O15  1  0.183518  0.999652  0.895591  1
  O  O16  1  0.809524  0.988963  0.107191  1
  O  O17  1  0.310851  0.490221  0.607266  1
  O  O18  1  0.286279  0.223345  0.119978  1
  O  O19  1  0.787420  0.725472  0.620803  1
  O  O20  1  0.276316  0.778401  0.112660  1
  O  O21  1  0.776825  0.276108  0.613831  1
  O  O22  1  0.210232  0.723647  0.380703  1
  O  O23  1  0.710958  0.221981  0.879820  1
  O  O24  1  0.224672  0.273638  0.386331  1
  O  O25  1  0.725572  0.774003  0.884960  1
