# generated using pymatgen
data_La16Al4TcRh3
_symmetry_space_group_name_H-M   'P 1'
_cell_length_a   10.02779229
_cell_length_b   10.02779197
_cell_length_c   10.02779200
_cell_angle_alpha   59.67065969
_cell_angle_beta   59.67066737
_cell_angle_gamma   59.67066275
_symmetry_Int_Tables_number   1
_chemical_formula_structural   La16Al4TcRh3
_chemical_formula_sum   'La16 Al4 Tc1 Rh3'
_cell_volume   707.68382479
_cell_formula_units_Z   1
loop_
 _symmetry_equiv_pos_site_id
 _symmetry_equiv_pos_as_xyz
  1  'x, y, z'
loop_
 _atom_site_type_symbol
 _atom_site_label
 _atom_site_symmetry_multiplicity
 _atom_site_fract_x
 _atom_site_fract_y
 _atom_site_fract_z
 _atom_site_occupancy
  La  La0  1  0.690829  0.305772  0.306285  1
  La  La1  1  0.696351  0.696290  0.304260  1
  La  La2  1  0.305717  0.691353  0.305752  1
  La  La3  1  0.936927  0.937410  0.563112  1
  La  La4  1  0.150670  0.150577  0.547799  1
  La  La5  1  0.560654  0.943091  0.560585  1
  La  La6  1  0.150260  0.150374  0.150271  1
  La  La7  1  0.306315  0.305855  0.690757  1
  La  La8  1  0.943012  0.560660  0.560543  1
  La  La9  1  0.560553  0.560621  0.942949  1
  La  La10  1  0.563076  0.937489  0.936950  1
  La  La11  1  0.937421  0.562832  0.937321  1
  La  La12  1  0.150592  0.548061  0.150544  1
  La  La13  1  0.304233  0.696272  0.696354  1
  La  La14  1  0.696330  0.304081  0.696378  1
  La  La15  1  0.547853  0.150587  0.150670  1
  Al  Al16  1  0.926432  0.926287  0.220396  1
  Al  Al17  1  0.220394  0.926242  0.926442  1
  Al  Al18  1  0.926264  0.220462  0.926320  1
  Al  Al19  1  0.926755  0.926595  0.926777  1
  Tc  Tc20  1  0.363082  0.362866  0.363123  1
  Rh  Rh21  1  0.918392  0.358867  0.359126  1
  Rh  Rh22  1  0.359069  0.358907  0.918406  1
  Rh  Rh23  1  0.358818  0.918450  0.358880  1
