# generated using pymatgen
data_HfI8
_symmetry_space_group_name_H-M   'P 1'
_cell_length_a   9.82444000
_cell_length_b   9.42769450
_cell_length_c   16.03564329
_cell_angle_alpha   42.90487346
_cell_angle_beta   90.00000000
_cell_angle_gamma   90.00000000
_symmetry_Int_Tables_number   1
_chemical_formula_structural   HfI8
_chemical_formula_sum   'Hf2 I16'
_cell_volume   1011.13351710
_cell_formula_units_Z   2
loop_
 _symmetry_equiv_pos_site_id
 _symmetry_equiv_pos_as_xyz
  1  'x, y, z'
loop_
 _atom_site_type_symbol
 _atom_site_label
 _atom_site_symmetry_multiplicity
 _atom_site_fract_x
 _atom_site_fract_y
 _atom_site_fract_z
 _atom_site_occupancy
  Hf  Hf0  1  0.000000  0.000000  0.000000  1
  Hf  Hf1  1  0.500000  0.000000  0.500000  1
  I  I2  1  0.421351  0.716411  0.238365  1
  I  I3  1  0.921351  0.283589  0.261635  1
  I  I4  1  0.078649  0.716411  0.738365  1
  I  I5  1  0.578649  0.283589  0.761635  1
  I  I6  1  0.902659  0.360260  0.935681  1
  I  I7  1  0.436436  0.235210  0.260749  1
  I  I8  1  0.563564  0.764790  0.739251  1
  I  I9  1  0.269847  0.091229  0.027896  1
  I  I10  1  0.402659  0.639740  0.564319  1
  I  I11  1  0.230153  0.091229  0.527896  1
  I  I12  1  0.097341  0.639740  0.064319  1
  I  I13  1  0.769847  0.908771  0.472104  1
  I  I14  1  0.730153  0.908771  0.972104  1
  I  I15  1  0.936436  0.764790  0.239251  1
  I  I16  1  0.063564  0.235210  0.760749  1
  I  I17  1  0.597341  0.360260  0.435681  1
