# generated using pymatgen
data_Dy5Y3Ti3Si16W9
_symmetry_space_group_name_H-M   'P 1'
_cell_length_a   6.90455784
_cell_length_b   6.90461100
_cell_length_c   12.82033701
_cell_angle_alpha   90.02701005
_cell_angle_beta   89.96910187
_cell_angle_gamma   89.86351592
_symmetry_Int_Tables_number   1
_chemical_formula_structural   Dy5Y3Ti3Si16W9
_chemical_formula_sum   'Dy5 Y3 Ti3 Si16 W9'
_cell_volume   611.18570274
_cell_formula_units_Z   1
loop_
 _symmetry_equiv_pos_site_id
 _symmetry_equiv_pos_as_xyz
  1  'x, y, z'
loop_
 _atom_site_type_symbol
 _atom_site_label
 _atom_site_symmetry_multiplicity
 _atom_site_fract_x
 _atom_site_fract_y
 _atom_site_fract_z
 _atom_site_occupancy
  Dy  Dy0  1  0.162307  0.502972  0.780761  1
  Dy  Dy1  1  0.837840  0.500690  0.282499  1
  Dy  Dy2  1  0.502884  0.162201  0.219249  1
  Dy  Dy3  1  0.500613  0.837824  0.717520  1
  Dy  Dy4  1  0.339594  0.000659  0.468749  1
  Y  Y5  1  0.998286  0.660990  0.031483  1
  Y  Y6  1  0.000913  0.339553  0.531203  1
  Y  Y7  1  0.660976  0.998200  0.968589  1
  Ti  Ti8  1  0.829616  0.168110  0.748485  1
  Ti  Ti9  1  0.168160  0.829657  0.251559  1
  Ti  Ti10  1  0.331141  0.331202  0.000052  1
  Si  Si11  1  0.036599  0.711321  0.437746  1
  Si  Si12  1  0.959598  0.290285  0.936051  1
  Si  Si13  1  0.711065  0.036267  0.562188  1
  Si  Si14  1  0.208623  0.460525  0.186299  1
  Si  Si15  1  0.790398  0.540656  0.685894  1
  Si  Si16  1  0.460366  0.208647  0.813764  1
  Si  Si17  1  0.540281  0.790586  0.314116  1
  Si  Si18  1  0.290253  0.959478  0.064055  1
  Si  Si19  1  0.799754  0.871478  0.183519  1
  Si  Si20  1  0.301955  0.626254  0.566384  1
  Si  Si21  1  0.700893  0.371669  0.066460  1
  Si  Si22  1  0.625956  0.301781  0.433515  1
  Si  Si23  1  0.371651  0.700925  0.933554  1
  Si  Si24  1  0.127635  0.202809  0.315869  1
  Si  Si25  1  0.203150  0.127374  0.684118  1
  Si  Si26  1  0.871467  0.799619  0.816533  1
  W  W27  1  0.334361  0.505869  0.374835  1
  W  W28  1  0.841206  0.997126  0.373351  1
  W  W29  1  0.006381  0.160810  0.125720  1
  W  W30  1  0.997365  0.841238  0.626529  1
  W  W31  1  0.505935  0.334403  0.625030  1
  W  W32  1  0.160822  0.006332  0.874362  1
  W  W33  1  0.667812  0.668354  0.499957  1
  W  W34  1  0.494081  0.660103  0.124930  1
  W  W35  1  0.660064  0.494036  0.875070  1
