# generated using pymatgen
data_DyAl10FeRh
_symmetry_space_group_name_H-M   'P 1'
_cell_length_a   6.81397126
_cell_length_b   6.81397125
_cell_length_c   9.10044651
_cell_angle_alpha   90.24794403
_cell_angle_beta   90.24794209
_cell_angle_gamma   97.18236043
_symmetry_Int_Tables_number   1
_chemical_formula_structural   DyAl10FeRh
_chemical_formula_sum   'Dy2 Al20 Fe2 Rh2'
_cell_volume   419.21108263
_cell_formula_units_Z   2
loop_
 _symmetry_equiv_pos_site_id
 _symmetry_equiv_pos_as_xyz
  1  'x, y, z'
loop_
 _atom_site_type_symbol
 _atom_site_label
 _atom_site_symmetry_multiplicity
 _atom_site_fract_x
 _atom_site_fract_y
 _atom_site_fract_z
 _atom_site_occupancy
  Dy  Dy0  1  0.873064  0.126936  0.750000  1
  Dy  Dy1  1  0.126936  0.873064  0.250000  1
  Al  Al2  1  0.620502  0.372099  0.549453  1
  Al  Al3  1  0.379498  0.627901  0.450547  1
  Al  Al4  1  0.372099  0.620502  0.049453  1
  Al  Al5  1  0.627901  0.379498  0.950547  1
  Al  Al6  1  0.229308  0.221749  0.497089  1
  Al  Al7  1  0.770692  0.778251  0.502911  1
  Al  Al8  1  0.778251  0.770692  0.002911  1
  Al  Al9  1  0.221749  0.229308  0.997089  1
  Al  Al10  1  0.848205  0.160233  0.099783  1
  Al  Al11  1  0.151795  0.839767  0.900217  1
  Al  Al12  1  0.160233  0.848205  0.599783  1
  Al  Al13  1  0.839767  0.151795  0.400217  1
  Al  Al14  1  0.861285  0.586430  0.753654  1
  Al  Al15  1  0.138715  0.413570  0.246346  1
  Al  Al16  1  0.413570  0.138715  0.746346  1
  Al  Al17  1  0.586430  0.861285  0.253654  1
  Al  Al18  1  0.223432  0.479667  0.754707  1
  Al  Al19  1  0.776568  0.520333  0.245293  1
  Al  Al20  1  0.520333  0.776568  0.745293  1
  Al  Al21  1  0.479667  0.223432  0.254707  1
  Fe  Fe22  1  0.000000  0.500000  0.000000  1
  Fe  Fe23  1  0.500000  0.000000  0.500000  1
  Rh  Rh24  1  0.000000  0.500000  0.500000  1
  Rh  Rh25  1  0.500000  0.000000  0.000000  1
