# generated using pymatgen
data_Dy8Tm4InCo4Os
_symmetry_space_group_name_H-M   'P 1'
_cell_length_a   8.24046215
_cell_length_b   8.24046236
_cell_length_c   8.24046283
_cell_angle_alpha   111.36000802
_cell_angle_beta   110.86328827
_cell_angle_gamma   106.23835298
_symmetry_Int_Tables_number   1
_chemical_formula_structural   Dy8Tm4InCo4Os
_chemical_formula_sum   'Dy8 Tm4 In1 Co4 Os1'
_cell_volume   429.72779363
_cell_formula_units_Z   1
loop_
 _symmetry_equiv_pos_site_id
 _symmetry_equiv_pos_as_xyz
  1  'x, y, z'
loop_
 _atom_site_type_symbol
 _atom_site_label
 _atom_site_symmetry_multiplicity
 _atom_site_fract_x
 _atom_site_fract_y
 _atom_site_fract_z
 _atom_site_occupancy
  Dy  Dy0  1  0.182868  0.280581  0.463448  1
  Dy  Dy1  1  0.817132  0.719419  0.536552  1
  Dy  Dy2  1  0.182868  0.719419  0.902287  1
  Dy  Dy3  1  0.817132  0.280581  0.097713  1
  Dy  Dy4  1  0.314287  0.619917  0.305630  1
  Dy  Dy5  1  0.685713  0.380083  0.694370  1
  Dy  Dy6  1  0.314287  0.008655  0.694370  1
  Dy  Dy7  1  0.685713  0.991345  0.305630  1
  Tm  Tm8  1  0.412653  0.219728  0.192926  1
  Tm  Tm9  1  0.587347  0.780272  0.807074  1
  Tm  Tm10  1  0.026804  0.219728  0.807074  1
  Tm  Tm11  1  0.973196  0.780272  0.192926  1
  In  In12  1  0.500000  0.500000  0.000000  1
  Co  Co13  1  0.375257  0.000000  0.375257  1
  Co  Co14  1  0.624743  0.000000  0.624743  1
  Co  Co15  1  0.111568  0.611568  0.500000  1
  Co  Co16  1  0.888432  0.388432  0.500000  1
  Os  Os17  1  0.000000  0.000000  0.000000  1
