# generated using pymatgen
data_Lu5Sc2ZnC4
_symmetry_space_group_name_H-M   'P 1'
_cell_length_a   11.03812700
_cell_length_b   11.03812700
_cell_length_c   3.52142800
_cell_angle_alpha   90.00000000
_cell_angle_beta   90.00000000
_cell_angle_gamma   90.00000000
_symmetry_Int_Tables_number   1
_chemical_formula_structural   Lu5Sc2ZnC4
_chemical_formula_sum   'Lu10 Sc4 Zn2 C8'
_cell_volume   429.05165967
_cell_formula_units_Z   2
loop_
 _symmetry_equiv_pos_site_id
 _symmetry_equiv_pos_as_xyz
  1  'x, y, z'
loop_
 _atom_site_type_symbol
 _atom_site_label
 _atom_site_symmetry_multiplicity
 _atom_site_fract_x
 _atom_site_fract_y
 _atom_site_fract_z
 _atom_site_occupancy
  Lu  Lu0  1  0.547168  0.741318  0.500000  1
  Lu  Lu1  1  0.452832  0.258682  0.500000  1
  Lu  Lu2  1  0.047168  0.758682  0.500000  1
  Lu  Lu3  1  0.952832  0.241318  0.500000  1
  Lu  Lu4  1  0.258682  0.547168  0.500000  1
  Lu  Lu5  1  0.741318  0.452832  0.500000  1
  Lu  Lu6  1  0.241318  0.047168  0.500000  1
  Lu  Lu7  1  0.758682  0.952832  0.500000  1
  Lu  Lu8  1  0.500000  0.000000  0.000000  1
  Lu  Lu9  1  0.000000  0.500000  0.000000  1
  Sc  Sc10  1  0.703589  0.203589  0.000000  1
  Sc  Sc11  1  0.296411  0.796411  0.000000  1
  Sc  Sc12  1  0.203589  0.296411  0.000000  1
  Sc  Sc13  1  0.796411  0.703589  0.000000  1
  Zn  Zn14  1  0.500000  0.500000  0.000000  1
  Zn  Zn15  1  0.000000  0.000000  0.000000  1
  C  C16  1  0.619045  0.119045  0.500000  1
  C  C17  1  0.380955  0.880955  0.500000  1
  C  C18  1  0.119045  0.380955  0.500000  1
  C  C19  1  0.880955  0.619045  0.500000  1
  C  C20  1  0.155564  0.655564  0.000000  1
  C  C21  1  0.844436  0.344436  0.000000  1
  C  C22  1  0.655564  0.844436  0.000000  1
  C  C23  1  0.344436  0.155564  0.000000  1
