# generated using pymatgen
data_Li2Cu2NiTeO8
_symmetry_space_group_name_H-M   'P 1'
_cell_length_a   5.87167090
_cell_length_b   10.79977118
_cell_length_c   5.87319566
_cell_angle_alpha   107.71563924
_cell_angle_beta   61.85218367
_cell_angle_gamma   90.86007012
_symmetry_Int_Tables_number   1
_chemical_formula_structural   Li2Cu2NiTeO8
_chemical_formula_sum   'Li4 Cu4 Ni2 Te2 O16'
_cell_volume   309.13105447
_cell_formula_units_Z   2
loop_
 _symmetry_equiv_pos_site_id
 _symmetry_equiv_pos_as_xyz
  1  'x, y, z'
loop_
 _atom_site_type_symbol
 _atom_site_label
 _atom_site_symmetry_multiplicity
 _atom_site_fract_x
 _atom_site_fract_y
 _atom_site_fract_z
 _atom_site_occupancy
  Li  Li0  1  0.914521  0.209215  0.123822  1
  Li  Li1  1  0.414852  0.709259  0.123283  1
  Li  Li2  1  0.585220  0.290693  0.876648  1
  Li  Li3  1  0.085531  0.790716  0.876144  1
  Cu  Cu4  1  0.999834  0.000142  0.500224  1
  Cu  Cu5  1  0.499816  0.000105  0.000024  1
  Cu  Cu6  1  0.499837  0.499991  0.500044  1
  Cu  Cu7  1  0.000072  0.500076  0.999927  1
  Ni  Ni8  1  0.500067  0.999985  0.500053  1
  Ni  Ni9  1  0.000044  0.499945  0.499911  1
  Te  Te10  1  0.750245  0.750039  0.499824  1
  Te  Te11  1  0.249856  0.250031  0.500399  1
  O  O12  1  0.845060  0.412356  0.256523  1
  O  O13  1  0.345245  0.912312  0.256529  1
  O  O14  1  0.654821  0.087529  0.743352  1
  O  O15  1  0.154795  0.587547  0.743140  1
  O  O16  1  0.629900  0.622684  0.704095  1
  O  O17  1  0.129723  0.122567  0.704527  1
  O  O18  1  0.611457  0.662843  0.273399  1
  O  O19  1  0.110897  0.162784  0.274183  1
  O  O20  1  0.082634  0.622329  0.252230  1
  O  O21  1  0.582300  0.122371  0.252628  1
  O  O22  1  0.417699  0.877650  0.747484  1
  O  O23  1  0.917360  0.377691  0.747696  1
  O  O24  1  0.889238  0.837218  0.725916  1
  O  O25  1  0.388603  0.337214  0.726660  1
  O  O26  1  0.870281  0.877391  0.295471  1
  O  O27  1  0.370094  0.377316  0.295863  1
