# generated using pymatgen
data_Y4Lu4Tc3B24Rh
_symmetry_space_group_name_H-M   'P 1'
_cell_length_a   3.64434300
_cell_length_b   9.09891635
_cell_length_c   11.49222446
_cell_angle_alpha   90.08906202
_cell_angle_beta   90.00000000
_cell_angle_gamma   90.00000000
_symmetry_Int_Tables_number   1
_chemical_formula_structural   Y4Lu4Tc3B24Rh
_chemical_formula_sum   'Y4 Lu4 Tc3 B24 Rh1'
_cell_volume   381.07678510
_cell_formula_units_Z   1
loop_
 _symmetry_equiv_pos_site_id
 _symmetry_equiv_pos_as_xyz
  1  'x, y, z'
loop_
 _atom_site_type_symbol
 _atom_site_label
 _atom_site_symmetry_multiplicity
 _atom_site_fract_x
 _atom_site_fract_y
 _atom_site_fract_z
 _atom_site_occupancy
  Y  Y0  1  0.500000  0.317582  0.415829  1
  Y  Y1  1  0.500000  0.678814  0.590814  1
  Y  Y2  1  0.500000  0.178165  0.912835  1
  Y  Y3  1  0.500000  0.826271  0.081351  1
  Lu  Lu4  1  0.500000  0.440446  0.128659  1
  Lu  Lu5  1  0.500000  0.557173  0.870927  1
  Lu  Lu6  1  0.500000  0.056289  0.629543  1
  Lu  Lu7  1  0.500000  0.943864  0.369942  1
  Tc  Tc8  1  0.500000  0.138962  0.181089  1
  Tc  Tc9  1  0.500000  0.861156  0.819864  1
  Tc  Tc10  1  0.500000  0.362025  0.678805  1
  B  B11  1  0.000000  0.099063  0.472113  1
  B  B12  1  0.000000  0.897803  0.527407  1
  B  B13  1  0.000000  0.399725  0.972734  1
  B  B14  1  0.000000  0.601392  0.028473  1
  B  B15  1  0.000000  0.129405  0.315568  1
  B  B16  1  0.000000  0.869890  0.684900  1
  B  B17  1  0.000000  0.370660  0.814785  1
  B  B18  1  0.000000  0.630214  0.183504  1
  B  B19  1  0.000000  0.053912  0.066889  1
  B  B20  1  0.000000  0.947140  0.932234  1
  B  B21  1  0.000000  0.446115  0.566888  1
  B  B22  1  0.000000  0.554221  0.433622  1
  B  B23  1  0.000000  0.482395  0.287270  1
  B  B24  1  0.000000  0.518765  0.712991  1
  B  B25  1  0.000000  0.018441  0.786408  1
  B  B26  1  0.000000  0.981932  0.212640  1
  B  B27  1  0.000000  0.250563  0.081733  1
  B  B28  1  0.000000  0.750461  0.918429  1
  B  B29  1  0.000000  0.248948  0.581443  1
  B  B30  1  0.000000  0.750215  0.419786  1
  B  B31  1  0.000000  0.292234  0.235420  1
  B  B32  1  0.000000  0.707884  0.765804  1
  B  B33  1  0.000000  0.208042  0.734297  1
  B  B34  1  0.000000  0.791478  0.264907  1
  Rh  Rh35  1  0.500000  0.638355  0.320099  1
