# generated using pymatgen
data_Ho6Ta(Ga3Co8)2
_symmetry_space_group_name_H-M   'P 1'
_cell_length_a   8.46058118
_cell_length_b   8.46058159
_cell_length_c   8.46058000
_cell_angle_alpha   59.99999839
_cell_angle_beta   59.99999681
_cell_angle_gamma   60.00000171
_symmetry_Int_Tables_number   1
_chemical_formula_structural   Ho6Ta(Ga3Co8)2
_chemical_formula_sum   'Ho6 Ta1 Ga6 Co16'
_cell_volume   428.23833646
_cell_formula_units_Z   1
loop_
 _symmetry_equiv_pos_site_id
 _symmetry_equiv_pos_as_xyz
  1  'x, y, z'
loop_
 _atom_site_type_symbol
 _atom_site_label
 _atom_site_symmetry_multiplicity
 _atom_site_fract_x
 _atom_site_fract_y
 _atom_site_fract_z
 _atom_site_occupancy
  Ho  Ho0  1  0.716868  0.283132  0.283132  1
  Ho  Ho1  1  0.716868  0.283132  0.716868  1
  Ho  Ho2  1  0.716868  0.716868  0.283132  1
  Ho  Ho3  1  0.283132  0.716868  0.716868  1
  Ho  Ho4  1  0.283132  0.716868  0.283132  1
  Ho  Ho5  1  0.283132  0.283132  0.716868  1
  Ta  Ta6  1  0.000000  0.000000  0.000000  1
  Ga  Ga7  1  0.500000  0.000000  0.000000  1
  Ga  Ga8  1  0.500000  0.000000  0.500000  1
  Ga  Ga9  1  0.500000  0.500000  0.000000  1
  Ga  Ga10  1  0.000000  0.500000  0.500000  1
  Ga  Ga11  1  0.000000  0.500000  0.000000  1
  Ga  Ga12  1  0.000000  0.000000  0.500000  1
  Co  Co13  1  0.626542  0.124486  0.124486  1
  Co  Co14  1  0.124486  0.626542  0.124486  1
  Co  Co15  1  0.124486  0.124486  0.626542  1
  Co  Co16  1  0.124486  0.124486  0.124486  1
  Co  Co17  1  0.373458  0.875514  0.875514  1
  Co  Co18  1  0.875514  0.373458  0.875514  1
  Co  Co19  1  0.875514  0.875514  0.373458  1
  Co  Co20  1  0.875514  0.875514  0.875514  1
  Co  Co21  1  0.035611  0.321463  0.321463  1
  Co  Co22  1  0.321463  0.035611  0.321463  1
  Co  Co23  1  0.321463  0.321463  0.035611  1
  Co  Co24  1  0.321463  0.321463  0.321463  1
  Co  Co25  1  0.964389  0.678537  0.678537  1
  Co  Co26  1  0.678537  0.964389  0.678537  1
  Co  Co27  1  0.678537  0.678537  0.964389  1
  Co  Co28  1  0.678537  0.678537  0.678537  1
