# generated using pymatgen
data_BaCo12HgO24
_symmetry_space_group_name_H-M   'P 1'
_cell_length_a   7.92804172
_cell_length_b   7.92804229
_cell_length_c   8.03988100
_cell_angle_alpha   108.44024257
_cell_angle_beta   105.38863634
_cell_angle_gamma   114.21199260
_symmetry_Int_Tables_number   1
_chemical_formula_structural   BaCo12HgO24
_chemical_formula_sum   'Ba1 Co12 Hg1 O24'
_cell_volume   388.97314993
_cell_formula_units_Z   1
loop_
 _symmetry_equiv_pos_site_id
 _symmetry_equiv_pos_as_xyz
  1  'x, y, z'
loop_
 _atom_site_type_symbol
 _atom_site_label
 _atom_site_symmetry_multiplicity
 _atom_site_fract_x
 _atom_site_fract_y
 _atom_site_fract_z
 _atom_site_occupancy
  Ba  Ba0  1  0.662866  0.662866  0.000000  1
  Co  Co1  1  0.812449  0.997078  0.485148  1
  Co  Co2  1  0.473309  0.659301  0.475045  1
  Co  Co3  1  0.140108  0.326039  0.475029  1
  Co  Co4  1  0.851009  0.665079  0.524971  1
  Co  Co5  1  0.511930  0.327300  0.514852  1
  Co  Co6  1  0.184255  0.998262  0.524955  1
  Co  Co7  1  0.993709  0.480409  0.815429  1
  Co  Co8  1  0.659510  0.146405  0.815391  1
  Co  Co9  1  0.324115  0.819015  0.818577  1
  Co  Co10  1  0.664981  0.178282  0.184571  1
  Co  Co11  1  0.331014  0.844119  0.184609  1
  Co  Co12  1  0.000439  0.505538  0.181423  1
  Hg  Hg13  1  0.162955  0.162955  0.000000  1
  O  O14  1  0.679005  0.370223  0.388497  1
  O  O15  1  0.343030  0.033867  0.388791  1
  O  O16  1  0.008460  0.708015  0.391972  1
  O  O17  1  0.981725  0.290508  0.611503  1
  O  O18  1  0.645074  0.954238  0.611209  1
  O  O19  1  0.316043  0.616488  0.608028  1
  O  O20  1  0.952342  0.315024  0.280430  1
  O  O21  1  0.617995  0.978789  0.272063  1
  O  O22  1  0.289901  0.652217  0.280108  1
  O  O23  1  0.706724  0.345931  0.727937  1
  O  O24  1  0.372109  0.009793  0.719892  1
  O  O25  1  0.034593  0.671911  0.719570  1
  O  O26  1  0.703285  0.345543  0.055127  1
  O  O27  1  0.363614  0.018102  0.057164  1
  O  O28  1  0.034415  0.676440  0.055164  1
  O  O29  1  0.960938  0.306449  0.942836  1
  O  O30  1  0.621275  0.979251  0.944836  1
  O  O31  1  0.290416  0.648158  0.944873  1
  O  O32  1  0.009969  0.971337  0.656954  1
  O  O33  1  0.336092  0.299323  0.641396  1
  O  O34  1  0.666416  0.629678  0.641391  1
  O  O35  1  0.314383  0.353014  0.343046  1
  O  O36  1  0.657927  0.694696  0.358604  1
  O  O37  1  0.988287  0.025024  0.358609  1
