# generated using pymatgen
data_Na8Sr4TiGeAs8
_symmetry_space_group_name_H-M   'P 1'
_cell_length_a   9.64830097
_cell_length_b   9.66175707
_cell_length_c   7.55973669
_cell_angle_alpha   89.65046031
_cell_angle_beta   89.61301041
_cell_angle_gamma   120.01457755
_symmetry_Int_Tables_number   1
_chemical_formula_structural   Na8Sr4TiGeAs8
_chemical_formula_sum   'Na8 Sr4 Ti1 Ge1 As8'
_cell_volume   610.16109184
_cell_formula_units_Z   1
loop_
 _symmetry_equiv_pos_site_id
 _symmetry_equiv_pos_as_xyz
  1  'x, y, z'
loop_
 _atom_site_type_symbol
 _atom_site_label
 _atom_site_symmetry_multiplicity
 _atom_site_fract_x
 _atom_site_fract_y
 _atom_site_fract_z
 _atom_site_occupancy
  Na  Na0  1  0.471033  0.938616  0.383161  1
  Na  Na1  1  0.944485  0.473555  0.888933  1
  Na  Na2  1  0.868690  0.732904  0.199537  1
  Na  Na3  1  0.276660  0.130500  0.224363  1
  Na  Na4  1  0.855440  0.133372  0.216302  1
  Na  Na5  1  0.137194  0.292228  0.730144  1
  Na  Na6  1  0.717661  0.861513  0.703722  1
  Na  Na7  1  0.139761  0.847495  0.720011  1
  Sr  Sr8  1  0.046239  0.526635  0.387708  1
  Sr  Sr9  1  0.480930  0.528964  0.384035  1
  Sr  Sr10  1  0.531308  0.055411  0.884654  1
  Sr  Sr11  1  0.533757  0.478121  0.884605  1
  Ti  Ti12  1  0.328113  0.664118  0.997938  1
  Ge  Ge13  1  0.661041  0.325995  0.503604  1
  As  As14  1  0.194967  0.383638  0.111428  1
  As  As15  1  0.616308  0.807753  0.093589  1
  As  As16  1  0.194412  0.809907  0.101000  1
  As  As17  1  0.809532  0.618903  0.595159  1
  As  As18  1  0.377764  0.192354  0.612666  1
  As  As19  1  0.812009  0.195059  0.602649  1
  As  As20  1  0.665515  0.338371  0.171831  1
  As  As21  1  0.337193  0.664601  0.667556  1
