# generated using pymatgen
data_YbEr3Lu4(B6Ru)4
_symmetry_space_group_name_H-M   'P 1'
_cell_length_a   3.60939900
_cell_length_b   9.05327484
_cell_length_c   11.43622001
_cell_angle_alpha   89.93675422
_cell_angle_beta   90.00000000
_cell_angle_gamma   90.00000000
_symmetry_Int_Tables_number   1
_chemical_formula_structural   YbEr3Lu4(B6Ru)4
_chemical_formula_sum   'Yb1 Er3 Lu4 B24 Ru4'
_cell_volume   373.69977416
_cell_formula_units_Z   1
loop_
 _symmetry_equiv_pos_site_id
 _symmetry_equiv_pos_as_xyz
  1  'x, y, z'
loop_
 _atom_site_type_symbol
 _atom_site_label
 _atom_site_symmetry_multiplicity
 _atom_site_fract_x
 _atom_site_fract_y
 _atom_site_fract_z
 _atom_site_occupancy
  Yb  Yb0  1  0.000000  0.322839  0.414006  1
  Er  Er1  1  0.000000  0.676679  0.584699  1
  Er  Er2  1  0.000000  0.821765  0.086041  1
  Er  Er3  1  0.000000  0.178728  0.914706  1
  Lu  Lu4  1  0.000000  0.944109  0.371434  1
  Lu  Lu5  1  0.000000  0.057824  0.627673  1
  Lu  Lu6  1  0.000000  0.443116  0.129264  1
  Lu  Lu7  1  0.000000  0.556220  0.872215  1
  B  B8  1  0.500000  0.554264  0.432764  1
  B  B9  1  0.500000  0.445892  0.567330  1
  B  B10  1  0.500000  0.053494  0.066391  1
  B  B11  1  0.500000  0.945712  0.932778  1
  B  B12  1  0.500000  0.749610  0.419151  1
  B  B13  1  0.500000  0.250926  0.581183  1
  B  B14  1  0.500000  0.248990  0.080667  1
  B  B15  1  0.500000  0.750338  0.919472  1
  B  B16  1  0.500000  0.792128  0.265369  1
  B  B17  1  0.500000  0.208910  0.734902  1
  B  B18  1  0.500000  0.290646  0.234240  1
  B  B19  1  0.500000  0.708473  0.765497  1
  B  B20  1  0.500000  0.630927  0.184831  1
  B  B21  1  0.500000  0.369555  0.816155  1
  B  B22  1  0.500000  0.130248  0.314999  1
  B  B23  1  0.500000  0.869414  0.684120  1
  B  B24  1  0.500000  0.982193  0.212295  1
  B  B25  1  0.500000  0.017637  0.786870  1
  B  B26  1  0.500000  0.482795  0.287307  1
  B  B27  1  0.500000  0.517651  0.713070  1
  B  B28  1  0.500000  0.604414  0.028901  1
  B  B29  1  0.500000  0.395729  0.971708  1
  B  B30  1  0.500000  0.101810  0.471944  1
  B  B31  1  0.500000  0.896924  0.528282  1
  Ru  Ru32  1  0.000000  0.639824  0.319976  1
  Ru  Ru33  1  0.000000  0.362023  0.680867  1
  Ru  Ru34  1  0.000000  0.136546  0.178482  1
  Ru  Ru35  1  0.000000  0.861649  0.820408  1
