# generated using pymatgen
data_Cr3IO8
_symmetry_space_group_name_H-M   'P 1'
_cell_length_a   4.62421527
_cell_length_b   4.62423093
_cell_length_c   6.13524000
_cell_angle_alpha   90.00011641
_cell_angle_beta   90.00003287
_cell_angle_gamma   88.39407030
_symmetry_Int_Tables_number   1
_chemical_formula_structural   Cr3IO8
_chemical_formula_sum   'Cr3 I1 O8'
_cell_volume   131.14100212
_cell_formula_units_Z   1
loop_
 _symmetry_equiv_pos_site_id
 _symmetry_equiv_pos_as_xyz
  1  'x, y, z'
loop_
 _atom_site_type_symbol
 _atom_site_label
 _atom_site_symmetry_multiplicity
 _atom_site_fract_x
 _atom_site_fract_y
 _atom_site_fract_z
 _atom_site_occupancy
  Cr  Cr0  1  0.000014  0.999992  0.490990  1
  Cr  Cr1  1  0.499991  0.500014  0.250095  1
  Cr  Cr2  1  0.000005  0.999999  0.008673  1
  I  I3  1  0.500000  0.499997  0.750048  1
  O  O4  1  0.194835  0.805162  0.249863  1
  O  O5  1  0.202625  0.797372  0.749931  1
  O  O6  1  0.805156  0.194842  0.249860  1
  O  O7  1  0.797375  0.202623  0.749932  1
  O  O8  1  0.310599  0.310599  0.988395  1
  O  O9  1  0.310636  0.310637  0.511908  1
  O  O10  1  0.689401  0.689401  0.988395  1
  O  O11  1  0.689363  0.689363  0.511910  1
