# generated using pymatgen
data_La2Zn(S2O7)4
_symmetry_space_group_name_H-M   'P 1'
_cell_length_a   12.91519800
_cell_length_b   6.91757709
_cell_length_c   13.25641300
_cell_angle_alpha   65.86382264
_cell_angle_beta   90.00000000
_cell_angle_gamma   90.00000000
_symmetry_Int_Tables_number   1
_chemical_formula_structural   La2Zn(S2O7)4
_chemical_formula_sum   'La4 Zn2 S16 O56'
_cell_volume   1080.81216868
_cell_formula_units_Z   2
loop_
 _symmetry_equiv_pos_site_id
 _symmetry_equiv_pos_as_xyz
  1  'x, y, z'
loop_
 _atom_site_type_symbol
 _atom_site_label
 _atom_site_symmetry_multiplicity
 _atom_site_fract_x
 _atom_site_fract_y
 _atom_site_fract_z
 _atom_site_occupancy
  La  La0  1  0.859819  0.138203  0.160836  1
  La  La1  1  0.640181  0.138203  0.660836  1
  La  La2  1  0.140181  0.861797  0.839164  1
  La  La3  1  0.359819  0.861797  0.339164  1
  Zn  Zn4  1  0.500000  0.500000  0.000000  1
  Zn  Zn5  1  0.000000  0.500000  0.500000  1
  S  S6  1  0.655667  0.203023  0.940814  1
  S  S7  1  0.844333  0.203023  0.440814  1
  S  S8  1  0.344333  0.796977  0.059186  1
  S  S9  1  0.155667  0.796977  0.559186  1
  S  S10  1  0.975148  0.687349  0.099909  1
  S  S11  1  0.524852  0.687349  0.599909  1
  S  S12  1  0.024852  0.312651  0.900091  1
  S  S13  1  0.475148  0.312651  0.400091  1
  S  S14  1  0.728818  0.620685  0.910173  1
  S  S15  1  0.771182  0.620685  0.410173  1
  S  S16  1  0.271182  0.379315  0.089827  1
  S  S17  1  0.228818  0.379315  0.589827  1
  S  S18  1  0.582187  0.234738  0.234345  1
  S  S19  1  0.917813  0.234738  0.734345  1
  S  S20  1  0.417813  0.765262  0.765655  1
  S  S21  1  0.082187  0.765262  0.265655  1
  O  O22  1  0.634067  0.121378  0.858348  1
  O  O23  1  0.865933  0.121378  0.358348  1
  O  O24  1  0.365933  0.878622  0.141652  1
  O  O25  1  0.134067  0.878622  0.641652  1
  O  O26  1  0.586208  0.263149  0.350167  1
  O  O27  1  0.913792  0.263149  0.850167  1
  O  O28  1  0.413792  0.736851  0.649833  1
  O  O29  1  0.086208  0.736851  0.149833  1
  O  O30  1  0.532273  0.032649  0.256447  1
  O  O31  1  0.967727  0.032649  0.756447  1
  O  O32  1  0.467727  0.967351  0.743553  1
  O  O33  1  0.032273  0.967351  0.243553  1
  O  O34  1  0.564923  0.218587  0.002689  1
  O  O35  1  0.935077  0.218587  0.502689  1
  O  O36  1  0.435077  0.781413  0.997311  1
  O  O37  1  0.064923  0.781413  0.497311  1
  O  O38  1  0.896193  0.810781  0.125327  1
  O  O39  1  0.603807  0.810781  0.625327  1
  O  O40  1  0.103807  0.189219  0.874673  1
  O  O41  1  0.396193  0.189219  0.374673  1
  O  O42  1  0.690851  0.446644  0.860235  1
  O  O43  1  0.809149  0.446644  0.360235  1
  O  O44  1  0.309149  0.553356  0.139765  1
  O  O45  1  0.190851  0.553356  0.639765  1
  O  O46  1  0.523123  0.419269  0.162856  1
  O  O47  1  0.976877  0.419269  0.662856  1
  O  O48  1  0.476877  0.580731  0.837144  1
  O  O49  1  0.023123  0.580731  0.337144  1
  O  O50  1  0.743456  0.104152  0.013284  1
  O  O51  1  0.756544  0.104152  0.513284  1
  O  O52  1  0.256544  0.895848  0.986716  1
  O  O53  1  0.243456  0.895848  0.486716  1
  O  O54  1  0.640872  0.650630  0.971948  1
  O  O55  1  0.859128  0.650630  0.471948  1
  O  O56  1  0.359128  0.349370  0.028052  1
  O  O57  1  0.140872  0.349370  0.528052  1
  O  O58  1  0.749661  0.802951  0.807779  1
  O  O59  1  0.750339  0.802951  0.307779  1
  O  O60  1  0.250339  0.197049  0.192221  1
  O  O61  1  0.249661  0.197049  0.692221  1
  O  O62  1  0.817193  0.523023  0.980529  1
  O  O63  1  0.682807  0.523023  0.480529  1
  O  O64  1  0.182807  0.476977  0.019471  1
  O  O65  1  0.317193  0.476977  0.519471  1
  O  O66  1  0.959232  0.460353  0.155749  1
  O  O67  1  0.540768  0.460353  0.655749  1
  O  O68  1  0.040768  0.539647  0.844251  1
  O  O69  1  0.459232  0.539647  0.344251  1
  O  O70  1  0.002854  0.765655  0.984088  1
  O  O71  1  0.497146  0.765655  0.484088  1
  O  O72  1  0.997146  0.234345  0.015912  1
  O  O73  1  0.502854  0.234345  0.515912  1
  O  O74  1  0.691042  0.243449  0.205259  1
  O  O75  1  0.808958  0.243449  0.705259  1
  O  O76  1  0.308958  0.756551  0.794741  1
  O  O77  1  0.191042  0.756551  0.294741  1
