# generated using pymatgen
data_Sc2BeB2RuRh4
_symmetry_space_group_name_H-M   'P 1'
_cell_length_a   9.23838400
_cell_length_b   2.98522800
_cell_length_c   9.23838400
_cell_angle_alpha   90.00000000
_cell_angle_beta   90.00000000
_cell_angle_gamma   90.00000000
_symmetry_Int_Tables_number   1
_chemical_formula_structural   Sc2BeB2RuRh4
_chemical_formula_sum   'Sc4 Be2 B4 Ru2 Rh8'
_cell_volume   254.78245999
_cell_formula_units_Z   2
loop_
 _symmetry_equiv_pos_site_id
 _symmetry_equiv_pos_as_xyz
  1  'x, y, z'
loop_
 _atom_site_type_symbol
 _atom_site_label
 _atom_site_symmetry_multiplicity
 _atom_site_fract_x
 _atom_site_fract_y
 _atom_site_fract_z
 _atom_site_occupancy
  Sc  Sc0  1  0.673950  0.000000  0.173949  1
  Sc  Sc1  1  0.173949  0.000000  0.326050  1
  Sc  Sc2  1  0.826051  0.000000  0.673950  1
  Sc  Sc3  1  0.326050  0.000000  0.826051  1
  Be  Be4  1  0.000000  0.000000  0.000000  1
  Be  Be5  1  0.500000  0.000000  0.500000  1
  B  B6  1  0.374593  0.000000  0.125406  1
  B  B7  1  0.874594  0.000000  0.374593  1
  B  B8  1  0.125406  0.000000  0.625405  1
  B  B9  1  0.625405  0.000000  0.874594  1
  Ru  Ru10  1  0.500000  0.500000  0.000000  1
  Ru  Ru11  1  0.000000  0.500000  0.500000  1
  Rh  Rh12  1  0.207926  0.500000  0.068962  1
  Rh  Rh13  1  0.931038  0.500000  0.207926  1
  Rh  Rh14  1  0.431038  0.500000  0.292073  1
  Rh  Rh15  1  0.707927  0.500000  0.431038  1
  Rh  Rh16  1  0.292073  0.500000  0.568962  1
  Rh  Rh17  1  0.568962  0.500000  0.707927  1
  Rh  Rh18  1  0.068962  0.500000  0.792073  1
  Rh  Rh19  1  0.792073  0.500000  0.931038  1
