# generated using pymatgen
data_YCoOs2C
_symmetry_space_group_name_H-M   'P 1'
_cell_length_a   5.63325139
_cell_length_b   5.63325058
_cell_length_c   7.44532700
_cell_angle_alpha   90.00000000
_cell_angle_beta   90.00000000
_cell_angle_gamma   140.31728763
_symmetry_Int_Tables_number   1
_chemical_formula_structural   YCoOs2C
_chemical_formula_sum   'Y2 Co2 Os4 C2'
_cell_volume   150.86452265
_cell_formula_units_Z   2
loop_
 _symmetry_equiv_pos_site_id
 _symmetry_equiv_pos_as_xyz
  1  'x, y, z'
loop_
 _atom_site_type_symbol
 _atom_site_label
 _atom_site_symmetry_multiplicity
 _atom_site_fract_x
 _atom_site_fract_y
 _atom_site_fract_z
 _atom_site_occupancy
  Y  Y0  1  0.535551  0.464449  0.250000  1
  Y  Y1  1  0.464449  0.535551  0.750000  1
  Co  Co2  1  0.263219  0.736781  0.250000  1
  Co  Co3  1  0.736781  0.263219  0.750000  1
  Os  Os4  1  0.825630  0.174370  0.061523  1
  Os  Os5  1  0.174370  0.825630  0.938477  1
  Os  Os6  1  0.174370  0.825630  0.561523  1
  Os  Os7  1  0.825630  0.174370  0.438477  1
  C  C8  1  0.000000  0.000000  0.000000  1
  C  C9  1  0.000000  0.000000  0.500000  1
