# generated using pymatgen
data_Pr6Sm5In9Rh4
_symmetry_space_group_name_H-M   'P 1'
_cell_length_a   13.38019658
_cell_length_b   13.38319677
_cell_length_c   3.84241900
_cell_angle_alpha   90.00000000
_cell_angle_beta   90.00000000
_cell_angle_gamma   112.21839159
_symmetry_Int_Tables_number   1
_chemical_formula_structural   Pr6Sm5In9Rh4
_chemical_formula_sum   'Pr6 Sm5 In9 Rh4'
_cell_volume   636.97215640
_cell_formula_units_Z   1
loop_
 _symmetry_equiv_pos_site_id
 _symmetry_equiv_pos_as_xyz
  1  'x, y, z'
loop_
 _atom_site_type_symbol
 _atom_site_label
 _atom_site_symmetry_multiplicity
 _atom_site_fract_x
 _atom_site_fract_y
 _atom_site_fract_z
 _atom_site_occupancy
  Pr  Pr0  1  0.500469  0.500048  0.500000  1
  Pr  Pr1  1  0.080712  0.422077  0.500000  1
  Pr  Pr2  1  0.126732  0.873098  0.500000  1
  Pr  Pr3  1  0.873434  0.126413  0.500000  1
  Pr  Pr4  1  0.341257  0.659738  0.500000  1
  Pr  Pr5  1  0.658622  0.340502  0.500000  1
  Sm  Sm6  1  0.813017  0.813042  0.500000  1
  Sm  Sm7  1  0.187076  0.186654  0.500000  1
  Sm  Sm8  1  0.580426  0.919702  0.500000  1
  Sm  Sm9  1  0.419601  0.080349  0.500000  1
  Sm  Sm10  1  0.919811  0.580899  0.500000  1
  In  In11  1  0.340652  0.867311  0.000000  1
  In  In12  1  0.658937  0.132702  0.000000  1
  In  In13  1  0.864939  0.339313  0.000000  1
  In  In14  1  0.133332  0.661484  0.000000  1
  In  In15  1  0.580274  0.722161  0.000000  1
  In  In16  1  0.419704  0.277547  0.000000  1
  In  In17  1  0.722547  0.580803  0.000000  1
  In  In18  1  0.279308  0.418814  0.000000  1
  In  In19  1  0.999858  0.999774  0.000000  1
  Rh  Rh20  1  0.746185  0.951994  0.000000  1
  Rh  Rh21  1  0.253987  0.048089  0.000000  1
  Rh  Rh22  1  0.951573  0.746415  0.000000  1
  Rh  Rh23  1  0.047545  0.251069  0.000000  1
