# generated using pymatgen
data_ZrPa2(Al3Fe)4
_symmetry_space_group_name_H-M   'P 1'
_cell_length_a   8.64813287
_cell_length_b   8.64813298
_cell_length_c   9.13062000
_cell_angle_alpha   90.00000000
_cell_angle_beta   90.00000000
_cell_angle_gamma   120.07527232
_symmetry_Int_Tables_number   1
_chemical_formula_structural   ZrPa2(Al3Fe)4
_chemical_formula_sum   'Zr2 Pa4 Al24 Fe8'
_cell_volume   590.94315027
_cell_formula_units_Z   2
loop_
 _symmetry_equiv_pos_site_id
 _symmetry_equiv_pos_as_xyz
  1  'x, y, z'
loop_
 _atom_site_type_symbol
 _atom_site_label
 _atom_site_symmetry_multiplicity
 _atom_site_fract_x
 _atom_site_fract_y
 _atom_site_fract_z
 _atom_site_occupancy
  Zr  Zr0  1  0.800147  0.199853  0.750000  1
  Zr  Zr1  1  0.199853  0.800147  0.250000  1
  Pa  Pa2  1  0.393514  0.198328  0.750000  1
  Pa  Pa3  1  0.606486  0.801672  0.250000  1
  Pa  Pa4  1  0.801672  0.606486  0.750000  1
  Pa  Pa5  1  0.198328  0.393514  0.250000  1
  Al  Al6  1  0.669191  0.330809  0.987667  1
  Al  Al7  1  0.330809  0.669191  0.012333  1
  Al  Al8  1  0.330809  0.669191  0.487667  1
  Al  Al9  1  0.669191  0.330809  0.512333  1
  Al  Al10  1  0.839361  0.160639  0.424436  1
  Al  Al11  1  0.160639  0.839361  0.575564  1
  Al  Al12  1  0.320532  0.156474  0.421679  1
  Al  Al13  1  0.160639  0.839361  0.924436  1
  Al  Al14  1  0.679468  0.843526  0.578321  1
  Al  Al15  1  0.839361  0.160639  0.075564  1
  Al  Al16  1  0.843526  0.679468  0.421679  1
  Al  Al17  1  0.679468  0.843526  0.921679  1
  Al  Al18  1  0.156474  0.320532  0.578321  1
  Al  Al19  1  0.320532  0.156474  0.078321  1
  Al  Al20  1  0.156474  0.320532  0.921679  1
  Al  Al21  1  0.843526  0.679468  0.078321  1
  Al  Al22  1  0.437698  0.562302  0.750000  1
  Al  Al23  1  0.562302  0.437698  0.250000  1
  Al  Al24  1  0.116364  0.557005  0.750000  1
  Al  Al25  1  0.883636  0.442995  0.250000  1
  Al  Al26  1  0.442995  0.883636  0.750000  1
  Al  Al27  1  0.557005  0.116364  0.250000  1
  Al  Al28  1  0.996426  0.003574  0.750000  1
  Al  Al29  1  0.003574  0.996426  0.250000  1
  Fe  Fe30  1  0.500000  0.500000  0.000000  1
  Fe  Fe31  1  0.000000  0.500000  0.000000  1
  Fe  Fe32  1  0.500000  0.500000  0.500000  1
  Fe  Fe33  1  0.500000  0.000000  0.000000  1
  Fe  Fe34  1  0.000000  0.500000  0.500000  1
  Fe  Fe35  1  0.500000  0.000000  0.500000  1
  Fe  Fe36  1  0.000000  0.000000  0.000000  1
  Fe  Fe37  1  0.000000  0.000000  0.500000  1
