# generated using pymatgen
data_Yb4ScNi(RuO6)2
_symmetry_space_group_name_H-M   'P 1'
_cell_length_a   5.33931572
_cell_length_b   5.61935068
_cell_length_c   7.69019037
_cell_angle_alpha   89.41255100
_cell_angle_beta   89.85393990
_cell_angle_gamma   89.97364388
_symmetry_Int_Tables_number   1
_chemical_formula_structural   Yb4ScNi(RuO6)2
_chemical_formula_sum   'Yb4 Sc1 Ni1 Ru2 O12'
_cell_volume   230.71963135
_cell_formula_units_Z   1
loop_
 _symmetry_equiv_pos_site_id
 _symmetry_equiv_pos_as_xyz
  1  'x, y, z'
loop_
 _atom_site_type_symbol
 _atom_site_label
 _atom_site_symmetry_multiplicity
 _atom_site_fract_x
 _atom_site_fract_y
 _atom_site_fract_z
 _atom_site_occupancy
  Yb  Yb0  1  0.518119  0.926218  0.761925  1
  Yb  Yb1  1  0.021478  0.564844  0.240709  1
  Yb  Yb2  1  0.978522  0.435156  0.759291  1
  Yb  Yb3  1  0.481881  0.073782  0.238075  1
  Sc  Sc4  1  0.000000  0.000000  0.500000  1
  Ni  Ni5  1  0.500000  0.500000  0.000000  1
  Ru  Ru6  1  0.500000  0.500000  0.500000  1
  Ru  Ru7  1  0.000000  0.000000  0.000000  1
  O  O8  1  0.203627  0.308596  0.444039  1
  O  O9  1  0.685164  0.207029  0.557803  1
  O  O10  1  0.298982  0.809667  0.047546  1
  O  O11  1  0.814769  0.707802  0.949972  1
  O  O12  1  0.796373  0.691404  0.555961  1
  O  O13  1  0.314836  0.792971  0.442197  1
  O  O14  1  0.701018  0.190333  0.952454  1
  O  O15  1  0.185231  0.292198  0.050028  1
  O  O16  1  0.602731  0.471223  0.258445  1
  O  O17  1  0.101435  0.032017  0.757062  1
  O  O18  1  0.898565  0.967983  0.242938  1
  O  O19  1  0.397269  0.528777  0.741555  1
