# generated using pymatgen
data_Na20TaNb(AlP6)2
_symmetry_space_group_name_H-M   'P 1'
_cell_length_a   7.35125212
_cell_length_b   8.12469329
_cell_length_c   15.45798421
_cell_angle_alpha   59.12581353
_cell_angle_beta   89.98039029
_cell_angle_gamma   89.98505455
_symmetry_Int_Tables_number   1
_chemical_formula_structural   Na20TaNb(AlP6)2
_chemical_formula_sum   'Na20 Ta1 Nb1 Al2 P12'
_cell_volume   792.42525165
_cell_formula_units_Z   1
loop_
 _symmetry_equiv_pos_site_id
 _symmetry_equiv_pos_as_xyz
  1  'x, y, z'
loop_
 _atom_site_type_symbol
 _atom_site_label
 _atom_site_symmetry_multiplicity
 _atom_site_fract_x
 _atom_site_fract_y
 _atom_site_fract_z
 _atom_site_occupancy
  Na  Na0  1  0.738385  0.941573  0.245710  1
  Na  Na1  1  0.261677  0.941571  0.745753  1
  Na  Na2  1  0.773093  0.055190  0.760816  1
  Na  Na3  1  0.226939  0.055174  0.260697  1
  Na  Na4  1  0.266222  0.245343  0.418672  1
  Na  Na5  1  0.733777  0.245194  0.918742  1
  Na  Na6  1  0.217788  0.751299  0.579290  1
  Na  Na7  1  0.782089  0.751290  0.079275  1
  Na  Na8  1  0.087218  0.345560  0.582920  1
  Na  Na9  1  0.912809  0.345593  0.082923  1
  Na  Na10  1  0.404730  0.656776  0.418599  1
  Na  Na11  1  0.595250  0.656816  0.918587  1
  Na  Na12  1  0.596551  0.336062  0.242866  1
  Na  Na13  1  0.403473  0.336061  0.742861  1
  Na  Na14  1  0.909101  0.662921  0.760258  1
  Na  Na15  1  0.090871  0.662973  0.260235  1
  Na  Na16  1  0.771485  0.424211  0.407681  1
  Na  Na17  1  0.228560  0.423980  0.907784  1
  Na  Na18  1  0.742034  0.577946  0.589925  1
  Na  Na19  1  0.258053  0.578086  0.089919  1
  Ta  Ta20  1  0.615963  0.989869  0.578577  1
  Nb  Nb21  1  0.384281  0.989840  0.078601  1
  Al  Al22  1  0.888748  0.012277  0.415741  1
  Al  Al23  1  0.111329  0.012303  0.915785  1
  P  P24  1  0.980017  0.313738  0.273865  1
  P  P25  1  0.019993  0.313775  0.773855  1
  P  P26  1  0.520396  0.694144  0.724179  1
  P  P27  1  0.479779  0.693305  0.224667  1
  P  P28  1  0.943553  0.019094  0.572086  1
  P  P29  1  0.055591  0.019182  0.071935  1
  P  P30  1  0.547718  0.979515  0.428924  1
  P  P31  1  0.452124  0.979487  0.928490  1
  P  P32  1  0.002991  0.729006  0.421328  1
  P  P33  1  0.997060  0.729041  0.921290  1
  P  P34  1  0.491724  0.265437  0.578557  1
  P  P35  1  0.508627  0.266368  0.078609  1
