# generated using pymatgen
data_Y4Co20(As3P)3
_symmetry_space_group_name_H-M   'P 1'
_cell_length_a   3.74379200
_cell_length_b   12.07908242
_cell_length_c   10.57445927
_cell_angle_alpha   90.05591800
_cell_angle_beta   90.00000000
_cell_angle_gamma   90.00000000
_symmetry_Int_Tables_number   1
_chemical_formula_structural   Y4Co20(As3P)3
_chemical_formula_sum   'Y4 Co20 As9 P3'
_cell_volume   478.19344512
_cell_formula_units_Z   1
loop_
 _symmetry_equiv_pos_site_id
 _symmetry_equiv_pos_as_xyz
  1  'x, y, z'
loop_
 _atom_site_type_symbol
 _atom_site_label
 _atom_site_symmetry_multiplicity
 _atom_site_fract_x
 _atom_site_fract_y
 _atom_site_fract_z
 _atom_site_occupancy
  Y  Y0  1  0.750000  0.706269  0.083176  1
  Y  Y1  1  0.250000  0.297126  0.918070  1
  Y  Y2  1  0.250000  0.792040  0.582627  1
  Y  Y3  1  0.750000  0.209246  0.417563  1
  Co  Co4  1  0.750000  0.694745  0.388652  1
  Co  Co5  1  0.250000  0.306546  0.609619  1
  Co  Co6  1  0.250000  0.803103  0.888188  1
  Co  Co7  1  0.750000  0.197093  0.117678  1
  Co  Co8  1  0.750000  0.985776  0.207865  1
  Co  Co9  1  0.250000  0.009034  0.788156  1
  Co  Co10  1  0.250000  0.514837  0.706254  1
  Co  Co11  1  0.750000  0.486140  0.294319  1
  Co  Co12  1  0.750000  0.674733  0.771797  1
  Co  Co13  1  0.250000  0.326262  0.228469  1
  Co  Co14  1  0.250000  0.824625  0.273312  1
  Co  Co15  1  0.750000  0.179118  0.716138  1
  Co  Co16  1  0.750000  0.927975  0.975473  1
  Co  Co17  1  0.250000  0.061839  0.034794  1
  Co  Co18  1  0.250000  0.566171  0.471795  1
  Co  Co19  1  0.750000  0.435519  0.527609  1
  Co  Co20  1  0.750000  0.988316  0.593292  1
  Co  Co21  1  0.250000  0.010478  0.406196  1
  Co  Co22  1  0.250000  0.510988  0.094352  1
  Co  Co23  1  0.750000  0.489716  0.906396  1
  As  As24  1  0.750000  0.111728  0.915954  1
  As  As25  1  0.750000  0.889291  0.399283  1
  As  As26  1  0.250000  0.110404  0.599291  1
  As  As27  1  0.250000  0.610142  0.899075  1
  As  As28  1  0.750000  0.390680  0.102110  1
  As  As29  1  0.750000  0.869662  0.769679  1
  As  As30  1  0.250000  0.130563  0.232923  1
  As  As31  1  0.250000  0.629912  0.269853  1
  As  As32  1  0.750000  0.372267  0.729642  1
  P  P33  1  0.750000  0.611451  0.579399  1
  P  P34  1  0.250000  0.390154  0.420202  1
  P  P35  1  0.250000  0.886050  0.080799  1
