# generated using pymatgen
data_Li2Nd3Th(AlRh2)2
_symmetry_space_group_name_H-M   'P 1'
_cell_length_a   4.09881900
_cell_length_b   7.10342440
_cell_length_c   8.51145076
_cell_angle_alpha   90.08900277
_cell_angle_beta   90.00000000
_cell_angle_gamma   90.00000000
_symmetry_Int_Tables_number   1
_chemical_formula_structural   Li2Nd3Th(AlRh2)2
_chemical_formula_sum   'Li2 Nd3 Th1 Al2 Rh4'
_cell_volume   247.81612986
_cell_formula_units_Z   1
loop_
 _symmetry_equiv_pos_site_id
 _symmetry_equiv_pos_as_xyz
  1  'x, y, z'
loop_
 _atom_site_type_symbol
 _atom_site_label
 _atom_site_symmetry_multiplicity
 _atom_site_fract_x
 _atom_site_fract_y
 _atom_site_fract_z
 _atom_site_occupancy
  Li  Li0  1  0.250000  0.627708  0.555711  1
  Li  Li1  1  0.250000  0.133227  0.945147  1
  Nd  Nd2  1  0.750000  0.459365  0.814250  1
  Nd  Nd3  1  0.750000  0.956381  0.684084  1
  Nd  Nd4  1  0.250000  0.037906  0.316709  1
  Th  Th5  1  0.250000  0.538903  0.183642  1
  Al  Al6  1  0.750000  0.366442  0.445940  1
  Al  Al7  1  0.750000  0.878914  0.057059  1
  Rh  Rh8  1  0.250000  0.759187  0.903759  1
  Rh  Rh9  1  0.750000  0.259082  0.131892  1
  Rh  Rh10  1  0.750000  0.728904  0.357433  1
  Rh  Rh11  1  0.250000  0.253979  0.604374  1
