# generated using pymatgen
data_ErBe12Cu
_symmetry_space_group_name_H-M   'P 1'
_cell_length_a   7.24377436
_cell_length_b   7.29426687
_cell_length_c   7.22608939
_cell_angle_alpha   59.84838252
_cell_angle_beta   59.85474509
_cell_angle_gamma   59.60843952
_symmetry_Int_Tables_number   1
_chemical_formula_structural   ErBe12Cu
_chemical_formula_sum   'Er2 Be24 Cu2'
_cell_volume   268.57212432
_cell_formula_units_Z   2
loop_
 _symmetry_equiv_pos_site_id
 _symmetry_equiv_pos_as_xyz
  1  'x, y, z'
loop_
 _atom_site_type_symbol
 _atom_site_label
 _atom_site_symmetry_multiplicity
 _atom_site_fract_x
 _atom_site_fract_y
 _atom_site_fract_z
 _atom_site_occupancy
  Er  Er0  1  0.252483  0.247517  0.252483  1
  Er  Er1  1  0.747517  0.752483  0.747517  1
  Be  Be2  1  0.500000  0.500000  0.500000  1
  Be  Be3  1  0.000000  0.000000  0.000000  1
  Be  Be4  1  0.564559  0.794480  0.435441  1
  Be  Be5  1  0.435441  0.205520  0.564559  1
  Be  Be6  1  0.289896  0.935783  0.710104  1
  Be  Be7  1  0.710104  0.064217  0.289896  1
  Be  Be8  1  0.931460  0.278736  0.068540  1
  Be  Be9  1  0.068540  0.721264  0.931460  1
  Be  Be10  1  0.207497  0.800714  0.557054  1
  Be  Be11  1  0.792503  0.199286  0.442946  1
  Be  Be12  1  0.442946  0.565264  0.792503  1
  Be  Be13  1  0.557054  0.434736  0.207497  1
  Be  Be14  1  0.711470  0.286553  0.936288  1
  Be  Be15  1  0.288530  0.713447  0.063712  1
  Be  Be16  1  0.063712  0.934310  0.288530  1
  Be  Be17  1  0.936288  0.065690  0.711470  1
  Be  Be18  1  0.566362  0.205862  0.791756  1
  Be  Be19  1  0.433638  0.794138  0.208244  1
  Be  Be20  1  0.791756  0.436020  0.566362  1
  Be  Be21  1  0.208244  0.563980  0.433638  1
  Be  Be22  1  0.936012  0.712831  0.291565  1
  Be  Be23  1  0.063988  0.287169  0.708435  1
  Be  Be24  1  0.291565  0.059592  0.936012  1
  Be  Be25  1  0.708435  0.940408  0.063988  1
  Cu  Cu26  1  0.803612  0.557469  0.196388  1
  Cu  Cu27  1  0.196388  0.442531  0.803612  1
