# generated using pymatgen
data_Tb4Dy(GaTe)2
_symmetry_space_group_name_H-M   'P 1'
_cell_length_a   8.67073300
_cell_length_b   8.67073366
_cell_length_c   7.91751900
_cell_angle_alpha   90.00000000
_cell_angle_beta   90.00000000
_cell_angle_gamma   125.81604191
_symmetry_Int_Tables_number   1
_chemical_formula_structural   Tb4Dy(GaTe)2
_chemical_formula_sum   'Tb8 Dy2 Ga4 Te4'
_cell_volume   482.68975216
_cell_formula_units_Z   2
loop_
 _symmetry_equiv_pos_site_id
 _symmetry_equiv_pos_as_xyz
  1  'x, y, z'
loop_
 _atom_site_type_symbol
 _atom_site_label
 _atom_site_symmetry_multiplicity
 _atom_site_fract_x
 _atom_site_fract_y
 _atom_site_fract_z
 _atom_site_occupancy
  Tb  Tb0  1  0.796232  0.539760  0.167507  1
  Tb  Tb1  1  0.460240  0.203768  0.832493  1
  Tb  Tb2  1  0.960240  0.703768  0.667507  1
  Tb  Tb3  1  0.296232  0.039760  0.332493  1
  Tb  Tb4  1  0.203768  0.460240  0.832493  1
  Tb  Tb5  1  0.539760  0.796232  0.167507  1
  Tb  Tb6  1  0.039760  0.296232  0.332493  1
  Tb  Tb7  1  0.703768  0.960240  0.667507  1
  Dy  Dy8  1  0.000000  0.000000  0.000000  1
  Dy  Dy9  1  0.500000  0.500000  0.500000  1
  Ga  Ga10  1  0.872473  0.872473  0.373552  1
  Ga  Ga11  1  0.127527  0.127527  0.626448  1
  Ga  Ga12  1  0.627527  0.627527  0.873552  1
  Ga  Ga13  1  0.372473  0.372473  0.126448  1
  Te  Te14  1  0.204304  0.795696  0.000000  1
  Te  Te15  1  0.704304  0.295696  0.500000  1
  Te  Te16  1  0.795696  0.204304  0.000000  1
  Te  Te17  1  0.295696  0.704304  0.500000  1
