# generated using pymatgen
data_Pr2Sm2AsI5
_symmetry_space_group_name_H-M   'P 1'
_cell_length_a   10.00485811
_cell_length_b   10.00485828
_cell_length_c   9.21584169
_cell_angle_alpha   77.59773787
_cell_angle_beta   77.59773704
_cell_angle_gamma   24.41681753
_symmetry_Int_Tables_number   1
_chemical_formula_structural   Pr2Sm2AsI5
_chemical_formula_sum   'Pr2 Sm2 As1 I5'
_cell_volume   372.00656238
_cell_formula_units_Z   1
loop_
 _symmetry_equiv_pos_site_id
 _symmetry_equiv_pos_as_xyz
  1  'x, y, z'
loop_
 _atom_site_type_symbol
 _atom_site_label
 _atom_site_symmetry_multiplicity
 _atom_site_fract_x
 _atom_site_fract_y
 _atom_site_fract_z
 _atom_site_occupancy
  Pr  Pr0  1  0.500876  0.500876  0.216113  1
  Pr  Pr1  1  0.499124  0.499124  0.783887  1
  Sm  Sm2  1  0.852864  0.852864  0.074697  1
  Sm  Sm3  1  0.147136  0.147136  0.925303  1
  As  As4  1  0.000000  0.000000  0.000000  1
  I  I5  1  0.673329  0.673329  0.166020  1
  I  I6  1  0.326671  0.326671  0.833980  1
  I  I7  1  0.667100  0.667100  0.665743  1
  I  I8  1  0.332900  0.332900  0.334257  1
  I  I9  1  0.000000  0.000000  0.500000  1
