# generated using pymatgen
data_Tm12TlCo4Pt
_symmetry_space_group_name_H-M   'P 1'
_cell_length_a   8.19700093
_cell_length_b   8.19700171
_cell_length_c   8.19700200
_cell_angle_alpha   111.03526338
_cell_angle_beta   110.77333056
_cell_angle_gamma   106.64170393
_symmetry_Int_Tables_number   1
_chemical_formula_structural   Tm12TlCo4Pt
_chemical_formula_sum   'Tm12 Tl1 Co4 Pt1'
_cell_volume   423.20482637
_cell_formula_units_Z   1
loop_
 _symmetry_equiv_pos_site_id
 _symmetry_equiv_pos_as_xyz
  1  'x, y, z'
loop_
 _atom_site_type_symbol
 _atom_site_label
 _atom_site_symmetry_multiplicity
 _atom_site_fract_x
 _atom_site_fract_y
 _atom_site_fract_z
 _atom_site_occupancy
  Tm  Tm0  1  0.417191  0.218604  0.198586  1
  Tm  Tm1  1  0.582809  0.781396  0.801414  1
  Tm  Tm2  1  0.020018  0.218604  0.801414  1
  Tm  Tm3  1  0.979982  0.781396  0.198586  1
  Tm  Tm4  1  0.185309  0.288294  0.473602  1
  Tm  Tm5  1  0.814691  0.711706  0.526398  1
  Tm  Tm6  1  0.185309  0.711706  0.897016  1
  Tm  Tm7  1  0.814691  0.288294  0.102984  1
  Tm  Tm8  1  0.315296  0.620562  0.305266  1
  Tm  Tm9  1  0.684704  0.379438  0.694734  1
  Tm  Tm10  1  0.315296  0.010029  0.694734  1
  Tm  Tm11  1  0.684704  0.989971  0.305266  1
  Tl  Tl12  1  0.500000  0.500000  0.000000  1
  Co  Co13  1  0.377164  0.000000  0.377164  1
  Co  Co14  1  0.622836  0.000000  0.622836  1
  Co  Co15  1  0.112543  0.612543  0.500000  1
  Co  Co16  1  0.887457  0.387457  0.500000  1
  Pt  Pt17  1  0.000000  0.000000  0.000000  1
