# generated using pymatgen
data_NiAs2Pd2Ru
_symmetry_space_group_name_H-M   'P 1'
_cell_length_a   6.54942600
_cell_length_b   3.76746700
_cell_length_c   7.18742400
_cell_angle_alpha   90.00000000
_cell_angle_beta   90.00000000
_cell_angle_gamma   90.00000000
_symmetry_Int_Tables_number   1
_chemical_formula_structural   NiAs2Pd2Ru
_chemical_formula_sum   'Ni2 As4 Pd4 Ru2'
_cell_volume   177.34786392
_cell_formula_units_Z   2
loop_
 _symmetry_equiv_pos_site_id
 _symmetry_equiv_pos_as_xyz
  1  'x, y, z'
loop_
 _atom_site_type_symbol
 _atom_site_label
 _atom_site_symmetry_multiplicity
 _atom_site_fract_x
 _atom_site_fract_y
 _atom_site_fract_z
 _atom_site_occupancy
  Ni  Ni0  1  0.861176  0.750000  0.069663  1
  Ni  Ni1  1  0.361176  0.750000  0.430337  1
  As  As2  1  0.270660  0.250000  0.625926  1
  As  As3  1  0.770660  0.250000  0.874074  1
  As  As4  1  0.725618  0.750000  0.368742  1
  As  As5  1  0.225618  0.750000  0.131258  1
  Pd  Pd6  1  0.036596  0.250000  0.343120  1
  Pd  Pd7  1  0.536596  0.250000  0.156880  1
  Pd  Pd8  1  0.969656  0.750000  0.653460  1
  Pd  Pd9  1  0.469656  0.750000  0.846540  1
  Ru  Ru10  1  0.136293  0.250000  0.936222  1
  Ru  Ru11  1  0.636293  0.250000  0.563778  1
