# generated using pymatgen
data_YbDy2ThPt4
_symmetry_space_group_name_H-M   'P 1'
_cell_length_a   4.51971200
_cell_length_b   5.64139511
_cell_length_c   7.19383158
_cell_angle_alpha   89.16947555
_cell_angle_beta   90.00000000
_cell_angle_gamma   90.00000000
_symmetry_Int_Tables_number   1
_chemical_formula_structural   YbDy2ThPt4
_chemical_formula_sum   'Yb1 Dy2 Th1 Pt4'
_cell_volume   183.40531542
_cell_formula_units_Z   1
loop_
 _symmetry_equiv_pos_site_id
 _symmetry_equiv_pos_as_xyz
  1  'x, y, z'
loop_
 _atom_site_type_symbol
 _atom_site_label
 _atom_site_symmetry_multiplicity
 _atom_site_fract_x
 _atom_site_fract_y
 _atom_site_fract_z
 _atom_site_occupancy
  Yb  Yb0  1  0.250000  0.354386  0.680429  1
  Dy  Dy1  1  0.250000  0.144863  0.186130  1
  Dy  Dy2  1  0.750000  0.640571  0.316341  1
  Th  Th3  1  0.750000  0.856587  0.816112  1
  Pt  Pt4  1  0.750000  0.154124  0.449617  1
  Pt  Pt5  1  0.250000  0.845640  0.540950  1
  Pt  Pt6  1  0.250000  0.665046  0.047412  1
  Pt  Pt7  1  0.750000  0.338783  0.963008  1
