# generated using pymatgen
data_Eu3(GaRh)2
_symmetry_space_group_name_H-M   'P 1'
_cell_length_a   5.83888000
_cell_length_b   7.97622800
_cell_length_c   13.99786600
_cell_angle_alpha   90.00000000
_cell_angle_beta   90.00000000
_cell_angle_gamma   90.00000000
_symmetry_Int_Tables_number   1
_chemical_formula_structural   Eu3(GaRh)2
_chemical_formula_sum   'Eu12 Ga8 Rh8'
_cell_volume   651.91194887
_cell_formula_units_Z   4
loop_
 _symmetry_equiv_pos_site_id
 _symmetry_equiv_pos_as_xyz
  1  'x, y, z'
loop_
 _atom_site_type_symbol
 _atom_site_label
 _atom_site_symmetry_multiplicity
 _atom_site_fract_x
 _atom_site_fract_y
 _atom_site_fract_z
 _atom_site_occupancy
  Eu  Eu0  1  0.631410  0.245502  0.250000  1
  Eu  Eu1  1  0.368590  0.754498  0.750000  1
  Eu  Eu2  1  0.368590  0.745502  0.250000  1
  Eu  Eu3  1  0.631410  0.254498  0.750000  1
  Eu  Eu4  1  0.145787  0.397910  0.096160  1
  Eu  Eu5  1  0.854213  0.602090  0.903840  1
  Eu  Eu6  1  0.854213  0.602090  0.596160  1
  Eu  Eu7  1  0.854213  0.897910  0.403840  1
  Eu  Eu8  1  0.145787  0.397910  0.403840  1
  Eu  Eu9  1  0.145787  0.102090  0.596160  1
  Eu  Eu10  1  0.145787  0.102090  0.903840  1
  Eu  Eu11  1  0.854213  0.897910  0.096160  1
  Ga  Ga12  1  0.151372  0.096499  0.250000  1
  Ga  Ga13  1  0.848628  0.903501  0.750000  1
  Ga  Ga14  1  0.848628  0.596499  0.250000  1
  Ga  Ga15  1  0.151372  0.403501  0.750000  1
  Ga  Ga16  1  0.613103  0.250000  0.000000  1
  Ga  Ga17  1  0.386897  0.750000  0.000000  1
  Ga  Ga18  1  0.386897  0.750000  0.500000  1
  Ga  Ga19  1  0.613103  0.250000  0.500000  1
  Rh  Rh20  1  0.364995  0.029413  0.093729  1
  Rh  Rh21  1  0.635005  0.970587  0.906271  1
  Rh  Rh22  1  0.635005  0.970587  0.593729  1
  Rh  Rh23  1  0.635005  0.529413  0.406271  1
  Rh  Rh24  1  0.364995  0.029413  0.406271  1
  Rh  Rh25  1  0.364995  0.470587  0.593729  1
  Rh  Rh26  1  0.364995  0.470587  0.906271  1
  Rh  Rh27  1  0.635005  0.529413  0.093729  1
