# generated using pymatgen
data_Tm10Ga4Ru5Rh
_symmetry_space_group_name_H-M   'P 1'
_cell_length_a   8.25125896
_cell_length_b   8.25094738
_cell_length_c   8.25094800
_cell_angle_alpha   109.43655701
_cell_angle_beta   109.54432358
_cell_angle_gamma   109.43127709
_symmetry_Int_Tables_number   1
_chemical_formula_structural   Tm10Ga4Ru5Rh
_chemical_formula_sum   'Tm10 Ga4 Ru5 Rh1'
_cell_volume   432.42784629
_cell_formula_units_Z   1
loop_
 _symmetry_equiv_pos_site_id
 _symmetry_equiv_pos_as_xyz
  1  'x, y, z'
loop_
 _atom_site_type_symbol
 _atom_site_label
 _atom_site_symmetry_multiplicity
 _atom_site_fract_x
 _atom_site_fract_y
 _atom_site_fract_z
 _atom_site_occupancy
  Tm  Tm0  1  0.250000  0.679663  0.429663  1
  Tm  Tm1  1  0.750000  0.819837  0.069837  1
  Tm  Tm2  1  0.431643  0.250992  0.679070  1
  Tm  Tm3  1  0.681949  0.431165  0.252473  1
  Tm  Tm4  1  0.068357  0.747427  0.819349  1
  Tm  Tm5  1  0.818051  0.070523  0.749215  1
  Tm  Tm6  1  0.214459  0.216370  0.217281  1
  Tm  Tm7  1  0.500151  0.999922  0.285262  1
  Tm  Tm8  1  0.285541  0.502822  0.001910  1
  Tm  Tm9  1  0.999849  0.285112  0.499770  1
  Ga  Ga10  1  0.588102  0.588219  0.588119  1
  Ga  Ga11  1  0.500903  0.998069  0.910984  1
  Ga  Ga12  1  0.911898  0.500018  0.000118  1
  Ga  Ga13  1  0.999097  0.910081  0.497166  1
  Ru  Ru14  1  0.750000  0.373378  0.623378  1
  Ru  Ru15  1  0.875121  0.249684  0.125458  1
  Ru  Ru16  1  0.127542  0.878049  0.249509  1
  Ru  Ru17  1  0.624878  0.750334  0.374561  1
  Ru  Ru18  1  0.372458  0.621968  0.750508  1
  Rh  Rh19  1  0.250000  0.126368  0.876368  1
