# generated using pymatgen
data_Sc16Si16Tc3W
_symmetry_space_group_name_H-M   'P 1'
_cell_length_a   6.70561889
_cell_length_b   7.02495473
_cell_length_c   13.27692300
_cell_angle_alpha   90.00000000
_cell_angle_beta   90.00000000
_cell_angle_gamma   89.90087929
_symmetry_Int_Tables_number   1
_chemical_formula_structural   Sc16Si16Tc3W
_chemical_formula_sum   'Sc16 Si16 Tc3 W1'
_cell_volume   625.43068327
_cell_formula_units_Z   1
loop_
 _symmetry_equiv_pos_site_id
 _symmetry_equiv_pos_as_xyz
  1  'x, y, z'
loop_
 _atom_site_type_symbol
 _atom_site_label
 _atom_site_symmetry_multiplicity
 _atom_site_fract_x
 _atom_site_fract_y
 _atom_site_fract_z
 _atom_site_occupancy
  Sc  Sc0  1  0.991123  0.678149  0.593763  1
  Sc  Sc1  1  0.008102  0.319843  0.405380  1
  Sc  Sc2  1  0.507807  0.182416  0.406497  1
  Sc  Sc3  1  0.008102  0.319843  0.094620  1
  Sc  Sc4  1  0.489449  0.818868  0.594446  1
  Sc  Sc5  1  0.991123  0.678149  0.906237  1
  Sc  Sc6  1  0.489449  0.818868  0.905554  1
  Sc  Sc7  1  0.507807  0.182416  0.093503  1
  Sc  Sc8  1  0.326441  0.329038  0.626741  1
  Sc  Sc9  1  0.676314  0.670050  0.373645  1
  Sc  Sc10  1  0.178494  0.833501  0.372534  1
  Sc  Sc11  1  0.676314  0.670050  0.126355  1
  Sc  Sc12  1  0.820423  0.168942  0.626185  1
  Sc  Sc13  1  0.326441  0.329038  0.873259  1
  Sc  Sc14  1  0.820423  0.168942  0.873815  1
  Sc  Sc15  1  0.178494  0.833501  0.127466  1
  Si  Si16  1  0.014751  0.403568  0.750000  1
  Si  Si17  1  0.987502  0.592785  0.250000  1
  Si  Si18  1  0.489814  0.911267  0.250000  1
  Si  Si19  1  0.514533  0.090314  0.750000  1
  Si  Si20  1  0.284822  0.645961  0.750000  1
  Si  Si21  1  0.715559  0.351270  0.250000  1
  Si  Si22  1  0.216935  0.151572  0.250000  1
  Si  Si23  1  0.784342  0.849222  0.750000  1
  Si  Si24  1  0.159618  0.027021  0.546219  1
  Si  Si25  1  0.839622  0.972529  0.454092  1
  Si  Si26  1  0.335707  0.530536  0.455210  1
  Si  Si27  1  0.839622  0.972529  0.045908  1
  Si  Si28  1  0.662120  0.471366  0.545399  1
  Si  Si29  1  0.159618  0.027021  0.953781  1
  Si  Si30  1  0.662120  0.471366  0.954601  1
  Si  Si31  1  0.335707  0.530536  0.044790  1
  Tc  Tc32  1  0.852842  0.003338  0.250000  1
  Tc  Tc33  1  0.351617  0.500504  0.250000  1
  Tc  Tc34  1  0.648735  0.500722  0.750000  1
  W  W35  1  0.148103  0.994957  0.750000  1
