# generated using pymatgen
data_Lu12Rh7
_symmetry_space_group_name_H-M   'P 1'
_cell_length_a   11.11160900
_cell_length_b   8.11224004
_cell_length_c   11.13026100
_cell_angle_alpha   57.23332683
_cell_angle_beta   90.00000000
_cell_angle_gamma   90.00000000
_symmetry_Int_Tables_number   1
_chemical_formula_structural   Lu12Rh7
_chemical_formula_sum   'Lu24 Rh14'
_cell_volume   843.64146504
_cell_formula_units_Z   2
loop_
 _symmetry_equiv_pos_site_id
 _symmetry_equiv_pos_as_xyz
  1  'x, y, z'
loop_
 _atom_site_type_symbol
 _atom_site_label
 _atom_site_symmetry_multiplicity
 _atom_site_fract_x
 _atom_site_fract_y
 _atom_site_fract_z
 _atom_site_occupancy
  Lu  Lu0  1  0.702181  0.239608  0.528441  1
  Lu  Lu1  1  0.202181  0.760392  0.971559  1
  Lu  Lu2  1  0.845331  0.508190  0.657759  1
  Lu  Lu3  1  0.345331  0.491810  0.842241  1
  Lu  Lu4  1  0.154669  0.491810  0.342241  1
  Lu  Lu5  1  0.654669  0.508190  0.157759  1
  Lu  Lu6  1  0.005965  0.846163  0.364546  1
  Lu  Lu7  1  0.505965  0.153837  0.135454  1
  Lu  Lu8  1  0.994035  0.153837  0.635454  1
  Lu  Lu9  1  0.494035  0.846163  0.864546  1
  Lu  Lu10  1  0.797819  0.239608  0.028441  1
  Lu  Lu11  1  0.297819  0.760392  0.471559  1
  Lu  Lu12  1  0.926256  0.777126  0.093364  1
  Lu  Lu13  1  0.426256  0.222874  0.406636  1
  Lu  Lu14  1  0.073744  0.222874  0.906636  1
  Lu  Lu15  1  0.573744  0.777126  0.593364  1
  Lu  Lu16  1  0.304384  0.242118  0.671251  1
  Lu  Lu17  1  0.804384  0.757882  0.828749  1
  Lu  Lu18  1  0.695616  0.757882  0.328749  1
  Lu  Lu19  1  0.195616  0.242118  0.171251  1
  Lu  Lu20  1  0.918957  0.274981  0.291342  1
  Lu  Lu21  1  0.418957  0.725019  0.208658  1
  Lu  Lu22  1  0.081043  0.725019  0.708658  1
  Lu  Lu23  1  0.581043  0.274981  0.791342  1
  Rh  Rh24  1  0.500000  0.500000  0.500000  1
  Rh  Rh25  1  0.000000  0.500000  0.000000  1
  Rh  Rh26  1  0.640848  0.914996  0.052421  1
  Rh  Rh27  1  0.140848  0.085004  0.447579  1
  Rh  Rh28  1  0.359152  0.085004  0.947579  1
  Rh  Rh29  1  0.859152  0.914996  0.552421  1
  Rh  Rh30  1  0.396355  0.488436  0.102895  1
  Rh  Rh31  1  0.896355  0.511564  0.397105  1
  Rh  Rh32  1  0.603645  0.511564  0.897105  1
  Rh  Rh33  1  0.103645  0.488436  0.602895  1
  Rh  Rh34  1  0.828214  0.110510  0.841500  1
  Rh  Rh35  1  0.328214  0.889490  0.658500  1
  Rh  Rh36  1  0.171786  0.889490  0.158500  1
  Rh  Rh37  1  0.671786  0.110510  0.341500  1
