# generated using pymatgen
data_Mg2U(NbN2)3
_symmetry_space_group_name_H-M   'P 1'
_cell_length_a   5.36430600
_cell_length_b   5.36430577
_cell_length_c   10.83078200
_cell_angle_alpha   90.00000000
_cell_angle_beta   90.00000000
_cell_angle_gamma   120.00000144
_symmetry_Int_Tables_number   1
_chemical_formula_structural   Mg2U(NbN2)3
_chemical_formula_sum   'Mg4 U2 Nb6 N12'
_cell_volume   269.90908836
_cell_formula_units_Z   2
loop_
 _symmetry_equiv_pos_site_id
 _symmetry_equiv_pos_as_xyz
  1  'x, y, z'
loop_
 _atom_site_type_symbol
 _atom_site_label
 _atom_site_symmetry_multiplicity
 _atom_site_fract_x
 _atom_site_fract_y
 _atom_site_fract_z
 _atom_site_occupancy
  Mg  Mg0  1  0.333333  0.666667  0.000000  1
  Mg  Mg1  1  0.333333  0.666667  0.500000  1
  Mg  Mg2  1  0.666667  0.333333  0.500000  1
  Mg  Mg3  1  0.666667  0.333333  0.000000  1
  U  U4  1  0.000000  0.000000  0.500000  1
  U  U5  1  0.000000  0.000000  0.000000  1
  Nb  Nb6  1  0.000000  0.335927  0.250000  1
  Nb  Nb7  1  0.664073  0.000000  0.750000  1
  Nb  Nb8  1  0.335927  0.335927  0.750000  1
  Nb  Nb9  1  0.664073  0.664073  0.250000  1
  Nb  Nb10  1  0.335927  0.000000  0.250000  1
  Nb  Nb11  1  0.000000  0.664073  0.750000  1
  N  N12  1  0.664217  0.664217  0.624711  1
  N  N13  1  0.664217  0.664217  0.875289  1
  N  N14  1  0.335783  0.335783  0.124711  1
  N  N15  1  0.335783  0.335783  0.375289  1
  N  N16  1  0.335783  0.000000  0.875289  1
  N  N17  1  0.335783  0.000000  0.624711  1
  N  N18  1  0.000000  0.664217  0.375289  1
  N  N19  1  0.000000  0.664217  0.124711  1
  N  N20  1  0.664217  0.000000  0.124711  1
  N  N21  1  0.664217  0.000000  0.375289  1
  N  N22  1  0.000000  0.335783  0.875289  1
  N  N23  1  0.000000  0.335783  0.624711  1
