# generated using pymatgen
data_Pr4Er4Tc3B24Ru
_symmetry_space_group_name_H-M   'P 1'
_cell_length_a   3.73390200
_cell_length_b   9.22811193
_cell_length_c   11.69822821
_cell_angle_alpha   89.94068555
_cell_angle_beta   90.00000000
_cell_angle_gamma   90.00000000
_symmetry_Int_Tables_number   1
_chemical_formula_structural   Pr4Er4Tc3B24Ru
_chemical_formula_sum   'Pr4 Er4 Tc3 B24 Ru1'
_cell_volume   403.08406120
_cell_formula_units_Z   1
loop_
 _symmetry_equiv_pos_site_id
 _symmetry_equiv_pos_as_xyz
  1  'x, y, z'
loop_
 _atom_site_type_symbol
 _atom_site_label
 _atom_site_symmetry_multiplicity
 _atom_site_fract_x
 _atom_site_fract_y
 _atom_site_fract_z
 _atom_site_occupancy
  Pr  Pr0  1  0.000000  0.322857  0.414265  1
  Pr  Pr1  1  0.000000  0.675817  0.583987  1
  Pr  Pr2  1  0.000000  0.822823  0.086619  1
  Pr  Pr3  1  0.000000  0.178024  0.915212  1
  Er  Er4  1  0.000000  0.942620  0.368995  1
  Er  Er5  1  0.000000  0.058068  0.631540  1
  Er  Er6  1  0.000000  0.442979  0.131290  1
  Er  Er7  1  0.000000  0.557553  0.868225  1
  Tc  Tc8  1  0.000000  0.639936  0.318535  1
  Tc  Tc9  1  0.000000  0.360068  0.681947  1
  Tc  Tc10  1  0.000000  0.139218  0.180674  1
  B  B11  1  0.500000  0.555617  0.429569  1
  B  B12  1  0.500000  0.444110  0.570062  1
  B  B13  1  0.500000  0.055776  0.070197  1
  B  B14  1  0.500000  0.943607  0.929571  1
  B  B15  1  0.500000  0.750069  0.415261  1
  B  B16  1  0.500000  0.249379  0.584931  1
  B  B17  1  0.500000  0.250703  0.084765  1
  B  B18  1  0.500000  0.750162  0.914800  1
  B  B19  1  0.500000  0.791302  0.265965  1
  B  B20  1  0.500000  0.209013  0.734622  1
  B  B21  1  0.500000  0.291123  0.234126  1
  B  B22  1  0.500000  0.709641  0.765619  1
  B  B23  1  0.500000  0.629412  0.185869  1
  B  B24  1  0.500000  0.370798  0.814529  1
  B  B25  1  0.500000  0.128978  0.313735  1
  B  B26  1  0.500000  0.870590  0.686179  1
  B  B27  1  0.500000  0.984105  0.213388  1
  B  B28  1  0.500000  0.014514  0.787018  1
  B  B29  1  0.500000  0.484540  0.286323  1
  B  B30  1  0.500000  0.515280  0.713209  1
  B  B31  1  0.500000  0.596665  0.026159  1
  B  B32  1  0.500000  0.404636  0.973517  1
  B  B33  1  0.500000  0.095992  0.474117  1
  B  B34  1  0.500000  0.903895  0.526770  1
  Ru  Ru35  1  0.000000  0.860131  0.818410  1
