# generated using pymatgen
data_Tb2Mn5Fe5P6
_symmetry_space_group_name_H-M   'P 1'
_cell_length_a   3.64396500
_cell_length_b   10.37569700
_cell_length_c   12.15146100
_cell_angle_alpha   90.00000000
_cell_angle_beta   90.00000000
_cell_angle_gamma   90.00000000
_symmetry_Int_Tables_number   1
_chemical_formula_structural   Tb2Mn5Fe5P6
_chemical_formula_sum   'Tb4 Mn10 Fe10 P12'
_cell_volume   459.43066061
_cell_formula_units_Z   2
loop_
 _symmetry_equiv_pos_site_id
 _symmetry_equiv_pos_as_xyz
  1  'x, y, z'
loop_
 _atom_site_type_symbol
 _atom_site_label
 _atom_site_symmetry_multiplicity
 _atom_site_fract_x
 _atom_site_fract_y
 _atom_site_fract_z
 _atom_site_occupancy
  Tb  Tb0  1  0.250000  0.584130  0.710856  1
  Tb  Tb1  1  0.250000  0.915870  0.210856  1
  Tb  Tb2  1  0.750000  0.423342  0.290725  1
  Tb  Tb3  1  0.750000  0.076658  0.790725  1
  Mn  Mn4  1  0.250000  0.704956  0.992221  1
  Mn  Mn5  1  0.250000  0.795044  0.492221  1
  Mn  Mn6  1  0.750000  0.291443  0.010826  1
  Mn  Mn7  1  0.750000  0.208557  0.510826  1
  Mn  Mn8  1  0.250000  0.412169  0.491396  1
  Mn  Mn9  1  0.250000  0.087831  0.991396  1
  Mn  Mn10  1  0.750000  0.595695  0.508621  1
  Mn  Mn11  1  0.750000  0.904305  0.008621  1
  Mn  Mn12  1  0.250000  0.218713  0.173745  1
  Mn  Mn13  1  0.250000  0.281287  0.673745  1
  Fe  Fe14  1  0.750000  0.777377  0.828173  1
  Fe  Fe15  1  0.750000  0.722623  0.328173  1
  Fe  Fe16  1  0.250000  0.877527  0.695373  1
  Fe  Fe17  1  0.250000  0.622473  0.195373  1
  Fe  Fe18  1  0.750000  0.127131  0.301008  1
  Fe  Fe19  1  0.750000  0.372869  0.801008  1
  Fe  Fe20  1  0.250000  0.461492  0.933667  1
  Fe  Fe21  1  0.250000  0.038508  0.433667  1
  Fe  Fe22  1  0.750000  0.537112  0.063327  1
  Fe  Fe23  1  0.750000  0.962888  0.563327  1
  P  P24  1  0.250000  0.426450  0.111286  1
  P  P25  1  0.250000  0.073550  0.611286  1
  P  P26  1  0.750000  0.574751  0.886994  1
  P  P27  1  0.750000  0.925249  0.386994  1
  P  P28  1  0.250000  0.265453  0.867846  1
  P  P29  1  0.250000  0.234547  0.367846  1
  P  P30  1  0.750000  0.728873  0.138517  1
  P  P31  1  0.750000  0.771127  0.638517  1
  P  P32  1  0.250000  0.605777  0.381294  1
  P  P33  1  0.250000  0.894223  0.881294  1
  P  P34  1  0.750000  0.405223  0.614125  1
  P  P35  1  0.750000  0.094777  0.114125  1
