# generated using pymatgen
data_CsGd(GaO2)4
_symmetry_space_group_name_H-M   'P 1'
_cell_length_a   6.84958752
_cell_length_b   6.84938667
_cell_length_c   6.84918214
_cell_angle_alpha   134.89491630
_cell_angle_beta   102.88260351
_cell_angle_gamma   94.08215715
_symmetry_Int_Tables_number   1
_chemical_formula_structural   CsGd(GaO2)4
_chemical_formula_sum   'Cs1 Gd1 Ga4 O8'
_cell_volume   209.39785242
_cell_formula_units_Z   1
loop_
 _symmetry_equiv_pos_site_id
 _symmetry_equiv_pos_as_xyz
  1  'x, y, z'
loop_
 _atom_site_type_symbol
 _atom_site_label
 _atom_site_symmetry_multiplicity
 _atom_site_fract_x
 _atom_site_fract_y
 _atom_site_fract_z
 _atom_site_occupancy
  Cs  Cs0  1  0.999989  0.018291  0.018307  1
  Gd  Gd1  1  0.500019  0.913283  0.413270  1
  Ga  Ga2  1  0.874641  0.626582  0.158676  1
  Ga  Ga3  1  0.532131  0.284026  0.158701  1
  Ga  Ga4  1  0.125342  0.284010  0.751905  1
  Ga  Ga5  1  0.467903  0.626594  0.751940  1
  O  O6  1  0.485201  0.273567  0.411959  1
  O  O7  1  0.514788  0.926830  0.788407  1
  O  O8  1  0.774185  0.586930  0.361113  1
  O  O9  1  0.225795  0.586894  0.812745  1
  O  O10  1  0.138417  0.926809  0.412036  1
  O  O11  1  0.861628  0.273565  0.788362  1
  O  O12  1  0.328498  0.424579  0.096063  1
  O  O13  1  0.671463  0.767538  0.096017  1
