# generated using pymatgen
data_Ho8Sc12Si15Ir
_symmetry_space_group_name_H-M   'P 1'
_cell_length_a   7.07115400
_cell_length_b   7.42707695
_cell_length_c   13.93317500
_cell_angle_alpha   90.00000000
_cell_angle_beta   90.00000000
_cell_angle_gamma   90.13068129
_symmetry_Int_Tables_number   1
_chemical_formula_structural   Ho8Sc12Si15Ir
_chemical_formula_sum   'Ho8 Sc12 Si15 Ir1'
_cell_volume   731.74064943
_cell_formula_units_Z   1
loop_
 _symmetry_equiv_pos_site_id
 _symmetry_equiv_pos_as_xyz
  1  'x, y, z'
loop_
 _atom_site_type_symbol
 _atom_site_label
 _atom_site_symmetry_multiplicity
 _atom_site_fract_x
 _atom_site_fract_y
 _atom_site_fract_z
 _atom_site_occupancy
  Ho  Ho0  1  0.011791  0.179895  0.096200  1
  Ho  Ho1  1  0.990480  0.825238  0.904578  1
  Ho  Ho2  1  0.489033  0.676735  0.905149  1
  Ho  Ho3  1  0.990480  0.825238  0.595422  1
  Ho  Ho4  1  0.511424  0.323353  0.096130  1
  Ho  Ho5  1  0.011791  0.179895  0.403800  1
  Ho  Ho6  1  0.511424  0.323353  0.403870  1
  Ho  Ho7  1  0.489033  0.676735  0.594851  1
  Sc  Sc8  1  0.157454  0.502557  0.750000  1
  Sc  Sc9  1  0.838839  0.496876  0.250000  1
  Sc  Sc10  1  0.340530  0.006135  0.250000  1
  Sc  Sc11  1  0.666929  0.996081  0.750000  1
  Sc  Sc12  1  0.318692  0.171818  0.627443  1
  Sc  Sc13  1  0.672448  0.826050  0.373542  1
  Sc  Sc14  1  0.171385  0.678186  0.374002  1
  Sc  Sc15  1  0.672448  0.826050  0.126458  1
  Sc  Sc16  1  0.835485  0.319508  0.627388  1
  Sc  Sc17  1  0.318692  0.171818  0.872557  1
  Sc  Sc18  1  0.835485  0.319508  0.872612  1
  Sc  Sc19  1  0.171385  0.678186  0.125998  1
  Si  Si20  1  0.970431  0.887687  0.250000  1
  Si  Si21  1  0.469671  0.613947  0.250000  1
  Si  Si22  1  0.529120  0.388634  0.750000  1
  Si  Si23  1  0.287172  0.865058  0.750000  1
  Si  Si24  1  0.714364  0.132369  0.250000  1
  Si  Si25  1  0.213994  0.370893  0.250000  1
  Si  Si26  1  0.778530  0.626065  0.750000  1
  Si  Si27  1  0.160063  0.467754  0.537706  1
  Si  Si28  1  0.842299  0.535706  0.461604  1
  Si  Si29  1  0.344440  0.966804  0.460247  1
  Si  Si30  1  0.842299  0.535706  0.038396  1
  Si  Si31  1  0.656372  0.034052  0.538451  1
  Si  Si32  1  0.160063  0.467754  0.962294  1
  Si  Si33  1  0.656372  0.034052  0.961549  1
  Si  Si34  1  0.344440  0.966804  0.039753  1
  Ir  Ir35  1  0.025139  0.103501  0.750000  1
