# generated using pymatgen
data_KSn3PtAu2
_symmetry_space_group_name_H-M   'P 1'
_cell_length_a   4.71620500
_cell_length_b   7.74297800
_cell_length_c   9.25465100
_cell_angle_alpha   90.00000000
_cell_angle_beta   90.00000000
_cell_angle_gamma   90.00000000
_symmetry_Int_Tables_number   1
_chemical_formula_structural   KSn3PtAu2
_chemical_formula_sum   'K2 Sn6 Pt2 Au4'
_cell_volume   337.95645468
_cell_formula_units_Z   2
loop_
 _symmetry_equiv_pos_site_id
 _symmetry_equiv_pos_as_xyz
  1  'x, y, z'
loop_
 _atom_site_type_symbol
 _atom_site_label
 _atom_site_symmetry_multiplicity
 _atom_site_fract_x
 _atom_site_fract_y
 _atom_site_fract_z
 _atom_site_occupancy
  K  K0  1  0.000000  0.500000  0.260754  1
  K  K1  1  0.500000  0.000000  0.739246  1
  Sn  Sn2  1  0.500000  0.200314  0.112096  1
  Sn  Sn3  1  0.500000  0.799686  0.112096  1
  Sn  Sn4  1  0.000000  0.700314  0.887904  1
  Sn  Sn5  1  0.000000  0.299686  0.887904  1
  Sn  Sn6  1  0.000000  0.000000  0.365613  1
  Sn  Sn7  1  0.500000  0.500000  0.634387  1
  Pt  Pt8  1  0.000000  0.000000  0.065307  1
  Pt  Pt9  1  0.500000  0.500000  0.934693  1
  Au  Au10  1  0.500000  0.778919  0.413617  1
  Au  Au11  1  0.000000  0.721081  0.586383  1
  Au  Au12  1  0.000000  0.278919  0.586383  1
  Au  Au13  1  0.500000  0.221081  0.413617  1
