# generated using pymatgen
data_SbTe11(RhI3)2
_symmetry_space_group_name_H-M   'P 1'
_cell_length_a   10.04778877
_cell_length_b   9.93347422
_cell_length_c   10.16831081
_cell_angle_alpha   109.89436091
_cell_angle_beta   108.88109118
_cell_angle_gamma   108.90754860
_symmetry_Int_Tables_number   1
_chemical_formula_structural   SbTe11(RhI3)2
_chemical_formula_sum   'Sb1 Te11 Rh2 I6'
_cell_volume   788.17119985
_cell_formula_units_Z   1
loop_
 _symmetry_equiv_pos_site_id
 _symmetry_equiv_pos_as_xyz
  1  'x, y, z'
loop_
 _atom_site_type_symbol
 _atom_site_label
 _atom_site_symmetry_multiplicity
 _atom_site_fract_x
 _atom_site_fract_y
 _atom_site_fract_z
 _atom_site_occupancy
  Sb  Sb0  1  0.954592  0.170813  0.178965  1
  Te  Te1  1  0.173777  0.940308  0.162695  1
  Te  Te2  1  0.167733  0.192389  0.951593  1
  Te  Te3  1  0.688178  0.672382  0.448785  1
  Te  Te4  1  0.443081  0.688006  0.666527  1
  Te  Te5  1  0.664374  0.438250  0.678646  1
  Te  Te6  1  0.057629  0.840199  0.822362  1
  Te  Te7  1  0.818239  0.066999  0.845938  1
  Te  Te8  1  0.822344  0.801697  0.050614  1
  Te  Te9  1  0.319935  0.338130  0.557809  1
  Te  Te10  1  0.567521  0.313070  0.340070  1
  Te  Te11  1  0.349052  0.567086  0.325305  1
  Rh  Rh12  1  0.257221  0.255041  0.254338  1
  Rh  Rh13  1  0.749829  0.753052  0.753136  1
  I  I14  1  0.981264  0.498594  0.257593  1
  I  I15  1  0.247503  0.986820  0.500435  1
  I  I16  1  0.500643  0.246722  0.989534  1
  I  I17  1  0.745508  0.997804  0.468632  1
  I  I18  1  0.484590  0.742126  0.998376  1
  I  I19  1  0.006985  0.490514  0.748647  1
