# generated using pymatgen
data_Nd5SmAl18(Tc3Os4)2
_symmetry_space_group_name_H-M   'P 1'
_cell_length_a   8.90551907
_cell_length_b   8.90551856
_cell_length_c   9.69472700
_cell_angle_alpha   90.00000000
_cell_angle_beta   90.00000000
_cell_angle_gamma   120.01458195
_symmetry_Int_Tables_number   1
_chemical_formula_structural   Nd5SmAl18(Tc3Os4)2
_chemical_formula_sum   'Nd5 Sm1 Al18 Tc6 Os8'
_cell_volume   665.76480644
_cell_formula_units_Z   1
loop_
 _symmetry_equiv_pos_site_id
 _symmetry_equiv_pos_as_xyz
  1  'x, y, z'
loop_
 _atom_site_type_symbol
 _atom_site_label
 _atom_site_symmetry_multiplicity
 _atom_site_fract_x
 _atom_site_fract_y
 _atom_site_fract_z
 _atom_site_occupancy
  Nd  Nd0  1  0.194658  0.389133  0.250000  1
  Nd  Nd1  1  0.805474  0.610524  0.750000  1
  Nd  Nd2  1  0.610867  0.805342  0.250000  1
  Nd  Nd3  1  0.389476  0.194526  0.750000  1
  Nd  Nd4  1  0.194607  0.805393  0.250000  1
  Sm  Sm5  1  0.804655  0.195345  0.750000  1
  Al  Al6  1  0.333349  0.666651  0.007305  1
  Al  Al7  1  0.666822  0.333178  0.991932  1
  Al  Al8  1  0.666822  0.333178  0.508068  1
  Al  Al9  1  0.333349  0.666651  0.492695  1
  Al  Al10  1  0.165289  0.331389  0.575994  1
  Al  Al11  1  0.833985  0.668225  0.424513  1
  Al  Al12  1  0.668611  0.834711  0.575994  1
  Al  Al13  1  0.833985  0.668225  0.075487  1
  Al  Al14  1  0.331775  0.166015  0.424513  1
  Al  Al15  1  0.165289  0.331389  0.924006  1
  Al  Al16  1  0.165816  0.834184  0.575733  1
  Al  Al17  1  0.331775  0.166015  0.075487  1
  Al  Al18  1  0.834231  0.165769  0.425095  1
  Al  Al19  1  0.668611  0.834711  0.924006  1
  Al  Al20  1  0.834231  0.165769  0.074905  1
  Al  Al21  1  0.165816  0.834184  0.924267  1
  Al  Al22  1  0.000002  0.999998  0.250000  1
  Al  Al23  1  0.999491  0.000509  0.750000  1
  Tc  Tc24  1  0.574367  0.148605  0.250000  1
  Tc  Tc25  1  0.426414  0.851963  0.750000  1
  Tc  Tc26  1  0.851395  0.425633  0.250000  1
  Tc  Tc27  1  0.148037  0.573586  0.750000  1
  Tc  Tc28  1  0.574315  0.425685  0.250000  1
  Tc  Tc29  1  0.425848  0.574152  0.750000  1
  Os  Os30  1  0.500658  0.000345  0.999158  1
  Os  Os31  1  0.999655  0.499342  0.999158  1
  Os  Os32  1  0.500658  0.000345  0.500842  1
  Os  Os33  1  0.500026  0.499974  0.999793  1
  Os  Os34  1  0.999655  0.499342  0.500842  1
  Os  Os35  1  0.500026  0.499974  0.500207  1
  Os  Os36  1  0.999980  0.000020  0.999887  1
  Os  Os37  1  0.999980  0.000020  0.500113  1
