# generated using pymatgen
data_Y8Er2IrRu3
_symmetry_space_group_name_H-M   'P 1'
_cell_length_a   6.36837577
_cell_length_b   7.31585324
_cell_length_c   8.48009416
_cell_angle_alpha   96.84051396
_cell_angle_beta   111.90695806
_cell_angle_gamma   90.12534155
_symmetry_Int_Tables_number   1
_chemical_formula_structural   Y8Er2IrRu3
_chemical_formula_sum   'Y8 Er2 Ir1 Ru3'
_cell_volume   363.48365149
_cell_formula_units_Z   1
loop_
 _symmetry_equiv_pos_site_id
 _symmetry_equiv_pos_as_xyz
  1  'x, y, z'
loop_
 _atom_site_type_symbol
 _atom_site_label
 _atom_site_symmetry_multiplicity
 _atom_site_fract_x
 _atom_site_fract_y
 _atom_site_fract_z
 _atom_site_occupancy
  Y  Y0  1  0.792468  0.582481  0.815161  1
  Y  Y1  1  0.977821  0.914807  0.186494  1
  Y  Y2  1  0.208322  0.415369  0.185612  1
  Y  Y3  1  0.024743  0.085523  0.815181  1
  Y  Y4  1  0.205578  0.684121  0.565269  1
  Y  Y5  1  0.642037  0.815970  0.433875  1
  Y  Y6  1  0.792937  0.314850  0.433958  1
  Y  Y7  1  0.356552  0.185645  0.564331  1
  Er  Er8  1  0.421826  0.749971  0.000126  1
  Er  Er9  1  0.578586  0.251053  0.000645  1
  Ir  Ir10  1  0.600435  0.924072  0.781325  1
  Ru  Ru11  1  0.820826  0.575895  0.217653  1
  Ru  Ru12  1  0.396848  0.075281  0.218334  1
  Ru  Ru13  1  0.181022  0.424960  0.782033  1
