# generated using pymatgen
data_AcPN3
_symmetry_space_group_name_H-M   'P 1'
_cell_length_a   7.64417463
_cell_length_b   7.64417582
_cell_length_c   5.10053840
_cell_angle_alpha   89.06974814
_cell_angle_beta   89.06974212
_cell_angle_gamma   105.66167105
_symmetry_Int_Tables_number   1
_chemical_formula_structural   AcPN3
_chemical_formula_sum   'Ac4 P4 N12'
_cell_volume   286.87271008
_cell_formula_units_Z   4
loop_
 _symmetry_equiv_pos_site_id
 _symmetry_equiv_pos_as_xyz
  1  'x, y, z'
loop_
 _atom_site_type_symbol
 _atom_site_label
 _atom_site_symmetry_multiplicity
 _atom_site_fract_x
 _atom_site_fract_y
 _atom_site_fract_z
 _atom_site_occupancy
  Ac  Ac0  1  0.299253  0.700747  0.750000  1
  Ac  Ac1  1  0.700747  0.299253  0.250000  1
  Ac  Ac2  1  0.097289  0.902711  0.250000  1
  Ac  Ac3  1  0.902711  0.097289  0.750000  1
  P  P4  1  0.374702  0.236958  0.803010  1
  P  P5  1  0.625298  0.763042  0.196990  1
  P  P6  1  0.763042  0.625298  0.696990  1
  P  P7  1  0.236958  0.374702  0.303010  1
  N  N8  1  0.964490  0.754172  0.733154  1
  N  N9  1  0.761306  0.403886  0.757878  1
  N  N10  1  0.754172  0.964490  0.233154  1
  N  N11  1  0.238694  0.596114  0.242122  1
  N  N12  1  0.035510  0.245828  0.266846  1
  N  N13  1  0.245828  0.035510  0.766846  1
  N  N14  1  0.596114  0.238694  0.742122  1
  N  N15  1  0.619121  0.696326  0.885742  1
  N  N16  1  0.380879  0.303674  0.114258  1
  N  N17  1  0.403886  0.761306  0.257878  1
  N  N18  1  0.696326  0.619121  0.385742  1
  N  N19  1  0.303674  0.380879  0.614258  1
