# generated using pymatgen
data_Ho8TmMg(BiAu2)2
_symmetry_space_group_name_H-M   'P 1'
_cell_length_a   8.71119694
_cell_length_b   8.71119795
_cell_length_c   8.71119817
_cell_angle_alpha   125.64940519
_cell_angle_beta   125.64940925
_cell_angle_gamma   80.46512597
_symmetry_Int_Tables_number   1
_chemical_formula_structural   Ho8TmMg(BiAu2)2
_chemical_formula_sum   'Ho8 Tm1 Mg1 Bi2 Au4'
_cell_volume   421.06749068
_cell_formula_units_Z   1
loop_
 _symmetry_equiv_pos_site_id
 _symmetry_equiv_pos_as_xyz
  1  'x, y, z'
loop_
 _atom_site_type_symbol
 _atom_site_label
 _atom_site_symmetry_multiplicity
 _atom_site_fract_x
 _atom_site_fract_y
 _atom_site_fract_z
 _atom_site_occupancy
  Ho  Ho0  1  0.008397  0.523054  0.812015  1
  Ho  Ho1  1  0.711039  0.196381  0.187985  1
  Ho  Ho2  1  0.523054  0.711039  0.514657  1
  Ho  Ho3  1  0.196381  0.008397  0.485343  1
  Ho  Ho4  1  0.991603  0.476946  0.187985  1
  Ho  Ho5  1  0.288961  0.803619  0.812015  1
  Ho  Ho6  1  0.476946  0.288961  0.485343  1
  Ho  Ho7  1  0.803619  0.991603  0.514657  1
  Tm  Tm8  1  0.500000  0.500000  0.000000  1
  Mg  Mg9  1  0.000000  0.000000  0.000000  1
  Bi  Bi10  1  0.745784  0.745784  0.000000  1
  Bi  Bi11  1  0.254216  0.254216  0.000000  1
  Au  Au12  1  0.634880  0.141814  0.776692  1
  Au  Au13  1  0.365120  0.858186  0.223308  1
  Au  Au14  1  0.141814  0.365120  0.506933  1
  Au  Au15  1  0.858186  0.634880  0.493067  1
