# generated using pymatgen
data_PrPaInRh2
_symmetry_space_group_name_H-M   'P 1'
_cell_length_a   7.84454700
_cell_length_b   7.85695700
_cell_length_c   3.69332900
_cell_angle_alpha   90.00000000
_cell_angle_beta   90.00000000
_cell_angle_gamma   90.00000000
_symmetry_Int_Tables_number   1
_chemical_formula_structural   PrPaInRh2
_chemical_formula_sum   'Pr2 Pa2 In2 Rh4'
_cell_volume   227.63563111
_cell_formula_units_Z   2
loop_
 _symmetry_equiv_pos_site_id
 _symmetry_equiv_pos_as_xyz
  1  'x, y, z'
loop_
 _atom_site_type_symbol
 _atom_site_label
 _atom_site_symmetry_multiplicity
 _atom_site_fract_x
 _atom_site_fract_y
 _atom_site_fract_z
 _atom_site_occupancy
  Pr  Pr0  1  0.170357  0.327427  0.500000  1
  Pr  Pr1  1  0.670357  0.172573  0.500000  1
  Pa  Pa2  1  0.324339  0.832418  0.500000  1
  Pa  Pa3  1  0.824339  0.667582  0.500000  1
  In  In4  1  0.492550  0.499723  0.000000  1
  In  In5  1  0.992550  0.000277  0.000000  1
  Rh  Rh6  1  0.366929  0.080097  0.000000  1
  Rh  Rh7  1  0.645824  0.840881  0.000000  1
  Rh  Rh8  1  0.866929  0.419903  0.000000  1
  Rh  Rh9  1  0.145824  0.659119  0.000000  1
