# generated using pymatgen
data_ErTiF7
_symmetry_space_group_name_H-M   'P 1'
_cell_length_a   5.51170600
_cell_length_b   8.77552786
_cell_length_c   11.77520049
_cell_angle_alpha   62.45906607
_cell_angle_beta   90.00000000
_cell_angle_gamma   90.00000000
_symmetry_Int_Tables_number   1
_chemical_formula_structural   ErTiF7
_chemical_formula_sum   'Er4 Ti4 F28'
_cell_volume   505.00405834
_cell_formula_units_Z   4
loop_
 _symmetry_equiv_pos_site_id
 _symmetry_equiv_pos_as_xyz
  1  'x, y, z'
loop_
 _atom_site_type_symbol
 _atom_site_label
 _atom_site_symmetry_multiplicity
 _atom_site_fract_x
 _atom_site_fract_y
 _atom_site_fract_z
 _atom_site_occupancy
  Er  Er0  1  0.759269  0.812625  0.265598  1
  Er  Er1  1  0.259269  0.187375  0.234402  1
  Er  Er2  1  0.240731  0.187375  0.734402  1
  Er  Er3  1  0.740731  0.812625  0.765598  1
  Ti  Ti4  1  0.243033  0.725457  0.544546  1
  Ti  Ti5  1  0.743033  0.274543  0.955454  1
  Ti  Ti6  1  0.756967  0.274543  0.455454  1
  Ti  Ti7  1  0.256967  0.725457  0.044546  1
  F  F8  1  0.958566  0.718844  0.454593  1
  F  F9  1  0.458566  0.281156  0.045407  1
  F  F10  1  0.041434  0.281156  0.545407  1
  F  F11  1  0.541434  0.718844  0.954593  1
  F  F12  1  0.050161  0.708137  0.924310  1
  F  F13  1  0.550161  0.291863  0.575690  1
  F  F14  1  0.949839  0.291863  0.075690  1
  F  F15  1  0.449839  0.708137  0.424310  1
  F  F16  1  0.729493  0.516503  0.860784  1
  F  F17  1  0.229493  0.483497  0.639216  1
  F  F18  1  0.270507  0.483497  0.139216  1
  F  F19  1  0.770507  0.516503  0.360784  1
  F  F20  1  0.740006  0.034208  0.051719  1
  F  F21  1  0.240006  0.965792  0.448281  1
  F  F22  1  0.259994  0.965792  0.948281  1
  F  F23  1  0.759994  0.034208  0.551719  1
  F  F24  1  0.040574  0.744780  0.669393  1
  F  F25  1  0.540574  0.255220  0.830607  1
  F  F26  1  0.959426  0.255220  0.330607  1
  F  F27  1  0.459426  0.744780  0.169393  1
  F  F28  1  0.012090  0.268091  0.858324  1
  F  F29  1  0.512090  0.731909  0.641676  1
  F  F30  1  0.987910  0.731909  0.141676  1
  F  F31  1  0.487910  0.268091  0.358324  1
  F  F32  1  0.082328  0.972000  0.230245  1
  F  F33  1  0.582328  0.028000  0.269755  1
  F  F34  1  0.917672  0.028000  0.769755  1
  F  F35  1  0.417672  0.972000  0.730245  1
