# generated using pymatgen
data_TbTmSi(Ni2P)6
_symmetry_space_group_name_H-M   'P 1'
_cell_length_a   9.05334732
_cell_length_b   9.04261758
_cell_length_c   3.67144800
_cell_angle_alpha   90.00000000
_cell_angle_beta   90.00000000
_cell_angle_gamma   120.00862729
_symmetry_Int_Tables_number   1
_chemical_formula_structural   TbTmSi(Ni2P)6
_chemical_formula_sum   'Tb1 Tm1 Si1 Ni12 P6'
_cell_volume   260.27568509
_cell_formula_units_Z   1
loop_
 _symmetry_equiv_pos_site_id
 _symmetry_equiv_pos_as_xyz
  1  'x, y, z'
loop_
 _atom_site_type_symbol
 _atom_site_label
 _atom_site_symmetry_multiplicity
 _atom_site_fract_x
 _atom_site_fract_y
 _atom_site_fract_z
 _atom_site_occupancy
  Tb  Tb0  1  0.333319  0.666634  0.000000  1
  Tm  Tm1  1  0.666729  0.333386  0.500000  1
  Si  Si2  1  0.999876  0.999922  0.000000  1
  Ni  Ni3  1  0.434625  0.062891  0.000000  1
  Ni  Ni4  1  0.628312  0.565401  0.000000  1
  Ni  Ni5  1  0.937056  0.371684  0.000000  1
  Ni  Ni6  1  0.157556  0.282258  0.000000  1
  Ni  Ni7  1  0.124725  0.842357  0.000000  1
  Ni  Ni8  1  0.717956  0.875382  0.000000  1
  Ni  Ni9  1  0.383961  0.430061  0.500000  1
  Ni  Ni10  1  0.046053  0.616008  0.500000  1
  Ni  Ni11  1  0.569900  0.953962  0.500000  1
  Ni  Ni12  1  0.210849  0.090752  0.500000  1
  Ni  Ni13  1  0.879866  0.789072  0.500000  1
  Ni  Ni14  1  0.909250  0.120024  0.500000  1
  P  P15  1  0.408215  0.294378  0.000000  1
  P  P16  1  0.885963  0.591765  0.000000  1
  P  P17  1  0.705727  0.114104  0.000000  1
  P  P18  1  0.109879  0.403331  0.500000  1
  P  P19  1  0.293543  0.890131  0.500000  1
  P  P20  1  0.596643  0.706494  0.500000  1
