# generated using pymatgen
data_Lu2CF2
_symmetry_space_group_name_H-M   'P 1'
_cell_length_a   3.55429500
_cell_length_b   3.55429532
_cell_length_c   6.35372600
_cell_angle_alpha   90.00000000
_cell_angle_beta   90.00000000
_cell_angle_gamma   119.99996909
_symmetry_Int_Tables_number   1
_chemical_formula_structural   Lu2CF2
_chemical_formula_sum   'Lu2 C1 F2'
_cell_volume   69.51303167
_cell_formula_units_Z   1
loop_
 _symmetry_equiv_pos_site_id
 _symmetry_equiv_pos_as_xyz
  1  'x, y, z'
loop_
 _atom_site_type_symbol
 _atom_site_label
 _atom_site_symmetry_multiplicity
 _atom_site_fract_x
 _atom_site_fract_y
 _atom_site_fract_z
 _atom_site_occupancy
  Lu  Lu0  1  0.666667  0.333333  0.794616  1
  Lu  Lu1  1  0.333333  0.666667  0.205385  1
  C  C2  1  0.000000  0.000000  0.999842  1
  F  F3  1  0.666667  0.333333  0.377942  1
  F  F4  1  0.333333  0.666667  0.622214  1
