# generated using pymatgen
data_LuMg3(Ta3B10)2
_symmetry_space_group_name_H-M   'P 1'
_cell_length_a   6.16051791
_cell_length_b   7.04319409
_cell_length_c   7.51733561
_cell_angle_alpha   94.85396160
_cell_angle_beta   101.85822732
_cell_angle_gamma   115.85492303
_symmetry_Int_Tables_number   1
_chemical_formula_structural   LuMg3(Ta3B10)2
_chemical_formula_sum   'Lu1 Mg3 Ta6 B20'
_cell_volume   281.58382763
_cell_formula_units_Z   1
loop_
 _symmetry_equiv_pos_site_id
 _symmetry_equiv_pos_as_xyz
  1  'x, y, z'
loop_
 _atom_site_type_symbol
 _atom_site_label
 _atom_site_symmetry_multiplicity
 _atom_site_fract_x
 _atom_site_fract_y
 _atom_site_fract_z
 _atom_site_occupancy
  Lu  Lu0  1  0.998431  0.997390  0.999588  1
  Mg  Mg1  1  0.498144  0.997815  0.997175  1
  Mg  Mg2  1  0.000231  0.202913  0.604491  1
  Mg  Mg3  1  0.003751  0.602035  0.801011  1
  Ta  Ta4  1  0.499018  0.797480  0.402454  1
  Ta  Ta5  1  0.999075  0.399117  0.203307  1
  Ta  Ta6  1  0.501375  0.206212  0.596036  1
  Ta  Ta7  1  0.000021  0.800952  0.397891  1
  Ta  Ta8  1  0.500641  0.600910  0.796399  1
  Ta  Ta9  1  0.500383  0.395813  0.201921  1
  B  B10  1  0.336276  0.237155  0.864079  1
  B  B11  1  0.331735  0.630049  0.067783  1
  B  B12  1  0.167126  0.369835  0.931107  1
  B  B13  1  0.336311  0.032319  0.269909  1
  B  B14  1  0.167355  0.761863  0.135741  1
  B  B15  1  0.832788  0.236604  0.864232  1
  B  B16  1  0.166063  0.166624  0.339228  1
  B  B17  1  0.831789  0.628417  0.066720  1
  B  B18  1  0.331519  0.433111  0.467839  1
  B  B19  1  0.666285  0.366167  0.933950  1
  B  B20  1  0.829911  0.029821  0.270029  1
  B  B21  1  0.662509  0.763219  0.134871  1
  B  B22  1  0.332529  0.834867  0.666111  1
  B  B23  1  0.166512  0.567208  0.535694  1
  B  B24  1  0.668639  0.166122  0.337650  1
  B  B25  1  0.836502  0.434508  0.469086  1
  B  B26  1  0.168606  0.968860  0.725066  1
  B  B27  1  0.832990  0.835153  0.659742  1
  B  B28  1  0.669671  0.568587  0.533312  1
  B  B29  1  0.663814  0.968871  0.727581  1
