# generated using pymatgen
data_Tb2YbY5(B6Os)4
_symmetry_space_group_name_H-M   'P 1'
_cell_length_a   3.65879700
_cell_length_b   9.17221012
_cell_length_c   11.55674658
_cell_angle_alpha   90.10016996
_cell_angle_beta   90.00000000
_cell_angle_gamma   90.00000000
_symmetry_Int_Tables_number   1
_chemical_formula_structural   Tb2YbY5(B6Os)4
_chemical_formula_sum   'Tb2 Yb1 Y5 B24 Os4'
_cell_volume   387.83521124
_cell_formula_units_Z   1
loop_
 _symmetry_equiv_pos_site_id
 _symmetry_equiv_pos_as_xyz
  1  'x, y, z'
loop_
 _atom_site_type_symbol
 _atom_site_label
 _atom_site_symmetry_multiplicity
 _atom_site_fract_x
 _atom_site_fract_y
 _atom_site_fract_z
 _atom_site_occupancy
  Tb  Tb0  1  0.000000  0.322519  0.413363  1
  Tb  Tb1  1  0.000000  0.677905  0.585668  1
  Yb  Yb2  1  0.000000  0.823093  0.086321  1
  Y  Y3  1  0.000000  0.176438  0.914984  1
  Y  Y4  1  0.000000  0.942828  0.370930  1
  Y  Y5  1  0.000000  0.056256  0.627392  1
  Y  Y6  1  0.000000  0.443883  0.128076  1
  Y  Y7  1  0.000000  0.558139  0.872895  1
  B  B8  1  0.500000  0.553261  0.433004  1
  B  B9  1  0.500000  0.446085  0.567722  1
  B  B10  1  0.500000  0.053219  0.067450  1
  B  B11  1  0.500000  0.945989  0.932961  1
  B  B12  1  0.500000  0.747085  0.418801  1
  B  B13  1  0.500000  0.252262  0.580882  1
  B  B14  1  0.500000  0.247426  0.081079  1
  B  B15  1  0.500000  0.753051  0.919219  1
  B  B16  1  0.500000  0.789507  0.265916  1
  B  B17  1  0.500000  0.209901  0.733785  1
  B  B18  1  0.500000  0.290591  0.233533  1
  B  B19  1  0.500000  0.710422  0.766317  1
  B  B20  1  0.500000  0.631363  0.186053  1
  B  B21  1  0.500000  0.368832  0.814537  1
  B  B22  1  0.500000  0.131410  0.313448  1
  B  B23  1  0.500000  0.868801  0.685483  1
  B  B24  1  0.500000  0.983210  0.211789  1
  B  B25  1  0.500000  0.016470  0.787584  1
  B  B26  1  0.500000  0.483517  0.287926  1
  B  B27  1  0.500000  0.516652  0.712908  1
  B  B28  1  0.500000  0.605117  0.029409  1
  B  B29  1  0.500000  0.394223  0.970679  1
  B  B30  1  0.500000  0.107407  0.469877  1
  B  B31  1  0.500000  0.892634  0.529372  1
  Os  Os32  1  0.000000  0.636353  0.322351  1
  Os  Os33  1  0.000000  0.362821  0.678814  1
  Os  Os34  1  0.000000  0.138597  0.178922  1
  Os  Os35  1  0.000000  0.862733  0.820552  1
