# generated using pymatgen
data_K5LiReTc2H27
_symmetry_space_group_name_H-M   'P 1'
_cell_length_a   9.32569081
_cell_length_b   9.13196906
_cell_length_c   5.62213500
_cell_angle_alpha   90.00000000
_cell_angle_beta   90.00000000
_cell_angle_gamma   119.33693614
_symmetry_Int_Tables_number   1
_chemical_formula_structural   K5LiReTc2H27
_chemical_formula_sum   'K5 Li1 Re1 Tc2 H27'
_cell_volume   417.38848825
_cell_formula_units_Z   1
loop_
 _symmetry_equiv_pos_site_id
 _symmetry_equiv_pos_as_xyz
  1  'x, y, z'
loop_
 _atom_site_type_symbol
 _atom_site_label
 _atom_site_symmetry_multiplicity
 _atom_site_fract_x
 _atom_site_fract_y
 _atom_site_fract_z
 _atom_site_occupancy
  K  K0  1  0.742031  0.749197  0.500000  1
  K  K1  1  0.258539  0.007684  0.500000  1
  K  K2  1  0.000028  0.581672  0.000000  1
  K  K3  1  0.399675  0.404212  0.000000  1
  K  K4  1  0.599741  0.003570  0.000000  1
  Li  Li5  1  0.999193  0.312295  0.500000  1
  Re  Re6  1  0.315045  0.643429  0.500000  1
  Tc  Tc7  1  0.685342  0.328287  0.500000  1
  Tc  Tc8  1  0.000067  0.018052  0.000000  1
  H  H9  1  0.804514  0.297998  0.703433  1
  H  H10  1  0.707164  0.462930  0.720810  1
  H  H11  1  0.548508  0.221595  0.717924  1
  H  H12  1  0.194681  0.493503  0.293514  1
  H  H13  1  0.548508  0.221595  0.282076  1
  H  H14  1  0.804514  0.297998  0.296567  1
  H  H15  1  0.707164  0.462930  0.279190  1
  H  H16  1  0.292941  0.757397  0.723717  1
  H  H17  1  0.453191  0.672962  0.720324  1
  H  H18  1  0.184048  0.027695  0.000000  1
  H  H19  1  0.816165  0.843606  0.000000  1
  H  H20  1  0.999801  0.200168  0.000000  1
  H  H21  1  0.879622  0.028242  0.216188  1
  H  H22  1  0.120427  0.148807  0.783774  1
  H  H23  1  0.000157  0.880751  0.795571  1
  H  H24  1  0.000157  0.880751  0.204429  1
  H  H25  1  0.120427  0.148807  0.216226  1
  H  H26  1  0.879622  0.028242  0.783812  1
  H  H27  1  0.126522  0.624604  0.500000  1
  H  H28  1  0.471684  0.843615  0.500000  1
  H  H29  1  0.362151  0.487643  0.500000  1
  H  H30  1  0.531026  0.371813  0.500000  1
  H  H31  1  0.870813  0.497260  0.500000  1
  H  H32  1  0.635716  0.126828  0.500000  1
  H  H33  1  0.194681  0.493503  0.706486  1
  H  H34  1  0.292941  0.757397  0.276283  1
  H  H35  1  0.453191  0.672962  0.279676  1
