# generated using pymatgen
data_Ac2IrRh3
_symmetry_space_group_name_H-M   'P 1'
_cell_length_a   5.55239543
_cell_length_b   5.55239533
_cell_length_c   5.55239436
_cell_angle_alpha   60.38239801
_cell_angle_beta   60.38241201
_cell_angle_gamma   60.38240071
_symmetry_Int_Tables_number   1
_chemical_formula_structural   Ac2IrRh3
_chemical_formula_sum   'Ac2 Ir1 Rh3'
_cell_volume   122.08606350
_cell_formula_units_Z   1
loop_
 _symmetry_equiv_pos_site_id
 _symmetry_equiv_pos_as_xyz
  1  'x, y, z'
loop_
 _atom_site_type_symbol
 _atom_site_label
 _atom_site_symmetry_multiplicity
 _atom_site_fract_x
 _atom_site_fract_y
 _atom_site_fract_z
 _atom_site_occupancy
  Ac  Ac0  1  0.374161  0.374161  0.374161  1
  Ac  Ac1  1  0.625839  0.625839  0.625839  1
  Ir  Ir2  1  0.000000  0.000000  0.000000  1
  Rh  Rh3  1  0.500001  0.000000  0.000000  1
  Rh  Rh4  1  0.000000  0.500001  0.000000  1
  Rh  Rh5  1  0.000000  0.000000  0.500001  1
