# generated using pymatgen
data_Tb15NdCd4Os3Pd
_symmetry_space_group_name_H-M   'P 1'
_cell_length_a   9.67280066
_cell_length_b   9.76675874
_cell_length_c   9.78918700
_cell_angle_alpha   59.92401039
_cell_angle_beta   59.60117249
_cell_angle_gamma   59.39210677
_symmetry_Int_Tables_number   1
_chemical_formula_structural   Tb15NdCd4Os3Pd
_chemical_formula_sum   'Tb15 Nd1 Cd4 Os3 Pd1'
_cell_volume   648.54300585
_cell_formula_units_Z   1
loop_
 _symmetry_equiv_pos_site_id
 _symmetry_equiv_pos_as_xyz
  1  'x, y, z'
loop_
 _atom_site_type_symbol
 _atom_site_label
 _atom_site_symmetry_multiplicity
 _atom_site_fract_x
 _atom_site_fract_y
 _atom_site_fract_z
 _atom_site_occupancy
  Tb  Tb0  1  0.347136  0.351478  0.349318  1
  Tb  Tb1  1  0.347136  0.351478  0.952068  1
  Tb  Tb2  1  0.346264  0.955366  0.349185  1
  Tb  Tb3  1  0.966052  0.345274  0.344337  1
  Tb  Tb4  1  0.815088  0.190346  0.189234  1
  Tb  Tb5  1  0.186488  0.811086  0.812170  1
  Tb  Tb6  1  0.186488  0.811086  0.190255  1
  Tb  Tb7  1  0.815088  0.190346  0.805330  1
  Tb  Tb8  1  0.187486  0.189872  0.811321  1
  Tb  Tb9  1  0.814792  0.804087  0.190560  1
  Tb  Tb10  1  0.938469  0.557451  0.560896  1
  Tb  Tb11  1  0.552629  0.938646  0.940874  1
  Tb  Tb12  1  0.552629  0.938646  0.567851  1
  Tb  Tb13  1  0.938469  0.557451  0.943184  1
  Tb  Tb14  1  0.555692  0.568724  0.937792  1
  Nd  Nd15  1  0.937029  0.939699  0.561636  1
  Cd  Cd16  1  0.580873  0.580072  0.581259  1
  Cd  Cd17  1  0.580873  0.580072  0.257798  1
  Cd  Cd18  1  0.577443  0.259726  0.581416  1
  Cd  Cd19  1  0.257347  0.578171  0.582242  1
  Os  Os20  1  0.147046  0.140095  0.134522  1
  Os  Os21  1  0.147046  0.140095  0.578337  1
  Os  Os22  1  0.146079  0.578319  0.137801  1
  Pd  Pd23  1  0.576360  0.142412  0.140614  1
