# generated using pymatgen
data_Tm12TlNi3Os2
_symmetry_space_group_name_H-M   'P 1'
_cell_length_a   8.27904636
_cell_length_b   8.27904714
_cell_length_c   8.27904600
_cell_angle_alpha   110.47173862
_cell_angle_beta   112.43035418
_cell_angle_gamma   105.58659897
_symmetry_Int_Tables_number   1
_chemical_formula_structural   Tm12TlNi3Os2
_chemical_formula_sum   'Tm12 Tl1 Ni3 Os2'
_cell_volume   435.20698342
_cell_formula_units_Z   1
loop_
 _symmetry_equiv_pos_site_id
 _symmetry_equiv_pos_as_xyz
  1  'x, y, z'
loop_
 _atom_site_type_symbol
 _atom_site_label
 _atom_site_symmetry_multiplicity
 _atom_site_fract_x
 _atom_site_fract_y
 _atom_site_fract_z
 _atom_site_occupancy
  Tm  Tm0  1  0.270594  0.181897  0.452490  1
  Tm  Tm1  1  0.724226  0.824502  0.548729  1
  Tm  Tm2  1  0.275774  0.824502  0.100275  1
  Tm  Tm3  1  0.729406  0.181897  0.911303  1
  Tm  Tm4  1  0.633044  0.320279  0.307024  1
  Tm  Tm5  1  0.366956  0.673981  0.687235  1
  Tm  Tm6  1  0.013254  0.320279  0.687235  1
  Tm  Tm7  1  0.986746  0.673981  0.307024  1
  Tm  Tm8  1  0.228504  0.413680  0.185177  1
  Tm  Tm9  1  0.776194  0.585512  0.809317  1
  Tm  Tm10  1  0.223806  0.033124  0.809317  1
  Tm  Tm11  1  0.771496  0.956672  0.185177  1
  Tl  Tl12  1  0.500000  0.498373  0.998373  1
  Ni  Ni13  1  0.000000  0.653245  0.653245  1
  Ni  Ni14  1  0.384253  0.888118  0.503864  1
  Ni  Ni15  1  0.615747  0.119611  0.503864  1
  Os  Os16  1  0.000000  0.351754  0.351754  1
  Os  Os17  1  0.000000  0.998597  0.998597  1
