# generated using pymatgen
data_Ho4Ga4P2Ir7
_symmetry_space_group_name_H-M   'P 1'
_cell_length_a   7.19337550
_cell_length_b   7.23133031
_cell_length_c   7.23133046
_cell_angle_alpha   108.97622629
_cell_angle_beta   109.82766715
_cell_angle_gamma   109.82767718
_symmetry_Int_Tables_number   1
_chemical_formula_structural   Ho4Ga4P2Ir7
_chemical_formula_sum   'Ho4 Ga4 P2 Ir7'
_cell_volume   288.76854622
_cell_formula_units_Z   1
loop_
 _symmetry_equiv_pos_site_id
 _symmetry_equiv_pos_as_xyz
  1  'x, y, z'
loop_
 _atom_site_type_symbol
 _atom_site_label
 _atom_site_symmetry_multiplicity
 _atom_site_fract_x
 _atom_site_fract_y
 _atom_site_fract_z
 _atom_site_occupancy
  Ho  Ho0  1  0.000000  0.001275  0.465377  1
  Ho  Ho1  1  0.000000  0.534623  0.998725  1
  Ho  Ho2  1  0.500000  0.999974  0.000026  1
  Ho  Ho3  1  0.500000  0.499974  0.500026  1
  Ga  Ga4  1  0.000000  0.326617  0.309547  1
  Ga  Ga5  1  0.283520  0.293324  0.990196  1
  Ga  Ga6  1  0.716480  0.009804  0.706676  1
  Ga  Ga7  1  0.000000  0.690453  0.673383  1
  P  P8  1  0.655761  0.660180  0.995581  1
  P  P9  1  0.344239  0.004419  0.339820  1
  Ir  Ir10  1  0.749678  0.249563  0.500116  1
  Ir  Ir11  1  0.737304  0.497891  0.239413  1
  Ir  Ir12  1  0.500000  0.249449  0.750551  1
  Ir  Ir13  1  0.250322  0.499884  0.750437  1
  Ir  Ir14  1  0.262696  0.760587  0.502109  1
  Ir  Ir15  1  0.500000  0.749449  0.250551  1
  Ir  Ir16  1  0.000000  0.972534  0.027466  1
