# generated using pymatgen
data_Hf6Ti4Si5Sb
_symmetry_space_group_name_H-M   'P 1'
_cell_length_a   7.80013600
_cell_length_b   7.85566990
_cell_length_c   5.31016900
_cell_angle_alpha   90.00000000
_cell_angle_beta   90.00000000
_cell_angle_gamma   119.76643288
_symmetry_Int_Tables_number   1
_chemical_formula_structural   Hf6Ti4Si5Sb
_chemical_formula_sum   'Hf6 Ti4 Si5 Sb1'
_cell_volume   282.45008968
_cell_formula_units_Z   1
loop_
 _symmetry_equiv_pos_site_id
 _symmetry_equiv_pos_as_xyz
  1  'x, y, z'
loop_
 _atom_site_type_symbol
 _atom_site_label
 _atom_site_symmetry_multiplicity
 _atom_site_fract_x
 _atom_site_fract_y
 _atom_site_fract_z
 _atom_site_occupancy
  Hf  Hf0  1  0.232795  0.000000  0.250000  1
  Hf  Hf1  1  0.760569  0.000000  0.750000  1
  Hf  Hf2  1  0.012323  0.262670  0.250000  1
  Hf  Hf3  1  0.000331  0.745282  0.750000  1
  Hf  Hf4  1  0.749654  0.737330  0.250000  1
  Hf  Hf5  1  0.255050  0.254718  0.750000  1
  Ti  Ti6  1  0.327213  0.658848  0.995956  1
  Ti  Ti7  1  0.668366  0.341152  0.995956  1
  Ti  Ti8  1  0.668366  0.341152  0.504044  1
  Ti  Ti9  1  0.327213  0.658848  0.504044  1
  Si  Si10  1  0.395150  0.000000  0.750000  1
  Si  Si11  1  0.001845  0.602982  0.250000  1
  Si  Si12  1  0.998586  0.394553  0.750000  1
  Si  Si13  1  0.398863  0.397018  0.250000  1
  Si  Si14  1  0.604033  0.605447  0.750000  1
  Sb  Sb15  1  0.599646  0.000000  0.250000  1
