# generated using pymatgen
data_HfNb8AlSe16
_symmetry_space_group_name_H-M   'P 1'
_cell_length_a   7.02502900
_cell_length_b   7.02502825
_cell_length_c   13.10044100
_cell_angle_alpha   90.00000000
_cell_angle_beta   90.00000000
_cell_angle_gamma   119.99999882
_symmetry_Int_Tables_number   1
_chemical_formula_structural   HfNb8AlSe16
_chemical_formula_sum   'Hf1 Nb8 Al1 Se16'
_cell_volume   559.90294122
_cell_formula_units_Z   1
loop_
 _symmetry_equiv_pos_site_id
 _symmetry_equiv_pos_as_xyz
  1  'x, y, z'
loop_
 _atom_site_type_symbol
 _atom_site_label
 _atom_site_symmetry_multiplicity
 _atom_site_fract_x
 _atom_site_fract_y
 _atom_site_fract_z
 _atom_site_occupancy
  Hf  Hf0  1  0.000000  0.000000  0.500000  1
  Nb  Nb1  1  0.000000  0.000000  0.247441  1
  Nb  Nb2  1  0.000000  0.000000  0.752559  1
  Nb  Nb3  1  0.507255  0.014509  0.245007  1
  Nb  Nb4  1  0.985491  0.492745  0.245007  1
  Nb  Nb5  1  0.507255  0.492745  0.245007  1
  Nb  Nb6  1  0.492745  0.985491  0.754993  1
  Nb  Nb7  1  0.014509  0.507255  0.754993  1
  Nb  Nb8  1  0.492745  0.507255  0.754993  1
  Al  Al9  1  0.000000  0.000000  0.000000  1
  Se  Se10  1  0.333333  0.666667  0.885760  1
  Se  Se11  1  0.666667  0.333333  0.114240  1
  Se  Se12  1  0.666667  0.333333  0.376504  1
  Se  Se13  1  0.333333  0.666667  0.623496  1
  Se  Se14  1  0.170158  0.829842  0.373239  1
  Se  Se15  1  0.170158  0.340316  0.373239  1
  Se  Se16  1  0.659684  0.829842  0.373239  1
  Se  Se17  1  0.829842  0.170158  0.626761  1
  Se  Se18  1  0.829842  0.659684  0.626761  1
  Se  Se19  1  0.340316  0.170158  0.626761  1
  Se  Se20  1  0.831900  0.168100  0.881818  1
  Se  Se21  1  0.831900  0.663802  0.881818  1
  Se  Se22  1  0.336198  0.168100  0.881818  1
  Se  Se23  1  0.168100  0.831900  0.118182  1
  Se  Se24  1  0.168100  0.336198  0.118182  1
  Se  Se25  1  0.663802  0.831900  0.118182  1
