# generated using pymatgen
data_HfSc3(IrRh)2
_symmetry_space_group_name_H-M   'P 1'
_cell_length_a   6.74601700
_cell_length_b   4.50261900
_cell_length_c   9.01064900
_cell_angle_alpha   90.00000000
_cell_angle_beta   90.00061306
_cell_angle_gamma   90.00000000
_symmetry_Int_Tables_number   1
_chemical_formula_structural   HfSc3(IrRh)2
_chemical_formula_sum   'Hf2 Sc6 Ir4 Rh4'
_cell_volume   273.69615951
_cell_formula_units_Z   2
loop_
 _symmetry_equiv_pos_site_id
 _symmetry_equiv_pos_as_xyz
  1  'x, y, z'
loop_
 _atom_site_type_symbol
 _atom_site_label
 _atom_site_symmetry_multiplicity
 _atom_site_fract_x
 _atom_site_fract_y
 _atom_site_fract_z
 _atom_site_occupancy
  Hf  Hf0  1  0.999976  0.749999  0.125000  1
  Hf  Hf1  1  0.499986  0.749999  0.125017  1
  Sc  Sc2  1  0.999997  0.250000  0.379130  1
  Sc  Sc3  1  0.499960  0.250000  0.379136  1
  Sc  Sc4  1  0.500246  0.749999  0.625004  1
  Sc  Sc5  1  0.999790  0.749999  0.625007  1
  Sc  Sc6  1  0.500002  0.250000  0.870859  1
  Sc  Sc7  1  0.000036  0.250000  0.870861  1
  Ir  Ir8  1  0.749977  0.250000  0.124993  1
  Ir  Ir9  1  0.249981  0.749999  0.369369  1
  Ir  Ir10  1  0.750012  0.250000  0.624985  1
  Ir  Ir11  1  0.250026  0.749999  0.880644  1
  Rh  Rh12  1  0.250019  0.250000  0.125023  1
  Rh  Rh13  1  0.749983  0.749999  0.371203  1
  Rh  Rh14  1  0.250011  0.250000  0.625018  1
  Rh  Rh15  1  0.750000  0.749999  0.878753  1
