# generated using pymatgen
data_NdY7(ThIr)6
_symmetry_space_group_name_H-M   'P 1'
_cell_length_a   6.35857438
_cell_length_b   9.98212434
_cell_length_c   9.98068600
_cell_angle_alpha   120.95294270
_cell_angle_beta   89.64452205
_cell_angle_gamma   90.04200323
_symmetry_Int_Tables_number   1
_chemical_formula_structural   NdY7(ThIr)6
_chemical_formula_sum   'Nd1 Y7 Th6 Ir6'
_cell_volume   543.26621408
_cell_formula_units_Z   1
loop_
 _symmetry_equiv_pos_site_id
 _symmetry_equiv_pos_as_xyz
  1  'x, y, z'
loop_
 _atom_site_type_symbol
 _atom_site_label
 _atom_site_symmetry_multiplicity
 _atom_site_fract_x
 _atom_site_fract_y
 _atom_site_fract_z
 _atom_site_occupancy
  Nd  Nd0  1  0.944611  0.460621  0.927099  1
  Y  Y1  1  0.741663  0.254996  0.127024  1
  Y  Y2  1  0.742545  0.872945  0.743474  1
  Y  Y3  1  0.445028  0.538701  0.461962  1
  Y  Y4  1  0.449219  0.924043  0.463164  1
  Y  Y5  1  0.450976  0.538893  0.077220  1
  Y  Y6  1  0.937586  0.463664  0.535959  1
  Y  Y7  1  0.941579  0.071257  0.537751  1
  Th  Th8  1  0.469067  0.333666  0.665207  1
  Th  Th9  1  0.977509  0.665803  0.333164  1
  Th  Th10  1  0.249733  0.126645  0.872932  1
  Th  Th11  1  0.243676  0.744314  0.870261  1
  Th  Th12  1  0.241966  0.130420  0.257219  1
  Th  Th13  1  0.738999  0.874482  0.127204  1
  Ir  Ir14  1  0.192258  0.816832  0.187653  1
  Ir  Ir15  1  0.196432  0.372387  0.186568  1
  Ir  Ir16  1  0.191938  0.814070  0.626752  1
  Ir  Ir17  1  0.672046  0.188424  0.807150  1
  Ir  Ir18  1  0.684368  0.626064  0.817313  1
  Ir  Ir19  1  0.690799  0.181774  0.374925  1
