# generated using pymatgen
data_Ti11Tc6GeIr6
_symmetry_space_group_name_H-M   'P 1'
_cell_length_a   4.38357600
_cell_length_b   6.19125200
_cell_length_c   13.14058800
_cell_angle_alpha   90.00000000
_cell_angle_beta   89.99939852
_cell_angle_gamma   90.00000000
_symmetry_Int_Tables_number   1
_chemical_formula_structural   Ti11Tc6GeIr6
_chemical_formula_sum   'Ti11 Tc6 Ge1 Ir6'
_cell_volume   356.63324132
_cell_formula_units_Z   1
loop_
 _symmetry_equiv_pos_site_id
 _symmetry_equiv_pos_as_xyz
  1  'x, y, z'
loop_
 _atom_site_type_symbol
 _atom_site_label
 _atom_site_symmetry_multiplicity
 _atom_site_fract_x
 _atom_site_fract_y
 _atom_site_fract_z
 _atom_site_occupancy
  Ti  Ti0  1  0.500000  0.748063  0.000000  1
  Ti  Ti1  1  0.000097  0.249900  0.164701  1
  Ti  Ti2  1  0.000089  0.750335  0.166621  1
  Ti  Ti3  1  0.500087  0.251577  0.333271  1
  Ti  Ti4  1  0.500090  0.751407  0.333366  1
  Ti  Ti5  1  0.000000  0.249365  0.500000  1
  Ti  Ti6  1  0.000000  0.749800  0.500000  1
  Ti  Ti7  1  0.499912  0.251577  0.666729  1
  Ti  Ti8  1  0.499909  0.751407  0.666634  1
  Ti  Ti9  1  0.999903  0.249900  0.835298  1
  Ti  Ti10  1  0.999911  0.750335  0.833378  1
  Tc  Tc11  1  0.000000  0.997462  0.000000  1
  Tc  Tc12  1  0.500108  0.499958  0.167371  1
  Tc  Tc13  1  0.000099  0.000674  0.333087  1
  Tc  Tc14  1  0.500000  0.499091  0.500000  1
  Tc  Tc15  1  0.999901  0.000674  0.666912  1
  Tc  Tc16  1  0.499892  0.499958  0.832628  1
  Ge  Ge17  1  0.500000  0.248739  0.000000  1
  Ir  Ir18  1  0.000000  0.500800  0.000000  1
  Ir  Ir19  1  0.500046  0.999316  0.167017  1
  Ir  Ir20  1  0.000033  0.500260  0.333349  1
  Ir  Ir21  1  0.500000  0.999828  0.500000  1
  Ir  Ir22  1  0.999966  0.500260  0.666652  1
  Ir  Ir23  1  0.499954  0.999316  0.832983  1
