# generated using pymatgen
data_PaBe11CoCu
_symmetry_space_group_name_H-M   'P 1'
_cell_length_a   7.31126214
_cell_length_b   7.30312549
_cell_length_c   7.27312240
_cell_angle_alpha   60.21066061
_cell_angle_beta   60.89247015
_cell_angle_gamma   59.68695208
_symmetry_Int_Tables_number   1
_chemical_formula_structural   PaBe11CoCu
_chemical_formula_sum   'Pa2 Be22 Co2 Cu2'
_cell_volume   276.17992136
_cell_formula_units_Z   2
loop_
 _symmetry_equiv_pos_site_id
 _symmetry_equiv_pos_as_xyz
  1  'x, y, z'
loop_
 _atom_site_type_symbol
 _atom_site_label
 _atom_site_symmetry_multiplicity
 _atom_site_fract_x
 _atom_site_fract_y
 _atom_site_fract_z
 _atom_site_occupancy
  Pa  Pa0  1  0.260770  0.239209  0.260725  1
  Pa  Pa1  1  0.739187  0.760745  0.739316  1
  Be  Be2  1  0.500067  0.500055  0.499931  1
  Be  Be3  1  0.999960  0.000015  0.000022  1
  Be  Be4  1  0.280579  0.933502  0.719371  1
  Be  Be5  1  0.719342  0.066468  0.280603  1
  Be  Be6  1  0.933785  0.283906  0.066231  1
  Be  Be7  1  0.066275  0.716161  0.933760  1
  Be  Be8  1  0.201299  0.800838  0.558224  1
  Be  Be9  1  0.798746  0.199203  0.441673  1
  Be  Be10  1  0.441625  0.560367  0.798678  1
  Be  Be11  1  0.558421  0.439643  0.201280  1
  Be  Be12  1  0.716446  0.288223  0.931105  1
  Be  Be13  1  0.283495  0.711761  0.068957  1
  Be  Be14  1  0.068944  0.935790  0.283439  1
  Be  Be15  1  0.931007  0.064222  0.716557  1
  Be  Be16  1  0.563478  0.201553  0.793392  1
  Be  Be17  1  0.436507  0.798383  0.206673  1
  Be  Be18  1  0.793274  0.441534  0.563672  1
  Be  Be19  1  0.206699  0.558411  0.436357  1
  Be  Be20  1  0.937936  0.711780  0.290750  1
  Be  Be21  1  0.062018  0.288217  0.709335  1
  Be  Be22  1  0.290590  0.059710  0.937957  1
  Be  Be23  1  0.709284  0.940330  0.062138  1
  Co  Co24  1  0.553184  0.810057  0.446769  1
  Co  Co25  1  0.446741  0.189954  0.553199  1
  Cu  Cu26  1  0.801580  0.558347  0.198810  1
  Cu  Cu27  1  0.198762  0.441616  0.801077  1
