# generated using pymatgen
data_Tm8B24IrRhW2
_symmetry_space_group_name_H-M   'P 1'
_cell_length_a   3.60926600
_cell_length_b   9.13864812
_cell_length_c   11.54156019
_cell_angle_alpha   90.38360822
_cell_angle_beta   90.00000000
_cell_angle_gamma   90.00000000
_symmetry_Int_Tables_number   1
_chemical_formula_structural   Tm8B24IrRhW2
_chemical_formula_sum   'Tm8 B24 Ir1 Rh1 W2'
_cell_volume   380.67611868
_cell_formula_units_Z   1
loop_
 _symmetry_equiv_pos_site_id
 _symmetry_equiv_pos_as_xyz
  1  'x, y, z'
loop_
 _atom_site_type_symbol
 _atom_site_label
 _atom_site_symmetry_multiplicity
 _atom_site_fract_x
 _atom_site_fract_y
 _atom_site_fract_z
 _atom_site_occupancy
  Tm  Tm0  1  0.500000  0.318305  0.411426  1
  Tm  Tm1  1  0.500000  0.681730  0.588461  1
  Tm  Tm2  1  0.500000  0.175133  0.916801  1
  Tm  Tm3  1  0.500000  0.824613  0.083398  1
  Tm  Tm4  1  0.500000  0.444271  0.126718  1
  Tm  Tm5  1  0.500000  0.556501  0.873845  1
  Tm  Tm6  1  0.500000  0.054765  0.626815  1
  Tm  Tm7  1  0.500000  0.944209  0.372717  1
  B  B8  1  0.000000  0.107322  0.471577  1
  B  B9  1  0.000000  0.892030  0.528188  1
  B  B10  1  0.000000  0.395848  0.970276  1
  B  B11  1  0.000000  0.604622  0.029877  1
  B  B12  1  0.000000  0.132814  0.318172  1
  B  B13  1  0.000000  0.867089  0.681651  1
  B  B14  1  0.000000  0.368264  0.815666  1
  B  B15  1  0.000000  0.632348  0.184178  1
  B  B16  1  0.000000  0.051429  0.065497  1
  B  B17  1  0.000000  0.949027  0.934380  1
  B  B18  1  0.000000  0.446181  0.565303  1
  B  B19  1  0.000000  0.553500  0.434940  1
  B  B20  1  0.000000  0.483046  0.288970  1
  B  B21  1  0.000000  0.517181  0.711613  1
  B  B22  1  0.000000  0.021580  0.785545  1
  B  B23  1  0.000000  0.978716  0.214236  1
  B  B24  1  0.000000  0.251371  0.078829  1
  B  B25  1  0.000000  0.748926  0.921299  1
  B  B26  1  0.000000  0.250617  0.578443  1
  B  B27  1  0.000000  0.748868  0.421464  1
  B  B28  1  0.000000  0.296934  0.237156  1
  B  B29  1  0.000000  0.703131  0.762830  1
  B  B30  1  0.000000  0.208793  0.733666  1
  B  B31  1  0.000000  0.791078  0.265812  1
  Ir  Ir32  1  0.500000  0.361854  0.678357  1
  Rh  Rh33  1  0.500000  0.637780  0.322050  1
  W  W34  1  0.500000  0.139132  0.180671  1
  W  W35  1  0.500000  0.860995  0.819174  1
