# generated using pymatgen
data_Lu4TcBr4
_symmetry_space_group_name_H-M   'P 1'
_cell_length_a   8.81510524
_cell_length_b   8.81510423
_cell_length_c   6.49321054
_cell_angle_alpha   89.36392023
_cell_angle_beta   89.36391058
_cell_angle_gamma   89.25569960
_symmetry_Int_Tables_number   1
_chemical_formula_structural   Lu4TcBr4
_chemical_formula_sum   'Lu8 Tc2 Br8'
_cell_volume   504.45792450
_cell_formula_units_Z   2
loop_
 _symmetry_equiv_pos_site_id
 _symmetry_equiv_pos_as_xyz
  1  'x, y, z'
loop_
 _atom_site_type_symbol
 _atom_site_label
 _atom_site_symmetry_multiplicity
 _atom_site_fract_x
 _atom_site_fract_y
 _atom_site_fract_z
 _atom_site_occupancy
  Lu  Lu0  1  0.753681  0.097984  0.988990  1
  Lu  Lu1  1  0.097984  0.753681  0.488990  1
  Lu  Lu2  1  0.096205  0.245542  0.991645  1
  Lu  Lu3  1  0.245542  0.096205  0.491645  1
  Lu  Lu4  1  0.903795  0.754458  0.008355  1
  Lu  Lu5  1  0.902016  0.246319  0.511010  1
  Lu  Lu6  1  0.246319  0.902016  0.011010  1
  Lu  Lu7  1  0.754458  0.903795  0.508355  1
  Tc  Tc8  1  0.993561  0.006439  0.250000  1
  Tc  Tc9  1  0.006439  0.993561  0.750000  1
  Br  Br10  1  0.578949  0.183665  0.591681  1
  Br  Br11  1  0.809318  0.583734  0.405721  1
  Br  Br12  1  0.416266  0.190682  0.094279  1
  Br  Br13  1  0.190682  0.416266  0.594279  1
  Br  Br14  1  0.583734  0.809318  0.905721  1
  Br  Br15  1  0.421051  0.816335  0.408319  1
  Br  Br16  1  0.183665  0.578949  0.091681  1
  Br  Br17  1  0.816335  0.421051  0.908319  1
