# generated using pymatgen
data_DyHo5OsRu
_symmetry_space_group_name_H-M   'P 1'
_cell_length_a   6.30706800
_cell_length_b   7.34327900
_cell_length_c   9.09358200
_cell_angle_alpha   90.00000000
_cell_angle_beta   90.00000000
_cell_angle_gamma   90.00000000
_symmetry_Int_Tables_number   1
_chemical_formula_structural   DyHo5OsRu
_chemical_formula_sum   'Dy2 Ho10 Os2 Ru2'
_cell_volume   421.16524912
_cell_formula_units_Z   2
loop_
 _symmetry_equiv_pos_site_id
 _symmetry_equiv_pos_as_xyz
  1  'x, y, z'
loop_
 _atom_site_type_symbol
 _atom_site_label
 _atom_site_symmetry_multiplicity
 _atom_site_fract_x
 _atom_site_fract_y
 _atom_site_fract_z
 _atom_site_occupancy
  Dy  Dy0  1  0.132950  0.458937  0.750000  1
  Dy  Dy1  1  0.367050  0.958936  0.750000  1
  Ho  Ho2  1  0.329202  0.676331  0.064588  1
  Ho  Ho3  1  0.170798  0.176331  0.435412  1
  Ho  Ho4  1  0.667619  0.324740  0.562735  1
  Ho  Ho5  1  0.832381  0.824740  0.937265  1
  Ho  Ho6  1  0.667619  0.324740  0.937265  1
  Ho  Ho7  1  0.832381  0.824740  0.562735  1
  Ho  Ho8  1  0.329202  0.676331  0.435412  1
  Ho  Ho9  1  0.170798  0.176331  0.064588  1
  Ho  Ho10  1  0.868110  0.538728  0.250000  1
  Ho  Ho11  1  0.631890  0.038728  0.250000  1
  Os  Os12  1  0.038711  0.884384  0.250000  1
  Os  Os13  1  0.461289  0.384384  0.250000  1
  Ru  Ru14  1  0.962191  0.115809  0.750000  1
  Ru  Ru15  1  0.537809  0.615809  0.750000  1
