# generated using pymatgen
data_Np2TcB6
_symmetry_space_group_name_H-M   'P 1'
_cell_length_a   3.62292600
_cell_length_b   9.28782900
_cell_length_c   11.33933800
_cell_angle_alpha   90.00000000
_cell_angle_beta   90.00000000
_cell_angle_gamma   90.00000000
_symmetry_Int_Tables_number   1
_chemical_formula_structural   Np2TcB6
_chemical_formula_sum   'Np8 Tc4 B24'
_cell_volume   381.55871297
_cell_formula_units_Z   4
loop_
 _symmetry_equiv_pos_site_id
 _symmetry_equiv_pos_as_xyz
  1  'x, y, z'
loop_
 _atom_site_type_symbol
 _atom_site_label
 _atom_site_symmetry_multiplicity
 _atom_site_fract_x
 _atom_site_fract_y
 _atom_site_fract_z
 _atom_site_occupancy
  Np  Np0  1  0.000000  0.337907  0.406777  1
  Np  Np1  1  0.000000  0.662093  0.593223  1
  Np  Np2  1  0.000000  0.837907  0.093223  1
  Np  Np3  1  0.000000  0.162093  0.906777  1
  Np  Np4  1  0.000000  0.958989  0.400172  1
  Np  Np5  1  0.000000  0.041011  0.599828  1
  Np  Np6  1  0.000000  0.458989  0.099828  1
  Np  Np7  1  0.000000  0.541011  0.900172  1
  Tc  Tc8  1  0.000000  0.645000  0.319487  1
  Tc  Tc9  1  0.000000  0.355000  0.680513  1
  Tc  Tc10  1  0.000000  0.145000  0.180513  1
  Tc  Tc11  1  0.000000  0.855000  0.819487  1
  B  B12  1  0.500000  0.552014  0.431850  1
  B  B13  1  0.500000  0.447986  0.568150  1
  B  B14  1  0.500000  0.052014  0.068150  1
  B  B15  1  0.500000  0.947986  0.931850  1
  B  B16  1  0.500000  0.743076  0.423532  1
  B  B17  1  0.500000  0.256924  0.576468  1
  B  B18  1  0.500000  0.243076  0.076468  1
  B  B19  1  0.500000  0.756924  0.923532  1
  B  B20  1  0.500000  0.804583  0.274271  1
  B  B21  1  0.500000  0.195417  0.725729  1
  B  B22  1  0.500000  0.304583  0.225729  1
  B  B23  1  0.500000  0.695417  0.774271  1
  B  B24  1  0.500000  0.645894  0.188215  1
  B  B25  1  0.500000  0.354106  0.811785  1
  B  B26  1  0.500000  0.145894  0.311785  1
  B  B27  1  0.500000  0.854106  0.688215  1
  B  B28  1  0.500000  0.988108  0.220345  1
  B  B29  1  0.500000  0.011892  0.779655  1
  B  B30  1  0.500000  0.488108  0.279655  1
  B  B31  1  0.500000  0.511892  0.720345  1
  B  B32  1  0.500000  0.643098  0.039584  1
  B  B33  1  0.500000  0.356902  0.960416  1
  B  B34  1  0.500000  0.143098  0.460416  1
  B  B35  1  0.500000  0.856902  0.539584  1
