# generated using pymatgen
data_PrBi3(MoO4)6
_symmetry_space_group_name_H-M   'P 1'
_cell_length_a   7.62869043
_cell_length_b   7.62869048
_cell_length_c   10.97083087
_cell_angle_alpha   90.03047651
_cell_angle_beta   89.96952505
_cell_angle_gamma   89.95172239
_symmetry_Int_Tables_number   1
_chemical_formula_structural   PrBi3(MoO4)6
_chemical_formula_sum   'Pr1 Bi3 Mo6 O24'
_cell_volume   638.46813781
_cell_formula_units_Z   1
loop_
 _symmetry_equiv_pos_site_id
 _symmetry_equiv_pos_as_xyz
  1  'x, y, z'
loop_
 _atom_site_type_symbol
 _atom_site_label
 _atom_site_symmetry_multiplicity
 _atom_site_fract_x
 _atom_site_fract_y
 _atom_site_fract_z
 _atom_site_occupancy
  Pr  Pr0  1  0.312652  0.187348  0.261056  1
  Bi  Bi1  1  0.192016  0.692000  0.739146  1
  Bi  Bi2  1  0.808000  0.307984  0.739146  1
  Bi  Bi3  1  0.694931  0.805069  0.262063  1
  Mo  Mo4  1  0.207377  0.708322  0.355664  1
  Mo  Mo5  1  0.791678  0.292623  0.355664  1
  Mo  Mo6  1  0.707677  0.792323  0.644719  1
  Mo  Mo7  1  0.292802  0.207198  0.646361  1
  Mo  Mo8  1  0.997091  0.997460  0.998213  1
  Mo  Mo9  1  0.502540  0.502909  0.998213  1
  O  O10  1  0.999860  0.227609  0.297409  1
  O  O11  1  0.998754  0.776690  0.296543  1
  O  O12  1  0.226231  0.999032  0.705719  1
  O  O13  1  0.498790  0.726211  0.703294  1
  O  O14  1  0.773789  0.001210  0.703294  1
  O  O15  1  0.500968  0.273769  0.705719  1
  O  O16  1  0.272391  0.500140  0.297409  1
  O  O17  1  0.723310  0.501246  0.296543  1
  O  O18  1  0.184063  0.042337  0.091170  1
  O  O19  1  0.812353  0.952271  0.094576  1
  O  O20  1  0.041319  0.810117  0.903719  1
  O  O21  1  0.313827  0.548993  0.905506  1
  O  O22  1  0.951007  0.186173  0.905506  1
  O  O23  1  0.689883  0.458681  0.903719  1
  O  O24  1  0.457663  0.315937  0.091170  1
  O  O25  1  0.547729  0.687647  0.094576  1
  O  O26  1  0.628890  0.129135  0.310320  1
  O  O27  1  0.370865  0.871110  0.310320  1
  O  O28  1  0.129653  0.370347  0.691940  1
  O  O29  1  0.870961  0.629039  0.689566  1
  O  O30  1  0.196636  0.696853  0.517296  1
  O  O31  1  0.803147  0.303364  0.517296  1
  O  O32  1  0.697256  0.802744  0.482805  1
  O  O33  1  0.303890  0.196110  0.484341  1
