# generated using pymatgen
data_NaGd2YB24
_symmetry_space_group_name_H-M   'P 1'
_cell_length_a   7.10566604
_cell_length_b   7.10566697
_cell_length_c   5.84422100
_cell_angle_alpha   90.00000000
_cell_angle_beta   90.00000000
_cell_angle_gamma   109.21042937
_symmetry_Int_Tables_number   1
_chemical_formula_structural   NaGd2YB24
_chemical_formula_sum   'Na1 Gd2 Y1 B24'
_cell_volume   278.64666281
_cell_formula_units_Z   1
loop_
 _symmetry_equiv_pos_site_id
 _symmetry_equiv_pos_as_xyz
  1  'x, y, z'
loop_
 _atom_site_type_symbol
 _atom_site_label
 _atom_site_symmetry_multiplicity
 _atom_site_fract_x
 _atom_site_fract_y
 _atom_site_fract_z
 _atom_site_occupancy
  Na  Na0  1  0.000000  0.000000  0.000000  1
  Gd  Gd1  1  0.753077  0.246923  0.500000  1
  Gd  Gd2  1  0.246923  0.753077  0.500000  1
  Y  Y3  1  0.500000  0.500000  0.000000  1
  B  B4  1  0.175803  0.325994  0.649794  1
  B  B5  1  0.923780  0.574749  0.148950  1
  B  B6  1  0.674006  0.824197  0.649794  1
  B  B7  1  0.425251  0.076220  0.148950  1
  B  B8  1  0.175803  0.325994  0.350206  1
  B  B9  1  0.923780  0.574749  0.851050  1
  B  B10  1  0.674006  0.824197  0.350206  1
  B  B11  1  0.425251  0.076220  0.851050  1
  B  B12  1  0.400621  0.400621  0.500000  1
  B  B13  1  0.148355  0.651639  0.000000  1
  B  B14  1  0.899436  0.899436  0.500000  1
  B  B15  1  0.651639  0.148355  0.000000  1
  B  B16  1  0.325994  0.175803  0.649794  1
  B  B17  1  0.076220  0.425251  0.148950  1
  B  B18  1  0.824197  0.674006  0.649794  1
  B  B19  1  0.574749  0.923780  0.148950  1
  B  B20  1  0.100564  0.100564  0.500000  1
  B  B21  1  0.851645  0.348361  0.000000  1
  B  B22  1  0.599379  0.599379  0.500000  1
  B  B23  1  0.348361  0.851645  0.000000  1
  B  B24  1  0.325994  0.175803  0.350206  1
  B  B25  1  0.076220  0.425251  0.851050  1
  B  B26  1  0.824197  0.674006  0.350206  1
  B  B27  1  0.574749  0.923780  0.851050  1
