# generated using pymatgen
data_DyNb8CoS16
_symmetry_space_group_name_H-M   'P 1'
_cell_length_a   6.73320900
_cell_length_b   6.73320835
_cell_length_c   12.84847600
_cell_angle_alpha   90.00000000
_cell_angle_beta   90.00000000
_cell_angle_gamma   120.00000812
_symmetry_Int_Tables_number   1
_chemical_formula_structural   DyNb8CoS16
_chemical_formula_sum   'Dy1 Nb8 Co1 S16'
_cell_volume   504.45956627
_cell_formula_units_Z   1
loop_
 _symmetry_equiv_pos_site_id
 _symmetry_equiv_pos_as_xyz
  1  'x, y, z'
loop_
 _atom_site_type_symbol
 _atom_site_label
 _atom_site_symmetry_multiplicity
 _atom_site_fract_x
 _atom_site_fract_y
 _atom_site_fract_z
 _atom_site_occupancy
  Dy  Dy0  1  0.000000  0.000000  0.500000  1
  Nb  Nb1  1  0.504905  0.495095  0.769018  1
  Nb  Nb2  1  0.009808  0.504905  0.230982  1
  Nb  Nb3  1  0.495095  0.990192  0.230982  1
  Nb  Nb4  1  0.504905  0.009808  0.769018  1
  Nb  Nb5  1  0.990192  0.495095  0.769018  1
  Nb  Nb6  1  0.495095  0.504905  0.230982  1
  Nb  Nb7  1  0.000000  0.000000  0.767353  1
  Nb  Nb8  1  0.000000  0.000000  0.232647  1
  Co  Co9  1  0.000000  0.000000  0.000000  1
  S  S10  1  0.831085  0.168915  0.354235  1
  S  S11  1  0.831085  0.662170  0.354235  1
  S  S12  1  0.337830  0.168915  0.354235  1
  S  S13  1  0.668410  0.834205  0.888737  1
  S  S14  1  0.168915  0.337830  0.645765  1
  S  S15  1  0.165795  0.834205  0.888737  1
  S  S16  1  0.165795  0.331590  0.888737  1
  S  S17  1  0.834205  0.165795  0.111263  1
  S  S18  1  0.331590  0.165795  0.111263  1
  S  S19  1  0.662170  0.831085  0.645765  1
  S  S20  1  0.333333  0.666667  0.108245  1
  S  S21  1  0.666667  0.333333  0.643457  1
  S  S22  1  0.666667  0.333333  0.891755  1
  S  S23  1  0.333333  0.666667  0.356543  1
  S  S24  1  0.834205  0.668410  0.111263  1
  S  S25  1  0.168915  0.831085  0.645765  1
