# generated using pymatgen
data_NaDy5TmCo6Sn23
_symmetry_space_group_name_H-M   'P 1'
_cell_length_a   9.70911190
_cell_length_b   9.70911198
_cell_length_c   9.95864535
_cell_angle_alpha   89.97374323
_cell_angle_beta   90.02625646
_cell_angle_gamma   120.04178066
_symmetry_Int_Tables_number   1
_chemical_formula_structural   NaDy5TmCo6Sn23
_chemical_formula_sum   'Na1 Dy5 Tm1 Co6 Sn23'
_cell_volume   812.65620863
_cell_formula_units_Z   1
loop_
 _symmetry_equiv_pos_site_id
 _symmetry_equiv_pos_as_xyz
  1  'x, y, z'
loop_
 _atom_site_type_symbol
 _atom_site_label
 _atom_site_symmetry_multiplicity
 _atom_site_fract_x
 _atom_site_fract_y
 _atom_site_fract_z
 _atom_site_occupancy
  Na  Na0  1  0.999988  0.000012  0.000027  1
  Dy  Dy1  1  0.520140  0.479860  0.694612  1
  Dy  Dy2  1  0.479692  0.959658  0.305297  1
  Dy  Dy3  1  0.520187  0.040363  0.694662  1
  Dy  Dy4  1  0.040342  0.520308  0.305297  1
  Dy  Dy5  1  0.959637  0.479813  0.694662  1
  Tm  Tm6  1  0.480555  0.519445  0.305102  1
  Co  Co7  1  0.829471  0.170529  0.201068  1
  Co  Co8  1  0.170570  0.829430  0.799073  1
  Co  Co9  1  0.828466  0.658529  0.201303  1
  Co  Co10  1  0.170652  0.341163  0.798902  1
  Co  Co11  1  0.341471  0.171534  0.201303  1
  Co  Co12  1  0.658837  0.829348  0.798902  1
  Sn  Sn13  1  0.343994  0.000162  0.000098  1
  Sn  Sn14  1  0.656022  0.999927  0.000045  1
  Sn  Sn15  1  0.000073  0.343978  0.000045  1
  Sn  Sn16  1  0.999838  0.656006  0.000098  1
  Sn  Sn17  1  0.655880  0.655910  0.000332  1
  Sn  Sn18  1  0.344090  0.344120  0.000332  1
  Sn  Sn19  1  0.333340  0.666660  0.814200  1
  Sn  Sn20  1  0.666432  0.333568  0.185715  1
  Sn  Sn21  1  0.999950  0.000050  0.499948  1
  Sn  Sn22  1  0.781452  0.218548  0.454542  1
  Sn  Sn23  1  0.218557  0.781443  0.545442  1
  Sn  Sn24  1  0.780626  0.562801  0.454008  1
  Sn  Sn25  1  0.218911  0.437321  0.544932  1
  Sn  Sn26  1  0.437199  0.219374  0.454008  1
  Sn  Sn27  1  0.562679  0.781089  0.544932  1
  Sn  Sn28  1  0.334094  0.665906  0.117222  1
  Sn  Sn29  1  0.666677  0.333323  0.883653  1
  Sn  Sn30  1  0.116117  0.883883  0.271604  1
  Sn  Sn31  1  0.883874  0.116126  0.728402  1
  Sn  Sn32  1  0.116886  0.232854  0.271571  1
  Sn  Sn33  1  0.883873  0.767718  0.728545  1
  Sn  Sn34  1  0.767146  0.883114  0.271571  1
  Sn  Sn35  1  0.232282  0.116127  0.728545  1
