# generated using pymatgen
data_CaYb5(TcH7)2
_symmetry_space_group_name_H-M   'P 1'
_cell_length_a   5.11421900
_cell_length_b   5.11421912
_cell_length_c   12.05144700
_cell_angle_alpha   90.00000000
_cell_angle_beta   90.00000000
_cell_angle_gamma   119.99999277
_symmetry_Int_Tables_number   1
_chemical_formula_structural   CaYb5(TcH7)2
_chemical_formula_sum   'Ca1 Yb5 Tc2 H14'
_cell_volume   272.97854291
_cell_formula_units_Z   1
loop_
 _symmetry_equiv_pos_site_id
 _symmetry_equiv_pos_as_xyz
  1  'x, y, z'
loop_
 _atom_site_type_symbol
 _atom_site_label
 _atom_site_symmetry_multiplicity
 _atom_site_fract_x
 _atom_site_fract_y
 _atom_site_fract_z
 _atom_site_occupancy
  Ca  Ca0  1  0.000000  0.000000  0.750000  1
  Yb  Yb1  1  0.000000  0.000000  0.250000  1
  Yb  Yb2  1  0.333333  0.666667  0.437410  1
  Yb  Yb3  1  0.666667  0.333333  0.562372  1
  Yb  Yb4  1  0.666667  0.333333  0.937628  1
  Yb  Yb5  1  0.333333  0.666667  0.062590  1
  Tc  Tc6  1  0.000000  0.000000  0.499863  1
  Tc  Tc7  1  0.000000  0.000000  0.000137  1
  H  H8  1  0.333333  0.666667  0.250000  1
  H  H9  1  0.666667  0.333333  0.750000  1
  H  H10  1  0.161158  0.838842  0.910594  1
  H  H11  1  0.161158  0.322317  0.910594  1
  H  H12  1  0.677683  0.838842  0.910594  1
  H  H13  1  0.838789  0.161211  0.089690  1
  H  H14  1  0.838789  0.677578  0.089690  1
  H  H15  1  0.322422  0.161211  0.089690  1
  H  H16  1  0.838789  0.161211  0.410310  1
  H  H17  1  0.838789  0.677578  0.410310  1
  H  H18  1  0.322422  0.161211  0.410310  1
  H  H19  1  0.161158  0.838842  0.589406  1
  H  H20  1  0.161158  0.322317  0.589406  1
  H  H21  1  0.677683  0.838842  0.589406  1
