# generated using pymatgen
data_Ti12Zn3Cu9N4
_symmetry_space_group_name_H-M   'P 1'
_cell_length_a   7.96619381
_cell_length_b   7.96619362
_cell_length_c   7.99208703
_cell_angle_alpha   60.10710993
_cell_angle_beta   60.10711748
_cell_angle_gamma   59.99999342
_symmetry_Int_Tables_number   1
_chemical_formula_structural   Ti12Zn3Cu9N4
_chemical_formula_sum   'Ti12 Zn3 Cu9 N4'
_cell_volume   359.20977731
_cell_formula_units_Z   1
loop_
 _symmetry_equiv_pos_site_id
 _symmetry_equiv_pos_as_xyz
  1  'x, y, z'
loop_
 _atom_site_type_symbol
 _atom_site_label
 _atom_site_symmetry_multiplicity
 _atom_site_fract_x
 _atom_site_fract_y
 _atom_site_fract_z
 _atom_site_occupancy
  Ti  Ti0  1  0.815758  0.185729  0.182755  1
  Ti  Ti1  1  0.185729  0.815758  0.182755  1
  Ti  Ti2  1  0.815758  0.815758  0.182755  1
  Ti  Ti3  1  0.183762  0.816323  0.816154  1
  Ti  Ti4  1  0.816323  0.183762  0.816154  1
  Ti  Ti5  1  0.183762  0.183762  0.816154  1
  Ti  Ti6  1  0.434242  0.064271  0.067245  1
  Ti  Ti7  1  0.064271  0.434242  0.067245  1
  Ti  Ti8  1  0.434242  0.434242  0.067245  1
  Ti  Ti9  1  0.066238  0.433677  0.433846  1
  Ti  Ti10  1  0.433677  0.066238  0.433846  1
  Ti  Ti11  1  0.066238  0.066238  0.433846  1
  Zn  Zn12  1  0.625000  0.625000  0.625000  1
  Zn  Zn13  1  0.125000  0.625000  0.625000  1
  Zn  Zn14  1  0.625000  0.125000  0.625000  1
  Cu  Cu15  1  0.414760  0.414760  0.755717  1
  Cu  Cu16  1  0.416542  0.416542  0.413514  1
  Cu  Cu17  1  0.753401  0.416542  0.413514  1
  Cu  Cu18  1  0.416542  0.753401  0.413514  1
  Cu  Cu19  1  0.835240  0.835240  0.494283  1
  Cu  Cu20  1  0.833458  0.833458  0.836486  1
  Cu  Cu21  1  0.496599  0.833458  0.836486  1
  Cu  Cu22  1  0.833458  0.496599  0.836486  1
  Cu  Cu23  1  0.625000  0.625000  0.125000  1
  N  N24  1  0.125000  0.125000  0.625000  1
  N  N25  1  0.125000  0.125000  0.125000  1
  N  N26  1  0.625000  0.125000  0.125000  1
  N  N27  1  0.125000  0.625000  0.125000  1
