# generated using pymatgen
data_Th8Si13Sn
_symmetry_space_group_name_H-M   'P 1'
_cell_length_a   8.11580863
_cell_length_b   8.00034335
_cell_length_c   8.65112500
_cell_angle_alpha   90.00000000
_cell_angle_beta   90.00000000
_cell_angle_gamma   120.59398350
_symmetry_Int_Tables_number   1
_chemical_formula_structural   Th8Si13Sn
_chemical_formula_sum   'Th8 Si13 Sn1'
_cell_volume   483.51837870
_cell_formula_units_Z   1
loop_
 _symmetry_equiv_pos_site_id
 _symmetry_equiv_pos_as_xyz
  1  'x, y, z'
loop_
 _atom_site_type_symbol
 _atom_site_label
 _atom_site_symmetry_multiplicity
 _atom_site_fract_x
 _atom_site_fract_y
 _atom_site_fract_z
 _atom_site_occupancy
  Th  Th0  1  0.266191  0.255470  0.989447  1
  Th  Th1  1  0.746529  0.751097  0.000689  1
  Th  Th2  1  0.746529  0.751097  0.499311  1
  Th  Th3  1  0.266191  0.255470  0.510553  1
  Th  Th4  1  0.252216  0.747626  0.496540  1
  Th  Th5  1  0.738558  0.252818  0.514308  1
  Th  Th6  1  0.738558  0.252818  0.985692  1
  Th  Th7  1  0.252216  0.747626  0.003460  1
  Si  Si8  1  0.942813  0.634117  0.750000  1
  Si  Si9  1  0.586620  0.419829  0.250000  1
  Si  Si10  1  0.413771  0.584084  0.750000  1
  Si  Si11  1  0.416571  0.593126  0.250000  1
  Si  Si12  1  0.594220  0.423275  0.750000  1
  Si  Si13  1  0.068990  0.939702  0.250000  1
  Si  Si14  1  0.934187  0.069680  0.750000  1
  Si  Si15  1  0.627593  0.945260  0.250000  1
  Si  Si16  1  0.378973  0.059052  0.750000  1
  Si  Si17  1  0.926967  0.591870  0.250000  1
  Si  Si18  1  0.072053  0.416307  0.750000  1
  Si  Si19  1  0.413141  0.074027  0.250000  1
  Si  Si20  1  0.589000  0.926367  0.750000  1
  Sn  Sn21  1  0.028114  0.309280  0.250000  1
