# generated using pymatgen
data_Tb8Tm12Si15Os
_symmetry_space_group_name_H-M   'P 1'
_cell_length_a   7.30685255
_cell_length_b   7.69930270
_cell_length_c   14.45087500
_cell_angle_alpha   90.00000000
_cell_angle_beta   90.00000000
_cell_angle_gamma   90.15122374
_symmetry_Int_Tables_number   1
_chemical_formula_structural   Tb8Tm12Si15Os
_chemical_formula_sum   'Tb8 Tm12 Si15 Os1'
_cell_volume   812.96971970
_cell_formula_units_Z   1
loop_
 _symmetry_equiv_pos_site_id
 _symmetry_equiv_pos_as_xyz
  1  'x, y, z'
loop_
 _atom_site_type_symbol
 _atom_site_label
 _atom_site_symmetry_multiplicity
 _atom_site_fract_x
 _atom_site_fract_y
 _atom_site_fract_z
 _atom_site_occupancy
  Tb  Tb0  1  0.016023  0.183079  0.097020  1
  Tb  Tb1  1  0.987114  0.827138  0.903055  1
  Tb  Tb2  1  0.484176  0.679636  0.903906  1
  Tb  Tb3  1  0.987114  0.827138  0.596945  1
  Tb  Tb4  1  0.515123  0.319814  0.096775  1
  Tb  Tb5  1  0.016023  0.183079  0.402980  1
  Tb  Tb6  1  0.515123  0.319814  0.403225  1
  Tb  Tb7  1  0.484176  0.679636  0.596094  1
  Tm  Tm8  1  0.155633  0.506539  0.750000  1
  Tm  Tm9  1  0.838318  0.488652  0.250000  1
  Tm  Tm10  1  0.338953  0.013270  0.250000  1
  Tm  Tm11  1  0.668069  0.990578  0.750000  1
  Tm  Tm12  1  0.315761  0.173789  0.626557  1
  Tm  Tm13  1  0.674765  0.823974  0.375076  1
  Tm  Tm14  1  0.174048  0.679753  0.375518  1
  Tm  Tm15  1  0.674765  0.823974  0.124924  1
  Tm  Tm16  1  0.836570  0.314711  0.626274  1
  Tm  Tm17  1  0.315761  0.173789  0.873443  1
  Tm  Tm18  1  0.836570  0.314711  0.873726  1
  Tm  Tm19  1  0.174048  0.679753  0.124482  1
  Si  Si20  1  0.969157  0.891525  0.250000  1
  Si  Si21  1  0.470045  0.608401  0.250000  1
  Si  Si22  1  0.529890  0.396767  0.750000  1
  Si  Si23  1  0.279765  0.865578  0.750000  1
  Si  Si24  1  0.717197  0.131279  0.250000  1
  Si  Si25  1  0.218856  0.370301  0.250000  1
  Si  Si26  1  0.771396  0.625233  0.750000  1
  Si  Si27  1  0.158335  0.472073  0.536869  1
  Si  Si28  1  0.845996  0.532901  0.462313  1
  Si  Si29  1  0.346397  0.968774  0.460942  1
  Si  Si30  1  0.845996  0.532901  0.037687  1
  Si  Si31  1  0.652074  0.031255  0.537455  1
  Si  Si32  1  0.158335  0.472073  0.963131  1
  Si  Si33  1  0.652074  0.031255  0.962545  1
  Si  Si34  1  0.346397  0.968774  0.039058  1
  Os  Os35  1  0.029953  0.098080  0.750000  1
