# generated using pymatgen
data_Ho3Tm13CdIn3Rh4
_symmetry_space_group_name_H-M   'P 1'
_cell_length_a   9.54577909
_cell_length_b   9.53719522
_cell_length_c   9.54880061
_cell_angle_alpha   60.04440356
_cell_angle_beta   60.03179975
_cell_angle_gamma   59.97996666
_symmetry_Int_Tables_number   1
_chemical_formula_structural   Ho3Tm13CdIn3Rh4
_chemical_formula_sum   'Ho3 Tm13 Cd1 In3 Rh4'
_cell_volume   614.96425002
_cell_formula_units_Z   1
loop_
 _symmetry_equiv_pos_site_id
 _symmetry_equiv_pos_as_xyz
  1  'x, y, z'
loop_
 _atom_site_type_symbol
 _atom_site_label
 _atom_site_symmetry_multiplicity
 _atom_site_fract_x
 _atom_site_fract_y
 _atom_site_fract_z
 _atom_site_occupancy
  Ho  Ho0  1  0.061322  0.061248  0.438602  1
  Ho  Ho1  1  0.436181  0.065716  0.435880  1
  Ho  Ho2  1  0.062078  0.438328  0.061541  1
  Tm  Tm3  1  0.050442  0.648666  0.648834  1
  Tm  Tm4  1  0.437070  0.436801  0.064173  1
  Tm  Tm5  1  0.648763  0.050322  0.648898  1
  Tm  Tm6  1  0.188816  0.811701  0.188441  1
  Tm  Tm7  1  0.188694  0.188810  0.811755  1
  Tm  Tm8  1  0.809733  0.809921  0.190720  1
  Tm  Tm9  1  0.439231  0.061031  0.060494  1
  Tm  Tm10  1  0.811865  0.188805  0.188330  1
  Tm  Tm11  1  0.063979  0.437397  0.437226  1
  Tm  Tm12  1  0.809720  0.190834  0.810223  1
  Tm  Tm13  1  0.190864  0.809752  0.810048  1
  Tm  Tm14  1  0.648483  0.648483  0.050976  1
  Tm  Tm15  1  0.651273  0.651430  0.651794  1
  Cd  Cd16  1  0.416970  0.418013  0.417250  1
  In  In17  1  0.747798  0.417843  0.417496  1
  In  In18  1  0.418236  0.747546  0.417105  1
  In  In19  1  0.417875  0.416897  0.748484  1
  Rh  Rh20  1  0.859075  0.858001  0.426125  1
  Rh  Rh21  1  0.856921  0.857488  0.857876  1
  Rh  Rh22  1  0.426596  0.858127  0.859422  1
  Rh  Rh23  1  0.858017  0.426842  0.858307  1
