# generated using pymatgen
data_RbIF8
_symmetry_space_group_name_H-M   'P 1'
_cell_length_a   7.83089300
_cell_length_b   7.83089300
_cell_length_c   5.26837700
_cell_angle_alpha   90.00000000
_cell_angle_beta   90.00000000
_cell_angle_gamma   90.00000000
_symmetry_Int_Tables_number   1
_chemical_formula_structural   RbIF8
_chemical_formula_sum   'Rb2 I2 F16'
_cell_volume   323.07207784
_cell_formula_units_Z   2
loop_
 _symmetry_equiv_pos_site_id
 _symmetry_equiv_pos_as_xyz
  1  'x, y, z'
loop_
 _atom_site_type_symbol
 _atom_site_label
 _atom_site_symmetry_multiplicity
 _atom_site_fract_x
 _atom_site_fract_y
 _atom_site_fract_z
 _atom_site_occupancy
  Rb  Rb0  1  0.000000  0.000000  0.500000  1
  Rb  Rb1  1  0.500000  0.500000  0.500000  1
  I  I2  1  0.000000  0.500000  0.107766  1
  I  I3  1  0.500000  0.000000  0.892234  1
  F  F4  1  0.709190  0.000000  0.088600  1
  F  F5  1  0.290810  0.000000  0.088600  1
  F  F6  1  0.500000  0.209190  0.088600  1
  F  F7  1  0.500000  0.790810  0.088600  1
  F  F8  1  0.852322  0.352322  0.311149  1
  F  F9  1  0.852322  0.647678  0.311149  1
  F  F10  1  0.147678  0.352322  0.311149  1
  F  F11  1  0.147678  0.647678  0.311149  1
  F  F12  1  0.647678  0.852322  0.688851  1
  F  F13  1  0.352322  0.147678  0.688851  1
  F  F14  1  0.352322  0.852322  0.688851  1
  F  F15  1  0.647678  0.147678  0.688851  1
  F  F16  1  0.000000  0.290810  0.911400  1
  F  F17  1  0.790810  0.500000  0.911400  1
  F  F18  1  0.209190  0.500000  0.911400  1
  F  F19  1  0.000000  0.709190  0.911400  1
