# generated using pymatgen
data_Nb8CuPbS16
_symmetry_space_group_name_H-M   'P 1'
_cell_length_a   6.71060300
_cell_length_b   6.71060267
_cell_length_c   13.78087400
_cell_angle_alpha   90.00000000
_cell_angle_beta   90.00000000
_cell_angle_gamma   120.00000657
_symmetry_Int_Tables_number   1
_chemical_formula_structural   Nb8CuPbS16
_chemical_formula_sum   'Nb8 Cu1 Pb1 S16'
_cell_volume   537.44055712
_cell_formula_units_Z   1
loop_
 _symmetry_equiv_pos_site_id
 _symmetry_equiv_pos_as_xyz
  1  'x, y, z'
loop_
 _atom_site_type_symbol
 _atom_site_label
 _atom_site_symmetry_multiplicity
 _atom_site_fract_x
 _atom_site_fract_y
 _atom_site_fract_z
 _atom_site_occupancy
  Nb  Nb0  1  0.504972  0.495028  0.770500  1
  Nb  Nb1  1  0.009941  0.504972  0.229500  1
  Nb  Nb2  1  0.495028  0.990059  0.229500  1
  Nb  Nb3  1  0.504972  0.009941  0.770500  1
  Nb  Nb4  1  0.990059  0.495028  0.770500  1
  Nb  Nb5  1  0.495028  0.504972  0.229500  1
  Nb  Nb6  1  0.000000  0.000000  0.771599  1
  Nb  Nb7  1  0.000000  0.000000  0.228401  1
  Cu  Cu8  1  0.000000  0.000000  0.000000  1
  Pb  Pb9  1  0.000000  0.000000  0.500000  1
  S  S10  1  0.832409  0.167591  0.342072  1
  S  S11  1  0.832409  0.664817  0.342072  1
  S  S12  1  0.335183  0.167591  0.342072  1
  S  S13  1  0.663949  0.831974  0.883631  1
  S  S14  1  0.167591  0.335183  0.657928  1
  S  S15  1  0.168026  0.831974  0.883631  1
  S  S16  1  0.168026  0.336051  0.883631  1
  S  S17  1  0.831974  0.168026  0.116369  1
  S  S18  1  0.336051  0.168026  0.116369  1
  S  S19  1  0.664817  0.832409  0.657928  1
  S  S20  1  0.333333  0.666667  0.114469  1
  S  S21  1  0.666667  0.333333  0.653443  1
  S  S22  1  0.666667  0.333333  0.885531  1
  S  S23  1  0.333333  0.666667  0.346557  1
  S  S24  1  0.831974  0.663949  0.116369  1
  S  S25  1  0.167591  0.832409  0.657928  1
