# generated using pymatgen
data_Y4Er4B24MoOs3
_symmetry_space_group_name_H-M   'P 1'
_cell_length_a   3.64750100
_cell_length_b   9.15703031
_cell_length_c   11.55532100
_cell_angle_alpha   89.90554389
_cell_angle_beta   90.00000000
_cell_angle_gamma   90.00000000
_symmetry_Int_Tables_number   1
_chemical_formula_structural   Y4Er4B24MoOs3
_chemical_formula_sum   'Y4 Er4 B24 Mo1 Os3'
_cell_volume   385.95040004
_cell_formula_units_Z   1
loop_
 _symmetry_equiv_pos_site_id
 _symmetry_equiv_pos_as_xyz
  1  'x, y, z'
loop_
 _atom_site_type_symbol
 _atom_site_label
 _atom_site_symmetry_multiplicity
 _atom_site_fract_x
 _atom_site_fract_y
 _atom_site_fract_z
 _atom_site_occupancy
  Y  Y0  1  0.000000  0.322007  0.413205  1
  Y  Y1  1  0.000000  0.677490  0.584817  1
  Y  Y2  1  0.000000  0.820434  0.087300  1
  Y  Y3  1  0.000000  0.177719  0.914556  1
  Er  Er4  1  0.000000  0.945005  0.372656  1
  Er  Er5  1  0.000000  0.057464  0.628447  1
  Er  Er6  1  0.000000  0.443311  0.126980  1
  Er  Er7  1  0.000000  0.556795  0.871252  1
  B  B8  1  0.500000  0.551413  0.435095  1
  B  B9  1  0.500000  0.445929  0.568275  1
  B  B10  1  0.500000  0.053709  0.067401  1
  B  B11  1  0.500000  0.946014  0.932781  1
  B  B12  1  0.500000  0.751078  0.421038  1
  B  B13  1  0.500000  0.251761  0.581616  1
  B  B14  1  0.500000  0.248622  0.080812  1
  B  B15  1  0.500000  0.751086  0.918516  1
  B  B16  1  0.500000  0.794323  0.264945  1
  B  B17  1  0.500000  0.208666  0.734249  1
  B  B18  1  0.500000  0.290861  0.232845  1
  B  B19  1  0.500000  0.709325  0.765985  1
  B  B20  1  0.500000  0.631298  0.183336  1
  B  B21  1  0.500000  0.368585  0.814910  1
  B  B22  1  0.500000  0.131045  0.313734  1
  B  B23  1  0.500000  0.869720  0.685701  1
  B  B24  1  0.500000  0.983273  0.213018  1
  B  B25  1  0.500000  0.017110  0.787710  1
  B  B26  1  0.500000  0.478850  0.286233  1
  B  B27  1  0.500000  0.516296  0.713243  1
  B  B28  1  0.500000  0.604438  0.027545  1
  B  B29  1  0.500000  0.395043  0.970261  1
  B  B30  1  0.500000  0.105336  0.471452  1
  B  B31  1  0.500000  0.897305  0.529889  1
  Mo  Mo32  1  0.000000  0.637879  0.320966  1
  Os  Os33  1  0.000000  0.360719  0.680729  1
  Os  Os34  1  0.000000  0.137944  0.177854  1
  Os  Os35  1  0.000000  0.862144  0.820648  1
