# generated using pymatgen
data_ErMg2P6BrN12
_symmetry_space_group_name_H-M   'P 1'
_cell_length_a   7.35896492
_cell_length_b   7.36614236
_cell_length_c   7.36614289
_cell_angle_alpha   109.60799943
_cell_angle_beta   109.65024340
_cell_angle_gamma   109.65020813
_symmetry_Int_Tables_number   1
_chemical_formula_structural   ErMg2P6BrN12
_chemical_formula_sum   'Er1 Mg2 P6 Br1 N12'
_cell_volume   305.48820815
_cell_formula_units_Z   1
loop_
 _symmetry_equiv_pos_site_id
 _symmetry_equiv_pos_as_xyz
  1  'x, y, z'
loop_
 _atom_site_type_symbol
 _atom_site_label
 _atom_site_symmetry_multiplicity
 _atom_site_fract_x
 _atom_site_fract_y
 _atom_site_fract_z
 _atom_site_occupancy
  Er  Er0  1  0.364646  0.021392  0.021392  1
  Mg  Mg1  1  0.003246  0.386577  0.004262  1
  Mg  Mg2  1  0.003246  0.004262  0.386577  1
  P  P3  1  0.502934  0.258425  0.740368  1
  P  P4  1  0.258690  0.748780  0.501044  1
  P  P5  1  0.752514  0.498759  0.249858  1
  P  P6  1  0.752514  0.249858  0.498759  1
  P  P7  1  0.502934  0.740368  0.258425  1
  P  P8  1  0.258690  0.501044  0.748780  1
  Br  Br9  1  0.971554  0.006203  0.006203  1
  N  N10  1  0.424009  0.700601  0.424847  1
  N  N11  1  0.675860  0.382465  0.382465  1
  N  N12  1  0.424009  0.424847  0.700601  1
  N  N13  1  0.725576  0.292596  0.718309  1
  N  N14  1  0.002536  0.568625  0.284742  1
  N  N15  1  0.283591  0.570559  0.999520  1
  N  N16  1  0.283591  0.999520  0.570559  1
  N  N17  1  0.002536  0.284742  0.568625  1
  N  N18  1  0.725576  0.718309  0.292596  1
  N  N19  1  0.577137  0.990561  0.289040  1
  N  N20  1  0.287474  0.722463  0.722463  1
  N  N21  1  0.577137  0.289040  0.990561  1
