# generated using pymatgen
data_Sc3NbFe2(B2Ru5)2
_symmetry_space_group_name_H-M   'P 1'
_cell_length_a   9.29652557
_cell_length_b   9.29652557
_cell_length_c   3.03309300
_cell_angle_alpha   90.00000000
_cell_angle_beta   90.00000000
_cell_angle_gamma   89.66144595
_symmetry_Int_Tables_number   1
_chemical_formula_structural   Sc3NbFe2(B2Ru5)2
_chemical_formula_sum   'Sc3 Nb1 Fe2 B4 Ru10'
_cell_volume   262.13166235
_cell_formula_units_Z   1
loop_
 _symmetry_equiv_pos_site_id
 _symmetry_equiv_pos_as_xyz
  1  'x, y, z'
loop_
 _atom_site_type_symbol
 _atom_site_label
 _atom_site_symmetry_multiplicity
 _atom_site_fract_x
 _atom_site_fract_y
 _atom_site_fract_z
 _atom_site_occupancy
  Sc  Sc0  1  0.826219  0.675048  0.000000  1
  Sc  Sc1  1  0.175048  0.326219  0.000000  1
  Sc  Sc2  1  0.324384  0.824384  0.000000  1
  Nb  Nb3  1  0.675629  0.175629  0.000000  1
  Fe  Fe4  1  0.498765  0.502577  0.000000  1
  Fe  Fe5  1  0.002577  0.998765  0.000000  1
  B  B6  1  0.625554  0.874089  0.000000  1
  B  B7  1  0.374089  0.125554  0.000000  1
  B  B8  1  0.123639  0.623639  0.000000  1
  B  B9  1  0.876602  0.376602  0.000000  1
  Ru  Ru10  1  0.571888  0.712868  0.500000  1
  Ru  Ru11  1  0.435087  0.286343  0.500000  1
  Ru  Ru12  1  0.069667  0.787289  0.500000  1
  Ru  Ru13  1  0.922086  0.209976  0.500000  1
  Ru  Ru14  1  0.287289  0.569667  0.500000  1
  Ru  Ru15  1  0.709976  0.422086  0.500000  1
  Ru  Ru16  1  0.212868  0.071888  0.500000  1
  Ru  Ru17  1  0.786343  0.935087  0.500000  1
  Ru  Ru18  1  0.503671  0.003671  0.500000  1
  Ru  Ru19  1  0.998619  0.498619  0.500000  1
