# generated using pymatgen
data_TbCuPd5O8
_symmetry_space_group_name_H-M   'P 1'
_cell_length_a   6.83799227
_cell_length_b   6.83799331
_cell_length_c   6.81044900
_cell_angle_alpha   60.13315536
_cell_angle_beta   60.13315032
_cell_angle_gamma   59.19540724
_symmetry_Int_Tables_number   1
_chemical_formula_structural   TbCuPd5O8
_chemical_formula_sum   'Tb1 Cu1 Pd5 O8'
_cell_volume   224.21681342
_cell_formula_units_Z   1
loop_
 _symmetry_equiv_pos_site_id
 _symmetry_equiv_pos_as_xyz
  1  'x, y, z'
loop_
 _atom_site_type_symbol
 _atom_site_label
 _atom_site_symmetry_multiplicity
 _atom_site_fract_x
 _atom_site_fract_y
 _atom_site_fract_z
 _atom_site_occupancy
  Tb  Tb0  1  0.000000  0.000000  0.000000  1
  Cu  Cu1  1  0.000000  0.000000  0.500000  1
  Pd  Pd2  1  0.500000  0.000000  0.000000  1
  Pd  Pd3  1  0.000000  0.500000  0.000000  1
  Pd  Pd4  1  0.500000  0.500000  0.000000  1
  Pd  Pd5  1  0.000000  0.500000  0.500000  1
  Pd  Pd6  1  0.500000  0.000000  0.500000  1
  O  O7  1  0.134786  0.134786  0.571676  1
  O  O8  1  0.138365  0.581457  0.140089  1
  O  O9  1  0.581457  0.138365  0.140089  1
  O  O10  1  0.861635  0.418543  0.859911  1
  O  O11  1  0.134786  0.134786  0.158752  1
  O  O12  1  0.865214  0.865214  0.841248  1
  O  O13  1  0.865214  0.865214  0.428324  1
  O  O14  1  0.418543  0.861635  0.859911  1
