# generated using pymatgen
data_Tb2Zn3Pt4
_symmetry_space_group_name_H-M   'P 1'
_cell_length_a   8.08709348
_cell_length_b   8.08709320
_cell_length_c   7.67035200
_cell_angle_alpha   90.00000000
_cell_angle_beta   90.00000000
_cell_angle_gamma   139.57695265
_symmetry_Int_Tables_number   1
_chemical_formula_structural   Tb2Zn3Pt4
_chemical_formula_sum   'Tb4 Zn6 Pt8'
_cell_volume   325.28253542
_cell_formula_units_Z   2
loop_
 _symmetry_equiv_pos_site_id
 _symmetry_equiv_pos_as_xyz
  1  'x, y, z'
loop_
 _atom_site_type_symbol
 _atom_site_label
 _atom_site_symmetry_multiplicity
 _atom_site_fract_x
 _atom_site_fract_y
 _atom_site_fract_z
 _atom_site_occupancy
  Tb  Tb0  1  0.111195  0.888805  0.413635  1
  Tb  Tb1  1  0.888805  0.111195  0.586365  1
  Tb  Tb2  1  0.388805  0.611195  0.913635  1
  Tb  Tb3  1  0.611195  0.388805  0.086365  1
  Zn  Zn4  1  0.000000  0.000000  0.000000  1
  Zn  Zn5  1  0.500000  0.500000  0.500000  1
  Zn  Zn6  1  0.022109  0.477891  0.250000  1
  Zn  Zn7  1  0.477891  0.022109  0.750000  1
  Zn  Zn8  1  0.977891  0.522109  0.750000  1
  Zn  Zn9  1  0.522109  0.977891  0.250000  1
  Pt  Pt10  1  0.192691  0.307309  0.250000  1
  Pt  Pt11  1  0.307309  0.192691  0.750000  1
  Pt  Pt12  1  0.807309  0.692691  0.750000  1
  Pt  Pt13  1  0.692691  0.807309  0.250000  1
  Pt  Pt14  1  0.177752  0.822248  0.027306  1
  Pt  Pt15  1  0.822248  0.177752  0.972694  1
  Pt  Pt16  1  0.322248  0.677752  0.527306  1
  Pt  Pt17  1  0.677752  0.322248  0.472694  1
