# generated using pymatgen
data_HoCoSbH
_symmetry_space_group_name_H-M   'P 1'
_cell_length_a   4.31282600
_cell_length_b   7.00264800
_cell_length_c   8.04190400
_cell_angle_alpha   90.00000000
_cell_angle_beta   90.00000000
_cell_angle_gamma   90.00000000
_symmetry_Int_Tables_number   1
_chemical_formula_structural   HoCoSbH
_chemical_formula_sum   'Ho4 Co4 Sb4 H4'
_cell_volume   242.87517009
_cell_formula_units_Z   4
loop_
 _symmetry_equiv_pos_site_id
 _symmetry_equiv_pos_as_xyz
  1  'x, y, z'
loop_
 _atom_site_type_symbol
 _atom_site_label
 _atom_site_symmetry_multiplicity
 _atom_site_fract_x
 _atom_site_fract_y
 _atom_site_fract_z
 _atom_site_occupancy
  Ho  Ho0  1  0.750000  0.012364  0.690124  1
  Ho  Ho1  1  0.250000  0.987636  0.309876  1
  Ho  Ho2  1  0.250000  0.487636  0.190124  1
  Ho  Ho3  1  0.750000  0.512364  0.809876  1
  Co  Co4  1  0.750000  0.782924  0.093014  1
  Co  Co5  1  0.250000  0.217076  0.906986  1
  Co  Co6  1  0.250000  0.717076  0.593014  1
  Co  Co7  1  0.750000  0.282924  0.406986  1
  Sb  Sb8  1  0.750000  0.665833  0.417904  1
  Sb  Sb9  1  0.250000  0.334167  0.582096  1
  Sb  Sb10  1  0.250000  0.834167  0.917904  1
  Sb  Sb11  1  0.750000  0.165833  0.082096  1
  H  H12  1  0.250000  0.443033  0.920283  1
  H  H13  1  0.750000  0.556967  0.079717  1
  H  H14  1  0.750000  0.056967  0.420283  1
  H  H15  1  0.250000  0.943033  0.579717  1
