# generated using pymatgen
data_ScTa2Re3Si2Ge
_symmetry_space_group_name_H-M   'P 1'
_cell_length_a   6.97788700
_cell_length_b   6.99016156
_cell_length_c   3.31042100
_cell_angle_alpha   90.00000000
_cell_angle_beta   90.00000000
_cell_angle_gamma   120.68823957
_symmetry_Int_Tables_number   1
_chemical_formula_structural   ScTa2Re3Si2Ge
_chemical_formula_sum   'Sc1 Ta2 Re3 Si2 Ge1'
_cell_volume   138.85807281
_cell_formula_units_Z   1
loop_
 _symmetry_equiv_pos_site_id
 _symmetry_equiv_pos_as_xyz
  1  'x, y, z'
loop_
 _atom_site_type_symbol
 _atom_site_label
 _atom_site_symmetry_multiplicity
 _atom_site_fract_x
 _atom_site_fract_y
 _atom_site_fract_z
 _atom_site_occupancy
  Sc  Sc0  1  0.397770  0.402610  0.500000  1
  Ta  Ta1  1  0.599315  0.996284  0.500000  1
  Ta  Ta2  1  0.009001  0.605045  0.500000  1
  Re  Re3  1  0.745078  0.750549  0.000000  1
  Re  Re4  1  0.251288  0.987640  0.000000  1
  Re  Re5  1  0.997014  0.255833  0.000000  1
  Si  Si6  1  0.334040  0.666106  0.000000  1
  Si  Si7  1  0.001421  0.001677  0.500000  1
  Ge  Ge8  1  0.665075  0.334257  0.000000  1
