# generated using pymatgen
data_Dy8In2OsPt
_symmetry_space_group_name_H-M   'P 1'
_cell_length_a   9.69293677
_cell_length_b   9.69293565
_cell_length_c   9.71490200
_cell_angle_alpha   59.92500561
_cell_angle_beta   59.92500942
_cell_angle_gamma   59.81107609
_symmetry_Int_Tables_number   1
_chemical_formula_structural   Dy8In2OsPt
_chemical_formula_sum   'Dy16 In4 Os2 Pt2'
_cell_volume   643.75173179
_cell_formula_units_Z   2
loop_
 _symmetry_equiv_pos_site_id
 _symmetry_equiv_pos_as_xyz
  1  'x, y, z'
loop_
 _atom_site_type_symbol
 _atom_site_label
 _atom_site_symmetry_multiplicity
 _atom_site_fract_x
 _atom_site_fract_y
 _atom_site_fract_z
 _atom_site_occupancy
  Dy  Dy0  1  0.348881  0.348881  0.352931  1
  Dy  Dy1  1  0.348881  0.348881  0.949308  1
  Dy  Dy2  1  0.346687  0.953774  0.349770  1
  Dy  Dy3  1  0.953774  0.346687  0.349770  1
  Dy  Dy4  1  0.813885  0.188563  0.191841  1
  Dy  Dy5  1  0.188563  0.813885  0.805711  1
  Dy  Dy6  1  0.188563  0.813885  0.191841  1
  Dy  Dy7  1  0.813885  0.188563  0.805711  1
  Dy  Dy8  1  0.189512  0.189512  0.810488  1
  Dy  Dy9  1  0.807889  0.807889  0.192111  1
  Dy  Dy10  1  0.938894  0.555694  0.565187  1
  Dy  Dy11  1  0.555694  0.938894  0.940225  1
  Dy  Dy12  1  0.555694  0.938894  0.565187  1
  Dy  Dy13  1  0.938894  0.555693  0.940225  1
  Dy  Dy14  1  0.562452  0.562452  0.937548  1
  Dy  Dy15  1  0.941924  0.941924  0.558075  1
  In  In16  1  0.582691  0.582691  0.583165  1
  In  In17  1  0.582691  0.582691  0.251452  1
  In  In18  1  0.583312  0.250831  0.582928  1
  In  In19  1  0.250831  0.583312  0.582928  1
  Os  Os20  1  0.143622  0.143622  0.138255  1
  Os  Os21  1  0.143622  0.143622  0.574503  1
  Pt  Pt22  1  0.144167  0.574991  0.140422  1
  Pt  Pt23  1  0.574991  0.144167  0.140422  1
