# generated using pymatgen
data_Nd2Ge5(AsRh6)2
_symmetry_space_group_name_H-M   'P 1'
_cell_length_a   9.99927142
_cell_length_b   10.00173231
_cell_length_c   3.96871136
_cell_angle_alpha   90.03435577
_cell_angle_beta   89.90018686
_cell_angle_gamma   119.78716211
_symmetry_Int_Tables_number   1
_chemical_formula_structural   Nd2Ge5(AsRh6)2
_chemical_formula_sum   'Nd2 Ge5 As2 Rh12'
_cell_volume   344.46927432
_cell_formula_units_Z   1
loop_
 _symmetry_equiv_pos_site_id
 _symmetry_equiv_pos_as_xyz
  1  'x, y, z'
loop_
 _atom_site_type_symbol
 _atom_site_label
 _atom_site_symmetry_multiplicity
 _atom_site_fract_x
 _atom_site_fract_y
 _atom_site_fract_z
 _atom_site_occupancy
  Nd  Nd0  1  0.332253  0.665080  0.749167  1
  Nd  Nd1  1  0.668539  0.334084  0.252112  1
  Ge  Ge2  1  0.999183  0.000607  0.586452  1
  Ge  Ge3  1  0.887065  0.599377  0.751315  1
  Ge  Ge4  1  0.401971  0.287688  0.751580  1
  Ge  Ge5  1  0.714114  0.114975  0.751115  1
  Ge  Ge6  1  0.110836  0.400738  0.250943  1
  As  As7  1  0.597003  0.709256  0.249488  1
  As  As8  1  0.289143  0.888175  0.249615  1
  Rh  Rh9  1  0.619330  0.556978  0.751764  1
  Rh  Rh10  1  0.444396  0.062063  0.751655  1
  Rh  Rh11  1  0.940014  0.382038  0.752356  1
  Rh  Rh12  1  0.382812  0.441804  0.249528  1
  Rh  Rh13  1  0.556019  0.938358  0.249783  1
  Rh  Rh14  1  0.060306  0.620133  0.249151  1
  Rh  Rh15  1  0.122010  0.853280  0.749537  1
  Rh  Rh16  1  0.147307  0.268349  0.749656  1
  Rh  Rh17  1  0.727774  0.876243  0.748678  1
  Rh  Rh18  1  0.883246  0.138713  0.252242  1
  Rh  Rh19  1  0.858404  0.745530  0.253666  1
  Rh  Rh20  1  0.258275  0.116530  0.254480  1
