# generated using pymatgen
data_Hf6Cu23S
_symmetry_space_group_name_H-M   'P 1'
_cell_length_a   8.33150011
_cell_length_b   8.33134553
_cell_length_c   8.33274605
_cell_angle_alpha   60.00520511
_cell_angle_beta   59.99079759
_cell_angle_gamma   60.01675409
_symmetry_Int_Tables_number   1
_chemical_formula_structural   Hf6Cu23S
_chemical_formula_sum   'Hf6 Cu23 S1'
_cell_volume   409.02826685
_cell_formula_units_Z   1
loop_
 _symmetry_equiv_pos_site_id
 _symmetry_equiv_pos_as_xyz
  1  'x, y, z'
loop_
 _atom_site_type_symbol
 _atom_site_label
 _atom_site_symmetry_multiplicity
 _atom_site_fract_x
 _atom_site_fract_y
 _atom_site_fract_z
 _atom_site_occupancy
  Hf  Hf0  1  0.714238  0.285755  0.285749  1
  Hf  Hf1  1  0.285763  0.714247  0.714250  1
  Hf  Hf2  1  0.285760  0.714202  0.285781  1
  Hf  Hf3  1  0.714240  0.285799  0.714218  1
  Hf  Hf4  1  0.285774  0.285801  0.714195  1
  Hf  Hf5  1  0.714227  0.714200  0.285803  1
  Cu  Cu6  1  0.120391  0.120430  0.120390  1
  Cu  Cu7  1  0.879609  0.879572  0.879608  1
  Cu  Cu8  1  0.120434  0.120386  0.638803  1
  Cu  Cu9  1  0.120384  0.638802  0.120390  1
  Cu  Cu10  1  0.879563  0.879612  0.361204  1
  Cu  Cu11  1  0.879618  0.361194  0.879610  1
  Cu  Cu12  1  0.638787  0.120385  0.120441  1
  Cu  Cu13  1  0.361212  0.879616  0.879559  1
  Cu  Cu14  1  0.500000  0.999999  0.000000  1
  Cu  Cu15  1  0.000000  0.500000  0.500000  1
  Cu  Cu16  1  0.000000  0.500000  0.000001  1
  Cu  Cu17  1  0.500000  0.999999  0.500000  1
  Cu  Cu18  1  0.000000  0.999999  0.500000  1
  Cu  Cu19  1  0.500000  0.500000  0.000001  1
  Cu  Cu20  1  0.330188  0.330272  0.330283  1
  Cu  Cu21  1  0.669812  0.669725  0.669718  1
  Cu  Cu22  1  0.330295  0.330191  0.009224  1
  Cu  Cu23  1  0.330280  0.009244  0.330187  1
  Cu  Cu24  1  0.669706  0.669810  0.990770  1
  Cu  Cu25  1  0.669718  0.990758  0.669812  1
  Cu  Cu26  1  0.009251  0.330270  0.330292  1
  Cu  Cu27  1  0.990751  0.669728  0.669710  1
  Cu  Cu28  1  0.999998  0.999996  0.000006  1
  S  S29  1  0.500000  0.500007  0.499997  1
