# generated using pymatgen
data_Dy15Er5Bi12
_symmetry_space_group_name_H-M   'P 1'
_cell_length_a   8.25577909
_cell_length_b   9.51228200
_cell_length_c   12.04179013
_cell_angle_alpha   89.99803784
_cell_angle_beta   90.01659369
_cell_angle_gamma   90.00265686
_symmetry_Int_Tables_number   1
_chemical_formula_structural   Dy15Er5Bi12
_chemical_formula_sum   'Dy15 Er5 Bi12'
_cell_volume   945.65737806
_cell_formula_units_Z   1
loop_
 _symmetry_equiv_pos_site_id
 _symmetry_equiv_pos_as_xyz
  1  'x, y, z'
loop_
 _atom_site_type_symbol
 _atom_site_label
 _atom_site_symmetry_multiplicity
 _atom_site_fract_x
 _atom_site_fract_y
 _atom_site_fract_z
 _atom_site_occupancy
  Dy  Dy0  1  0.352506  0.750035  0.215248  1
  Dy  Dy1  1  0.852468  0.750045  0.284783  1
  Dy  Dy2  1  0.647447  0.250078  0.784844  1
  Dy  Dy3  1  0.147691  0.250143  0.715277  1
  Dy  Dy4  1  0.807244  0.063780  0.558397  1
  Dy  Dy5  1  0.692726  0.936176  0.058384  1
  Dy  Dy6  1  0.192794  0.563768  0.441613  1
  Dy  Dy7  1  0.475598  0.250008  0.488297  1
  Dy  Dy8  1  0.975796  0.250060  0.011674  1
  Dy  Dy9  1  0.524416  0.750073  0.511742  1
  Dy  Dy10  1  0.024489  0.749967  0.988284  1
  Dy  Dy11  1  0.312589  0.250010  0.218644  1
  Dy  Dy12  1  0.812591  0.250064  0.281285  1
  Dy  Dy13  1  0.687466  0.749942  0.781291  1
  Dy  Dy14  1  0.187399  0.750074  0.718694  1
  Er  Er15  1  0.692712  0.563982  0.058405  1
  Er  Er16  1  0.192647  0.936001  0.441623  1
  Er  Er17  1  0.307275  0.064129  0.941623  1
  Er  Er18  1  0.807328  0.435988  0.558370  1
  Er  Er19  1  0.307183  0.435880  0.941587  1
  Bi  Bi20  1  0.407223  0.749810  0.956732  1
  Bi  Bi21  1  0.907381  0.749639  0.543206  1
  Bi  Bi22  1  0.592418  0.250551  0.043121  1
  Bi  Bi23  1  0.092631  0.249633  0.456808  1
  Bi  Bi24  1  0.564741  0.995566  0.325305  1
  Bi  Bi25  1  0.064745  0.504476  0.174617  1
  Bi  Bi26  1  0.435183  0.495554  0.674765  1
  Bi  Bi27  1  0.935250  0.004485  0.825336  1
  Bi  Bi28  1  0.435069  0.004502  0.674715  1
  Bi  Bi29  1  0.935204  0.495534  0.825371  1
  Bi  Bi30  1  0.564862  0.504478  0.325273  1
  Bi  Bi31  1  0.064930  0.995569  0.174684  1
