# generated using pymatgen
data_Ce10Zn4IrRu5
_symmetry_space_group_name_H-M   'P 1'
_cell_length_a   8.36476541
_cell_length_b   8.42326690
_cell_length_c   8.42318900
_cell_angle_alpha   109.80078143
_cell_angle_beta   109.60366688
_cell_angle_gamma   109.28866025
_symmetry_Int_Tables_number   1
_chemical_formula_structural   Ce10Zn4IrRu5
_chemical_formula_sum   'Ce10 Zn4 Ir1 Ru5'
_cell_volume   455.27679054
_cell_formula_units_Z   1
loop_
 _symmetry_equiv_pos_site_id
 _symmetry_equiv_pos_as_xyz
  1  'x, y, z'
loop_
 _atom_site_type_symbol
 _atom_site_label
 _atom_site_symmetry_multiplicity
 _atom_site_fract_x
 _atom_site_fract_y
 _atom_site_fract_z
 _atom_site_occupancy
  Ce  Ce0  1  0.249891  0.692896  0.442777  1
  Ce  Ce1  1  0.749902  0.806119  0.055879  1
  Ce  Ce2  1  0.445093  0.250718  0.690836  1
  Ce  Ce3  1  0.689916  0.440809  0.247127  1
  Ce  Ce4  1  0.054784  0.745530  0.805622  1
  Ce  Ce5  1  0.810733  0.058113  0.751161  1
  Ce  Ce6  1  0.215361  0.218908  0.223392  1
  Ce  Ce7  1  0.500384  0.000722  0.283338  1
  Ce  Ce8  1  0.285502  0.508002  0.003931  1
  Ce  Ce9  1  0.999990  0.283088  0.500054  1
  Zn  Zn10  1  0.499415  0.998055  0.907449  1
  Zn  Zn11  1  0.590729  0.591388  0.590502  1
  Zn  Zn12  1  0.909369  0.499674  0.000391  1
  Zn  Zn13  1  0.000466  0.908241  0.498670  1
  Ir  Ir14  1  0.249784  0.134650  0.884889  1
  Ru  Ru15  1  0.749447  0.363089  0.613280  1
  Ru  Ru16  1  0.885726  0.251355  0.136083  1
  Ru  Ru17  1  0.135649  0.887049  0.249535  1
  Ru  Ru18  1  0.613367  0.747698  0.363572  1
  Ru  Ru19  1  0.364494  0.613897  0.751512  1
