# generated using pymatgen
data_La2FeB10O19
_symmetry_space_group_name_H-M   'P 1'
_cell_length_a   6.45057312
_cell_length_b   6.45057353
_cell_length_c   9.04846737
_cell_angle_alpha   88.63409684
_cell_angle_beta   91.36590432
_cell_angle_gamma   118.12133624
_symmetry_Int_Tables_number   1
_chemical_formula_structural   La2FeB10O19
_chemical_formula_sum   'La2 Fe1 B10 O19'
_cell_volume   331.93154675
_cell_formula_units_Z   1
loop_
 _symmetry_equiv_pos_site_id
 _symmetry_equiv_pos_as_xyz
  1  'x, y, z'
loop_
 _atom_site_type_symbol
 _atom_site_label
 _atom_site_symmetry_multiplicity
 _atom_site_fract_x
 _atom_site_fract_y
 _atom_site_fract_z
 _atom_site_occupancy
  La  La0  1  0.157881  0.838588  0.138690  1
  La  La1  1  0.838589  0.157880  0.861310  1
  Fe  Fe2  1  0.802654  0.802654  0.500000  1
  B  B3  1  0.282978  0.365875  0.169001  1
  B  B4  1  0.365875  0.282978  0.830999  1
  B  B5  1  0.833613  0.183949  0.214123  1
  B  B6  1  0.183949  0.833613  0.785878  1
  B  B7  1  0.674154  0.450400  0.278725  1
  B  B8  1  0.450400  0.674154  0.721275  1
  B  B9  1  0.255856  0.785040  0.519409  1
  B  B10  1  0.785040  0.255856  0.480591  1
  B  B11  1  0.622862  0.760621  0.129142  1
  B  B12  1  0.760622  0.622861  0.870858  1
  O  O13  1  0.132105  0.836844  0.625936  1
  O  O14  1  0.836844  0.132105  0.374065  1
  O  O15  1  0.366343  0.590805  0.115002  1
  O  O16  1  0.590804  0.366344  0.884999  1
  O  O17  1  0.419280  0.710566  0.562713  1
  O  O18  1  0.710566  0.419280  0.437288  1
  O  O19  1  0.202330  0.804840  0.377829  1
  O  O20  1  0.804841  0.202329  0.622171  1
  O  O21  1  0.725334  0.699531  0.261784  1
  O  O22  1  0.699530  0.725335  0.738216  1
  O  O23  1  0.424370  0.286895  0.234630  1
  O  O24  1  0.286895  0.424370  0.765370  1
  O  O25  1  0.835763  0.408278  0.187928  1
  O  O26  1  0.408278  0.835764  0.812071  1
  O  O27  1  0.051043  0.197873  0.140956  1
  O  O28  1  0.197872  0.051043  0.859044  1
  O  O29  1  0.633451  0.992265  0.135978  1
  O  O30  1  0.992266  0.633450  0.864021  1
  O  O31  1  0.762511  0.762511  0.000000  1
