# generated using pymatgen
data_Y20MgIn5Ru2
_symmetry_space_group_name_H-M   'P 1'
_cell_length_a   9.79505901
_cell_length_b   9.85862020
_cell_length_c   9.73993700
_cell_angle_alpha   90.00000000
_cell_angle_beta   90.00000000
_cell_angle_gamma   120.24427182
_symmetry_Int_Tables_number   1
_chemical_formula_structural   Y20MgIn5Ru2
_chemical_formula_sum   'Y20 Mg1 In5 Ru2'
_cell_volume   812.52308514
_cell_formula_units_Z   1
loop_
 _symmetry_equiv_pos_site_id
 _symmetry_equiv_pos_as_xyz
  1  'x, y, z'
loop_
 _atom_site_type_symbol
 _atom_site_label
 _atom_site_symmetry_multiplicity
 _atom_site_fract_x
 _atom_site_fract_y
 _atom_site_fract_z
 _atom_site_occupancy
  Y  Y0  1  0.000366  0.000863  0.497386  1
  Y  Y1  1  0.000366  0.000863  0.002614  1
  Y  Y2  1  0.210699  0.790047  0.440403  1
  Y  Y3  1  0.211299  0.420647  0.439462  1
  Y  Y4  1  0.579845  0.790119  0.437662  1
  Y  Y5  1  0.789748  0.212728  0.558978  1
  Y  Y6  1  0.788908  0.577877  0.559498  1
  Y  Y7  1  0.419525  0.208520  0.561164  1
  Y  Y8  1  0.789748  0.212728  0.941022  1
  Y  Y9  1  0.788908  0.577877  0.940502  1
  Y  Y10  1  0.419525  0.208520  0.938836  1
  Y  Y11  1  0.210699  0.790047  0.059597  1
  Y  Y12  1  0.211299  0.420647  0.060538  1
  Y  Y13  1  0.579845  0.790119  0.062338  1
  Y  Y14  1  0.542472  0.457383  0.250000  1
  Y  Y15  1  0.542335  0.080817  0.250000  1
  Y  Y16  1  0.924216  0.460465  0.250000  1
  Y  Y17  1  0.457526  0.538492  0.750000  1
  Y  Y18  1  0.456430  0.917790  0.750000  1
  Y  Y19  1  0.083017  0.543262  0.750000  1
  Mg  Mg20  1  0.773726  0.886525  0.750000  1
  In  In21  1  0.883905  0.121117  0.250000  1
  In  In22  1  0.882526  0.761945  0.250000  1
  In  In23  1  0.236855  0.117979  0.250000  1
  In  In24  1  0.110464  0.879679  0.750000  1
  In  In25  1  0.110235  0.233908  0.750000  1
  Ru  Ru26  1  0.328903  0.664915  0.250000  1
  Ru  Ru27  1  0.666610  0.334120  0.750000  1
