# generated using pymatgen
data_Tm3In2Pt2Pb
_symmetry_space_group_name_H-M   'P 1'
_cell_length_a   7.83419300
_cell_length_b   7.73173700
_cell_length_c   3.57834000
_cell_angle_alpha   90.00000000
_cell_angle_beta   90.00000000
_cell_angle_gamma   120.43932378
_symmetry_Int_Tables_number   1
_chemical_formula_structural   Tm3In2Pt2Pb
_chemical_formula_sum   'Tm3 In2 Pt2 Pb1'
_cell_volume   186.87186300
_cell_formula_units_Z   1
loop_
 _symmetry_equiv_pos_site_id
 _symmetry_equiv_pos_as_xyz
  1  'x, y, z'
loop_
 _atom_site_type_symbol
 _atom_site_label
 _atom_site_symmetry_multiplicity
 _atom_site_fract_x
 _atom_site_fract_y
 _atom_site_fract_z
 _atom_site_occupancy
  Tm  Tm0  1  0.583007  0.000000  0.500001  1
  Tm  Tm1  1  0.423361  0.424660  0.500001  1
  Tm  Tm2  1  0.998701  0.575339  0.500001  1
  In  In3  1  0.995299  0.232585  0.000000  1
  In  In4  1  0.762714  0.767416  0.000000  1
  Pt  Pt5  1  0.671751  0.338615  0.000000  1
  Pt  Pt6  1  0.333135  0.661385  0.000000  1
  Pb  Pb7  1  0.232030  0.000000  0.000000  1
