# generated using pymatgen
data_Sm2Dy6Co3Si12Ir
_symmetry_space_group_name_H-M   'P 1'
_cell_length_a   8.05216700
_cell_length_b   8.05216806
_cell_length_c   8.01230500
_cell_angle_alpha   89.99994308
_cell_angle_beta   90.00000000
_cell_angle_gamma   119.99995867
_symmetry_Int_Tables_number   1
_chemical_formula_structural   Sm2Dy6Co3Si12Ir
_chemical_formula_sum   'Sm2 Dy6 Co3 Si12 Ir1'
_cell_volume   449.89782094
_cell_formula_units_Z   1
loop_
 _symmetry_equiv_pos_site_id
 _symmetry_equiv_pos_as_xyz
  1  'x, y, z'
loop_
 _atom_site_type_symbol
 _atom_site_label
 _atom_site_symmetry_multiplicity
 _atom_site_fract_x
 _atom_site_fract_y
 _atom_site_fract_z
 _atom_site_occupancy
  Sm  Sm0  1  0.000000  0.000000  0.247948  1
  Sm  Sm1  1  0.000000  0.000000  0.751924  1
  Dy  Dy2  1  0.012050  0.506026  0.248653  1
  Dy  Dy3  1  0.493974  0.506025  0.248652  1
  Dy  Dy4  1  0.504171  0.008341  0.749738  1
  Dy  Dy5  1  0.493974  0.987950  0.248652  1
  Dy  Dy6  1  0.504171  0.495830  0.749737  1
  Dy  Dy7  1  0.991659  0.495829  0.749738  1
  Co  Co8  1  0.333333  0.666667  0.968527  1
  Co  Co9  1  0.333333  0.666667  0.530776  1
  Co  Co10  1  0.666667  0.333334  0.033097  1
  Si  Si11  1  0.172142  0.344284  0.000513  1
  Si  Si12  1  0.655716  0.827858  0.000512  1
  Si  Si13  1  0.173009  0.346016  0.498815  1
  Si  Si14  1  0.345279  0.172639  0.998509  1
  Si  Si15  1  0.172142  0.827857  0.000513  1
  Si  Si16  1  0.653984  0.826991  0.498814  1
  Si  Si17  1  0.827360  0.654721  0.998509  1
  Si  Si18  1  0.332735  0.166368  0.502164  1
  Si  Si19  1  0.173009  0.826991  0.498815  1
  Si  Si20  1  0.833632  0.667265  0.502165  1
  Si  Si21  1  0.827360  0.172639  0.998509  1
  Si  Si22  1  0.833632  0.166368  0.502165  1
  Ir  Ir23  1  0.666667  0.333333  0.472553  1
