# generated using pymatgen
data_LiLa2YMg2Si2Ag
_symmetry_space_group_name_H-M   'P 1'
_cell_length_a   7.44057300
_cell_length_b   7.44057269
_cell_length_c   4.38844100
_cell_angle_alpha   90.00000000
_cell_angle_beta   90.00000000
_cell_angle_gamma   120.51996675
_symmetry_Int_Tables_number   1
_chemical_formula_structural   LiLa2YMg2Si2Ag
_chemical_formula_sum   'Li1 La2 Y1 Mg2 Si2 Ag1'
_cell_volume   209.29276404
_cell_formula_units_Z   1
loop_
 _symmetry_equiv_pos_site_id
 _symmetry_equiv_pos_as_xyz
  1  'x, y, z'
loop_
 _atom_site_type_symbol
 _atom_site_label
 _atom_site_symmetry_multiplicity
 _atom_site_fract_x
 _atom_site_fract_y
 _atom_site_fract_z
 _atom_site_occupancy
  Li  Li0  1  0.750622  0.754869  0.000000  1
  La  La1  1  0.430010  0.429515  0.500000  1
  La  La2  1  0.996987  0.578171  0.500000  1
  Y  Y3  1  0.576907  0.996827  0.500000  1
  Mg  Mg4  1  0.247923  0.999929  0.000000  1
  Mg  Mg5  1  0.995232  0.239892  0.000000  1
  Si  Si6  1  0.665413  0.321167  0.000000  1
  Si  Si7  1  0.342800  0.679761  0.000000  1
  Ag  Ag8  1  0.994106  0.999868  0.500000  1
