# generated using pymatgen
data_Sr4Ga14CuPt
_symmetry_space_group_name_H-M   'P 1'
_cell_length_a   6.23040558
_cell_length_b   6.23366858
_cell_length_c   11.72574100
_cell_angle_alpha   74.58484884
_cell_angle_beta   74.59309692
_cell_angle_gamma   90.00000381
_symmetry_Int_Tables_number   1
_chemical_formula_structural   Sr4Ga14CuPt
_chemical_formula_sum   'Sr4 Ga14 Cu1 Pt1'
_cell_volume   422.02377339
_cell_formula_units_Z   1
loop_
 _symmetry_equiv_pos_site_id
 _symmetry_equiv_pos_as_xyz
  1  'x, y, z'
loop_
 _atom_site_type_symbol
 _atom_site_label
 _atom_site_symmetry_multiplicity
 _atom_site_fract_x
 _atom_site_fract_y
 _atom_site_fract_z
 _atom_site_occupancy
  Sr  Sr0  1  0.998751  0.998751  0.002499  1
  Sr  Sr1  1  0.499379  0.499379  0.001244  1
  Sr  Sr2  1  0.751764  0.251764  0.496473  1
  Sr  Sr3  1  0.248723  0.748723  0.502554  1
  Ga  Ga4  1  0.198729  0.198729  0.602544  1
  Ga  Ga5  1  0.809608  0.809608  0.380785  1
  Ga  Ga6  1  0.615681  0.122808  0.251353  1
  Ga  Ga7  1  0.132966  0.625839  0.251353  1
  Ga  Ga8  1  0.615681  0.625839  0.251353  1
  Ga  Ga9  1  0.132966  0.122808  0.251353  1
  Ga  Ga10  1  0.869044  0.361111  0.753513  1
  Ga  Ga11  1  0.377442  0.885375  0.753513  1
  Ga  Ga12  1  0.869044  0.885375  0.753513  1
  Ga  Ga13  1  0.377442  0.361111  0.753513  1
  Ga  Ga14  1  0.691433  0.691433  0.617134  1
  Ga  Ga15  1  0.059391  0.559391  0.881218  1
  Ga  Ga16  1  0.449755  0.949755  0.100488  1
  Ga  Ga17  1  0.941597  0.441597  0.116807  1
  Cu  Cu18  1  0.562141  0.062141  0.875718  1
  Pt  Pt19  1  0.313294  0.313294  0.373412  1
