# generated using pymatgen
data_Dy5HoInSi2
_symmetry_space_group_name_H-M   'P 1'
_cell_length_a   8.52320516
_cell_length_b   8.52519792
_cell_length_c   8.52519786
_cell_angle_alpha   112.42536679
_cell_angle_beta   110.94136347
_cell_angle_gamma   105.14439716
_symmetry_Int_Tables_number   1
_chemical_formula_structural   Dy5HoInSi2
_chemical_formula_sum   'Dy10 Ho2 In2 Si4'
_cell_volume   474.69870805
_cell_formula_units_Z   2
loop_
 _symmetry_equiv_pos_site_id
 _symmetry_equiv_pos_as_xyz
  1  'x, y, z'
loop_
 _atom_site_type_symbol
 _atom_site_label
 _atom_site_symmetry_multiplicity
 _atom_site_fract_x
 _atom_site_fract_y
 _atom_site_fract_z
 _atom_site_occupancy
  Dy  Dy0  1  0.319534  0.615877  0.296209  1
  Dy  Dy1  1  0.680466  0.384123  0.703791  1
  Dy  Dy2  1  0.319534  0.023324  0.703658  1
  Dy  Dy3  1  0.680466  0.976676  0.296342  1
  Dy  Dy4  1  0.186389  0.278321  0.464810  1
  Dy  Dy5  1  0.813611  0.721679  0.535190  1
  Dy  Dy6  1  0.186389  0.721578  0.908068  1
  Dy  Dy7  1  0.813611  0.278422  0.091932  1
  Dy  Dy8  1  0.442691  0.238009  0.204683  1
  Dy  Dy9  1  0.557309  0.761991  0.795317  1
  Ho  Ho10  1  0.033056  0.237903  0.795153  1
  Ho  Ho11  1  0.966944  0.762097  0.204847  1
  In  In12  1  0.500000  0.500000  0.000000  1
  In  In13  1  0.000000  0.000000  0.000000  1
  Si  Si14  1  0.115501  0.615520  0.499981  1
  Si  Si15  1  0.884499  0.384480  0.500019  1
  Si  Si16  1  0.369194  0.999900  0.369294  1
  Si  Si17  1  0.630806  0.000100  0.630706  1
