# generated using pymatgen
data_LiEr16Tl2InRh4
_symmetry_space_group_name_H-M   'P 1'
_cell_length_a   9.56982915
_cell_length_b   9.58510001
_cell_length_c   9.56982914
_cell_angle_alpha   60.04204012
_cell_angle_beta   59.88493474
_cell_angle_gamma   60.04204200
_symmetry_Int_Tables_number   1
_chemical_formula_structural   LiEr16Tl2InRh4
_chemical_formula_sum   'Li1 Er16 Tl2 In1 Rh4'
_cell_volume   620.56336459
_cell_formula_units_Z   1
loop_
 _symmetry_equiv_pos_site_id
 _symmetry_equiv_pos_as_xyz
  1  'x, y, z'
loop_
 _atom_site_type_symbol
 _atom_site_label
 _atom_site_symmetry_multiplicity
 _atom_site_fract_x
 _atom_site_fract_y
 _atom_site_fract_z
 _atom_site_occupancy
  Li  Li0  1  0.430402  0.712118  0.430402  1
  Er  Er1  1  0.189028  0.191674  0.809288  1
  Er  Er2  1  0.437932  0.058983  0.062690  1
  Er  Er3  1  0.435370  0.062749  0.435370  1
  Er  Er4  1  0.062347  0.438458  0.062347  1
  Er  Er5  1  0.647022  0.055614  0.647022  1
  Er  Er6  1  0.187030  0.814301  0.813085  1
  Er  Er7  1  0.062690  0.058983  0.437932  1
  Er  Er8  1  0.809288  0.191674  0.189028  1
  Er  Er9  1  0.813085  0.814301  0.187030  1
  Er  Er10  1  0.650785  0.647894  0.046333  1
  Er  Er11  1  0.654148  0.652913  0.654148  1
  Er  Er12  1  0.064951  0.434107  0.436065  1
  Er  Er13  1  0.046333  0.647894  0.650785  1
  Er  Er14  1  0.810309  0.190232  0.810309  1
  Er  Er15  1  0.436065  0.434107  0.064951  1
  Er  Er16  1  0.186360  0.814614  0.186360  1
  Tl  Tl17  1  0.412477  0.422802  0.752813  1
  Tl  Tl18  1  0.752813  0.422802  0.412477  1
  In  In19  1  0.414695  0.420444  0.414695  1
  Rh  Rh20  1  0.857580  0.427285  0.857580  1
  Rh  Rh21  1  0.857685  0.862068  0.427182  1
  Rh  Rh22  1  0.427182  0.862068  0.857685  1
  Rh  Rh23  1  0.854421  0.861918  0.854421  1
