# generated using pymatgen
data_Tm13Th3(ZnCo)4
_symmetry_space_group_name_H-M   'P 1'
_cell_length_a   9.32068321
_cell_length_b   9.32710610
_cell_length_c   9.32710600
_cell_angle_alpha   60.00000034
_cell_angle_beta   59.97720248
_cell_angle_gamma   59.97720969
_symmetry_Int_Tables_number   1
_chemical_formula_structural   Tm13Th3(ZnCo)4
_chemical_formula_sum   'Tm13 Th3 Zn4 Co4'
_cell_volume   573.16131028
_cell_formula_units_Z   1
loop_
 _symmetry_equiv_pos_site_id
 _symmetry_equiv_pos_as_xyz
  1  'x, y, z'
loop_
 _atom_site_type_symbol
 _atom_site_label
 _atom_site_symmetry_multiplicity
 _atom_site_fract_x
 _atom_site_fract_y
 _atom_site_fract_z
 _atom_site_occupancy
  Tm  Tm0  1  0.194848  0.601718  0.601718  1
  Tm  Tm1  1  0.060915  0.439879  0.439879  1
  Tm  Tm2  1  0.438749  0.061865  0.061865  1
  Tm  Tm3  1  0.438749  0.061865  0.437520  1
  Tm  Tm4  1  0.060915  0.439879  0.059326  1
  Tm  Tm5  1  0.438749  0.437520  0.061865  1
  Tm  Tm6  1  0.060915  0.059326  0.439879  1
  Tm  Tm7  1  0.185272  0.814551  0.814551  1
  Tm  Tm8  1  0.815006  0.184703  0.184703  1
  Tm  Tm9  1  0.815006  0.184703  0.815586  1
  Tm  Tm10  1  0.185272  0.814551  0.185625  1
  Tm  Tm11  1  0.815006  0.815586  0.184703  1
  Tm  Tm12  1  0.185272  0.185625  0.814551  1
  Th  Th13  1  0.596773  0.599911  0.599911  1
  Th  Th14  1  0.596773  0.599911  0.203405  1
  Th  Th15  1  0.596773  0.203405  0.599911  1
  Zn  Zn16  1  0.832341  0.828683  0.828683  1
  Zn  Zn17  1  0.832341  0.828683  0.510293  1
  Zn  Zn18  1  0.832341  0.510293  0.828683  1
  Zn  Zn19  1  0.508454  0.830515  0.830515  1
  Co  Co20  1  0.396999  0.391367  0.391367  1
  Co  Co21  1  0.396999  0.391367  0.820268  1
  Co  Co22  1  0.396999  0.820268  0.391367  1
  Co  Co23  1  0.818524  0.393826  0.393826  1
