# generated using pymatgen
data_Nd4Y4Re(B8Ru)3
_symmetry_space_group_name_H-M   'P 1'
_cell_length_a   3.72488100
_cell_length_b   9.24409179
_cell_length_c   11.67134401
_cell_angle_alpha   89.88122678
_cell_angle_beta   90.00000000
_cell_angle_gamma   90.00000000
_symmetry_Int_Tables_number   1
_chemical_formula_structural   Nd4Y4Re(B8Ru)3
_chemical_formula_sum   'Nd4 Y4 Re1 B24 Ru3'
_cell_volume   401.88018062
_cell_formula_units_Z   1
loop_
 _symmetry_equiv_pos_site_id
 _symmetry_equiv_pos_as_xyz
  1  'x, y, z'
loop_
 _atom_site_type_symbol
 _atom_site_label
 _atom_site_symmetry_multiplicity
 _atom_site_fract_x
 _atom_site_fract_y
 _atom_site_fract_z
 _atom_site_occupancy
  Nd  Nd0  1  0.000000  0.823929  0.084910  1
  Nd  Nd1  1  0.000000  0.178631  0.912708  1
  Nd  Nd2  1  0.000000  0.323043  0.416092  1
  Nd  Nd3  1  0.000000  0.676122  0.586510  1
  Y  Y4  1  0.000000  0.443350  0.129489  1
  Y  Y5  1  0.000000  0.556124  0.871736  1
  Y  Y6  1  0.000000  0.942610  0.370922  1
  Y  Y7  1  0.000000  0.056182  0.628009  1
  Re  Re8  1  0.000000  0.361070  0.680074  1
  B  B9  1  0.500000  0.056222  0.069172  1
  B  B10  1  0.500000  0.944143  0.930294  1
  B  B11  1  0.500000  0.555745  0.430272  1
  B  B12  1  0.500000  0.445105  0.569382  1
  B  B13  1  0.500000  0.249002  0.082769  1
  B  B14  1  0.500000  0.751415  0.917539  1
  B  B15  1  0.500000  0.748730  0.416838  1
  B  B16  1  0.500000  0.251034  0.583054  1
  B  B17  1  0.500000  0.289209  0.233489  1
  B  B18  1  0.500000  0.710127  0.767422  1
  B  B19  1  0.500000  0.789798  0.266454  1
  B  B20  1  0.500000  0.209181  0.733425  1
  B  B21  1  0.500000  0.130101  0.314310  1
  B  B22  1  0.500000  0.869148  0.686027  1
  B  B23  1  0.500000  0.630999  0.185395  1
  B  B24  1  0.500000  0.369355  0.814123  1
  B  B25  1  0.500000  0.486094  0.286724  1
  B  B26  1  0.500000  0.515365  0.713493  1
  B  B27  1  0.500000  0.985968  0.212691  1
  B  B28  1  0.500000  0.014263  0.786470  1
  B  B29  1  0.500000  0.101838  0.471058  1
  B  B30  1  0.500000  0.896097  0.527831  1
  B  B31  1  0.500000  0.603587  0.029020  1
  B  B32  1  0.500000  0.397159  0.972569  1
  Ru  Ru33  1  0.000000  0.139007  0.180345  1
  Ru  Ru34  1  0.000000  0.861150  0.820062  1
  Ru  Ru35  1  0.000000  0.639102  0.319322  1
