# generated using pymatgen
data_CaDy3Ir8
_symmetry_space_group_name_H-M   'P 1'
_cell_length_a   5.36157400
_cell_length_b   5.36157425
_cell_length_c   8.72989200
_cell_angle_alpha   90.00000000
_cell_angle_beta   90.00000000
_cell_angle_gamma   120.00001079
_symmetry_Int_Tables_number   1
_chemical_formula_structural   CaDy3Ir8
_chemical_formula_sum   'Ca1 Dy3 Ir8'
_cell_volume   217.33220417
_cell_formula_units_Z   1
loop_
 _symmetry_equiv_pos_site_id
 _symmetry_equiv_pos_as_xyz
  1  'x, y, z'
loop_
 _atom_site_type_symbol
 _atom_site_label
 _atom_site_symmetry_multiplicity
 _atom_site_fract_x
 _atom_site_fract_y
 _atom_site_fract_z
 _atom_site_occupancy
  Ca  Ca0  1  0.666666  0.333334  0.934769  1
  Dy  Dy1  1  0.333334  0.666667  0.063319  1
  Dy  Dy2  1  0.333334  0.666667  0.431478  1
  Dy  Dy3  1  0.666666  0.333334  0.572819  1
  Ir  Ir4  1  0.000000  0.000000  0.999461  1
  Ir  Ir5  1  0.339729  0.169865  0.251204  1
  Ir  Ir6  1  0.830135  0.169865  0.251204  1
  Ir  Ir7  1  0.830135  0.660270  0.251204  1
  Ir  Ir8  1  0.000000  0.000000  0.499673  1
  Ir  Ir9  1  0.169811  0.339622  0.748290  1
  Ir  Ir10  1  0.169812  0.830188  0.748290  1
  Ir  Ir11  1  0.660376  0.830188  0.748290  1
