# generated using pymatgen
data_Sr6TaP3S16
_symmetry_space_group_name_H-M   'P 1'
_cell_length_a   10.67392093
_cell_length_b   10.67392044
_cell_length_c   10.67392100
_cell_angle_alpha   51.64257011
_cell_angle_beta   51.64257217
_cell_angle_gamma   51.64257511
_symmetry_Int_Tables_number   1
_chemical_formula_structural   Sr6TaP3S16
_chemical_formula_sum   'Sr6 Ta1 P3 S16'
_cell_volume   690.78445151
_cell_formula_units_Z   1
loop_
 _symmetry_equiv_pos_site_id
 _symmetry_equiv_pos_as_xyz
  1  'x, y, z'
loop_
 _atom_site_type_symbol
 _atom_site_label
 _atom_site_symmetry_multiplicity
 _atom_site_fract_x
 _atom_site_fract_y
 _atom_site_fract_z
 _atom_site_occupancy
  Sr  Sr0  1  0.743984  0.434864  0.069797  1
  Sr  Sr1  1  0.576299  0.924442  0.251251  1
  Sr  Sr2  1  0.069797  0.743984  0.434865  1
  Sr  Sr3  1  0.924443  0.251251  0.576299  1
  Sr  Sr4  1  0.434865  0.069798  0.743983  1
  Sr  Sr5  1  0.251251  0.576299  0.924443  1
  Ta  Ta6  1  0.158866  0.158866  0.158866  1
  P  P7  1  0.340314  0.340314  0.340314  1
  P  P8  1  0.659860  0.659860  0.659860  1
  P  P9  1  0.840202  0.840202  0.840202  1
  S  S10  1  0.623388  0.786960  0.037735  1
  S  S11  1  0.075803  0.075803  0.075803  1
  S  S12  1  0.541636  0.278929  0.129007  1
  S  S13  1  0.937674  0.392884  0.228482  1
  S  S14  1  0.129007  0.541635  0.278929  1
  S  S15  1  0.228481  0.937675  0.392884  1
  S  S16  1  0.415572  0.415572  0.415572  1
  S  S17  1  0.720253  0.872240  0.459155  1
  S  S18  1  0.278929  0.129007  0.541636  1
  S  S19  1  0.585088  0.585088  0.585088  1
  S  S20  1  0.786960  0.037735  0.623388  1
  S  S21  1  0.872240  0.459156  0.720253  1
  S  S22  1  0.037735  0.623388  0.786960  1
  S  S23  1  0.459156  0.720253  0.872240  1
  S  S24  1  0.915314  0.915314  0.915314  1
  S  S25  1  0.392885  0.228481  0.937674  1
