# generated using pymatgen
data_Pr10AgBi6Se
_symmetry_space_group_name_H-M   'P 1'
_cell_length_a   9.74708800
_cell_length_b   9.74708692
_cell_length_c   6.70830600
_cell_angle_alpha   90.00000000
_cell_angle_beta   90.00000000
_cell_angle_gamma   120.00001044
_symmetry_Int_Tables_number   1
_chemical_formula_structural   Pr10AgBi6Se
_chemical_formula_sum   'Pr10 Ag1 Bi6 Se1'
_cell_volume   551.94166184
_cell_formula_units_Z   1
loop_
 _symmetry_equiv_pos_site_id
 _symmetry_equiv_pos_as_xyz
  1  'x, y, z'
loop_
 _atom_site_type_symbol
 _atom_site_label
 _atom_site_symmetry_multiplicity
 _atom_site_fract_x
 _atom_site_fract_y
 _atom_site_fract_z
 _atom_site_occupancy
  Pr  Pr0  1  0.262998  0.000000  0.743646  1
  Pr  Pr1  1  0.737002  0.000000  0.256354  1
  Pr  Pr2  1  0.000000  0.262998  0.743646  1
  Pr  Pr3  1  0.000000  0.737002  0.256354  1
  Pr  Pr4  1  0.737002  0.737002  0.743646  1
  Pr  Pr5  1  0.262998  0.262998  0.256354  1
  Pr  Pr6  1  0.333333  0.666667  0.500000  1
  Pr  Pr7  1  0.666667  0.333333  0.500000  1
  Pr  Pr8  1  0.666667  0.333333  0.000000  1
  Pr  Pr9  1  0.333333  0.666667  0.000000  1
  Ag  Ag10  1  0.000000  0.000000  0.000000  1
  Bi  Bi11  1  0.614451  0.000000  0.754081  1
  Bi  Bi12  1  0.385549  0.000000  0.245919  1
  Bi  Bi13  1  0.000000  0.614451  0.754081  1
  Bi  Bi14  1  0.000000  0.385549  0.245919  1
  Bi  Bi15  1  0.385549  0.385549  0.754081  1
  Bi  Bi16  1  0.614451  0.614451  0.245919  1
  Se  Se17  1  0.000000  0.000000  0.500000  1
