# generated using pymatgen
data_Tm4Al7Ga5
_symmetry_space_group_name_H-M   'P 1'
_cell_length_a   6.09199621
_cell_length_b   6.07596927
_cell_length_c   9.41254000
_cell_angle_alpha   89.99999514
_cell_angle_beta   89.99992477
_cell_angle_gamma   120.29047572
_symmetry_Int_Tables_number   1
_chemical_formula_structural   Tm4Al7Ga5
_chemical_formula_sum   'Tm4 Al7 Ga5'
_cell_volume   300.83891361
_cell_formula_units_Z   1
loop_
 _symmetry_equiv_pos_site_id
 _symmetry_equiv_pos_as_xyz
  1  'x, y, z'
loop_
 _atom_site_type_symbol
 _atom_site_label
 _atom_site_symmetry_multiplicity
 _atom_site_fract_x
 _atom_site_fract_y
 _atom_site_fract_z
 _atom_site_occupancy
  Tm  Tm0  1  0.000741  0.001321  0.502000  1
  Tm  Tm1  1  0.000741  0.001326  0.998002  1
  Tm  Tm2  1  0.332200  0.665676  0.249999  1
  Tm  Tm3  1  0.667288  0.333418  0.749999  1
  Al  Al4  1  0.501564  0.500910  0.499274  1
  Al  Al5  1  0.500631  0.001296  0.500083  1
  Al  Al6  1  0.999423  0.500973  0.499286  1
  Al  Al7  1  0.501564  0.500909  0.000726  1
  Al  Al8  1  0.500628  0.001296  0.999915  1
  Al  Al9  1  0.999422  0.500975  0.000713  1
  Al  Al10  1  0.816559  0.632931  0.250001  1
  Ga  Ga11  1  0.362399  0.179654  0.250001  1
  Ga  Ga12  1  0.817319  0.180206  0.250002  1
  Ga  Ga13  1  0.182329  0.364913  0.750000  1
  Ga  Ga14  1  0.634773  0.817349  0.750000  1
  Ga  Ga15  1  0.182420  0.816847  0.749997  1
