# generated using pymatgen
data_MnCrIrPtRh4
_symmetry_space_group_name_H-M   'P 1'
_cell_length_a   3.82520600
_cell_length_b   3.82520600
_cell_length_c   7.70047300
_cell_angle_alpha   90.00000000
_cell_angle_beta   90.00000000
_cell_angle_gamma   90.00000000
_symmetry_Int_Tables_number   1
_chemical_formula_structural   MnCrIrPtRh4
_chemical_formula_sum   'Mn1 Cr1 Ir1 Pt1 Rh4'
_cell_volume   112.67486829
_cell_formula_units_Z   1
loop_
 _symmetry_equiv_pos_site_id
 _symmetry_equiv_pos_as_xyz
  1  'x, y, z'
loop_
 _atom_site_type_symbol
 _atom_site_label
 _atom_site_symmetry_multiplicity
 _atom_site_fract_x
 _atom_site_fract_y
 _atom_site_fract_z
 _atom_site_occupancy
  Mn  Mn0  1  0.000000  0.000000  0.500000  1
  Cr  Cr1  1  0.000000  0.000000  0.000000  1
  Ir  Ir2  1  0.500000  0.500000  0.000000  1
  Pt  Pt3  1  0.500000  0.500000  0.500000  1
  Rh  Rh4  1  0.500000  0.000000  0.241322  1
  Rh  Rh5  1  0.500000  0.000000  0.758678  1
  Rh  Rh6  1  0.000000  0.500000  0.241322  1
  Rh  Rh7  1  0.000000  0.500000  0.758678  1
