# generated using pymatgen
data_Li8TbY7Sn7Bi
_symmetry_space_group_name_H-M   'P 1'
_cell_length_a   9.40223806
_cell_length_b   9.40223876
_cell_length_c   7.32348446
_cell_angle_alpha   90.10662450
_cell_angle_beta   89.89337727
_cell_angle_gamma   119.97693030
_symmetry_Int_Tables_number   1
_chemical_formula_structural   Li8TbY7Sn7Bi
_chemical_formula_sum   'Li8 Tb1 Y7 Sn7 Bi1'
_cell_volume   560.80363923
_cell_formula_units_Z   1
loop_
 _symmetry_equiv_pos_site_id
 _symmetry_equiv_pos_as_xyz
  1  'x, y, z'
loop_
 _atom_site_type_symbol
 _atom_site_label
 _atom_site_symmetry_multiplicity
 _atom_site_fract_x
 _atom_site_fract_y
 _atom_site_fract_z
 _atom_site_occupancy
  Li  Li0  1  0.166643  0.833357  0.196230  1
  Li  Li1  1  0.335722  0.171102  0.690159  1
  Li  Li2  1  0.828898  0.664278  0.690159  1
  Li  Li3  1  0.168087  0.334551  0.193017  1
  Li  Li4  1  0.665449  0.831913  0.193017  1
  Li  Li5  1  0.833279  0.166721  0.693824  1
  Li  Li6  1  0.335444  0.664556  0.815536  1
  Li  Li7  1  0.666093  0.333907  0.313727  1
  Tb  Tb8  1  0.513183  0.486817  0.991877  1
  Y  Y9  1  0.022536  0.507513  0.488757  1
  Y  Y10  1  0.492487  0.977464  0.488757  1
  Y  Y11  1  0.518169  0.027816  0.994169  1
  Y  Y12  1  0.972184  0.481831  0.994169  1
  Y  Y13  1  0.486755  0.513245  0.490466  1
  Y  Y14  1  0.997274  0.002726  0.988391  1
  Y  Y15  1  0.997878  0.002122  0.483348  1
  Sn  Sn16  1  0.333312  0.165922  0.256891  1
  Sn  Sn17  1  0.834078  0.666688  0.256891  1
  Sn  Sn18  1  0.165934  0.333313  0.757103  1
  Sn  Sn19  1  0.666687  0.834066  0.757103  1
  Sn  Sn20  1  0.833568  0.166432  0.256150  1
  Sn  Sn21  1  0.332652  0.667348  0.223451  1
  Sn  Sn22  1  0.666993  0.333007  0.722884  1
  Bi  Bi23  1  0.166694  0.833306  0.753932  1
