# generated using pymatgen
data_Bi4IrRh3Se4
_symmetry_space_group_name_H-M   'P 1'
_cell_length_a   6.39222198
_cell_length_b   6.39222198
_cell_length_c   6.39222198
_cell_angle_alpha   89.89879491
_cell_angle_beta   89.89879491
_cell_angle_gamma   89.89879491
_symmetry_Int_Tables_number   1
_chemical_formula_structural   Bi4IrRh3Se4
_chemical_formula_sum   'Bi4 Ir1 Rh3 Se4'
_cell_volume   261.18817724
_cell_formula_units_Z   1
loop_
 _symmetry_equiv_pos_site_id
 _symmetry_equiv_pos_as_xyz
  1  'x, y, z'
loop_
 _atom_site_type_symbol
 _atom_site_label
 _atom_site_symmetry_multiplicity
 _atom_site_fract_x
 _atom_site_fract_y
 _atom_site_fract_z
 _atom_site_occupancy
  Bi  Bi0  1  0.130922  0.629278  0.868669  1
  Bi  Bi1  1  0.629278  0.868669  0.130922  1
  Bi  Bi2  1  0.868669  0.130922  0.629278  1
  Bi  Bi3  1  0.370202  0.370202  0.370202  1
  Ir  Ir4  1  0.013762  0.013762  0.013762  1
  Rh  Rh5  1  0.485099  0.986494  0.514517  1
  Rh  Rh6  1  0.986494  0.514517  0.485099  1
  Rh  Rh7  1  0.514517  0.485099  0.986494  1
  Se  Se8  1  0.881092  0.377179  0.121339  1
  Se  Se9  1  0.377179  0.121339  0.881092  1
  Se  Se10  1  0.121339  0.881092  0.377179  1
  Se  Se11  1  0.621447  0.621447  0.621447  1
