# generated using pymatgen
data_Rb2Y5ErF20
_symmetry_space_group_name_H-M   'P 1'
_cell_length_a   8.27966572
_cell_length_b   8.27966675
_cell_length_c   8.30131700
_cell_angle_alpha   59.91277200
_cell_angle_beta   59.91264033
_cell_angle_gamma   60.17212715
_symmetry_Int_Tables_number   1
_chemical_formula_structural   Rb2Y5ErF20
_chemical_formula_sum   'Rb2 Y5 Er1 F20'
_cell_volume   402.38671969
_cell_formula_units_Z   1
loop_
 _symmetry_equiv_pos_site_id
 _symmetry_equiv_pos_as_xyz
  1  'x, y, z'
loop_
 _atom_site_type_symbol
 _atom_site_label
 _atom_site_symmetry_multiplicity
 _atom_site_fract_x
 _atom_site_fract_y
 _atom_site_fract_z
 _atom_site_occupancy
  Rb  Rb0  1  0.750444  0.750444  0.749559  1
  Rb  Rb1  1  0.250445  0.250443  0.249548  1
  Y  Y2  1  0.240863  0.759707  0.240290  1
  Y  Y3  1  0.759708  0.240862  0.240290  1
  Y  Y4  1  0.240859  0.759708  0.759140  1
  Y  Y5  1  0.240318  0.240319  0.759682  1
  Y  Y6  1  0.759708  0.240861  0.759137  1
  Er  Er7  1  0.760258  0.760258  0.239745  1
  F  F8  1  0.830500  0.169355  0.500069  1
  F  F9  1  0.499814  0.170067  0.829936  1
  F  F10  1  0.827905  0.502529  0.172098  1
  F  F11  1  0.499815  0.170059  0.500185  1
  F  F12  1  0.827906  0.502532  0.497471  1
  F  F13  1  0.170067  0.499815  0.829936  1
  F  F14  1  0.502531  0.827907  0.497471  1
  F  F15  1  0.499935  0.499934  0.169489  1
  F  F16  1  0.889682  0.331257  0.889532  1
  F  F17  1  0.110466  0.110466  0.668745  1
  F  F18  1  0.669759  0.107837  0.111201  1
  F  F19  1  0.110471  0.110471  0.110326  1
  F  F20  1  0.331256  0.889681  0.889532  1
  F  F21  1  0.888794  0.888795  0.892169  1
  F  F22  1  0.888795  0.888795  0.330242  1
  F  F23  1  0.107836  0.669759  0.111203  1
  F  F24  1  0.169355  0.830499  0.500069  1
  F  F25  1  0.502530  0.827906  0.172097  1
  F  F26  1  0.170059  0.499815  0.500185  1
  F  F27  1  0.499924  0.499924  0.830652  1
