# generated using pymatgen
data_Cs4Ca(AsS4)2
_symmetry_space_group_name_H-M   'P 1'
_cell_length_a   9.71315719
_cell_length_b   9.81518176
_cell_length_c   11.89674116
_cell_angle_alpha   105.50370774
_cell_angle_beta   103.91419160
_cell_angle_gamma   92.94246275
_symmetry_Int_Tables_number   1
_chemical_formula_structural   Cs4Ca(AsS4)2
_chemical_formula_sum   'Cs8 Ca2 As4 S16'
_cell_volume   1052.71825922
_cell_formula_units_Z   2
loop_
 _symmetry_equiv_pos_site_id
 _symmetry_equiv_pos_as_xyz
  1  'x, y, z'
loop_
 _atom_site_type_symbol
 _atom_site_label
 _atom_site_symmetry_multiplicity
 _atom_site_fract_x
 _atom_site_fract_y
 _atom_site_fract_z
 _atom_site_occupancy
  Cs  Cs0  1  0.933813  0.520963  0.250695  1
  Cs  Cs1  1  0.066187  0.479037  0.749305  1
  Cs  Cs2  1  0.763357  0.987351  0.460812  1
  Cs  Cs3  1  0.236643  0.012649  0.539188  1
  Cs  Cs4  1  0.597479  0.740067  0.019797  1
  Cs  Cs5  1  0.402521  0.259933  0.980203  1
  Cs  Cs6  1  0.618378  0.679718  0.618448  1
  Cs  Cs7  1  0.381622  0.320282  0.381552  1
  Ca  Ca8  1  0.851839  0.134475  0.924211  1
  Ca  Ca9  1  0.148161  0.865525  0.075789  1
  As  As10  1  0.950278  0.110440  0.226982  1
  As  As11  1  0.049722  0.889560  0.773018  1
  As  As12  1  0.368732  0.688083  0.256261  1
  As  As13  1  0.631268  0.311917  0.743739  1
  S  S14  1  0.962618  0.888178  0.229269  1
  S  S15  1  0.037382  0.111822  0.770731  1
  S  S16  1  0.591415  0.085715  0.740748  1
  S  S17  1  0.408585  0.914285  0.259252  1
  S  S18  1  0.290127  0.669188  0.408327  1
  S  S19  1  0.709873  0.330812  0.591673  1
  S  S20  1  0.795719  0.413907  0.915183  1
  S  S21  1  0.204281  0.586093  0.084817  1
  S  S22  1  0.011404  0.252517  0.408478  1
  S  S23  1  0.988596  0.747483  0.591522  1
  S  S24  1  0.098577  0.162885  0.123578  1
  S  S25  1  0.901423  0.837115  0.876422  1
  S  S26  1  0.736869  0.132167  0.123620  1
  S  S27  1  0.263131  0.867833  0.876380  1
  S  S28  1  0.564865  0.587478  0.260902  1
  S  S29  1  0.435135  0.412522  0.739098  1
