# generated using pymatgen
data_Sc8TiRe10Si16Rh
_symmetry_space_group_name_H-M   'P 1'
_cell_length_a   6.64107793
_cell_length_b   6.62697740
_cell_length_c   12.53880639
_cell_angle_alpha   90.14028243
_cell_angle_beta   89.91068354
_cell_angle_gamma   89.70881645
_symmetry_Int_Tables_number   1
_chemical_formula_structural   Sc8TiRe10Si16Rh
_chemical_formula_sum   'Sc8 Ti1 Re10 Si16 Rh1'
_cell_volume   551.82683495
_cell_formula_units_Z   1
loop_
 _symmetry_equiv_pos_site_id
 _symmetry_equiv_pos_as_xyz
  1  'x, y, z'
loop_
 _atom_site_type_symbol
 _atom_site_label
 _atom_site_symmetry_multiplicity
 _atom_site_fract_x
 _atom_site_fract_y
 _atom_site_fract_z
 _atom_site_occupancy
  Sc  Sc0  1  0.003452  0.659313  0.026785  1
  Sc  Sc1  1  0.992557  0.342541  0.534426  1
  Sc  Sc2  1  0.334416  0.001995  0.469450  1
  Sc  Sc3  1  0.157827  0.486722  0.782232  1
  Sc  Sc4  1  0.835775  0.507378  0.281348  1
  Sc  Sc5  1  0.488264  0.164614  0.217039  1
  Sc  Sc6  1  0.509172  0.840214  0.720537  1
  Sc  Sc7  1  0.652918  0.007877  0.967087  1
  Ti  Ti8  1  0.161745  0.838385  0.249211  1
  Re  Re9  1  0.331000  0.330477  0.998496  1
  Re  Re10  1  0.022371  0.803802  0.636077  1
  Re  Re11  1  0.983425  0.169631  0.136828  1
  Re  Re12  1  0.825201  0.020246  0.366247  1
  Re  Re13  1  0.318397  0.513670  0.370890  1
  Re  Re14  1  0.695993  0.513485  0.888547  1
  Re  Re15  1  0.488849  0.314158  0.615144  1
  Re  Re16  1  0.494167  0.679311  0.126519  1
  Re  Re17  1  0.201852  0.973413  0.860404  1
  Re  Re18  1  0.836115  0.162964  0.752224  1
  Si  Si19  1  0.024308  0.727625  0.442658  1
  Si  Si20  1  0.618040  0.306254  0.429742  1
  Si  Si21  1  0.384721  0.688167  0.931692  1
  Si  Si22  1  0.198649  0.118019  0.676343  1
  Si  Si23  1  0.306213  0.616004  0.566040  1
  Si  Si24  1  0.695133  0.376176  0.071808  1
  Si  Si25  1  0.791298  0.870001  0.179734  1
  Si  Si26  1  0.128488  0.210065  0.322933  1
  Si  Si27  1  0.979741  0.260017  0.940270  1
  Si  Si28  1  0.729979  0.027687  0.561799  1
  Si  Si29  1  0.199960  0.465701  0.181840  1
  Si  Si30  1  0.776295  0.520125  0.693540  1
  Si  Si31  1  0.479706  0.226423  0.809205  1
  Si  Si32  1  0.531735  0.802088  0.315709  1
  Si  Si33  1  0.272362  0.974117  0.055589  1
  Si  Si34  1  0.884065  0.803285  0.822064  1
  Rh  Rh35  1  0.665815  0.678051  0.499543  1
