# generated using pymatgen
data_CdHg(CO3)2
_symmetry_space_group_name_H-M   'P 1'
_cell_length_a   6.36399883
_cell_length_b   6.36399901
_cell_length_c   6.36400014
_cell_angle_alpha   46.91664634
_cell_angle_beta   46.91664263
_cell_angle_gamma   46.91663630
_symmetry_Int_Tables_number   1
_chemical_formula_structural   CdHg(CO3)2
_chemical_formula_sum   'Cd1 Hg1 C2 O6'
_cell_volume   125.65617466
_cell_formula_units_Z   1
loop_
 _symmetry_equiv_pos_site_id
 _symmetry_equiv_pos_as_xyz
  1  'x, y, z'
loop_
 _atom_site_type_symbol
 _atom_site_label
 _atom_site_symmetry_multiplicity
 _atom_site_fract_x
 _atom_site_fract_y
 _atom_site_fract_z
 _atom_site_occupancy
  Cd  Cd0  1  0.500000  0.500000  0.500000  1
  Hg  Hg1  1  0.000000  0.000000  0.000000  1
  C  C2  1  0.248178  0.248178  0.248178  1
  C  C3  1  0.751822  0.751822  0.751822  1
  O  O4  1  0.987522  0.256455  0.500460  1
  O  O5  1  0.500460  0.987522  0.256455  1
  O  O6  1  0.256455  0.500460  0.987522  1
  O  O7  1  0.012478  0.743545  0.499540  1
  O  O8  1  0.499540  0.012478  0.743545  1
  O  O9  1  0.743545  0.499540  0.012478  1
