# generated using pymatgen
data_Y20Cd6TcNi
_symmetry_space_group_name_H-M   'P 1'
_cell_length_a   9.64061000
_cell_length_b   9.64061159
_cell_length_c   9.86474300
_cell_angle_alpha   90.00000000
_cell_angle_beta   90.00000000
_cell_angle_gamma   119.99999456
_symmetry_Int_Tables_number   1
_chemical_formula_structural   Y20Cd6TcNi
_chemical_formula_sum   'Y20 Cd6 Tc1 Ni1'
_cell_volume   794.00919350
_cell_formula_units_Z   1
loop_
 _symmetry_equiv_pos_site_id
 _symmetry_equiv_pos_as_xyz
  1  'x, y, z'
loop_
 _atom_site_type_symbol
 _atom_site_label
 _atom_site_symmetry_multiplicity
 _atom_site_fract_x
 _atom_site_fract_y
 _atom_site_fract_z
 _atom_site_occupancy
  Y  Y0  1  0.000000  0.000000  0.500521  1
  Y  Y1  1  0.000000  0.000000  0.999479  1
  Y  Y2  1  0.541145  0.458855  0.250000  1
  Y  Y3  1  0.541145  0.082291  0.250000  1
  Y  Y4  1  0.917709  0.458855  0.250000  1
  Y  Y5  1  0.457025  0.542975  0.750000  1
  Y  Y6  1  0.457025  0.914050  0.750000  1
  Y  Y7  1  0.085950  0.542975  0.750000  1
  Y  Y8  1  0.209159  0.790841  0.439861  1
  Y  Y9  1  0.209159  0.418318  0.439861  1
  Y  Y10  1  0.581682  0.790841  0.439861  1
  Y  Y11  1  0.789138  0.210862  0.562888  1
  Y  Y12  1  0.789138  0.578275  0.562888  1
  Y  Y13  1  0.421725  0.210862  0.562888  1
  Y  Y14  1  0.789138  0.210862  0.937112  1
  Y  Y15  1  0.789138  0.578275  0.937112  1
  Y  Y16  1  0.421725  0.210862  0.937112  1
  Y  Y17  1  0.209159  0.790841  0.060139  1
  Y  Y18  1  0.209159  0.418318  0.060139  1
  Y  Y19  1  0.581682  0.790841  0.060139  1
  Cd  Cd20  1  0.884864  0.115136  0.250000  1
  Cd  Cd21  1  0.884864  0.769728  0.250000  1
  Cd  Cd22  1  0.230272  0.115136  0.250000  1
  Cd  Cd23  1  0.115112  0.884888  0.750000  1
  Cd  Cd24  1  0.115112  0.230224  0.750000  1
  Cd  Cd25  1  0.769776  0.884888  0.750000  1
  Tc  Tc26  1  0.333333  0.666667  0.250000  1
  Ni  Ni27  1  0.666667  0.333333  0.750000  1
