# generated using pymatgen
data_K8Hf(SeO4)6
_symmetry_space_group_name_H-M   'P 1'
_cell_length_a   7.96524203
_cell_length_b   10.03300991
_cell_length_c   10.37056900
_cell_angle_alpha   61.07102005
_cell_angle_beta   100.47468081
_cell_angle_gamma   112.07594404
_symmetry_Int_Tables_number   1
_chemical_formula_structural   K8Hf(SeO4)6
_chemical_formula_sum   'K8 Hf1 Se6 O24'
_cell_volume   672.17578678
_cell_formula_units_Z   1
loop_
 _symmetry_equiv_pos_site_id
 _symmetry_equiv_pos_as_xyz
  1  'x, y, z'
loop_
 _atom_site_type_symbol
 _atom_site_label
 _atom_site_symmetry_multiplicity
 _atom_site_fract_x
 _atom_site_fract_y
 _atom_site_fract_z
 _atom_site_occupancy
  K  K0  1  0.624855  0.226409  0.000000  1
  K  K1  1  0.375145  0.773590  0.000000  1
  K  K2  1  0.500001  0.335933  0.328135  1
  K  K3  1  0.893925  0.126324  0.343379  1
  K  K4  1  0.106075  0.530295  0.343379  1
  K  K5  1  0.893926  0.469705  0.656621  1
  K  K6  1  0.106074  0.873675  0.656621  1
  K  K7  1  0.500000  0.664068  0.671865  1
  Hf  Hf8  1  0.000000  0.000000  0.000000  1
  Se  Se9  1  0.205114  0.385154  0.000000  1
  Se  Se10  1  0.794886  0.614846  0.000000  1
  Se  Se11  1  0.709756  0.729624  0.320449  1
  Se  Se12  1  0.290244  0.949928  0.320449  1
  Se  Se13  1  0.709756  0.050072  0.679551  1
  Se  Se14  1  0.290244  0.270375  0.679551  1
  O  O15  1  0.022962  0.218791  0.000000  1
  O  O16  1  0.387260  0.344177  0.000000  1
  O  O17  1  0.612740  0.655822  0.000000  1
  O  O18  1  0.977038  0.781208  0.000000  1
  O  O19  1  0.801625  0.900738  0.158010  1
  O  O20  1  0.198374  0.941253  0.158010  1
  O  O21  1  0.187343  0.400729  0.149371  1
  O  O22  1  0.812656  0.449901  0.149371  1
  O  O23  1  0.511949  0.040954  0.290715  1
  O  O24  1  0.488051  0.668330  0.290715  1
  O  O25  1  0.200728  0.055535  0.352885  1
  O  O26  1  0.799271  0.591580  0.352885  1
  O  O27  1  0.234930  0.760915  0.453861  1
  O  O28  1  0.765070  0.785224  0.453861  1
  O  O29  1  0.234930  0.214776  0.546139  1
  O  O30  1  0.765071  0.239085  0.546139  1
  O  O31  1  0.200729  0.408420  0.647115  1
  O  O32  1  0.799271  0.944465  0.647115  1
  O  O33  1  0.511948  0.331670  0.709285  1
  O  O34  1  0.488051  0.959046  0.709285  1
  O  O35  1  0.187343  0.550099  0.850630  1
  O  O36  1  0.812656  0.599271  0.850630  1
  O  O37  1  0.801625  0.058746  0.841989  1
  O  O38  1  0.198375  0.099262  0.841989  1
