# generated using pymatgen
data_La4(GdIr)3
_symmetry_space_group_name_H-M   'P 1'
_cell_length_a   10.10978900
_cell_length_b   10.10978880
_cell_length_c   6.50631400
_cell_angle_alpha   90.00000000
_cell_angle_beta   90.00000000
_cell_angle_gamma   120.00001048
_symmetry_Int_Tables_number   1
_chemical_formula_structural   La4(GdIr)3
_chemical_formula_sum   'La8 Gd6 Ir6'
_cell_volume   575.90358115
_cell_formula_units_Z   2
loop_
 _symmetry_equiv_pos_site_id
 _symmetry_equiv_pos_as_xyz
  1  'x, y, z'
loop_
 _atom_site_type_symbol
 _atom_site_label
 _atom_site_symmetry_multiplicity
 _atom_site_fract_x
 _atom_site_fract_y
 _atom_site_fract_z
 _atom_site_occupancy
  La  La0  1  0.333333  0.666667  0.479220  1
  La  La1  1  0.666667  0.333333  0.979220  1
  La  La2  1  0.127885  0.872115  0.240195  1
  La  La3  1  0.744231  0.872115  0.240195  1
  La  La4  1  0.127885  0.255769  0.240195  1
  La  La5  1  0.872115  0.127885  0.740195  1
  La  La6  1  0.255769  0.127885  0.740195  1
  La  La7  1  0.872115  0.744231  0.740195  1
  Gd  Gd8  1  0.540295  0.459705  0.433887  1
  Gd  Gd9  1  0.919410  0.459705  0.433887  1
  Gd  Gd10  1  0.540295  0.080590  0.433887  1
  Gd  Gd11  1  0.459705  0.540295  0.933887  1
  Gd  Gd12  1  0.080590  0.540295  0.933887  1
  Gd  Gd13  1  0.459705  0.919410  0.933887  1
  Ir  Ir14  1  0.812144  0.187856  0.199860  1
  Ir  Ir15  1  0.375713  0.187856  0.199860  1
  Ir  Ir16  1  0.812144  0.624287  0.199860  1
  Ir  Ir17  1  0.187856  0.812144  0.699860  1
  Ir  Ir18  1  0.624287  0.812144  0.699860  1
  Ir  Ir19  1  0.187856  0.375713  0.699860  1
