# generated using pymatgen
data_Y7Lu5AlInCo4
_symmetry_space_group_name_H-M   'P 1'
_cell_length_a   8.28585425
_cell_length_b   8.28859973
_cell_length_c   8.28064534
_cell_angle_alpha   111.68213350
_cell_angle_beta   110.20931491
_cell_angle_gamma   106.67097060
_symmetry_Int_Tables_number   1
_chemical_formula_structural   Y7Lu5AlInCo4
_chemical_formula_sum   'Y7 Lu5 Al1 In1 Co4'
_cell_volume   436.32263884
_cell_formula_units_Z   1
loop_
 _symmetry_equiv_pos_site_id
 _symmetry_equiv_pos_as_xyz
  1  'x, y, z'
loop_
 _atom_site_type_symbol
 _atom_site_label
 _atom_site_symmetry_multiplicity
 _atom_site_fract_x
 _atom_site_fract_y
 _atom_site_fract_z
 _atom_site_occupancy
  Y  Y0  1  0.439496  0.231589  0.205217  1
  Y  Y1  1  0.567604  0.773144  0.796590  1
  Y  Y2  1  0.023285  0.228874  0.796492  1
  Y  Y3  1  0.973318  0.765612  0.205018  1
  Y  Y4  1  0.185753  0.285009  0.470487  1
  Y  Y5  1  0.814755  0.716141  0.531009  1
  Y  Y6  1  0.185858  0.715192  0.901103  1
  Lu  Lu7  1  0.816811  0.284487  0.101193  1
  Lu  Lu8  1  0.314607  0.621384  0.306216  1
  Lu  Lu9  1  0.684574  0.376631  0.694684  1
  Lu  Lu10  1  0.318031  0.010108  0.694759  1
  Lu  Lu11  1  0.684768  0.991703  0.306251  1
  Al  Al12  1  0.003378  0.001941  0.005479  1
  In  In13  1  0.499444  0.501360  0.999969  1
  Co  Co14  1  0.374978  0.999524  0.374527  1
  Co  Co15  1  0.620756  0.001138  0.622025  1
  Co  Co16  1  0.109201  0.610967  0.494488  1
  Co  Co17  1  0.883385  0.385197  0.494492  1
