# generated using pymatgen
data_Li2TbDy5(Co4P3)4
_symmetry_space_group_name_H-M   'P 1'
_cell_length_a   3.71675300
_cell_length_b   10.57180800
_cell_length_c   12.19448700
_cell_angle_alpha   90.00000000
_cell_angle_beta   90.00000000
_cell_angle_gamma   90.00000000
_symmetry_Int_Tables_number   1
_chemical_formula_structural   Li2TbDy5(Co4P3)4
_chemical_formula_sum   'Li2 Tb1 Dy5 Co16 P12'
_cell_volume   479.15552781
_cell_formula_units_Z   1
loop_
 _symmetry_equiv_pos_site_id
 _symmetry_equiv_pos_as_xyz
  1  'x, y, z'
loop_
 _atom_site_type_symbol
 _atom_site_label
 _atom_site_symmetry_multiplicity
 _atom_site_fract_x
 _atom_site_fract_y
 _atom_site_fract_z
 _atom_site_occupancy
  Li  Li0  1  0.500000  0.500000  0.153200  1
  Li  Li1  1  0.000000  0.000000  0.846768  1
  Tb  Tb2  1  0.000000  0.500000  0.523132  1
  Dy  Dy3  1  0.500000  0.000000  0.476937  1
  Dy  Dy4  1  0.500000  0.819310  0.205982  1
  Dy  Dy5  1  0.500000  0.180690  0.205982  1
  Dy  Dy6  1  0.000000  0.680715  0.794053  1
  Dy  Dy7  1  0.000000  0.319285  0.794053  1
  Co  Co8  1  0.500000  0.500000  0.704288  1
  Co  Co9  1  0.000000  0.000000  0.295936  1
  Co  Co10  1  0.000000  0.500000  0.986814  1
  Co  Co11  1  0.500000  0.000000  0.013180  1
  Co  Co12  1  0.500000  0.332974  0.996823  1
  Co  Co13  1  0.500000  0.667026  0.996823  1
  Co  Co14  1  0.000000  0.167031  0.003177  1
  Co  Co15  1  0.000000  0.832969  0.003177  1
  Co  Co16  1  0.500000  0.296491  0.431007  1
  Co  Co17  1  0.500000  0.703509  0.431007  1
  Co  Co18  1  0.000000  0.203286  0.568959  1
  Co  Co19  1  0.000000  0.796714  0.568959  1
  Co  Co20  1  0.500000  0.878799  0.706607  1
  Co  Co21  1  0.500000  0.121201  0.706607  1
  Co  Co22  1  0.000000  0.621253  0.293316  1
  Co  Co23  1  0.000000  0.378747  0.293316  1
  P  P24  1  0.500000  0.500000  0.884757  1
  P  P25  1  0.000000  0.000000  0.115259  1
  P  P26  1  0.500000  0.500000  0.345813  1
  P  P27  1  0.000000  0.000000  0.653941  1
  P  P28  1  0.500000  0.309253  0.615884  1
  P  P29  1  0.500000  0.690747  0.615884  1
  P  P30  1  0.000000  0.190560  0.384180  1
  P  P31  1  0.000000  0.809440  0.384180  1
  P  P32  1  0.500000  0.843568  0.893776  1
  P  P33  1  0.500000  0.156432  0.893776  1
  P  P34  1  0.000000  0.656426  0.106223  1
  P  P35  1  0.000000  0.343574  0.106223  1
