# generated using pymatgen
data_AcDy3Ir4F28
_symmetry_space_group_name_H-M   'P 1'
_cell_length_a   5.61824524
_cell_length_b   9.08778461
_cell_length_c   12.18913451
_cell_angle_alpha   62.61040643
_cell_angle_beta   89.90189108
_cell_angle_gamma   89.88908201
_symmetry_Int_Tables_number   1
_chemical_formula_structural   AcDy3Ir4F28
_chemical_formula_sum   'Ac1 Dy3 Ir4 F28'
_cell_volume   552.57869056
_cell_formula_units_Z   1
loop_
 _symmetry_equiv_pos_site_id
 _symmetry_equiv_pos_as_xyz
  1  'x, y, z'
loop_
 _atom_site_type_symbol
 _atom_site_label
 _atom_site_symmetry_multiplicity
 _atom_site_fract_x
 _atom_site_fract_y
 _atom_site_fract_z
 _atom_site_occupancy
  Ac  Ac0  1  0.760597  0.815722  0.766161  1
  Dy  Dy1  1  0.264611  0.202091  0.730410  1
  Dy  Dy2  1  0.239523  0.184465  0.235278  1
  Dy  Dy3  1  0.740638  0.816268  0.265144  1
  Ir  Ir4  1  0.757536  0.263682  0.961018  1
  Ir  Ir5  1  0.252125  0.726719  0.533702  1
  Ir  Ir6  1  0.243167  0.721985  0.054842  1
  Ir  Ir7  1  0.740726  0.280713  0.450399  1
  F  F8  1  0.429430  0.700770  0.926341  1
  F  F9  1  0.944923  0.295755  0.576644  1
  F  F10  1  0.553351  0.288277  0.083195  1
  F  F11  1  0.058179  0.705897  0.408195  1
  F  F12  1  0.452164  0.285987  0.542571  1
  F  F13  1  0.949523  0.710219  0.972380  1
  F  F14  1  0.553522  0.720617  0.450540  1
  F  F15  1  0.049187  0.273545  0.050461  1
  F  F16  1  0.772001  0.503124  0.864321  1
  F  F17  1  0.263052  0.484016  0.632690  1
  F  F18  1  0.236915  0.480602  0.147655  1
  F  F19  1  0.731836  0.521442  0.357719  1
  F  F20  1  0.756102  0.022351  0.054509  1
  F  F21  1  0.253598  0.969851  0.443674  1
  F  F22  1  0.242090  0.960579  0.959162  1
  F  F23  1  0.741188  0.040576  0.540284  1
  F  F24  1  0.959884  0.726906  0.621403  1
  F  F25  1  0.469472  0.267130  0.865621  1
  F  F26  1  0.021762  0.272196  0.355709  1
  F  F27  1  0.533752  0.729697  0.142936  1
  F  F28  1  0.051639  0.744814  0.181514  1
  F  F29  1  0.538453  0.259227  0.325554  1
  F  F30  1  0.959826  0.244418  0.834530  1
  F  F31  1  0.432770  0.741816  0.665464  1
  F  F32  1  0.423995  0.974827  0.233149  1
  F  F33  1  0.922557  0.026121  0.267396  1
  F  F34  1  0.584828  0.053711  0.769419  1
  F  F35  1  0.115078  0.983883  0.730008  1
