# generated using pymatgen
data_AlV3(SeO3)8
_symmetry_space_group_name_H-M   'P 1'
_cell_length_a   8.04851083
_cell_length_b   8.04851082
_cell_length_c   8.04851154
_cell_angle_alpha   89.65521513
_cell_angle_beta   90.34477735
_cell_angle_gamma   90.34477419
_symmetry_Int_Tables_number   1
_chemical_formula_structural   AlV3(SeO3)8
_chemical_formula_sum   'Al1 V3 Se8 O24'
_cell_volume   521.34251240
_cell_formula_units_Z   1
loop_
 _symmetry_equiv_pos_site_id
 _symmetry_equiv_pos_as_xyz
  1  'x, y, z'
loop_
 _atom_site_type_symbol
 _atom_site_label
 _atom_site_symmetry_multiplicity
 _atom_site_fract_x
 _atom_site_fract_y
 _atom_site_fract_z
 _atom_site_occupancy
  Al  Al0  1  0.000000  0.000000  0.500000  1
  V  V1  1  0.500000  0.500000  0.500000  1
  V  V2  1  0.500000  0.000000  0.000000  1
  V  V3  1  0.000000  0.500000  0.000000  1
  Se  Se4  1  0.839654  0.684572  0.322661  1
  Se  Se5  1  0.177339  0.160346  0.184572  1
  Se  Se6  1  0.674194  0.325806  0.825806  1
  Se  Se7  1  0.315428  0.822661  0.660346  1
  Se  Se8  1  0.160346  0.315428  0.677339  1
  Se  Se9  1  0.822661  0.839654  0.815428  1
  Se  Se10  1  0.325806  0.674194  0.174194  1
  Se  Se11  1  0.684572  0.177339  0.339654  1
  O  O12  1  0.729851  0.540452  0.442893  1
  O  O13  1  0.265102  0.020006  0.043233  1
  O  O14  1  0.765888  0.433726  0.989557  1
  O  O15  1  0.234068  0.970129  0.531606  1
  O  O16  1  0.456767  0.734898  0.520006  1
  O  O17  1  0.057107  0.270149  0.040452  1
  O  O18  1  0.968394  0.765932  0.470129  1
  O  O19  1  0.510443  0.234112  0.933726  1
  O  O20  1  0.566274  0.489557  0.734112  1
  O  O21  1  0.029871  0.031606  0.265932  1
  O  O22  1  0.459548  0.942893  0.770149  1
  O  O23  1  0.979994  0.543233  0.234898  1
  O  O24  1  0.270149  0.459548  0.557107  1
  O  O25  1  0.734898  0.979994  0.956767  1
  O  O26  1  0.234112  0.566274  0.010443  1
  O  O27  1  0.765932  0.029871  0.468394  1
  O  O28  1  0.543233  0.265102  0.479994  1
  O  O29  1  0.942893  0.729851  0.959548  1
  O  O30  1  0.031606  0.234068  0.529871  1
  O  O31  1  0.489557  0.765888  0.066274  1
  O  O32  1  0.433726  0.510443  0.265888  1
  O  O33  1  0.970129  0.968394  0.734068  1
  O  O34  1  0.540452  0.057107  0.229851  1
  O  O35  1  0.020006  0.456767  0.765102  1
