# generated using pymatgen
data_TbZr2TcF15
_symmetry_space_group_name_H-M   'P 1'
_cell_length_a   8.17958720
_cell_length_b   8.17958732
_cell_length_c   8.15842601
_cell_angle_alpha   79.80442557
_cell_angle_beta   79.80442520
_cell_angle_gamma   99.93197387
_symmetry_Int_Tables_number   1
_chemical_formula_structural   TbZr2TcF15
_chemical_formula_sum   'Tb2 Zr4 Tc2 F30'
_cell_volume   516.90625417
_cell_formula_units_Z   2
loop_
 _symmetry_equiv_pos_site_id
 _symmetry_equiv_pos_as_xyz
  1  'x, y, z'
loop_
 _atom_site_type_symbol
 _atom_site_label
 _atom_site_symmetry_multiplicity
 _atom_site_fract_x
 _atom_site_fract_y
 _atom_site_fract_z
 _atom_site_occupancy
  Tb  Tb0  1  0.178010  0.821990  0.250000  1
  Tb  Tb1  1  0.821990  0.178010  0.750000  1
  Zr  Zr2  1  0.746645  0.677578  0.673374  1
  Zr  Zr3  1  0.322422  0.253355  0.826626  1
  Zr  Zr4  1  0.253355  0.322422  0.326626  1
  Zr  Zr5  1  0.677578  0.746645  0.173374  1
  Tc  Tc6  1  0.750064  0.249936  0.250000  1
  Tc  Tc7  1  0.249936  0.750064  0.750000  1
  F  F8  1  0.313649  0.350327  0.054784  1
  F  F9  1  0.934457  0.810583  0.152515  1
  F  F10  1  0.844310  0.461836  0.685357  1
  F  F11  1  0.461836  0.844310  0.185357  1
  F  F12  1  0.810583  0.934457  0.652515  1
  F  F13  1  0.350327  0.313649  0.554783  1
  F  F14  1  0.686351  0.649673  0.945216  1
  F  F15  1  0.065543  0.189417  0.847485  1
  F  F16  1  0.155690  0.538164  0.314643  1
  F  F17  1  0.538164  0.155690  0.814643  1
  F  F18  1  0.189417  0.065543  0.347485  1
  F  F19  1  0.649673  0.686351  0.445216  1
  F  F20  1  0.773421  0.281583  0.002910  1
  F  F21  1  0.997751  0.273623  0.217427  1
  F  F22  1  0.778546  0.500333  0.225028  1
  F  F23  1  0.500333  0.778546  0.725028  1
  F  F24  1  0.273623  0.997751  0.717427  1
  F  F25  1  0.281583  0.773421  0.502910  1
  F  F26  1  0.226579  0.718417  0.997090  1
  F  F27  1  0.002249  0.726377  0.782573  1
  F  F28  1  0.221454  0.499667  0.774972  1
  F  F29  1  0.499667  0.221454  0.274972  1
  F  F30  1  0.726377  0.002249  0.282573  1
  F  F31  1  0.718417  0.226579  0.497090  1
  F  F32  1  0.468075  0.531925  0.250000  1
  F  F33  1  0.746895  0.954313  0.972436  1
  F  F34  1  0.045687  0.253105  0.527564  1
  F  F35  1  0.253105  0.045687  0.027564  1
  F  F36  1  0.954313  0.746895  0.472436  1
  F  F37  1  0.531925  0.468075  0.750000  1
