# generated using pymatgen
data_CaNp7H24
_symmetry_space_group_name_H-M   'P 1'
_cell_length_a   6.61866900
_cell_length_b   6.61866900
_cell_length_c   6.61866900
_cell_angle_alpha   90.00000000
_cell_angle_beta   90.00000000
_cell_angle_gamma   90.00000000
_symmetry_Int_Tables_number   1
_chemical_formula_structural   CaNp7H24
_chemical_formula_sum   'Ca1 Np7 H24'
_cell_volume   289.94257235
_cell_formula_units_Z   1
loop_
 _symmetry_equiv_pos_site_id
 _symmetry_equiv_pos_as_xyz
  1  'x, y, z'
loop_
 _atom_site_type_symbol
 _atom_site_label
 _atom_site_symmetry_multiplicity
 _atom_site_fract_x
 _atom_site_fract_y
 _atom_site_fract_z
 _atom_site_occupancy
  Ca  Ca0  1  0.500000  0.500000  0.500000  1
  Np  Np1  1  0.000000  0.000000  0.000000  1
  Np  Np2  1  0.252146  0.000000  0.500000  1
  Np  Np3  1  0.747854  0.000000  0.500000  1
  Np  Np4  1  0.000000  0.500000  0.252146  1
  Np  Np5  1  0.000000  0.500000  0.747854  1
  Np  Np6  1  0.500000  0.747854  0.000000  1
  Np  Np7  1  0.500000  0.252146  0.000000  1
  H  H8  1  0.000000  0.154643  0.301469  1
  H  H9  1  0.500000  0.186660  0.657048  1
  H  H10  1  0.500000  0.813340  0.342952  1
  H  H11  1  0.813340  0.657048  0.500000  1
  H  H12  1  0.186660  0.657048  0.500000  1
  H  H13  1  0.342952  0.500000  0.813340  1
  H  H14  1  0.657048  0.500000  0.813340  1
  H  H15  1  0.301469  0.000000  0.154643  1
  H  H16  1  0.154643  0.301469  0.000000  1
  H  H17  1  0.845357  0.698531  0.000000  1
  H  H18  1  0.301469  0.000000  0.845357  1
  H  H19  1  0.845357  0.301469  0.000000  1
  H  H20  1  0.698531  0.000000  0.154643  1
  H  H21  1  0.698531  0.000000  0.845357  1
  H  H22  1  0.154643  0.698531  0.000000  1
  H  H23  1  0.000000  0.845357  0.698531  1
  H  H24  1  0.000000  0.154643  0.698531  1
  H  H25  1  0.000000  0.845357  0.301469  1
  H  H26  1  0.657048  0.500000  0.186660  1
  H  H27  1  0.342952  0.500000  0.186660  1
  H  H28  1  0.813340  0.342952  0.500000  1
  H  H29  1  0.186660  0.342952  0.500000  1
  H  H30  1  0.500000  0.813340  0.657048  1
  H  H31  1  0.500000  0.186660  0.342952  1
