# generated using pymatgen
data_Zr6Ta6Ga10Os7
_symmetry_space_group_name_H-M   'P 1'
_cell_length_a   8.96610328
_cell_length_b   8.91829984
_cell_length_c   8.91830009
_cell_angle_alpha   59.56923887
_cell_angle_beta   59.82252320
_cell_angle_gamma   59.82252254
_symmetry_Int_Tables_number   1
_chemical_formula_structural   Zr6Ta6Ga10Os7
_chemical_formula_sum   'Zr6 Ta6 Ga10 Os7'
_cell_volume   501.25233618
_cell_formula_units_Z   1
loop_
 _symmetry_equiv_pos_site_id
 _symmetry_equiv_pos_as_xyz
  1  'x, y, z'
loop_
 _atom_site_type_symbol
 _atom_site_label
 _atom_site_symmetry_multiplicity
 _atom_site_fract_x
 _atom_site_fract_y
 _atom_site_fract_z
 _atom_site_occupancy
  Zr  Zr0  1  0.687684  0.701122  0.308398  1
  Zr  Zr1  1  0.302796  0.701122  0.308398  1
  Zr  Zr2  1  0.703560  0.296440  0.296440  1
  Zr  Zr3  1  0.302796  0.308398  0.701122  1
  Zr  Zr4  1  0.687684  0.308398  0.701122  1
  Zr  Zr5  1  0.307525  0.692475  0.692475  1
  Ta  Ta6  1  0.875217  0.880316  0.369250  1
  Ta  Ta7  1  0.875217  0.369250  0.880316  1
  Ta  Ta8  1  0.375870  0.876496  0.876496  1
  Ta  Ta9  1  0.871138  0.876496  0.876496  1
  Ta  Ta10  1  0.126519  0.126984  0.619977  1
  Ta  Ta11  1  0.126519  0.619977  0.126984  1
  Ga  Ga12  1  0.645368  0.118713  0.118713  1
  Ga  Ga13  1  0.117205  0.118713  0.118713  1
  Ga  Ga14  1  0.655263  0.651867  0.037608  1
  Ga  Ga15  1  0.655263  0.037608  0.651867  1
  Ga  Ga16  1  0.030278  0.655824  0.655824  1
  Ga  Ga17  1  0.658075  0.655824  0.655824  1
  Ga  Ga18  1  0.341205  0.337729  0.979861  1
  Ga  Ga19  1  0.341205  0.979861  0.337729  1
  Ga  Ga20  1  0.966178  0.343445  0.343445  1
  Ga  Ga21  1  0.346933  0.343445  0.343445  1
  Os  Os22  1  0.010685  0.989315  0.989315  1
  Os  Os23  1  0.998238  0.999374  0.506482  1
  Os  Os24  1  0.495906  0.999374  0.506482  1
  Os  Os25  1  0.999379  0.500621  0.500621  1
  Os  Os26  1  0.495906  0.506482  0.999374  1
  Os  Os27  1  0.998238  0.506482  0.999374  1
  Os  Os28  1  0.502148  0.997852  0.997852  1
