# generated using pymatgen
data_Yb5Eu2Ni4Sn13
_symmetry_space_group_name_H-M   'P 1'
_cell_length_a   11.30838900
_cell_length_b   11.30838900
_cell_length_c   4.61806100
_cell_angle_alpha   90.00000000
_cell_angle_beta   90.00000000
_cell_angle_gamma   90.00000000
_symmetry_Int_Tables_number   1
_chemical_formula_structural   Yb5Eu2Ni4Sn13
_chemical_formula_sum   'Yb5 Eu2 Ni4 Sn13'
_cell_volume   590.55607874
_cell_formula_units_Z   1
loop_
 _symmetry_equiv_pos_site_id
 _symmetry_equiv_pos_as_xyz
  1  'x, y, z'
loop_
 _atom_site_type_symbol
 _atom_site_label
 _atom_site_symmetry_multiplicity
 _atom_site_fract_x
 _atom_site_fract_y
 _atom_site_fract_z
 _atom_site_occupancy
  Yb  Yb0  1  0.000000  0.000000  0.000000  1
  Yb  Yb1  1  0.338292  0.670887  0.500000  1
  Yb  Yb2  1  0.661708  0.329113  0.500000  1
  Yb  Yb3  1  0.329113  0.338292  0.500000  1
  Yb  Yb4  1  0.670887  0.661708  0.500000  1
  Eu  Eu5  1  0.500000  0.000000  0.500000  1
  Eu  Eu6  1  0.000000  0.500000  0.500000  1
  Ni  Ni7  1  0.120182  0.724137  0.000000  1
  Ni  Ni8  1  0.879818  0.275863  0.000000  1
  Ni  Ni9  1  0.275863  0.120182  0.000000  1
  Ni  Ni10  1  0.724137  0.879818  0.000000  1
  Sn  Sn11  1  0.284150  0.889099  0.000000  1
  Sn  Sn12  1  0.715850  0.110901  0.000000  1
  Sn  Sn13  1  0.110901  0.284150  0.000000  1
  Sn  Sn14  1  0.889099  0.715850  0.000000  1
  Sn  Sn15  1  0.076945  0.809458  0.500000  1
  Sn  Sn16  1  0.923055  0.190542  0.500000  1
  Sn  Sn17  1  0.190542  0.076945  0.500000  1
  Sn  Sn18  1  0.809458  0.923055  0.500000  1
  Sn  Sn19  1  0.518683  0.784110  0.000000  1
  Sn  Sn20  1  0.481317  0.215890  0.000000  1
  Sn  Sn21  1  0.215890  0.518683  0.000000  1
  Sn  Sn22  1  0.784110  0.481317  0.000000  1
  Sn  Sn23  1  0.500000  0.500000  0.000000  1
