# generated using pymatgen
data_Y2Ho8Cd7InPd4
_symmetry_space_group_name_H-M   'P 1'
_cell_length_a   3.63446900
_cell_length_b   7.98484858
_cell_length_c   18.35143712
_cell_angle_alpha   89.72986680
_cell_angle_beta   90.00000000
_cell_angle_gamma   90.00000000
_symmetry_Int_Tables_number   1
_chemical_formula_structural   Y2Ho8Cd7InPd4
_chemical_formula_sum   'Y2 Ho8 Cd7 In1 Pd4'
_cell_volume   532.56534996
_cell_formula_units_Z   1
loop_
 _symmetry_equiv_pos_site_id
 _symmetry_equiv_pos_as_xyz
  1  'x, y, z'
loop_
 _atom_site_type_symbol
 _atom_site_label
 _atom_site_symmetry_multiplicity
 _atom_site_fract_x
 _atom_site_fract_y
 _atom_site_fract_z
 _atom_site_occupancy
  Y  Y0  1  0.000000  0.498297  0.500429  1
  Y  Y1  1  0.000000  0.001427  0.999505  1
  Ho  Ho2  1  0.000000  0.739664  0.281092  1
  Ho  Ho3  1  0.000000  0.260330  0.718653  1
  Ho  Ho4  1  0.000000  0.758074  0.780795  1
  Ho  Ho5  1  0.000000  0.241214  0.219203  1
  Ho  Ho6  1  0.000000  0.613366  0.084006  1
  Ho  Ho7  1  0.000000  0.387483  0.916150  1
  Ho  Ho8  1  0.000000  0.886602  0.583609  1
  Ho  Ho9  1  0.000000  0.113455  0.416044  1
  Cd  Cd10  1  0.500000  0.713764  0.931867  1
  Cd  Cd11  1  0.500000  0.287052  0.068518  1
  Cd  Cd12  1  0.500000  0.785289  0.431746  1
  Cd  Cd13  1  0.500000  0.213023  0.568657  1
  Cd  Cd14  1  0.500000  0.577161  0.648062  1
  Cd  Cd15  1  0.500000  0.424071  0.351737  1
  Cd  Cd16  1  0.500000  0.924013  0.148344  1
  In  In17  1  0.500000  0.075883  0.850883  1
  Pd  Pd18  1  0.500000  0.525640  0.195760  1
  Pd  Pd19  1  0.500000  0.473987  0.804380  1
  Pd  Pd20  1  0.500000  0.974401  0.696047  1
  Pd  Pd21  1  0.500000  0.025803  0.304515  1
