# generated using pymatgen
data_La2Dy2ErRu2
_symmetry_space_group_name_H-M   'P 1'
_cell_length_a   6.50288366
_cell_length_b   7.23378439
_cell_length_c   8.78762697
_cell_angle_alpha   96.27252444
_cell_angle_beta   111.71575501
_cell_angle_gamma   90.00000832
_symmetry_Int_Tables_number   1
_chemical_formula_structural   La2Dy2ErRu2
_chemical_formula_sum   'La4 Dy4 Er2 Ru4'
_cell_volume   381.37220778
_cell_formula_units_Z   2
loop_
 _symmetry_equiv_pos_site_id
 _symmetry_equiv_pos_as_xyz
  1  'x, y, z'
loop_
 _atom_site_type_symbol
 _atom_site_label
 _atom_site_symmetry_multiplicity
 _atom_site_fract_x
 _atom_site_fract_y
 _atom_site_fract_z
 _atom_site_occupancy
  La  La0  1  0.786576  0.588271  0.807166  1
  La  La1  1  0.979411  0.911729  0.192834  1
  La  La2  1  0.213424  0.411729  0.192834  1
  La  La3  1  0.020589  0.088271  0.807166  1
  Dy  Dy4  1  0.207024  0.684466  0.569683  1
  Dy  Dy5  1  0.637340  0.815534  0.430317  1
  Dy  Dy6  1  0.792976  0.315534  0.430317  1
  Dy  Dy7  1  0.362660  0.184466  0.569683  1
  Er  Er8  1  0.427854  0.750000  0.000000  1
  Er  Er9  1  0.572146  0.250000  0.000000  1
  Ru  Ru10  1  0.602234  0.919773  0.777425  1
  Ru  Ru11  1  0.824807  0.580227  0.222575  1
  Ru  Ru12  1  0.397766  0.080227  0.222575  1
  Ru  Ru13  1  0.175193  0.419773  0.777425  1
