# generated using pymatgen
data_Li3U(PO3)8
_symmetry_space_group_name_H-M   'P 1'
_cell_length_a   7.53064755
_cell_length_b   7.53064727
_cell_length_c   10.25504385
_cell_angle_alpha   65.37049061
_cell_angle_beta   65.37048839
_cell_angle_gamma   69.31718456
_symmetry_Int_Tables_number   1
_chemical_formula_structural   Li3U(PO3)8
_chemical_formula_sum   'Li3 U1 P8 O24'
_cell_volume   469.08591809
_cell_formula_units_Z   1
loop_
 _symmetry_equiv_pos_site_id
 _symmetry_equiv_pos_as_xyz
  1  'x, y, z'
loop_
 _atom_site_type_symbol
 _atom_site_label
 _atom_site_symmetry_multiplicity
 _atom_site_fract_x
 _atom_site_fract_y
 _atom_site_fract_z
 _atom_site_occupancy
  Li  Li0  1  0.473577  0.526423  0.500000  1
  Li  Li1  1  0.061540  0.514986  0.698790  1
  Li  Li2  1  0.485014  0.938460  0.301210  1
  U  U3  1  0.552690  0.447310  0.000000  1
  P  P4  1  0.228467  0.775749  0.770007  1
  P  P5  1  0.174575  0.210345  0.047617  1
  P  P6  1  0.789655  0.825425  0.952383  1
  P  P7  1  0.759390  0.226246  0.716877  1
  P  P8  1  0.210409  0.188836  0.550053  1
  P  P9  1  0.224251  0.771533  0.229993  1
  P  P10  1  0.773754  0.240610  0.283123  1
  P  P11  1  0.811164  0.789591  0.449947  1
  O  O12  1  0.591284  0.335316  0.657177  1
  O  O13  1  0.314542  0.135013  0.409051  1
  O  O14  1  0.256752  0.998652  0.698027  1
  O  O15  1  0.634984  0.763709  0.434284  1
  O  O16  1  0.969790  0.207549  0.590331  1
  O  O17  1  0.358742  0.253819  0.052552  1
  O  O18  1  0.683558  0.881007  0.091473  1
  O  O19  1  0.001348  0.743248  0.301973  1
  O  O20  1  0.236291  0.365016  0.565716  1
  O  O21  1  0.215691  0.693575  0.667072  1
  O  O22  1  0.216915  0.972096  0.084703  1
  O  O23  1  0.746181  0.641258  0.947448  1
  O  O24  1  0.664684  0.408716  0.342823  1
  O  O25  1  0.339637  0.605240  0.153771  1
  O  O26  1  0.027904  0.783085  0.915297  1
  O  O27  1  0.698392  0.228825  0.166246  1
  O  O28  1  0.771175  0.301608  0.833754  1
  O  O29  1  0.118993  0.316442  0.908527  1
  O  O30  1  0.792451  0.030210  0.409669  1
  O  O31  1  0.005714  0.255681  0.195762  1
  O  O32  1  0.394760  0.660363  0.846229  1
  O  O33  1  0.864987  0.685458  0.590949  1
  O  O34  1  0.306425  0.784309  0.332928  1
  O  O35  1  0.744319  0.994286  0.804238  1
