# generated using pymatgen
data_TmPa3Ga20Pt11
_symmetry_space_group_name_H-M   'P 1'
_cell_length_a   4.27704731
_cell_length_b   10.86420661
_cell_length_c   13.64328546
_cell_angle_alpha   82.25694748
_cell_angle_beta   80.98197482
_cell_angle_gamma   78.64770432
_symmetry_Int_Tables_number   1
_chemical_formula_structural   TmPa3Ga20Pt11
_chemical_formula_sum   'Tm1 Pa3 Ga20 Pt11'
_cell_volume   610.33018031
_cell_formula_units_Z   1
loop_
 _symmetry_equiv_pos_site_id
 _symmetry_equiv_pos_as_xyz
  1  'x, y, z'
loop_
 _atom_site_type_symbol
 _atom_site_label
 _atom_site_symmetry_multiplicity
 _atom_site_fract_x
 _atom_site_fract_y
 _atom_site_fract_z
 _atom_site_occupancy
  Tm  Tm0  1  0.225195  0.371772  0.177840  1
  Pa  Pa1  1  0.121789  0.087565  0.668856  1
  Pa  Pa2  1  0.877958  0.913670  0.330415  1
  Pa  Pa3  1  0.774780  0.626119  0.824320  1
  Ga  Ga4  1  0.008904  0.069540  0.912653  1
  Ga  Ga5  1  0.990742  0.930510  0.088006  1
  Ga  Ga6  1  0.065553  0.674403  0.194491  1
  Ga  Ga7  1  0.935585  0.322735  0.806095  1
  Ga  Ga8  1  0.102863  0.342320  0.451954  1
  Ga  Ga9  1  0.897492  0.657653  0.547364  1
  Ga  Ga10  1  0.198782  0.605742  0.996695  1
  Ga  Ga11  1  0.799228  0.392737  0.008807  1
  Ga  Ga12  1  0.262157  0.778099  0.697587  1
  Ga  Ga13  1  0.739330  0.222024  0.299316  1
  Ga  Ga14  1  0.303520  0.897453  0.495506  1
  Ga  Ga15  1  0.696560  0.102543  0.504338  1
  Ga  Ga16  1  0.389389  0.524363  0.696858  1
  Ga  Ga17  1  0.613921  0.473564  0.298596  1
  Ga  Ga18  1  0.396825  0.205306  0.001045  1
  Ga  Ga19  1  0.600945  0.797903  0.000207  1
  Ga  Ga20  1  0.542659  0.286240  0.628442  1
  Ga  Ga21  1  0.458031  0.713252  0.370685  1
  Ga  Ga22  1  0.636354  0.929208  0.798085  1
  Ga  Ga23  1  0.361462  0.073361  0.203714  1
  Pt  Pt24  1  0.501336  0.498409  0.498918  1
  Pt  Pt25  1  0.025598  0.576840  0.371963  1
  Pt  Pt26  1  0.973617  0.424122  0.628645  1
  Pt  Pt27  1  0.143340  0.827702  0.885618  1
  Pt  Pt28  1  0.859024  0.169951  0.112001  1
  Pt  Pt29  1  0.241174  0.124395  0.393256  1
  Pt  Pt30  1  0.758407  0.874224  0.608964  1
  Pt  Pt31  1  0.344425  0.423566  0.887584  1
  Pt  Pt32  1  0.654376  0.581147  0.110102  1
  Pt  Pt33  1  0.509377  0.167380  0.813867  1
  Pt  Pt34  1  0.489303  0.834185  0.187208  1
