# generated using pymatgen
data_Tb4DyY3(WO6)4
_symmetry_space_group_name_H-M   'P 1'
_cell_length_a   5.41885300
_cell_length_b   7.73311214
_cell_length_c   11.51165202
_cell_angle_alpha   75.57633897
_cell_angle_beta   90.00356876
_cell_angle_gamma   90.00013298
_symmetry_Int_Tables_number   1
_chemical_formula_structural   Tb4DyY3(WO6)4
_chemical_formula_sum   'Tb4 Dy1 Y3 W4 O24'
_cell_volume   467.18636196
_cell_formula_units_Z   1
loop_
 _symmetry_equiv_pos_site_id
 _symmetry_equiv_pos_as_xyz
  1  'x, y, z'
loop_
 _atom_site_type_symbol
 _atom_site_label
 _atom_site_symmetry_multiplicity
 _atom_site_fract_x
 _atom_site_fract_y
 _atom_site_fract_z
 _atom_site_occupancy
  Tb  Tb0  1  0.738983  0.000061  0.749930  1
  Tb  Tb1  1  0.261078  0.000092  0.250082  1
  Tb  Tb2  1  0.683579  0.499968  0.749995  1
  Tb  Tb3  1  0.316480  0.499907  0.250071  1
  Dy  Dy4  1  0.813531  0.204747  0.422194  1
  Y  Y5  1  0.186662  0.795295  0.577807  1
  Y  Y6  1  0.813295  0.795228  0.077841  1
  Y  Y7  1  0.186686  0.204794  0.922140  1
  W  W8  1  0.254392  0.722882  0.885750  1
  W  W9  1  0.745630  0.722787  0.385722  1
  W  W10  1  0.254414  0.277057  0.614101  1
  W  W11  1  0.745643  0.277102  0.114395  1
  O  O12  1  0.042804  0.938825  0.895616  1
  O  O13  1  0.528951  0.848485  0.930910  1
  O  O14  1  0.956803  0.939175  0.395643  1
  O  O15  1  0.458915  0.788404  0.728377  1
  O  O16  1  0.471027  0.848463  0.430921  1
  O  O17  1  0.982978  0.709786  0.771948  1
  O  O18  1  0.541052  0.788319  0.228426  1
  O  O19  1  0.850532  0.635115  0.547729  1
  O  O20  1  0.361845  0.490512  0.886857  1
  O  O21  1  0.017039  0.709829  0.272002  1
  O  O22  1  0.361755  0.509434  0.613077  1
  O  O23  1  0.850512  0.364893  0.952299  1
  O  O24  1  0.149492  0.635075  0.047751  1
  O  O25  1  0.638566  0.490281  0.386869  1
  O  O26  1  0.983057  0.290222  0.727998  1
  O  O27  1  0.638143  0.509452  0.113151  1
  O  O28  1  0.148810  0.364617  0.452198  1
  O  O29  1  0.458936  0.211567  0.771541  1
  O  O30  1  0.016758  0.290126  0.228339  1
  O  O31  1  0.529276  0.151838  0.568768  1
  O  O32  1  0.541545  0.211600  0.271840  1
  O  O33  1  0.042590  0.061338  0.604145  1
  O  O34  1  0.471024  0.151525  0.069160  1
  O  O35  1  0.957215  0.061200  0.104404  1
