# generated using pymatgen
data_Cs3Eu(SeO4)3
_symmetry_space_group_name_H-M   'P 1'
_cell_length_a   10.28970656
_cell_length_b   10.65901940
_cell_length_c   10.65902000
_cell_angle_alpha   110.16241871
_cell_angle_beta   108.77084839
_cell_angle_gamma   108.77085330
_symmetry_Int_Tables_number   1
_chemical_formula_structural   Cs3Eu(SeO4)3
_chemical_formula_sum   'Cs6 Eu2 Se6 O24'
_cell_volume   907.60453002
_cell_formula_units_Z   2
loop_
 _symmetry_equiv_pos_site_id
 _symmetry_equiv_pos_as_xyz
  1  'x, y, z'
loop_
 _atom_site_type_symbol
 _atom_site_label
 _atom_site_symmetry_multiplicity
 _atom_site_fract_x
 _atom_site_fract_y
 _atom_site_fract_z
 _atom_site_occupancy
  Cs  Cs0  1  0.302859  0.627410  0.134144  1
  Cs  Cs1  1  0.675449  0.506735  0.372590  1
  Cs  Cs2  1  0.168715  0.865856  0.493266  1
  Cs  Cs3  1  0.175449  0.372590  0.506734  1
  Cs  Cs4  1  0.802860  0.134144  0.627409  1
  Cs  Cs5  1  0.668714  0.493265  0.865855  1
  Eu  Eu6  1  0.492400  0.000000  0.000000  1
  Eu  Eu7  1  0.992399  0.000000  0.000000  1
  Se  Se8  1  0.893086  0.323440  0.114750  1
  Se  Se9  1  0.778337  0.885251  0.208692  1
  Se  Se10  1  0.393086  0.114749  0.323439  1
  Se  Se11  1  0.569647  0.791309  0.676561  1
  Se  Se12  1  0.069646  0.676560  0.791308  1
  Se  Se13  1  0.278337  0.208691  0.885251  1
  O  O14  1  0.417604  0.377335  0.037634  1
  O  O15  1  0.839612  0.859489  0.076207  1
  O  O16  1  0.711410  0.232395  0.091227  1
  O  O17  1  0.980122  0.216716  0.140510  1
  O  O18  1  0.620182  0.908773  0.141168  1
  O  O19  1  0.722015  0.725101  0.217023  1
  O  O20  1  0.480123  0.140510  0.216717  1
  O  O21  1  0.211410  0.091227  0.232395  1
  O  O22  1  0.996914  0.491924  0.274900  1
  O  O23  1  0.379970  0.962366  0.339702  1
  O  O24  1  0.917604  0.037634  0.377336  1
  O  O25  1  0.504991  0.782977  0.508076  1
  O  O26  1  0.496915  0.274900  0.491924  1
  O  O27  1  0.040269  0.660298  0.622664  1
  O  O28  1  0.540268  0.622665  0.660299  1
  O  O29  1  0.222014  0.217023  0.725100  1
  O  O30  1  0.479015  0.858832  0.767605  1
  O  O31  1  0.763406  0.923793  0.783283  1
  O  O32  1  0.004991  0.508077  0.782977  1
  O  O33  1  0.979014  0.767605  0.858832  1
  O  O34  1  0.339613  0.076207  0.859490  1
  O  O35  1  0.120183  0.141168  0.908773  1
  O  O36  1  0.263406  0.783284  0.923794  1
  O  O37  1  0.879970  0.339701  0.962366  1
