# generated using pymatgen
data_DyY(MnAl5)4
_symmetry_space_group_name_H-M   'P 1'
_cell_length_a   6.79647495
_cell_length_b   6.79647408
_cell_length_c   9.04536600
_cell_angle_alpha   90.00000000
_cell_angle_beta   90.00000000
_cell_angle_gamma   97.34485534
_symmetry_Int_Tables_number   1
_chemical_formula_structural   DyY(MnAl5)4
_chemical_formula_sum   'Dy1 Y1 Mn4 Al20'
_cell_volume   414.39575425
_cell_formula_units_Z   1
loop_
 _symmetry_equiv_pos_site_id
 _symmetry_equiv_pos_as_xyz
  1  'x, y, z'
loop_
 _atom_site_type_symbol
 _atom_site_label
 _atom_site_symmetry_multiplicity
 _atom_site_fract_x
 _atom_site_fract_y
 _atom_site_fract_z
 _atom_site_occupancy
  Dy  Dy0  1  0.126469  0.873531  0.250000  1
  Y  Y1  1  0.873283  0.126717  0.750000  1
  Mn  Mn2  1  0.000131  0.500125  0.499950  1
  Mn  Mn3  1  0.000131  0.500125  0.000050  1
  Mn  Mn4  1  0.499875  0.999869  0.000050  1
  Mn  Mn5  1  0.499875  0.999869  0.499950  1
  Al  Al6  1  0.625736  0.374264  0.545542  1
  Al  Al7  1  0.374307  0.625693  0.453151  1
  Al  Al8  1  0.374307  0.625693  0.046849  1
  Al  Al9  1  0.625736  0.374264  0.954458  1
  Al  Al10  1  0.229161  0.228987  0.499947  1
  Al  Al11  1  0.771013  0.770839  0.499947  1
  Al  Al12  1  0.771013  0.770839  0.000053  1
  Al  Al13  1  0.229161  0.228987  0.000053  1
  Al  Al14  1  0.843119  0.156881  0.096545  1
  Al  Al15  1  0.157309  0.842691  0.903489  1
  Al  Al16  1  0.157309  0.842691  0.596511  1
  Al  Al17  1  0.843119  0.156881  0.403455  1
  Al  Al18  1  0.867057  0.588153  0.750000  1
  Al  Al19  1  0.132347  0.411755  0.250000  1
  Al  Al20  1  0.411847  0.132943  0.750000  1
  Al  Al21  1  0.588245  0.867653  0.250000  1
  Al  Al22  1  0.218413  0.476184  0.750000  1
  Al  Al23  1  0.781464  0.524243  0.250000  1
  Al  Al24  1  0.523816  0.781587  0.750000  1
  Al  Al25  1  0.475757  0.218536  0.250000  1
