# generated using pymatgen
data_Yb4Ga18CoPt5
_symmetry_space_group_name_H-M   'P 1'
_cell_length_a   7.63404622
_cell_length_b   7.63404598
_cell_length_c   9.48379867
_cell_angle_alpha   90.13888326
_cell_angle_beta   90.13888647
_cell_angle_gamma   120.09415857
_symmetry_Int_Tables_number   1
_chemical_formula_structural   Yb4Ga18CoPt5
_chemical_formula_sum   'Yb4 Ga18 Co1 Pt5'
_cell_volume   478.19447400
_cell_formula_units_Z   1
loop_
 _symmetry_equiv_pos_site_id
 _symmetry_equiv_pos_as_xyz
  1  'x, y, z'
loop_
 _atom_site_type_symbol
 _atom_site_label
 _atom_site_symmetry_multiplicity
 _atom_site_fract_x
 _atom_site_fract_y
 _atom_site_fract_z
 _atom_site_occupancy
  Yb  Yb0  1  0.336787  0.001804  0.250317  1
  Yb  Yb1  1  0.998196  0.663213  0.749683  1
  Yb  Yb2  1  0.663213  0.998196  0.749683  1
  Yb  Yb3  1  0.001804  0.336787  0.250317  1
  Ga  Ga4  1  0.332588  0.997439  0.915134  1
  Ga  Ga5  1  0.002561  0.667412  0.084866  1
  Ga  Ga6  1  0.322176  0.996070  0.578301  1
  Ga  Ga7  1  0.003930  0.677824  0.421699  1
  Ga  Ga8  1  0.667412  0.002561  0.084866  1
  Ga  Ga9  1  0.997439  0.332588  0.915134  1
  Ga  Ga10  1  0.677824  0.003930  0.421699  1
  Ga  Ga11  1  0.996070  0.322176  0.578301  1
  Ga  Ga12  1  0.670312  0.670312  0.928589  1
  Ga  Ga13  1  0.329688  0.329688  0.071411  1
  Ga  Ga14  1  0.684181  0.684181  0.567322  1
  Ga  Ga15  1  0.315819  0.315819  0.432678  1
  Ga  Ga16  1  0.115138  0.115138  0.741809  1
  Ga  Ga17  1  0.884862  0.884862  0.258191  1
  Ga  Ga18  1  0.458831  0.660933  0.251566  1
  Ga  Ga19  1  0.339067  0.541169  0.748434  1
  Ga  Ga20  1  0.541169  0.339067  0.748434  1
  Ga  Ga21  1  0.660933  0.458831  0.251566  1
  Co  Co22  1  0.000000  0.000000  0.500000  1
  Pt  Pt23  1  0.000000  0.000000  0.000000  1
  Pt  Pt24  1  0.329633  0.670367  0.000000  1
  Pt  Pt25  1  0.329554  0.670446  0.500000  1
  Pt  Pt26  1  0.670367  0.329633  0.000000  1
  Pt  Pt27  1  0.670446  0.329554  0.500000  1
