# generated using pymatgen
data_NdEuMg2IrRh
_symmetry_space_group_name_H-M   'P 1'
_cell_length_a   4.25526800
_cell_length_b   7.26528496
_cell_length_c   8.56349953
_cell_angle_alpha   89.63981834
_cell_angle_beta   90.00000000
_cell_angle_gamma   90.00000000
_symmetry_Int_Tables_number   1
_chemical_formula_structural   NdEuMg2IrRh
_chemical_formula_sum   'Nd2 Eu2 Mg4 Ir2 Rh2'
_cell_volume   264.74164767
_cell_formula_units_Z   2
loop_
 _symmetry_equiv_pos_site_id
 _symmetry_equiv_pos_as_xyz
  1  'x, y, z'
loop_
 _atom_site_type_symbol
 _atom_site_label
 _atom_site_symmetry_multiplicity
 _atom_site_fract_x
 _atom_site_fract_y
 _atom_site_fract_z
 _atom_site_occupancy
  Nd  Nd0  1  0.250000  0.538551  0.822176  1
  Nd  Nd1  1  0.750000  0.461449  0.177824  1
  Eu  Eu2  1  0.750000  0.967780  0.326023  1
  Eu  Eu3  1  0.250000  0.032220  0.673977  1
  Mg  Mg4  1  0.750000  0.865676  0.941059  1
  Mg  Mg5  1  0.250000  0.134324  0.058941  1
  Mg  Mg6  1  0.250000  0.635786  0.443537  1
  Mg  Mg7  1  0.750000  0.364214  0.556463  1
  Ir  Ir8  1  0.750000  0.732494  0.633854  1
  Ir  Ir9  1  0.250000  0.267506  0.366146  1
  Rh  Rh10  1  0.250000  0.752559  0.122152  1
  Rh  Rh11  1  0.750000  0.247441  0.877848  1
