# generated using pymatgen
data_Y3ThScIr3
_symmetry_space_group_name_H-M   'P 1'
_cell_length_a   11.05977600
_cell_length_b   10.82027500
_cell_length_c   6.27654500
_cell_angle_alpha   90.00000000
_cell_angle_beta   90.00000000
_cell_angle_gamma   90.00000000
_symmetry_Int_Tables_number   1
_chemical_formula_structural   Y3ThScIr3
_chemical_formula_sum   'Y12 Th4 Sc4 Ir12'
_cell_volume   751.11299630
_cell_formula_units_Z   4
loop_
 _symmetry_equiv_pos_site_id
 _symmetry_equiv_pos_as_xyz
  1  'x, y, z'
loop_
 _atom_site_type_symbol
 _atom_site_label
 _atom_site_symmetry_multiplicity
 _atom_site_fract_x
 _atom_site_fract_y
 _atom_site_fract_z
 _atom_site_occupancy
  Y  Y0  1  0.587052  0.780374  0.877959  1
  Y  Y1  1  0.587052  0.219626  0.377959  1
  Y  Y2  1  0.412948  0.780374  0.377959  1
  Y  Y3  1  0.412948  0.219626  0.877959  1
  Y  Y4  1  0.209912  0.415366  0.620159  1
  Y  Y5  1  0.209912  0.584634  0.120159  1
  Y  Y6  1  0.790088  0.415366  0.120159  1
  Y  Y7  1  0.790088  0.584634  0.620159  1
  Y  Y8  1  0.916896  0.710615  0.114538  1
  Y  Y9  1  0.916896  0.289385  0.614538  1
  Y  Y10  1  0.083104  0.710615  0.614538  1
  Y  Y11  1  0.083104  0.289385  0.114538  1
  Th  Th12  1  0.289485  0.091565  0.378214  1
  Th  Th13  1  0.289485  0.908435  0.878214  1
  Th  Th14  1  0.710515  0.091565  0.878214  1
  Th  Th15  1  0.710515  0.908435  0.378214  1
  Sc  Sc16  1  0.000000  0.000000  0.499321  1
  Sc  Sc17  1  0.000000  0.000000  0.999321  1
  Sc  Sc18  1  0.500000  0.500000  0.018562  1
  Sc  Sc19  1  0.500000  0.500000  0.518562  1
  Ir  Ir20  1  0.848934  0.143480  0.244686  1
  Ir  Ir21  1  0.848934  0.856520  0.744686  1
  Ir  Ir22  1  0.151066  0.143480  0.744686  1
  Ir  Ir23  1  0.151066  0.856520  0.244686  1
  Ir  Ir24  1  0.646678  0.352242  0.760190  1
  Ir  Ir25  1  0.646678  0.647758  0.260190  1
  Ir  Ir26  1  0.353322  0.352242  0.260190  1
  Ir  Ir27  1  0.353322  0.647758  0.760190  1
  Ir  Ir28  1  0.500000  0.000000  0.116140  1
  Ir  Ir29  1  0.500000  0.000000  0.616140  1
  Ir  Ir30  1  0.000000  0.500000  0.874484  1
  Ir  Ir31  1  0.000000  0.500000  0.374484  1
