# generated using pymatgen
data_Er16In6OsRh
_symmetry_space_group_name_H-M   'P 1'
_cell_length_a   10.32846500
_cell_length_b   10.32846419
_cell_length_c   7.00378700
_cell_angle_alpha   90.00000000
_cell_angle_beta   90.00000000
_cell_angle_gamma   119.99999299
_symmetry_Int_Tables_number   1
_chemical_formula_structural   Er16In6OsRh
_chemical_formula_sum   'Er16 In6 Os1 Rh1'
_cell_volume   647.04594867
_cell_formula_units_Z   1
loop_
 _symmetry_equiv_pos_site_id
 _symmetry_equiv_pos_as_xyz
  1  'x, y, z'
loop_
 _atom_site_type_symbol
 _atom_site_label
 _atom_site_symmetry_multiplicity
 _atom_site_fract_x
 _atom_site_fract_y
 _atom_site_fract_z
 _atom_site_occupancy
  Er  Er0  1  0.532504  0.065008  0.794349  1
  Er  Er1  1  0.934992  0.467496  0.794349  1
  Er  Er2  1  0.532504  0.467496  0.794349  1
  Er  Er3  1  0.466910  0.933820  0.293404  1
  Er  Er4  1  0.066180  0.533090  0.293404  1
  Er  Er5  1  0.466910  0.533090  0.293404  1
  Er  Er6  1  0.823268  0.646537  0.498772  1
  Er  Er7  1  0.353463  0.176732  0.498772  1
  Er  Er8  1  0.823268  0.176732  0.498772  1
  Er  Er9  1  0.177181  0.354361  0.999344  1
  Er  Er10  1  0.645639  0.822819  0.999344  1
  Er  Er11  1  0.177181  0.822819  0.999344  1
  Er  Er12  1  0.666667  0.333333  0.172287  1
  Er  Er13  1  0.333333  0.666667  0.672105  1
  Er  Er14  1  0.000000  0.000000  0.777820  1
  Er  Er15  1  0.000000  0.000000  0.278672  1
  In  In16  1  0.836976  0.673954  0.039525  1
  In  In17  1  0.326046  0.163024  0.039525  1
  In  In18  1  0.836976  0.163024  0.039525  1
  In  In19  1  0.162776  0.325551  0.539484  1
  In  In20  1  0.674449  0.837224  0.539484  1
  In  In21  1  0.162776  0.837224  0.539484  1
  Os  Os22  1  0.333333  0.666667  0.070760  1
  Rh  Rh23  1  0.666667  0.333333  0.569627  1
