# generated using pymatgen
data_Ho4Tm8Ga2TcNi3
_symmetry_space_group_name_H-M   'P 1'
_cell_length_a   8.24361162
_cell_length_b   8.24340310
_cell_length_c   8.24361333
_cell_angle_alpha   112.92959180
_cell_angle_beta   109.64946507
_cell_angle_gamma   105.91150073
_symmetry_Int_Tables_number   1
_chemical_formula_structural   Ho4Tm8Ga2TcNi3
_chemical_formula_sum   'Ho4 Tm8 Ga2 Tc1 Ni3'
_cell_volume   429.61976933
_cell_formula_units_Z   1
loop_
 _symmetry_equiv_pos_site_id
 _symmetry_equiv_pos_as_xyz
  1  'x, y, z'
loop_
 _atom_site_type_symbol
 _atom_site_label
 _atom_site_symmetry_multiplicity
 _atom_site_fract_x
 _atom_site_fract_y
 _atom_site_fract_z
 _atom_site_occupancy
  Ho  Ho0  1  0.055416  0.749086  0.306336  1
  Ho  Ho1  1  0.963878  0.267759  0.696119  1
  Ho  Ho2  1  0.557250  0.250914  0.306331  1
  Ho  Ho3  1  0.428360  0.732241  0.696120  1
  Tm  Tm4  1  0.675101  0.862077  0.193687  1
  Tm  Tm5  1  0.331601  0.518583  0.193700  1
  Tm  Tm6  1  0.331611  0.137923  0.813025  1
  Tm  Tm7  1  0.675117  0.481417  0.813018  1
  Tm  Tm8  1  0.173961  0.221087  0.395048  1
  Tm  Tm9  1  0.814386  0.219514  0.033900  1
  Tm  Tm10  1  0.173962  0.778913  0.952874  1
  Tm  Tm11  1  0.814386  0.780486  0.594870  1
  Ga  Ga12  1  0.982862  0.500000  0.482862  1
  Ga  Ga13  1  0.506822  0.000000  0.506822  1
  Tc  Tc14  1  0.673933  0.500000  0.173933  1
  Ni  Ni15  1  0.347570  0.500000  0.847570  1
  Ni  Ni16  1  0.878340  0.881448  0.996891  1
  Ni  Ni17  1  0.115444  0.118552  0.996891  1
