# generated using pymatgen
data_Ba8Tc3IrO20
_symmetry_space_group_name_H-M   'P 1'
_cell_length_a   5.77939100
_cell_length_b   7.44457345
_cell_length_c   11.67217526
_cell_angle_alpha   91.07520116
_cell_angle_beta   90.00000000
_cell_angle_gamma   90.00000000
_symmetry_Int_Tables_number   1
_chemical_formula_structural   Ba8Tc3IrO20
_chemical_formula_sum   'Ba8 Tc3 Ir1 O20'
_cell_volume   502.10809390
_cell_formula_units_Z   1
loop_
 _symmetry_equiv_pos_site_id
 _symmetry_equiv_pos_as_xyz
  1  'x, y, z'
loop_
 _atom_site_type_symbol
 _atom_site_label
 _atom_site_symmetry_multiplicity
 _atom_site_fract_x
 _atom_site_fract_y
 _atom_site_fract_z
 _atom_site_occupancy
  Ba  Ba0  1  0.750000  0.172670  0.574425  1
  Ba  Ba1  1  0.250000  0.844576  0.423506  1
  Ba  Ba2  1  0.750000  0.675897  0.916746  1
  Ba  Ba3  1  0.250000  0.324177  0.086101  1
  Ba  Ba4  1  0.250000  0.027256  0.786720  1
  Ba  Ba5  1  0.750000  0.975554  0.214550  1
  Ba  Ba6  1  0.250000  0.521141  0.707522  1
  Ba  Ba7  1  0.750000  0.470173  0.294396  1
  Tc  Tc8  1  0.750000  0.674272  0.565466  1
  Tc  Tc9  1  0.250000  0.823700  0.062023  1
  Tc  Tc10  1  0.750000  0.175798  0.936563  1
  Ir  Ir11  1  0.250000  0.332749  0.438117  1
  O  O12  1  0.486130  0.674040  0.110771  1
  O  O13  1  0.985978  0.325383  0.886603  1
  O  O14  1  0.007351  0.173571  0.381068  1
  O  O15  1  0.514446  0.824505  0.619502  1
  O  O16  1  0.514022  0.325383  0.886603  1
  O  O17  1  0.013870  0.674040  0.110771  1
  O  O18  1  0.985554  0.824505  0.619502  1
  O  O19  1  0.492649  0.173571  0.381068  1
  O  O20  1  0.750000  0.272466  0.090122  1
  O  O21  1  0.250000  0.726558  0.907560  1
  O  O22  1  0.750000  0.780511  0.413034  1
  O  O23  1  0.250000  0.208956  0.591532  1
  O  O24  1  0.999729  0.501701  0.501274  1
  O  O25  1  0.500271  0.501701  0.501274  1
  O  O26  1  0.499912  0.999480  0.999702  1
  O  O27  1  0.000088  0.999480  0.999702  1
  O  O28  1  0.250000  0.472654  0.299727  1
  O  O29  1  0.750000  0.526240  0.694603  1
  O  O30  1  0.250000  0.975174  0.188646  1
  O  O31  1  0.750000  0.022116  0.810800  1
