# generated using pymatgen
data_CeUB6W
_symmetry_space_group_name_H-M   'P 1'
_cell_length_a   3.71613900
_cell_length_b   9.38126300
_cell_length_c   11.50722900
_cell_angle_alpha   90.00000000
_cell_angle_beta   90.00000000
_cell_angle_gamma   90.00000000
_symmetry_Int_Tables_number   1
_chemical_formula_structural   CeUB6W
_chemical_formula_sum   'Ce4 U4 B24 W4'
_cell_volume   401.16590695
_cell_formula_units_Z   4
loop_
 _symmetry_equiv_pos_site_id
 _symmetry_equiv_pos_as_xyz
  1  'x, y, z'
loop_
 _atom_site_type_symbol
 _atom_site_label
 _atom_site_symmetry_multiplicity
 _atom_site_fract_x
 _atom_site_fract_y
 _atom_site_fract_z
 _atom_site_occupancy
  Ce  Ce0  1  0.000000  0.335577  0.407685  1
  Ce  Ce1  1  0.000000  0.664423  0.592315  1
  Ce  Ce2  1  0.000000  0.835577  0.092315  1
  Ce  Ce3  1  0.000000  0.164423  0.907685  1
  U  U4  1  0.000000  0.956720  0.395592  1
  U  U5  1  0.000000  0.043280  0.604408  1
  U  U6  1  0.000000  0.456720  0.104408  1
  U  U7  1  0.000000  0.543280  0.895592  1
  B  B8  1  0.500000  0.553099  0.430710  1
  B  B9  1  0.500000  0.446901  0.569290  1
  B  B10  1  0.500000  0.053099  0.069290  1
  B  B11  1  0.500000  0.946901  0.930710  1
  B  B12  1  0.500000  0.744920  0.423120  1
  B  B13  1  0.500000  0.255080  0.576880  1
  B  B14  1  0.500000  0.244920  0.076880  1
  B  B15  1  0.500000  0.755080  0.923120  1
  B  B16  1  0.500000  0.803553  0.275013  1
  B  B17  1  0.500000  0.196447  0.724987  1
  B  B18  1  0.500000  0.303553  0.224987  1
  B  B19  1  0.500000  0.696447  0.775013  1
  B  B20  1  0.500000  0.644138  0.187676  1
  B  B21  1  0.500000  0.355862  0.812324  1
  B  B22  1  0.500000  0.144138  0.312324  1
  B  B23  1  0.500000  0.855862  0.687676  1
  B  B24  1  0.500000  0.989283  0.220830  1
  B  B25  1  0.500000  0.010717  0.779170  1
  B  B26  1  0.500000  0.489283  0.279170  1
  B  B27  1  0.500000  0.510717  0.720830  1
  B  B28  1  0.500000  0.638409  0.038348  1
  B  B29  1  0.500000  0.361591  0.961652  1
  B  B30  1  0.500000  0.138409  0.461652  1
  B  B31  1  0.500000  0.861591  0.538348  1
  W  W32  1  0.000000  0.646990  0.318448  1
  W  W33  1  0.000000  0.353010  0.681552  1
  W  W34  1  0.000000  0.146990  0.181552  1
  W  W35  1  0.000000  0.853010  0.818448  1
