# generated using pymatgen
data_Er3Cd3IrPd2
_symmetry_space_group_name_H-M   'P 1'
_cell_length_a   7.59213100
_cell_length_b   7.59213048
_cell_length_c   3.88619000
_cell_angle_alpha   90.00000000
_cell_angle_beta   90.00000000
_cell_angle_gamma   119.99999792
_symmetry_Int_Tables_number   1
_chemical_formula_structural   Er3Cd3IrPd2
_chemical_formula_sum   'Er3 Cd3 Ir1 Pd2'
_cell_volume   193.99119888
_cell_formula_units_Z   1
loop_
 _symmetry_equiv_pos_site_id
 _symmetry_equiv_pos_as_xyz
  1  'x, y, z'
loop_
 _atom_site_type_symbol
 _atom_site_label
 _atom_site_symmetry_multiplicity
 _atom_site_fract_x
 _atom_site_fract_y
 _atom_site_fract_z
 _atom_site_occupancy
  Er  Er0  1  0.417579  0.398338  0.500000  1
  Er  Er1  1  0.601662  0.019241  0.500000  1
  Er  Er2  1  0.980759  0.582421  0.500000  1
  Cd  Cd3  1  0.740734  0.744906  0.000000  1
  Cd  Cd4  1  0.255094  0.995828  0.000000  1
  Cd  Cd5  1  0.004172  0.259266  0.000000  1
  Ir  Ir6  1  0.666667  0.333333  0.000000  1
  Pd  Pd7  1  0.333333  0.666667  0.000000  1
  Pd  Pd8  1  0.000000  0.000000  0.500000  1
