# generated using pymatgen
data_ZnCr(WO3)4
_symmetry_space_group_name_H-M   'P 1'
_cell_length_a   6.62484927
_cell_length_b   6.64298307
_cell_length_c   10.70017452
_cell_angle_alpha   71.91775960
_cell_angle_beta   71.96644641
_cell_angle_gamma   90.00070518
_symmetry_Int_Tables_number   1
_chemical_formula_structural   ZnCr(WO3)4
_chemical_formula_sum   'Zn2 Cr2 W8 O24'
_cell_volume   423.24183965
_cell_formula_units_Z   2
loop_
 _symmetry_equiv_pos_site_id
 _symmetry_equiv_pos_as_xyz
  1  'x, y, z'
loop_
 _atom_site_type_symbol
 _atom_site_label
 _atom_site_symmetry_multiplicity
 _atom_site_fract_x
 _atom_site_fract_y
 _atom_site_fract_z
 _atom_site_occupancy
  Zn  Zn0  1  0.249154  0.749111  0.501675  1
  Zn  Zn1  1  0.749201  0.249191  0.501621  1
  Cr  Cr2  1  0.500022  0.500368  0.999874  1
  Cr  Cr3  1  0.000156  0.999806  0.999896  1
  W  W4  1  0.418482  0.918577  0.162948  1
  W  W5  1  0.918500  0.418468  0.162931  1
  W  W6  1  0.083213  0.583126  0.833651  1
  W  W7  1  0.583221  0.083260  0.833616  1
  W  W8  1  0.166474  0.166406  0.667036  1
  W  W9  1  0.666468  0.666541  0.667077  1
  W  W10  1  0.331780  0.331873  0.336380  1
  W  W11  1  0.831719  0.831701  0.336432  1
  O  O12  1  0.560483  0.750893  0.498111  1
  O  O13  1  0.060538  0.250981  0.498044  1
  O  O14  1  0.941382  0.750913  0.498076  1
  O  O15  1  0.441429  0.251000  0.498023  1
  O  O16  1  0.497824  0.193574  0.004351  1
  O  O17  1  0.997912  0.693461  0.004230  1
  O  O18  1  0.497851  0.802354  0.004219  1
  O  O19  1  0.997863  0.302088  0.004336  1
  O  O20  1  0.714686  0.916044  0.167745  1
  O  O21  1  0.214715  0.416239  0.167715  1
  O  O22  1  0.117491  0.915997  0.167746  1
  O  O23  1  0.617536  0.416200  0.167690  1
  O  O24  1  0.774822  0.582201  0.835779  1
  O  O25  1  0.274835  0.082059  0.835760  1
  O  O26  1  0.389449  0.582247  0.835778  1
  O  O27  1  0.889470  0.082105  0.835761  1
  O  O28  1  0.164097  0.872995  0.671808  1
  O  O29  1  0.664040  0.372958  0.671921  1
  O  O30  1  0.164106  0.455109  0.671944  1
  O  O31  1  0.664182  0.955226  0.671784  1
  O  O32  1  0.339253  0.632070  0.321534  1
  O  O33  1  0.839286  0.132068  0.321457  1
  O  O34  1  0.339201  0.046416  0.321500  1
  O  O35  1  0.839159  0.546373  0.321545  1
