# generated using pymatgen
data_Y3Lu7In3Ru
_symmetry_space_group_name_H-M   'P 1'
_cell_length_a   9.60805500
_cell_length_b   9.60805500
_cell_length_c   9.61364800
_cell_angle_alpha   90.00000000
_cell_angle_beta   90.00000000
_cell_angle_gamma   119.99999656
_symmetry_Int_Tables_number   1
_chemical_formula_structural   Y3Lu7In3Ru
_chemical_formula_sum   'Y6 Lu14 In6 Ru2'
_cell_volume   768.58131881
_cell_formula_units_Z   2
loop_
 _symmetry_equiv_pos_site_id
 _symmetry_equiv_pos_as_xyz
  1  'x, y, z'
loop_
 _atom_site_type_symbol
 _atom_site_label
 _atom_site_symmetry_multiplicity
 _atom_site_fract_x
 _atom_site_fract_y
 _atom_site_fract_z
 _atom_site_occupancy
  Y  Y0  1  0.538573  0.461427  0.250000  1
  Y  Y1  1  0.538573  0.077147  0.250000  1
  Y  Y2  1  0.922853  0.461427  0.250000  1
  Y  Y3  1  0.461427  0.538573  0.750000  1
  Y  Y4  1  0.461427  0.922853  0.750000  1
  Y  Y5  1  0.077147  0.538573  0.750000  1
  Lu  Lu6  1  0.000000  0.000000  0.500000  1
  Lu  Lu7  1  0.000000  0.000000  0.000000  1
  Lu  Lu8  1  0.210217  0.789783  0.438183  1
  Lu  Lu9  1  0.210217  0.420435  0.438183  1
  Lu  Lu10  1  0.579565  0.789783  0.438183  1
  Lu  Lu11  1  0.789783  0.210217  0.561817  1
  Lu  Lu12  1  0.789783  0.579565  0.561817  1
  Lu  Lu13  1  0.420435  0.210217  0.561817  1
  Lu  Lu14  1  0.789783  0.210217  0.938183  1
  Lu  Lu15  1  0.789783  0.579565  0.938183  1
  Lu  Lu16  1  0.420435  0.210217  0.938183  1
  Lu  Lu17  1  0.210217  0.789783  0.061817  1
  Lu  Lu18  1  0.210217  0.420435  0.061817  1
  Lu  Lu19  1  0.579565  0.789783  0.061817  1
  In  In20  1  0.885412  0.114588  0.250000  1
  In  In21  1  0.885412  0.770825  0.250000  1
  In  In22  1  0.229175  0.114588  0.250000  1
  In  In23  1  0.114588  0.885412  0.750000  1
  In  In24  1  0.114588  0.229175  0.750000  1
  In  In25  1  0.770825  0.885412  0.750000  1
  Ru  Ru26  1  0.333333  0.666667  0.250000  1
  Ru  Ru27  1  0.666667  0.333333  0.750000  1
