# generated using pymatgen
data_EuMgIO6
_symmetry_space_group_name_H-M   'P 1'
_cell_length_a   5.24016200
_cell_length_b   5.24016201
_cell_length_c   5.01794900
_cell_angle_alpha   90.00000000
_cell_angle_beta   90.00000000
_cell_angle_gamma   119.99998732
_symmetry_Int_Tables_number   1
_chemical_formula_structural   EuMgIO6
_chemical_formula_sum   'Eu1 Mg1 I1 O6'
_cell_volume   119.32909801
_cell_formula_units_Z   1
loop_
 _symmetry_equiv_pos_site_id
 _symmetry_equiv_pos_as_xyz
  1  'x, y, z'
loop_
 _atom_site_type_symbol
 _atom_site_label
 _atom_site_symmetry_multiplicity
 _atom_site_fract_x
 _atom_site_fract_y
 _atom_site_fract_z
 _atom_site_occupancy
  Eu  Eu0  1  0.666667  0.333333  0.500000  1
  Mg  Mg1  1  0.333333  0.666667  0.000000  1
  I  I2  1  0.000000  0.000000  0.000000  1
  O  O3  1  0.017647  0.307364  0.785230  1
  O  O4  1  0.289716  0.982353  0.785230  1
  O  O5  1  0.289716  0.307364  0.214770  1
  O  O6  1  0.692636  0.710284  0.785230  1
  O  O7  1  0.692636  0.982353  0.214770  1
  O  O8  1  0.017647  0.710284  0.214770  1
