# generated using pymatgen
data_Tb7YAl3Co
_symmetry_space_group_name_H-M   'P 1'
_cell_length_a   10.26919900
_cell_length_b   10.26919993
_cell_length_c   6.85327900
_cell_angle_alpha   90.00000000
_cell_angle_beta   90.00000000
_cell_angle_gamma   120.00000021
_symmetry_Int_Tables_number   1
_chemical_formula_structural   Tb7YAl3Co
_chemical_formula_sum   'Tb14 Y2 Al6 Co2'
_cell_volume   625.89606684
_cell_formula_units_Z   2
loop_
 _symmetry_equiv_pos_site_id
 _symmetry_equiv_pos_as_xyz
  1  'x, y, z'
loop_
 _atom_site_type_symbol
 _atom_site_label
 _atom_site_symmetry_multiplicity
 _atom_site_fract_x
 _atom_site_fract_y
 _atom_site_fract_z
 _atom_site_occupancy
  Tb  Tb0  1  0.174916  0.825084  0.998278  1
  Tb  Tb1  1  0.825084  0.174916  0.498278  1
  Tb  Tb2  1  0.174916  0.349832  0.998278  1
  Tb  Tb3  1  0.650168  0.825084  0.998278  1
  Tb  Tb4  1  0.349832  0.174916  0.498278  1
  Tb  Tb5  1  0.825084  0.650168  0.498278  1
  Tb  Tb6  1  0.333333  0.666667  0.672006  1
  Tb  Tb7  1  0.666667  0.333333  0.172006  1
  Tb  Tb8  1  0.466185  0.533815  0.289112  1
  Tb  Tb9  1  0.533815  0.466185  0.789112  1
  Tb  Tb10  1  0.466185  0.932370  0.289112  1
  Tb  Tb11  1  0.067630  0.533815  0.289112  1
  Tb  Tb12  1  0.932370  0.466185  0.789112  1
  Tb  Tb13  1  0.533815  0.067630  0.789112  1
  Y  Y14  1  0.000000  0.000000  0.278038  1
  Y  Y15  1  0.000000  0.000000  0.778038  1
  Al  Al16  1  0.162256  0.837744  0.532227  1
  Al  Al17  1  0.837744  0.162256  0.032227  1
  Al  Al18  1  0.162256  0.324514  0.532227  1
  Al  Al19  1  0.675486  0.837744  0.532227  1
  Al  Al20  1  0.324514  0.162256  0.032227  1
  Al  Al21  1  0.837744  0.675486  0.032227  1
  Co  Co22  1  0.333333  0.666667  0.064169  1
  Co  Co23  1  0.666667  0.333333  0.564169  1
