# generated using pymatgen
data_Dy2Fe9Mo3P7
_symmetry_space_group_name_H-M   'P 1'
_cell_length_a   9.13967202
_cell_length_b   9.13820194
_cell_length_c   3.72195000
_cell_angle_alpha   90.00000000
_cell_angle_beta   90.00000000
_cell_angle_gamma   120.00057743
_symmetry_Int_Tables_number   1
_chemical_formula_structural   Dy2Fe9Mo3P7
_chemical_formula_sum   'Dy2 Fe9 Mo3 P7'
_cell_volume   269.20926452
_cell_formula_units_Z   1
loop_
 _symmetry_equiv_pos_site_id
 _symmetry_equiv_pos_as_xyz
  1  'x, y, z'
loop_
 _atom_site_type_symbol
 _atom_site_label
 _atom_site_symmetry_multiplicity
 _atom_site_fract_x
 _atom_site_fract_y
 _atom_site_fract_z
 _atom_site_occupancy
  Dy  Dy0  1  0.333329  0.666597  0.000000  1
  Dy  Dy1  1  0.666519  0.333276  0.500001  1
  Fe  Fe2  1  0.159340  0.278528  0.000000  1
  Fe  Fe3  1  0.721357  0.880713  0.000000  1
  Fe  Fe4  1  0.119376  0.840832  0.000000  1
  Fe  Fe5  1  0.391434  0.437858  0.500001  1
  Fe  Fe6  1  0.561976  0.953517  0.500001  1
  Fe  Fe7  1  0.046391  0.608528  0.500001  1
  Fe  Fe8  1  0.429021  0.050509  0.000000  1
  Fe  Fe9  1  0.949634  0.378423  0.000000  1
  Fe  Fe10  1  0.621625  0.571123  0.000000  1
  Mo  Mo11  1  0.220935  0.100136  0.500001  1
  Mo  Mo12  1  0.899929  0.120801  0.500001  1
  Mo  Mo13  1  0.879174  0.779122  0.500001  1
  P  P14  1  0.124833  0.408627  0.500001  1
  P  P15  1  0.591158  0.715885  0.500001  1
  P  P16  1  0.283917  0.875383  0.500001  1
  P  P17  1  0.000008  0.000006  0.000000  1
  P  P18  1  0.412491  0.298673  0.000000  1
  P  P19  1  0.701417  0.113953  0.000000  1
  P  P20  1  0.886133  0.587511  0.000000  1
