# generated using pymatgen
data_TaTi15(Si4W)4
_symmetry_space_group_name_H-M   'P 1'
_cell_length_a   6.66543769
_cell_length_b   6.66808721
_cell_length_c   12.21758723
_cell_angle_alpha   89.96335521
_cell_angle_beta   89.96237274
_cell_angle_gamma   89.99138831
_symmetry_Int_Tables_number   1
_chemical_formula_structural   TaTi15(Si4W)4
_chemical_formula_sum   'Ta1 Ti15 Si16 W4'
_cell_volume   543.01922431
_cell_formula_units_Z   1
loop_
 _symmetry_equiv_pos_site_id
 _symmetry_equiv_pos_as_xyz
  1  'x, y, z'
loop_
 _atom_site_type_symbol
 _atom_site_label
 _atom_site_symmetry_multiplicity
 _atom_site_fract_x
 _atom_site_fract_y
 _atom_site_fract_z
 _atom_site_occupancy
  Ta  Ta0  1  0.996639  0.149781  0.622261  1
  Ti  Ti1  1  0.350849  0.495490  0.872931  1
  Ti  Ti2  1  0.649453  0.505034  0.371710  1
  Ti  Ti3  1  0.495145  0.350058  0.127629  1
  Ti  Ti4  1  0.505818  0.650001  0.627811  1
  Ti  Ti5  1  0.004855  0.850051  0.122176  1
  Ti  Ti6  1  0.150239  0.995684  0.377905  1
  Ti  Ti7  1  0.851244  0.004967  0.877454  1
  Ti  Ti8  1  0.002849  0.339694  0.222022  1
  Ti  Ti9  1  0.160639  0.500418  0.471873  1
  Ti  Ti10  1  0.839053  0.497944  0.972636  1
  Ti  Ti11  1  0.501483  0.161326  0.527795  1
  Ti  Ti12  1  0.497600  0.839700  0.028020  1
  Ti  Ti13  1  0.997632  0.660272  0.722156  1
  Ti  Ti14  1  0.337367  0.002387  0.777742  1
  Ti  Ti15  1  0.660425  0.996756  0.277585  1
  Si  Si16  1  0.042631  0.306323  0.816728  1
  Si  Si17  1  0.196520  0.542176  0.064344  1
  Si  Si18  1  0.800913  0.459485  0.562760  1
  Si  Si19  1  0.542830  0.196332  0.935971  1
  Si  Si20  1  0.458106  0.803608  0.435091  1
  Si  Si21  1  0.957654  0.696868  0.313833  1
  Si  Si22  1  0.303518  0.042058  0.185875  1
  Si  Si23  1  0.692061  0.956328  0.686877  1
  Si  Si24  1  0.296770  0.362747  0.674191  1
  Si  Si25  1  0.140508  0.793445  0.923160  1
  Si  Si26  1  0.858410  0.207191  0.420425  1
  Si  Si27  1  0.793703  0.140365  0.077383  1
  Si  Si28  1  0.208621  0.853600  0.576192  1
  Si  Si29  1  0.706502  0.640452  0.172565  1
  Si  Si30  1  0.359564  0.293410  0.326709  1
  Si  Si31  1  0.640754  0.706378  0.828130  1
  W  W32  1  0.170344  0.169589  0.000314  1
  W  W33  1  0.329810  0.669866  0.249827  1
  W  W34  1  0.670149  0.330762  0.750259  1
  W  W35  1  0.829336  0.829450  0.499663  1
