# generated using pymatgen
data_Ho2Si4P2Pd20Pb
_symmetry_space_group_name_H-M   'P 1'
_cell_length_a   8.71494493
_cell_length_b   8.71493342
_cell_length_c   8.70741600
_cell_angle_alpha   60.02825314
_cell_angle_beta   60.02775948
_cell_angle_gamma   59.94278131
_symmetry_Int_Tables_number   1
_chemical_formula_structural   Ho2Si4P2Pd20Pb
_chemical_formula_sum   'Ho2 Si4 P2 Pd20 Pb1'
_cell_volume   467.62574955
_cell_formula_units_Z   1
loop_
 _symmetry_equiv_pos_site_id
 _symmetry_equiv_pos_as_xyz
  1  'x, y, z'
loop_
 _atom_site_type_symbol
 _atom_site_label
 _atom_site_symmetry_multiplicity
 _atom_site_fract_x
 _atom_site_fract_y
 _atom_site_fract_z
 _atom_site_occupancy
  Ho  Ho0  1  0.749990  0.749994  0.750001  1
  Ho  Ho1  1  0.999989  0.000004  0.000005  1
  Si  Si2  1  0.732856  0.267144  0.267147  1
  Si  Si3  1  0.267145  0.732847  0.732847  1
  Si  Si4  1  0.267142  0.732855  0.267147  1
  Si  Si5  1  0.732849  0.267145  0.732847  1
  P  P6  1  0.265735  0.265734  0.734266  1
  P  P7  1  0.734253  0.734251  0.265741  1
  Pd  Pd8  1  0.383265  0.383263  0.384955  1
  Pd  Pd9  1  0.616072  0.616074  0.614412  1
  Pd  Pd10  1  0.383250  0.383251  0.848551  1
  Pd  Pd11  1  0.384924  0.848576  0.383246  1
  Pd  Pd12  1  0.616076  0.616072  0.153428  1
  Pd  Pd13  1  0.614426  0.153416  0.616076  1
  Pd  Pd14  1  0.848577  0.384922  0.383247  1
  Pd  Pd15  1  0.153419  0.614425  0.616079  1
  Pd  Pd16  1  0.347819  0.997341  0.995477  1
  Pd  Pd17  1  0.659352  0.995475  0.997347  1
  Pd  Pd18  1  0.997346  0.347817  0.659353  1
  Pd  Pd19  1  0.995478  0.659348  0.347819  1
  Pd  Pd20  1  0.997346  0.347816  0.995479  1
  Pd  Pd21  1  0.659347  0.995478  0.347820  1
  Pd  Pd22  1  0.995477  0.659349  0.997349  1
  Pd  Pd23  1  0.347818  0.997339  0.659358  1
  Pd  Pd24  1  0.996274  0.996274  0.348662  1
  Pd  Pd25  1  0.996278  0.996280  0.658777  1
  Pd  Pd26  1  0.658779  0.348650  0.996282  1
  Pd  Pd27  1  0.348647  0.658776  0.996285  1
  Pb  Pb28  1  0.250073  0.250086  0.249995  1
