# generated using pymatgen
data_RbNi9As2P3
_symmetry_space_group_name_H-M   'P 1'
_cell_length_a   6.63660500
_cell_length_b   6.63660566
_cell_length_c   11.08049400
_cell_angle_alpha   90.00000000
_cell_angle_beta   90.00000000
_cell_angle_gamma   120.00000169
_symmetry_Int_Tables_number   1
_chemical_formula_structural   RbNi9As2P3
_chemical_formula_sum   'Rb2 Ni18 As4 P6'
_cell_volume   422.65083403
_cell_formula_units_Z   2
loop_
 _symmetry_equiv_pos_site_id
 _symmetry_equiv_pos_as_xyz
  1  'x, y, z'
loop_
 _atom_site_type_symbol
 _atom_site_label
 _atom_site_symmetry_multiplicity
 _atom_site_fract_x
 _atom_site_fract_y
 _atom_site_fract_z
 _atom_site_occupancy
  Rb  Rb0  1  0.000000  0.000000  0.500000  1
  Rb  Rb1  1  0.000000  0.000000  0.000000  1
  Ni  Ni2  1  0.461986  0.923972  0.885376  1
  Ni  Ni3  1  0.923972  0.461986  0.114624  1
  Ni  Ni4  1  0.538014  0.076028  0.114624  1
  Ni  Ni5  1  0.076028  0.538014  0.614624  1
  Ni  Ni6  1  0.200034  0.400068  0.250000  1
  Ni  Ni7  1  0.799966  0.200034  0.750000  1
  Ni  Ni8  1  0.400068  0.200034  0.750000  1
  Ni  Ni9  1  0.599932  0.799966  0.250000  1
  Ni  Ni10  1  0.200034  0.799966  0.250000  1
  Ni  Ni11  1  0.799966  0.599932  0.750000  1
  Ni  Ni12  1  0.461986  0.923972  0.614624  1
  Ni  Ni13  1  0.538014  0.461986  0.385376  1
  Ni  Ni14  1  0.923972  0.461986  0.385376  1
  Ni  Ni15  1  0.076028  0.538014  0.885376  1
  Ni  Ni16  1  0.461986  0.538014  0.885376  1
  Ni  Ni17  1  0.538014  0.076028  0.385376  1
  Ni  Ni18  1  0.538014  0.461986  0.114624  1
  Ni  Ni19  1  0.461986  0.538014  0.614624  1
  As  As20  1  0.333333  0.666667  0.438090  1
  As  As21  1  0.666667  0.333333  0.938090  1
  As  As22  1  0.666667  0.333333  0.561910  1
  As  As23  1  0.333333  0.666667  0.061910  1
  P  P24  1  0.173489  0.346978  0.750000  1
  P  P25  1  0.826511  0.173489  0.250000  1
  P  P26  1  0.173489  0.826511  0.750000  1
  P  P27  1  0.826511  0.653022  0.250000  1
  P  P28  1  0.346978  0.173489  0.250000  1
  P  P29  1  0.653022  0.826511  0.750000  1
