# generated using pymatgen
data_Hf2GaMo2C3
_symmetry_space_group_name_H-M   'P 1'
_cell_length_a   3.16516900
_cell_length_b   3.16516759
_cell_length_c   23.94198300
_cell_angle_alpha   90.00000000
_cell_angle_beta   90.00000000
_cell_angle_gamma   119.99998338
_symmetry_Int_Tables_number   1
_chemical_formula_structural   Hf2GaMo2C3
_chemical_formula_sum   'Hf4 Ga2 Mo4 C6'
_cell_volume   207.72292830
_cell_formula_units_Z   2
loop_
 _symmetry_equiv_pos_site_id
 _symmetry_equiv_pos_as_xyz
  1  'x, y, z'
loop_
 _atom_site_type_symbol
 _atom_site_label
 _atom_site_symmetry_multiplicity
 _atom_site_fract_x
 _atom_site_fract_y
 _atom_site_fract_z
 _atom_site_occupancy
  Hf  Hf0  1  0.333333  0.666667  0.442986  1
  Hf  Hf1  1  0.666667  0.333333  0.557014  1
  Hf  Hf2  1  0.666667  0.333333  0.942986  1
  Hf  Hf3  1  0.333333  0.666667  0.057014  1
  Ga  Ga4  1  0.333333  0.666667  0.250000  1
  Ga  Ga5  1  0.666667  0.333333  0.750000  1
  Mo  Mo6  1  0.000000  0.000000  0.336760  1
  Mo  Mo7  1  0.000000  0.000000  0.663240  1
  Mo  Mo8  1  0.000000  0.000000  0.836760  1
  Mo  Mo9  1  0.000000  0.000000  0.163240  1
  C  C10  1  0.000000  0.000000  0.500000  1
  C  C11  1  0.000000  0.000000  0.000000  1
  C  C12  1  0.666667  0.333333  0.385032  1
  C  C13  1  0.333333  0.666667  0.614968  1
  C  C14  1  0.333333  0.666667  0.885032  1
  C  C15  1  0.666667  0.333333  0.114968  1
