# generated using pymatgen
data_La20Co4Sn3Bi5
_symmetry_space_group_name_H-M   'P 1'
_cell_length_a   8.51164844
_cell_length_b   9.23827287
_cell_length_c   12.89918167
_cell_angle_alpha   89.71714974
_cell_angle_beta   90.04850089
_cell_angle_gamma   90.10595585
_symmetry_Int_Tables_number   1
_chemical_formula_structural   La20Co4Sn3Bi5
_chemical_formula_sum   'La20 Co4 Sn3 Bi5'
_cell_volume   1014.28601054
_cell_formula_units_Z   1
loop_
 _symmetry_equiv_pos_site_id
 _symmetry_equiv_pos_as_xyz
  1  'x, y, z'
loop_
 _atom_site_type_symbol
 _atom_site_label
 _atom_site_symmetry_multiplicity
 _atom_site_fract_x
 _atom_site_fract_y
 _atom_site_fract_z
 _atom_site_occupancy
  La  La0  1  0.349935  0.745169  0.701188  1
  La  La1  1  0.646070  0.252296  0.302076  1
  La  La2  1  0.850317  0.253070  0.801095  1
  La  La3  1  0.148720  0.748634  0.196522  1
  La  La4  1  0.879579  0.744861  0.808975  1
  La  La5  1  0.124624  0.253729  0.189143  1
  La  La6  1  0.380227  0.254922  0.689939  1
  La  La7  1  0.617576  0.747579  0.309433  1
  La  La8  1  0.683957  0.535976  0.571430  1
  La  La9  1  0.319759  0.465023  0.433216  1
  La  La10  1  0.183279  0.462915  0.931380  1
  La  La11  1  0.317887  0.033243  0.435952  1
  La  La12  1  0.813917  0.535617  0.063139  1
  La  La13  1  0.681676  0.964745  0.565018  1
  La  La14  1  0.817202  0.968562  0.063170  1
  La  La15  1  0.182044  0.032209  0.934924  1
  La  La16  1  0.063533  0.746245  0.496111  1
  La  La17  1  0.940038  0.253248  0.507019  1
  La  La18  1  0.560170  0.256717  0.006685  1
  La  La19  1  0.439299  0.743408  0.994355  1
  Co  Co20  1  0.070284  0.753057  0.991932  1
  Co  Co21  1  0.931088  0.247194  0.007044  1
  Co  Co22  1  0.571279  0.247747  0.506610  1
  Co  Co23  1  0.429249  0.752572  0.494017  1
  Sn  Sn24  1  0.573343  0.504571  0.827344  1
  Sn  Sn25  1  0.426669  0.496315  0.173915  1
  Sn  Sn26  1  0.072768  0.493871  0.672318  1
  Bi  Bi27  1  0.424871  0.005342  0.172304  1
  Bi  Bi28  1  0.925191  0.505852  0.325763  1
  Bi  Bi29  1  0.574882  0.994880  0.827961  1
  Bi  Bi30  1  0.925206  0.994996  0.326891  1
  Bi  Bi31  1  0.075361  0.005436  0.673129  1
