# generated using pymatgen
data_TbEr15In4IrPd3
_symmetry_space_group_name_H-M   'P 1'
_cell_length_a   9.62534848
_cell_length_b   9.64590978
_cell_length_c   9.62187400
_cell_angle_alpha   60.08239425
_cell_angle_beta   60.01194015
_cell_angle_gamma   60.06707079
_symmetry_Int_Tables_number   1
_chemical_formula_structural   TbEr15In4IrPd3
_chemical_formula_sum   'Tb1 Er15 In4 Ir1 Pd3'
_cell_volume   632.46022877
_cell_formula_units_Z   1
loop_
 _symmetry_equiv_pos_site_id
 _symmetry_equiv_pos_as_xyz
  1  'x, y, z'
loop_
 _atom_site_type_symbol
 _atom_site_label
 _atom_site_symmetry_multiplicity
 _atom_site_fract_x
 _atom_site_fract_y
 _atom_site_fract_z
 _atom_site_occupancy
  Tb  Tb0  1  0.064513  0.063413  0.436037  1
  Er  Er1  1  0.646113  0.062517  0.645685  1
  Er  Er2  1  0.190364  0.807612  0.190580  1
  Er  Er3  1  0.437604  0.062308  0.437473  1
  Er  Er4  1  0.185531  0.193358  0.810556  1
  Er  Er5  1  0.651421  0.644905  0.652078  1
  Er  Er6  1  0.054752  0.644326  0.650461  1
  Er  Er7  1  0.437604  0.062308  0.062613  1
  Er  Er8  1  0.651421  0.644905  0.051597  1
  Er  Er9  1  0.190364  0.807612  0.811445  1
  Er  Er10  1  0.809603  0.193360  0.811926  1
  Er  Er11  1  0.809603  0.193360  0.185112  1
  Er  Er12  1  0.810950  0.808802  0.190124  1
  Er  Er13  1  0.062270  0.434581  0.441773  1
  Er  Er14  1  0.438351  0.432523  0.064563  1
  Er  Er15  1  0.062270  0.434581  0.061376  1
  In  In16  1  0.748223  0.419319  0.416230  1
  In  In17  1  0.415771  0.417145  0.751542  1
  In  In18  1  0.418638  0.747779  0.416791  1
  In  In19  1  0.415771  0.417145  0.415544  1
  Ir  Ir20  1  0.858784  0.428903  0.856157  1
  Pd  Pd21  1  0.855147  0.859287  0.854733  1
  Pd  Pd22  1  0.429788  0.860668  0.854773  1
  Pd  Pd23  1  0.855147  0.859287  0.430833  1
