# generated using pymatgen
data_Yb5DySi24Ru7Pt
_symmetry_space_group_name_H-M   'P 1'
_cell_length_a   10.15134838
_cell_length_b   10.15134812
_cell_length_c   8.15888496
_cell_angle_alpha   90.03733544
_cell_angle_beta   90.03734270
_cell_angle_gamma   132.59370200
_symmetry_Int_Tables_number   1
_chemical_formula_structural   Yb5DySi24Ru7Pt
_chemical_formula_sum   'Yb5 Dy1 Si24 Ru7 Pt1'
_cell_volume   618.95159173
_cell_formula_units_Z   1
loop_
 _symmetry_equiv_pos_site_id
 _symmetry_equiv_pos_as_xyz
  1  'x, y, z'
loop_
 _atom_site_type_symbol
 _atom_site_label
 _atom_site_symmetry_multiplicity
 _atom_site_fract_x
 _atom_site_fract_y
 _atom_site_fract_z
 _atom_site_occupancy
  Yb  Yb0  1  0.500710  0.499290  0.500000  1
  Yb  Yb1  1  0.501131  0.000050  0.749744  1
  Yb  Yb2  1  0.999950  0.498869  0.250256  1
  Yb  Yb3  1  0.498565  0.997271  0.248957  1
  Yb  Yb4  1  0.002729  0.501435  0.751043  1
  Dy  Dy5  1  0.999081  0.000919  0.000000  1
  Si  Si6  1  0.798017  0.201983  0.500000  1
  Si  Si7  1  0.294718  0.705282  0.000000  1
  Si  Si8  1  0.207063  0.792937  0.500000  1
  Si  Si9  1  0.707603  0.292397  0.000000  1
  Si  Si10  1  0.332432  0.336807  0.831876  1
  Si  Si11  1  0.663193  0.667568  0.168124  1
  Si  Si12  1  0.164701  0.171453  0.333833  1
  Si  Si13  1  0.828547  0.835299  0.666167  1
  Si  Si14  1  0.122866  0.889638  0.730038  1
  Si  Si15  1  0.110362  0.877134  0.269962  1
  Si  Si16  1  0.613344  0.381580  0.219157  1
  Si  Si17  1  0.618420  0.386656  0.780843  1
  Si  Si18  1  0.877799  0.111264  0.271688  1
  Si  Si19  1  0.888736  0.122201  0.728312  1
  Si  Si20  1  0.390854  0.623691  0.770127  1
  Si  Si21  1  0.376309  0.609146  0.229873  1
  Si  Si22  1  0.334353  0.103589  0.500191  1
  Si  Si23  1  0.896411  0.665647  0.499809  1
  Si  Si24  1  0.387706  0.153409  0.005239  1
  Si  Si25  1  0.846591  0.612294  0.994761  1
  Si  Si26  1  0.653183  0.884945  0.496264  1
  Si  Si27  1  0.115055  0.346817  0.503736  1
  Si  Si28  1  0.609626  0.844097  0.995195  1
  Si  Si29  1  0.155903  0.390374  0.004805  1
  Ru  Ru30  1  0.168994  0.831006  0.000000  1
  Ru  Ru31  1  0.330869  0.669131  0.500000  1
  Ru  Ru32  1  0.831948  0.168052  0.000000  1
  Ru  Ru33  1  0.126564  0.124541  0.627603  1
  Ru  Ru34  1  0.875459  0.873436  0.372397  1
  Ru  Ru35  1  0.373348  0.371537  0.124613  1
  Ru  Ru36  1  0.628463  0.626652  0.875387  1
  Pt  Pt37  1  0.668399  0.331601  0.500000  1
