# generated using pymatgen
data_Er7Tm13Sn7Pb9
_symmetry_space_group_name_H-M   'P 1'
_cell_length_a   8.07706805
_cell_length_b   8.12831701
_cell_length_c   15.41540702
_cell_angle_alpha   90.00170761
_cell_angle_beta   90.00566247
_cell_angle_gamma   90.00905156
_symmetry_Int_Tables_number   1
_chemical_formula_structural   Er7Tm13Sn7Pb9
_chemical_formula_sum   'Er7 Tm13 Sn7 Pb9'
_cell_volume   1012.06723139
_cell_formula_units_Z   1
loop_
 _symmetry_equiv_pos_site_id
 _symmetry_equiv_pos_as_xyz
  1  'x, y, z'
loop_
 _atom_site_type_symbol
 _atom_site_label
 _atom_site_symmetry_multiplicity
 _atom_site_fract_x
 _atom_site_fract_y
 _atom_site_fract_z
 _atom_site_occupancy
  Er  Er0  1  0.038441  0.174540  0.604374  1
  Er  Er1  1  0.464716  0.675141  0.397143  1
  Er  Er2  1  0.959902  0.827110  0.101575  1
  Er  Er3  1  0.464707  0.675149  0.102861  1
  Er  Er4  1  0.959898  0.827104  0.398426  1
  Er  Er5  1  0.537950  0.324891  0.604149  1
  Er  Er6  1  0.038442  0.174539  0.895623  1
  Tm  Tm7  1  0.380154  0.838535  0.876598  1
  Tm  Tm8  1  0.880442  0.661018  0.623523  1
  Tm  Tm9  1  0.619843  0.161106  0.377108  1
  Tm  Tm10  1  0.119654  0.337383  0.123041  1
  Tm  Tm11  1  0.619838  0.161117  0.122880  1
  Tm  Tm12  1  0.119665  0.337390  0.376961  1
  Tm  Tm13  1  0.380156  0.838531  0.623404  1
  Tm  Tm14  1  0.880434  0.661006  0.876475  1
  Tm  Tm15  1  0.537970  0.324903  0.895826  1
  Tm  Tm16  1  0.210957  0.503568  0.750011  1
  Tm  Tm17  1  0.710872  0.996294  0.750008  1
  Tm  Tm18  1  0.787348  0.494694  0.250004  1
  Tm  Tm19  1  0.291275  0.006668  0.250000  1
  Sn  Sn20  1  0.575598  0.622930  0.750006  1
  Sn  Sn21  1  0.075886  0.876365  0.749999  1
  Sn  Sn22  1  0.424966  0.376151  0.250000  1
  Sn  Sn23  1  0.924074  0.122043  0.250003  1
  Sn  Sn24  1  0.346115  0.149403  0.750034  1
  Sn  Sn25  1  0.845978  0.350907  0.750010  1
  Sn  Sn26  1  0.655119  0.850379  0.249999  1
  Pb  Pb27  1  0.280305  0.031764  0.040898  1
  Pb  Pb28  1  0.781583  0.467423  0.459203  1
  Pb  Pb29  1  0.718384  0.968458  0.541956  1
  Pb  Pb30  1  0.218965  0.531402  0.958780  1
  Pb  Pb31  1  0.718363  0.968485  0.958042  1
  Pb  Pb32  1  0.218905  0.531442  0.541208  1
  Pb  Pb33  1  0.280314  0.031756  0.459102  1
  Pb  Pb34  1  0.781552  0.467384  0.040772  1
  Pb  Pb35  1  0.151225  0.653020  0.250000  1
