# generated using pymatgen
data_Rb8Gd6ZnBr20
_symmetry_space_group_name_H-M   'P 1'
_cell_length_a   12.36498291
_cell_length_b   12.36498293
_cell_length_c   12.36498200
_cell_angle_alpha   59.99999714
_cell_angle_beta   59.99999708
_cell_angle_gamma   59.99999812
_symmetry_Int_Tables_number   1
_chemical_formula_structural   Rb8Gd6ZnBr20
_chemical_formula_sum   'Rb8 Gd6 Zn1 Br20'
_cell_volume   1336.79713801
_cell_formula_units_Z   1
loop_
 _symmetry_equiv_pos_site_id
 _symmetry_equiv_pos_as_xyz
  1  'x, y, z'
loop_
 _atom_site_type_symbol
 _atom_site_label
 _atom_site_symmetry_multiplicity
 _atom_site_fract_x
 _atom_site_fract_y
 _atom_site_fract_z
 _atom_site_occupancy
  Rb  Rb0  1  0.358608  0.358608  0.358608  1
  Rb  Rb1  1  0.641392  0.641392  0.641392  1
  Rb  Rb2  1  0.358608  0.358608  0.924177  1
  Rb  Rb3  1  0.358608  0.924177  0.358608  1
  Rb  Rb4  1  0.641392  0.641392  0.075823  1
  Rb  Rb5  1  0.641392  0.075823  0.641392  1
  Rb  Rb6  1  0.924177  0.358608  0.358608  1
  Rb  Rb7  1  0.075823  0.641392  0.641392  1
  Gd  Gd8  1  0.837734  0.162266  0.162266  1
  Gd  Gd9  1  0.162266  0.837734  0.837734  1
  Gd  Gd10  1  0.162266  0.837734  0.162266  1
  Gd  Gd11  1  0.837734  0.162266  0.837734  1
  Gd  Gd12  1  0.162266  0.162266  0.837734  1
  Gd  Gd13  1  0.837734  0.837734  0.162266  1
  Zn  Zn14  1  0.000000  0.000000  0.000000  1
  Br  Br15  1  0.335957  0.000000  0.000000  1
  Br  Br16  1  0.664043  0.000000  0.000000  1
  Br  Br17  1  0.000000  0.335957  0.664043  1
  Br  Br18  1  0.000000  0.664043  0.335957  1
  Br  Br19  1  0.000000  0.335957  0.000000  1
  Br  Br20  1  0.664043  0.000000  0.335957  1
  Br  Br21  1  0.000000  0.664043  0.000000  1
  Br  Br22  1  0.335957  0.000000  0.664043  1
  Br  Br23  1  0.000000  0.000000  0.335957  1
  Br  Br24  1  0.000000  0.000000  0.664043  1
  Br  Br25  1  0.664043  0.335957  0.000000  1
  Br  Br26  1  0.335957  0.664043  0.000000  1
  Br  Br27  1  0.672916  0.327084  0.327084  1
  Br  Br28  1  0.327084  0.672916  0.672916  1
  Br  Br29  1  0.327084  0.672916  0.327084  1
  Br  Br30  1  0.672916  0.327084  0.672916  1
  Br  Br31  1  0.327084  0.327084  0.672916  1
  Br  Br32  1  0.672916  0.672916  0.327084  1
  Br  Br33  1  0.250000  0.250000  0.250000  1
  Br  Br34  1  0.750000  0.750000  0.750000  1
