# generated using pymatgen
data_TlFe2F6
_symmetry_space_group_name_H-M   'P 1'
_cell_length_a   7.13761900
_cell_length_b   7.57743700
_cell_length_c   10.33528900
_cell_angle_alpha   90.00000000
_cell_angle_beta   90.00000000
_cell_angle_gamma   90.00000000
_symmetry_Int_Tables_number   1
_chemical_formula_structural   TlFe2F6
_chemical_formula_sum   'Tl4 Fe8 F24'
_cell_volume   558.98264108
_cell_formula_units_Z   4
loop_
 _symmetry_equiv_pos_site_id
 _symmetry_equiv_pos_as_xyz
  1  'x, y, z'
loop_
 _atom_site_type_symbol
 _atom_site_label
 _atom_site_symmetry_multiplicity
 _atom_site_fract_x
 _atom_site_fract_y
 _atom_site_fract_z
 _atom_site_occupancy
  Tl  Tl0  1  0.494931  0.250000  0.119110  1
  Tl  Tl1  1  0.994931  0.250000  0.380890  1
  Tl  Tl2  1  0.505069  0.750000  0.880890  1
  Tl  Tl3  1  0.005069  0.750000  0.619110  1
  Fe  Fe4  1  0.297255  0.250000  0.768316  1
  Fe  Fe5  1  0.797255  0.250000  0.731684  1
  Fe  Fe6  1  0.702745  0.750000  0.231684  1
  Fe  Fe7  1  0.202745  0.750000  0.268316  1
  Fe  Fe8  1  0.000000  0.000000  0.000000  1
  Fe  Fe9  1  0.500000  0.500000  0.500000  1
  Fe  Fe10  1  0.000000  0.500000  0.000000  1
  Fe  Fe11  1  0.500000  0.000000  0.500000  1
  F  F12  1  0.238031  0.063579  0.919633  1
  F  F13  1  0.738031  0.436421  0.580367  1
  F  F14  1  0.761969  0.563579  0.080367  1
  F  F15  1  0.261969  0.936421  0.419633  1
  F  F16  1  0.761969  0.936421  0.080367  1
  F  F17  1  0.261969  0.563579  0.419633  1
  F  F18  1  0.238031  0.436421  0.919633  1
  F  F19  1  0.738031  0.063579  0.580367  1
  F  F20  1  0.874994  0.012106  0.833426  1
  F  F21  1  0.374994  0.487894  0.666574  1
  F  F22  1  0.125006  0.512106  0.166574  1
  F  F23  1  0.625006  0.987894  0.333426  1
  F  F24  1  0.125006  0.987894  0.166574  1
  F  F25  1  0.625006  0.512106  0.333426  1
  F  F26  1  0.874994  0.487894  0.833426  1
  F  F27  1  0.374994  0.012106  0.666574  1
  F  F28  1  0.934048  0.250000  0.035125  1
  F  F29  1  0.434048  0.250000  0.464875  1
  F  F30  1  0.065952  0.750000  0.964875  1
  F  F31  1  0.565952  0.750000  0.535125  1
  F  F32  1  0.064037  0.250000  0.659768  1
  F  F33  1  0.564037  0.250000  0.840232  1
  F  F34  1  0.935963  0.750000  0.340232  1
  F  F35  1  0.435963  0.750000  0.159768  1
