# generated using pymatgen
data_Y4InPbAu4
_symmetry_space_group_name_H-M   'P 1'
_cell_length_a   8.10188300
_cell_length_b   8.10188300
_cell_length_c   3.70046800
_cell_angle_alpha   90.00000000
_cell_angle_beta   90.00000000
_cell_angle_gamma   90.00000000
_symmetry_Int_Tables_number   1
_chemical_formula_structural   Y4InPbAu4
_chemical_formula_sum   'Y4 In1 Pb1 Au4'
_cell_volume   242.90059990
_cell_formula_units_Z   1
loop_
 _symmetry_equiv_pos_site_id
 _symmetry_equiv_pos_as_xyz
  1  'x, y, z'
loop_
 _atom_site_type_symbol
 _atom_site_label
 _atom_site_symmetry_multiplicity
 _atom_site_fract_x
 _atom_site_fract_y
 _atom_site_fract_z
 _atom_site_occupancy
  Y  Y0  1  0.672520  0.165233  0.500000  1
  Y  Y1  1  0.327480  0.834767  0.500000  1
  Y  Y2  1  0.165233  0.327480  0.500000  1
  Y  Y3  1  0.834767  0.672520  0.500000  1
  In  In4  1  0.000000  0.000000  0.000000  1
  Pb  Pb5  1  0.500000  0.500000  0.000000  1
  Au  Au6  1  0.124277  0.630532  0.000000  1
  Au  Au7  1  0.875723  0.369468  0.000000  1
  Au  Au8  1  0.630532  0.875723  0.000000  1
  Au  Au9  1  0.369468  0.124277  0.000000  1
