# generated using pymatgen
data_Sc3BeP2Ir3
_symmetry_space_group_name_H-M   'P 1'
_cell_length_a   6.43226800
_cell_length_b   6.43226807
_cell_length_c   3.74383200
_cell_angle_alpha   90.00000000
_cell_angle_beta   90.00000000
_cell_angle_gamma   120.00000991
_symmetry_Int_Tables_number   1
_chemical_formula_structural   Sc3BeP2Ir3
_chemical_formula_sum   'Sc3 Be1 P2 Ir3'
_cell_volume   134.14522163
_cell_formula_units_Z   1
loop_
 _symmetry_equiv_pos_site_id
 _symmetry_equiv_pos_as_xyz
  1  'x, y, z'
loop_
 _atom_site_type_symbol
 _atom_site_label
 _atom_site_symmetry_multiplicity
 _atom_site_fract_x
 _atom_site_fract_y
 _atom_site_fract_z
 _atom_site_occupancy
  Sc  Sc0  1  0.000000  0.409471  0.500000  1
  Sc  Sc1  1  0.590529  0.590529  0.500000  1
  Sc  Sc2  1  0.409471  0.000000  0.500000  1
  Be  Be3  1  0.000000  0.000000  0.500000  1
  P  P4  1  0.666667  0.333333  0.000000  1
  P  P5  1  0.333333  0.666667  0.000000  1
  Ir  Ir6  1  0.000000  0.756667  0.000000  1
  Ir  Ir7  1  0.243333  0.243333  0.000000  1
  Ir  Ir8  1  0.756667  0.000000  0.000000  1
