# generated using pymatgen
data_Rb2LiTmSb2
_symmetry_space_group_name_H-M   'P 1'
_cell_length_a   11.17328638
_cell_length_b   11.17328656
_cell_length_c   7.19290000
_cell_angle_alpha   90.00000000
_cell_angle_beta   90.00000000
_cell_angle_gamma   100.05448654
_symmetry_Int_Tables_number   1
_chemical_formula_structural   Rb2LiTmSb2
_chemical_formula_sum   'Rb8 Li4 Tm4 Sb8'
_cell_volume   884.18740305
_cell_formula_units_Z   4
loop_
 _symmetry_equiv_pos_site_id
 _symmetry_equiv_pos_as_xyz
  1  'x, y, z'
loop_
 _atom_site_type_symbol
 _atom_site_label
 _atom_site_symmetry_multiplicity
 _atom_site_fract_x
 _atom_site_fract_y
 _atom_site_fract_z
 _atom_site_occupancy
  Rb  Rb0  1  0.570580  0.929420  0.750000  1
  Rb  Rb1  1  0.929420  0.570580  0.250000  1
  Rb  Rb2  1  0.429420  0.070580  0.250000  1
  Rb  Rb3  1  0.070580  0.429420  0.750000  1
  Rb  Rb4  1  0.676226  0.323774  0.782948  1
  Rb  Rb5  1  0.823774  0.176226  0.282948  1
  Rb  Rb6  1  0.323774  0.676226  0.217052  1
  Rb  Rb7  1  0.176226  0.823774  0.717052  1
  Li  Li8  1  0.620011  0.620011  0.000000  1
  Li  Li9  1  0.879989  0.879989  0.500000  1
  Li  Li10  1  0.379989  0.379989  0.000000  1
  Li  Li11  1  0.120011  0.120011  0.500000  1
  Tm  Tm12  1  0.869728  0.869728  0.000000  1
  Tm  Tm13  1  0.630272  0.630272  0.500000  1
  Tm  Tm14  1  0.130272  0.130272  0.000000  1
  Tm  Tm15  1  0.369728  0.369728  0.500000  1
  Sb  Sb16  1  0.345477  0.154523  0.750000  1
  Sb  Sb17  1  0.154523  0.345477  0.250000  1
  Sb  Sb18  1  0.654523  0.845477  0.250000  1
  Sb  Sb19  1  0.845477  0.654523  0.750000  1
  Sb  Sb20  1  0.905654  0.094346  0.762981  1
  Sb  Sb21  1  0.594346  0.405654  0.262981  1
  Sb  Sb22  1  0.094346  0.905654  0.237019  1
  Sb  Sb23  1  0.405654  0.594346  0.737019  1
