# generated using pymatgen
data_Tb7Ho5Ga2TcNi3
_symmetry_space_group_name_H-M   'P 1'
_cell_length_a   8.33591420
_cell_length_b   8.33517948
_cell_length_c   8.34171145
_cell_angle_alpha   112.81320586
_cell_angle_beta   109.67231670
_cell_angle_gamma   105.96585665
_symmetry_Int_Tables_number   1
_chemical_formula_structural   Tb7Ho5Ga2TcNi3
_chemical_formula_sum   'Tb7 Ho5 Ga2 Tc1 Ni3'
_cell_volume   444.76912917
_cell_formula_units_Z   1
loop_
 _symmetry_equiv_pos_site_id
 _symmetry_equiv_pos_as_xyz
  1  'x, y, z'
loop_
 _atom_site_type_symbol
 _atom_site_label
 _atom_site_symmetry_multiplicity
 _atom_site_fract_x
 _atom_site_fract_y
 _atom_site_fract_z
 _atom_site_occupancy
  Tb  Tb0  1  0.443267  0.248745  0.193742  1
  Tb  Tb1  1  0.574313  0.768975  0.805863  1
  Tb  Tb2  1  0.036932  0.231640  0.805900  1
  Tb  Tb3  1  0.945053  0.750533  0.193667  1
  Tb  Tb4  1  0.185646  0.280477  0.466005  1
  Tb  Tb5  1  0.825593  0.721135  0.546697  1
  Tb  Tb6  1  0.186264  0.720019  0.906124  1
  Ho  Ho7  1  0.825584  0.278667  0.104287  1
  Ho  Ho8  1  0.325523  0.639187  0.308268  1
  Ho  Ho9  1  0.668954  0.360259  0.686656  1
  Ho  Ho10  1  0.326349  0.017769  0.686721  1
  Ho  Ho11  1  0.669177  0.982767  0.308176  1
  Ga  Ga12  1  0.493669  0.500281  0.993600  1
  Ga  Ga13  1  0.017378  0.001127  0.018321  1
  Tc  Tc14  1  0.326025  0.000283  0.326223  1
  Ni  Ni15  1  0.651714  0.000715  0.652905  1
  Ni  Ni16  1  0.117088  0.616437  0.498636  1
  Ni  Ni17  1  0.881470  0.380983  0.498210  1
