# generated using pymatgen
data_Dy5Th3(HgAu2)4
_symmetry_space_group_name_H-M   'P 1'
_cell_length_a   8.15760300
_cell_length_b   8.15760274
_cell_length_c   7.56327000
_cell_angle_alpha   90.00000000
_cell_angle_beta   90.00000000
_cell_angle_gamma   89.86771731
_symmetry_Int_Tables_number   1
_chemical_formula_structural   Dy5Th3(HgAu2)4
_chemical_formula_sum   'Dy5 Th3 Hg4 Au8'
_cell_volume   503.30768915
_cell_formula_units_Z   1
loop_
 _symmetry_equiv_pos_site_id
 _symmetry_equiv_pos_as_xyz
  1  'x, y, z'
loop_
 _atom_site_type_symbol
 _atom_site_label
 _atom_site_symmetry_multiplicity
 _atom_site_fract_x
 _atom_site_fract_y
 _atom_site_fract_z
 _atom_site_occupancy
  Dy  Dy0  1  0.836035  0.160235  0.500000  1
  Dy  Dy1  1  0.160235  0.836035  0.500000  1
  Dy  Dy2  1  0.338793  0.338793  0.000000  1
  Dy  Dy3  1  0.663059  0.663059  0.000000  1
  Dy  Dy4  1  0.683187  0.683187  0.500000  1
  Th  Th5  1  0.316720  0.316720  0.500000  1
  Th  Th6  1  0.182713  0.816063  0.000000  1
  Th  Th7  1  0.816063  0.182713  0.000000  1
  Hg  Hg8  1  0.501170  0.998397  0.250013  1
  Hg  Hg9  1  0.998397  0.501170  0.749987  1
  Hg  Hg10  1  0.501170  0.998397  0.749987  1
  Hg  Hg11  1  0.998397  0.501170  0.250013  1
  Au  Au12  1  0.627917  0.375542  0.273428  1
  Au  Au13  1  0.375542  0.627917  0.273428  1
  Au  Au14  1  0.126641  0.126641  0.771569  1
  Au  Au15  1  0.871930  0.871930  0.767810  1
  Au  Au16  1  0.375542  0.627917  0.726572  1
  Au  Au17  1  0.627917  0.375542  0.726572  1
  Au  Au18  1  0.871930  0.871930  0.232190  1
  Au  Au19  1  0.126641  0.126641  0.228431  1
