# generated using pymatgen
data_AcCe(NiAs)4
_symmetry_space_group_name_H-M   'P 1'
_cell_length_a   4.26885600
_cell_length_b   4.26885600
_cell_length_c   9.46020700
_cell_angle_alpha   90.00000000
_cell_angle_beta   90.00000000
_cell_angle_gamma   90.00000000
_symmetry_Int_Tables_number   1
_chemical_formula_structural   AcCe(NiAs)4
_chemical_formula_sum   'Ac1 Ce1 Ni4 As4'
_cell_volume   172.39459664
_cell_formula_units_Z   1
loop_
 _symmetry_equiv_pos_site_id
 _symmetry_equiv_pos_as_xyz
  1  'x, y, z'
loop_
 _atom_site_type_symbol
 _atom_site_label
 _atom_site_symmetry_multiplicity
 _atom_site_fract_x
 _atom_site_fract_y
 _atom_site_fract_z
 _atom_site_occupancy
  Ac  Ac0  1  0.500000  0.000000  0.252753  1
  Ce  Ce1  1  0.000000  0.500000  0.744323  1
  Ni  Ni2  1  0.500000  0.000000  0.878848  1
  Ni  Ni3  1  0.500000  0.500000  0.509537  1
  Ni  Ni4  1  0.000000  0.500000  0.111715  1
  Ni  Ni5  1  0.000000  0.000000  0.509537  1
  As  As6  1  0.000000  0.500000  0.378347  1
  As  As7  1  0.500000  0.500000  0.991682  1
  As  As8  1  0.000000  0.000000  0.991682  1
  As  As9  1  0.500000  0.000000  0.631575  1
