# generated using pymatgen
data_Al12Co5TcIr6
_symmetry_space_group_name_H-M   'P 1'
_cell_length_a   4.18834200
_cell_length_b   5.96952400
_cell_length_c   12.57583700
_cell_angle_alpha   90.00000000
_cell_angle_beta   89.99997721
_cell_angle_gamma   90.00000000
_symmetry_Int_Tables_number   1
_chemical_formula_structural   Al12Co5TcIr6
_chemical_formula_sum   'Al12 Co5 Tc1 Ir6'
_cell_volume   314.42620874
_cell_formula_units_Z   1
loop_
 _symmetry_equiv_pos_site_id
 _symmetry_equiv_pos_as_xyz
  1  'x, y, z'
loop_
 _atom_site_type_symbol
 _atom_site_label
 _atom_site_symmetry_multiplicity
 _atom_site_fract_x
 _atom_site_fract_y
 _atom_site_fract_z
 _atom_site_occupancy
  Al  Al0  1  0.500000  0.247934  0.000000  1
  Al  Al1  1  0.500000  0.752066  0.000000  1
  Al  Al2  1  0.999994  0.249491  0.167691  1
  Al  Al3  1  0.999994  0.750508  0.167691  1
  Al  Al4  1  0.499991  0.250226  0.334055  1
  Al  Al5  1  0.499991  0.749773  0.334055  1
  Al  Al6  1  0.000000  0.250676  0.500000  1
  Al  Al7  1  0.000000  0.749324  0.500000  1
  Al  Al8  1  0.500009  0.250226  0.665945  1
  Al  Al9  1  0.500009  0.749773  0.665945  1
  Al  Al10  1  0.000006  0.249491  0.832310  1
  Al  Al11  1  0.000006  0.750508  0.832310  1
  Co  Co12  1  0.499996  0.000000  0.170460  1
  Co  Co13  1  0.999994  0.500001  0.337272  1
  Co  Co14  1  0.500000  0.000000  0.500000  1
  Co  Co15  1  0.000006  0.500001  0.662728  1
  Co  Co16  1  0.500004  0.000000  0.829540  1
  Tc  Tc17  1  0.000000  0.500001  0.000000  1
  Ir  Ir18  1  0.000000  0.000000  0.000000  1
  Ir  Ir19  1  0.499994  0.500001  0.173128  1
  Ir  Ir20  1  0.999994  0.000000  0.334876  1
  Ir  Ir21  1  0.500000  0.500001  0.500000  1
  Ir  Ir22  1  0.000006  0.000000  0.665124  1
  Ir  Ir23  1  0.500006  0.500001  0.826872  1
