# generated using pymatgen
data_Ti12GaS16
_symmetry_space_group_name_H-M   'P 1'
_cell_length_a   6.80464879
_cell_length_b   9.47239463
_cell_length_c   10.06047816
_cell_angle_alpha   118.09631094
_cell_angle_beta   109.71510725
_cell_angle_gamma   90.02022840
_symmetry_Int_Tables_number   1
_chemical_formula_structural   Ti12GaS16
_chemical_formula_sum   'Ti12 Ga1 S16'
_cell_volume   528.52124251
_cell_formula_units_Z   1
loop_
 _symmetry_equiv_pos_site_id
 _symmetry_equiv_pos_as_xyz
  1  'x, y, z'
loop_
 _atom_site_type_symbol
 _atom_site_label
 _atom_site_symmetry_multiplicity
 _atom_site_fract_x
 _atom_site_fract_y
 _atom_site_fract_z
 _atom_site_occupancy
  Ti  Ti0  1  0.557644  0.354972  0.866791  1
  Ti  Ti1  1  0.059650  0.356097  0.867396  1
  Ti  Ti2  1  0.369603  0.132712  0.488072  1
  Ti  Ti3  1  0.867527  0.133455  0.488256  1
  Ti  Ti4  1  0.446558  0.511699  0.645449  1
  Ti  Ti5  1  0.948247  0.511878  0.644813  1
  Ti  Ti6  1  0.940350  0.643903  0.132604  1
  Ti  Ti7  1  0.442356  0.645028  0.133209  1
  Ti  Ti8  1  0.132473  0.866545  0.511744  1
  Ti  Ti9  1  0.630397  0.867288  0.511928  1
  Ti  Ti10  1  0.051753  0.488122  0.355187  1
  Ti  Ti11  1  0.553442  0.488301  0.354551  1
  Ga  Ga12  1  0.000000  0.000000  0.000000  1
  S  S13  1  0.972741  0.050063  0.694848  1
  S  S14  1  0.471944  0.050487  0.694276  1
  S  S15  1  0.803227  0.305443  0.355939  1
  S  S16  1  0.303363  0.305022  0.355021  1
  S  S17  1  0.100893  0.645936  0.950406  1
  S  S18  1  0.600056  0.644013  0.949571  1
  S  S19  1  0.528056  0.949513  0.305724  1
  S  S20  1  0.027259  0.949937  0.305152  1
  S  S21  1  0.696637  0.694978  0.644979  1
  S  S22  1  0.196773  0.694557  0.644061  1
  S  S23  1  0.399944  0.355987  0.050429  1
  S  S24  1  0.899107  0.354064  0.049594  1
  S  S25  1  0.792037  0.667114  0.333561  1
  S  S26  1  0.291559  0.666226  0.332946  1
  S  S27  1  0.708441  0.333774  0.667054  1
  S  S28  1  0.207963  0.332886  0.666439  1
