# generated using pymatgen
data_Pr6Al3Ga(SnAu2)6
_symmetry_space_group_name_H-M   'P 1'
_cell_length_a   4.56359600
_cell_length_b   10.09021089
_cell_length_c   13.75199055
_cell_angle_alpha   90.16062592
_cell_angle_beta   90.00000000
_cell_angle_gamma   90.00000000
_symmetry_Int_Tables_number   1
_chemical_formula_structural   Pr6Al3Ga(SnAu2)6
_chemical_formula_sum   'Pr6 Al3 Ga1 Sn6 Au12'
_cell_volume   633.24430457
_cell_formula_units_Z   1
loop_
 _symmetry_equiv_pos_site_id
 _symmetry_equiv_pos_as_xyz
  1  'x, y, z'
loop_
 _atom_site_type_symbol
 _atom_site_label
 _atom_site_symmetry_multiplicity
 _atom_site_fract_x
 _atom_site_fract_y
 _atom_site_fract_z
 _atom_site_occupancy
  Pr  Pr0  1  0.000000  0.740797  0.809819  1
  Pr  Pr1  1  0.000000  0.741919  0.189902  1
  Pr  Pr2  1  0.500000  0.259727  0.691282  1
  Pr  Pr3  1  0.500000  0.258076  0.309816  1
  Pr  Pr4  1  0.000000  0.739628  0.500097  1
  Pr  Pr5  1  0.500000  0.261158  0.999637  1
  Al  Al6  1  0.000000  0.393477  0.168781  1
  Al  Al7  1  0.500000  0.606919  0.668118  1
  Al  Al8  1  0.500000  0.606649  0.331613  1
  Ga  Ga9  1  0.000000  0.391027  0.831248  1
  Sn  Sn10  1  0.000000  0.018414  0.355207  1
  Sn  Sn11  1  0.000000  0.018556  0.644572  1
  Sn  Sn12  1  0.500000  0.981773  0.144981  1
  Sn  Sn13  1  0.500000  0.981033  0.854859  1
  Sn  Sn14  1  0.000000  0.274546  0.500141  1
  Sn  Sn15  1  0.500000  0.725557  0.000262  1
  Au  Au16  1  0.000000  0.138293  0.841893  1
  Au  Au17  1  0.000000  0.143815  0.158051  1
  Au  Au18  1  0.500000  0.856429  0.658196  1
  Au  Au19  1  0.500000  0.856337  0.341853  1
  Au  Au20  1  0.000000  0.506085  0.002083  1
  Au  Au21  1  0.500000  0.494241  0.499809  1
  Au  Au22  1  0.000000  0.479065  0.351324  1
  Au  Au23  1  0.000000  0.481427  0.646187  1
  Au  Au24  1  0.500000  0.520487  0.148752  1
  Au  Au25  1  0.500000  0.524556  0.850935  1
  Au  Au26  1  0.000000  0.933597  0.000346  1
  Au  Au27  1  0.500000  0.066414  0.500236  1
