# generated using pymatgen
data_Cs12V3SnSe16
_symmetry_space_group_name_H-M   'P 1'
_cell_length_a   10.35030212
_cell_length_b   10.51979846
_cell_length_c   12.07572300
_cell_angle_alpha   90.00000000
_cell_angle_beta   90.00000000
_cell_angle_gamma   90.13167683
_symmetry_Int_Tables_number   1
_chemical_formula_structural   Cs12V3SnSe16
_chemical_formula_sum   'Cs12 V3 Sn1 Se16'
_cell_volume   1314.83858986
_cell_formula_units_Z   1
loop_
 _symmetry_equiv_pos_site_id
 _symmetry_equiv_pos_as_xyz
  1  'x, y, z'
loop_
 _atom_site_type_symbol
 _atom_site_label
 _atom_site_symmetry_multiplicity
 _atom_site_fract_x
 _atom_site_fract_y
 _atom_site_fract_z
 _atom_site_occupancy
  Cs  Cs0  1  0.640128  0.920375  0.250000  1
  Cs  Cs1  1  0.145827  0.582338  0.250000  1
  Cs  Cs2  1  0.858509  0.419147  0.750000  1
  Cs  Cs3  1  0.361003  0.082303  0.750000  1
  Cs  Cs4  1  0.051788  0.797756  0.958122  1
  Cs  Cs5  1  0.551377  0.703651  0.546242  1
  Cs  Cs6  1  0.448127  0.293211  0.043989  1
  Cs  Cs7  1  0.948003  0.203690  0.458861  1
  Cs  Cs8  1  0.948003  0.203690  0.041139  1
  Cs  Cs9  1  0.448127  0.293211  0.456011  1
  Cs  Cs10  1  0.551377  0.703651  0.953758  1
  Cs  Cs11  1  0.051788  0.797756  0.541878  1
  V  V12  1  0.779998  0.981373  0.750000  1
  V  V13  1  0.219311  0.018680  0.250000  1
  V  V14  1  0.723615  0.481028  0.250000  1
  Sn  Sn15  1  0.274060  0.516242  0.750000  1
  Se  Se16  1  0.329899  0.958838  0.094245  1
  Se  Se17  1  0.832013  0.542569  0.406339  1
  Se  Se18  1  0.155662  0.456169  0.928396  1
  Se  Se19  1  0.670597  0.040680  0.593311  1
  Se  Se20  1  0.015698  0.928443  0.250000  1
  Se  Se21  1  0.521478  0.572047  0.250000  1
  Se  Se22  1  0.497626  0.412391  0.750000  1
  Se  Se23  1  0.982772  0.071698  0.750000  1
  Se  Se24  1  0.670597  0.040680  0.906689  1
  Se  Se25  1  0.329899  0.958838  0.405755  1
  Se  Se26  1  0.832013  0.542569  0.093661  1
  Se  Se27  1  0.155662  0.456169  0.571604  1
  Se  Se28  1  0.799505  0.763708  0.750000  1
  Se  Se29  1  0.301080  0.757843  0.750000  1
  Se  Se30  1  0.703624  0.263035  0.250000  1
  Se  Se31  1  0.200836  0.236221  0.250000  1
