# generated using pymatgen
data_Tm12ZnFe3NiSn
_symmetry_space_group_name_H-M   'P 1'
_cell_length_a   8.21659945
_cell_length_b   8.21611519
_cell_length_c   8.21661852
_cell_angle_alpha   105.95592557
_cell_angle_beta   110.76002137
_cell_angle_gamma   111.76075444
_symmetry_Int_Tables_number   1
_chemical_formula_structural   Tm12ZnFe3NiSn
_chemical_formula_sum   'Tm12 Zn1 Fe3 Ni1 Sn1'
_cell_volume   425.74313962
_cell_formula_units_Z   1
loop_
 _symmetry_equiv_pos_site_id
 _symmetry_equiv_pos_as_xyz
  1  'x, y, z'
loop_
 _atom_site_type_symbol
 _atom_site_label
 _atom_site_symmetry_multiplicity
 _atom_site_fract_x
 _atom_site_fract_y
 _atom_site_fract_z
 _atom_site_occupancy
  Tm  Tm0  1  0.707275  0.276317  0.983590  1
  Tm  Tm1  1  0.294513  0.723854  0.018372  1
  Tm  Tm2  1  0.705632  0.723911  0.429514  1
  Tm  Tm3  1  0.292845  0.276315  0.569188  1
  Tm  Tm4  1  0.802826  0.114987  0.312242  1
  Tm  Tm5  1  0.801141  0.484881  0.683821  1
  Tm  Tm6  1  0.198999  0.882697  0.683811  1
  Tm  Tm7  1  0.197229  0.509367  0.312256  1
  Tm  Tm8  1  0.597876  0.787336  0.815284  1
  Tm  Tm9  1  0.972177  0.787462  0.189455  1
  Tm  Tm10  1  0.027938  0.217421  0.815287  1
  Tm  Tm11  1  0.402037  0.217304  0.189496  1
  Zn  Zn12  1  0.500016  0.499898  0.999953  1
  Fe  Fe13  1  0.882022  0.501961  0.384078  1
  Fe  Fe14  1  0.118065  0.501978  0.620039  1
  Fe  Fe15  1  0.999706  0.110605  0.110418  1
  Ni  Ni16  1  0.999510  0.883185  0.882409  1
  Sn  Sn17  1  0.500194  0.000523  0.500787  1
