# generated using pymatgen
data_Er12TlFe4Cu
_symmetry_space_group_name_H-M   'P 1'
_cell_length_a   8.25013833
_cell_length_b   8.25001271
_cell_length_c   8.25013900
_cell_angle_alpha   110.82169495
_cell_angle_beta   110.96820828
_cell_angle_gamma   106.66043267
_symmetry_Int_Tables_number   1
_chemical_formula_structural   Er12TlFe4Cu
_chemical_formula_sum   'Er12 Tl1 Fe4 Cu1'
_cell_volume   431.49070515
_cell_formula_units_Z   1
loop_
 _symmetry_equiv_pos_site_id
 _symmetry_equiv_pos_as_xyz
  1  'x, y, z'
loop_
 _atom_site_type_symbol
 _atom_site_label
 _atom_site_symmetry_multiplicity
 _atom_site_fract_x
 _atom_site_fract_y
 _atom_site_fract_z
 _atom_site_occupancy
  Er  Er0  1  0.312571  0.613565  0.300994  1
  Er  Er1  1  0.687429  0.386436  0.699006  1
  Er  Er2  1  0.312582  0.011598  0.699016  1
  Er  Er3  1  0.687418  0.988402  0.300984  1
  Er  Er4  1  0.419347  0.217931  0.201415  1
  Er  Er5  1  0.580653  0.782069  0.798585  1
  Er  Er6  1  0.016514  0.217931  0.798583  1
  Er  Er7  1  0.983486  0.782069  0.201417  1
  Er  Er8  1  0.186696  0.288511  0.475209  1
  Er  Er9  1  0.813304  0.711489  0.524791  1
  Er  Er10  1  0.186699  0.711489  0.898186  1
  Er  Er11  1  0.813301  0.288511  0.101814  1
  Tl  Tl12  1  0.500000  0.500000  0.000000  1
  Fe  Fe13  1  0.108617  0.608639  0.500023  1
  Fe  Fe14  1  0.891384  0.391362  0.499977  1
  Fe  Fe15  1  0.383576  0.000000  0.383576  1
  Fe  Fe16  1  0.616424  0.000000  0.616424  1
  Cu  Cu17  1  0.000000  0.000000  0.000000  1
