# generated using pymatgen
data_Hf3(PaSi2)2
_symmetry_space_group_name_H-M   'P 1'
_cell_length_a   7.25657000
_cell_length_b   7.25657000
_cell_length_c   13.34373100
_cell_angle_alpha   90.00000000
_cell_angle_beta   90.00000000
_cell_angle_gamma   90.00000000
_symmetry_Int_Tables_number   1
_chemical_formula_structural   Hf3(PaSi2)2
_chemical_formula_sum   'Hf12 Pa8 Si16'
_cell_volume   702.65162720
_cell_formula_units_Z   4
loop_
 _symmetry_equiv_pos_site_id
 _symmetry_equiv_pos_as_xyz
  1  'x, y, z'
loop_
 _atom_site_type_symbol
 _atom_site_label
 _atom_site_symmetry_multiplicity
 _atom_site_fract_x
 _atom_site_fract_y
 _atom_site_fract_z
 _atom_site_occupancy
  Hf  Hf0  1  0.672600  0.327400  0.750000  1
  Hf  Hf1  1  0.327400  0.672600  0.250000  1
  Hf  Hf2  1  0.827400  0.827400  0.500000  1
  Hf  Hf3  1  0.172600  0.172600  0.000000  1
  Hf  Hf4  1  0.501032  0.348437  0.125042  1
  Hf  Hf5  1  0.498968  0.651563  0.625042  1
  Hf  Hf6  1  0.848437  0.998968  0.875042  1
  Hf  Hf7  1  0.151563  0.001032  0.375042  1
  Hf  Hf8  1  0.651563  0.498968  0.374958  1
  Hf  Hf9  1  0.348437  0.501032  0.874958  1
  Hf  Hf10  1  0.998968  0.848437  0.124958  1
  Hf  Hf11  1  0.001032  0.151563  0.624958  1
  Pa  Pa12  1  0.496354  0.157078  0.534124  1
  Pa  Pa13  1  0.503646  0.842922  0.034124  1
  Pa  Pa14  1  0.657078  0.003646  0.284124  1
  Pa  Pa15  1  0.342922  0.996354  0.784124  1
  Pa  Pa16  1  0.842922  0.503646  0.965876  1
  Pa  Pa17  1  0.157078  0.496354  0.465876  1
  Pa  Pa18  1  0.003646  0.657078  0.715876  1
  Pa  Pa19  1  0.996354  0.342922  0.215876  1
  Si  Si20  1  0.795153  0.136758  0.067919  1
  Si  Si21  1  0.204847  0.863242  0.567919  1
  Si  Si22  1  0.636758  0.704847  0.817919  1
  Si  Si23  1  0.363242  0.295153  0.317919  1
  Si  Si24  1  0.863242  0.204847  0.432081  1
  Si  Si25  1  0.136758  0.795153  0.932081  1
  Si  Si26  1  0.704847  0.636758  0.182081  1
  Si  Si27  1  0.295153  0.363242  0.682081  1
  Si  Si28  1  0.545930  0.205374  0.935362  1
  Si  Si29  1  0.454070  0.794626  0.435362  1
  Si  Si30  1  0.705374  0.954070  0.685362  1
  Si  Si31  1  0.294626  0.045930  0.185362  1
  Si  Si32  1  0.794626  0.454070  0.564638  1
  Si  Si33  1  0.205374  0.545930  0.064638  1
  Si  Si34  1  0.954070  0.705374  0.314638  1
  Si  Si35  1  0.045930  0.294626  0.814638  1
