# generated using pymatgen
data_Hf3Pd(SeO3)8
_symmetry_space_group_name_H-M   'P 1'
_cell_length_a   8.48845460
_cell_length_b   8.48845409
_cell_length_c   8.48845382
_cell_angle_alpha   90.38685096
_cell_angle_beta   89.61314464
_cell_angle_gamma   89.61313865
_symmetry_Int_Tables_number   1
_chemical_formula_structural   Hf3Pd(SeO3)8
_chemical_formula_sum   'Hf3 Pd1 Se8 O24'
_cell_volume   611.58382505
_cell_formula_units_Z   1
loop_
 _symmetry_equiv_pos_site_id
 _symmetry_equiv_pos_as_xyz
  1  'x, y, z'
loop_
 _atom_site_type_symbol
 _atom_site_label
 _atom_site_symmetry_multiplicity
 _atom_site_fract_x
 _atom_site_fract_y
 _atom_site_fract_z
 _atom_site_occupancy
  Hf  Hf0  1  0.500000  0.000000  0.500000  1
  Hf  Hf1  1  0.000000  0.000000  0.000000  1
  Hf  Hf2  1  0.000000  0.500000  0.500000  1
  Pd  Pd3  1  0.500000  0.500000  0.000000  1
  Se  Se4  1  0.820131  0.179869  0.679869  1
  Se  Se5  1  0.179869  0.820131  0.320131  1
  Se  Se6  1  0.670341  0.669101  0.706803  1
  Se  Se7  1  0.206803  0.670341  0.830899  1
  Se  Se8  1  0.330899  0.206803  0.829659  1
  Se  Se9  1  0.793197  0.329659  0.169101  1
  Se  Se10  1  0.669101  0.793197  0.170341  1
  Se  Se11  1  0.329659  0.330899  0.293197  1
  O  O12  1  0.228312  0.445459  0.428424  1
  O  O13  1  0.928424  0.228312  0.054541  1
  O  O14  1  0.035172  0.730813  0.430713  1
  O  O15  1  0.471928  0.264493  0.970448  1
  O  O16  1  0.269187  0.930713  0.464828  1
  O  O17  1  0.529552  0.528072  0.764493  1
  O  O18  1  0.930713  0.035172  0.769187  1
  O  O19  1  0.528072  0.735507  0.029552  1
  O  O20  1  0.554541  0.928424  0.271688  1
  O  O21  1  0.445459  0.071576  0.728312  1
  O  O22  1  0.775689  0.918248  0.053481  1
  O  O23  1  0.264493  0.529552  0.971928  1
  O  O24  1  0.081752  0.553481  0.724311  1
  O  O25  1  0.069287  0.964828  0.230813  1
  O  O26  1  0.224311  0.081752  0.946519  1
  O  O27  1  0.470448  0.471928  0.235507  1
  O  O28  1  0.771688  0.554541  0.571576  1
  O  O29  1  0.918248  0.446519  0.275689  1
  O  O30  1  0.071576  0.771688  0.945459  1
  O  O31  1  0.446519  0.224311  0.418248  1
  O  O32  1  0.553481  0.775689  0.581752  1
  O  O33  1  0.964828  0.269187  0.569287  1
  O  O34  1  0.730813  0.069287  0.535172  1
  O  O35  1  0.735507  0.470448  0.028072  1
