# generated using pymatgen
data_TbDy2In3GaPt2
_symmetry_space_group_name_H-M   'P 1'
_cell_length_a   7.68348367
_cell_length_b   7.68335910
_cell_length_c   3.94355400
_cell_angle_alpha   90.00000000
_cell_angle_beta   90.00000000
_cell_angle_gamma   120.04837488
_symmetry_Int_Tables_number   1
_chemical_formula_structural   TbDy2In3GaPt2
_chemical_formula_sum   'Tb1 Dy2 In3 Ga1 Pt2'
_cell_volume   201.51891732
_cell_formula_units_Z   1
loop_
 _symmetry_equiv_pos_site_id
 _symmetry_equiv_pos_as_xyz
  1  'x, y, z'
loop_
 _atom_site_type_symbol
 _atom_site_label
 _atom_site_symmetry_multiplicity
 _atom_site_fract_x
 _atom_site_fract_y
 _atom_site_fract_z
 _atom_site_occupancy
  Tb  Tb0  1  0.605458  0.013722  0.500000  1
  Dy  Dy1  1  0.408319  0.394353  0.500000  1
  Dy  Dy2  1  0.985756  0.591565  0.500000  1
  In  In3  1  0.740644  0.740472  0.000000  1
  In  In4  1  0.000130  0.259478  0.000000  1
  In  In5  1  0.259223  0.000018  0.000000  1
  Ga  Ga6  1  0.333210  0.666409  0.000000  1
  Pt  Pt7  1  0.666896  0.333970  0.000000  1
  Pt  Pt8  1  0.000365  0.000014  0.500000  1
