# generated using pymatgen
data_La7PrS8
_symmetry_space_group_name_H-M   'P 1'
_cell_length_a   8.23403319
_cell_length_b   8.24192780
_cell_length_c   8.24192800
_cell_angle_alpha   60.00000722
_cell_angle_beta   59.96828603
_cell_angle_gamma   59.96828918
_symmetry_Int_Tables_number   1
_chemical_formula_structural   La7PrS8
_chemical_formula_sum   'La7 Pr1 S8'
_cell_volume   395.31830350
_cell_formula_units_Z   1
loop_
 _symmetry_equiv_pos_site_id
 _symmetry_equiv_pos_as_xyz
  1  'x, y, z'
loop_
 _atom_site_type_symbol
 _atom_site_label
 _atom_site_symmetry_multiplicity
 _atom_site_fract_x
 _atom_site_fract_y
 _atom_site_fract_z
 _atom_site_occupancy
  La  La0  1  0.125000  0.625000  0.125000  1
  La  La1  1  0.125000  0.125000  0.625000  1
  La  La2  1  0.625000  0.125000  0.125000  1
  La  La3  1  0.125000  0.125000  0.125000  1
  La  La4  1  0.625000  0.125000  0.625000  1
  La  La5  1  0.625000  0.625000  0.625000  1
  La  La6  1  0.625000  0.625000  0.125000  1
  Pr  Pr7  1  0.125000  0.625000  0.625000  1
  S  S8  1  0.374319  0.874043  0.375819  1
  S  S9  1  0.875681  0.375957  0.874181  1
  S  S10  1  0.875681  0.874181  0.375957  1
  S  S11  1  0.875681  0.874181  0.874181  1
  S  S12  1  0.874683  0.375105  0.375105  1
  S  S13  1  0.374319  0.375819  0.874043  1
  S  S14  1  0.374319  0.375819  0.375819  1
  S  S15  1  0.375317  0.874895  0.874895  1
