# generated using pymatgen
data_Ta7(Be4Rh3)2
_symmetry_space_group_name_H-M   'P 1'
_cell_length_a   10.10811300
_cell_length_b   10.10811269
_cell_length_c   3.07219900
_cell_angle_alpha   90.00000000
_cell_angle_beta   90.00000000
_cell_angle_gamma   120.00000427
_symmetry_Int_Tables_number   1
_chemical_formula_structural   Ta7(Be4Rh3)2
_chemical_formula_sum   'Ta7 Be8 Rh6'
_cell_volume   271.84423034
_cell_formula_units_Z   1
loop_
 _symmetry_equiv_pos_site_id
 _symmetry_equiv_pos_as_xyz
  1  'x, y, z'
loop_
 _atom_site_type_symbol
 _atom_site_label
 _atom_site_symmetry_multiplicity
 _atom_site_fract_x
 _atom_site_fract_y
 _atom_site_fract_z
 _atom_site_occupancy
  Ta  Ta0  1  0.000000  0.000000  0.000000  1
  Ta  Ta1  1  0.709553  0.621168  0.000000  1
  Ta  Ta2  1  0.378832  0.088385  0.000000  1
  Ta  Ta3  1  0.911615  0.290447  0.000000  1
  Ta  Ta4  1  0.290447  0.378832  0.000000  1
  Ta  Ta5  1  0.621168  0.911615  0.000000  1
  Ta  Ta6  1  0.088385  0.709553  0.000000  1
  Be  Be7  1  0.666667  0.333333  0.000000  1
  Be  Be8  1  0.333333  0.666667  0.000000  1
  Be  Be9  1  0.161880  0.928405  0.500000  1
  Be  Be10  1  0.071595  0.233475  0.500000  1
  Be  Be11  1  0.766525  0.838120  0.500000  1
  Be  Be12  1  0.838120  0.071595  0.500000  1
  Be  Be13  1  0.928405  0.766525  0.500000  1
  Be  Be14  1  0.233475  0.161880  0.500000  1
  Rh  Rh15  1  0.363093  0.851899  0.500000  1
  Rh  Rh16  1  0.148101  0.511193  0.500000  1
  Rh  Rh17  1  0.488807  0.636907  0.500000  1
  Rh  Rh18  1  0.636907  0.148101  0.500000  1
  Rh  Rh19  1  0.851899  0.488807  0.500000  1
  Rh  Rh20  1  0.511193  0.363093  0.500000  1
