# generated using pymatgen
data_IrOs4RhW2
_symmetry_space_group_name_H-M   'P 1'
_cell_length_a   5.57137800
_cell_length_b   5.55008578
_cell_length_c   4.41169100
_cell_angle_alpha   90.00000000
_cell_angle_beta   90.00000000
_cell_angle_gamma   120.12698769
_symmetry_Int_Tables_number   1
_chemical_formula_structural   IrOs4RhW2
_chemical_formula_sum   'Ir1 Os4 Rh1 W2'
_cell_volume   117.98882772
_cell_formula_units_Z   1
loop_
 _symmetry_equiv_pos_site_id
 _symmetry_equiv_pos_as_xyz
  1  'x, y, z'
loop_
 _atom_site_type_symbol
 _atom_site_label
 _atom_site_symmetry_multiplicity
 _atom_site_fract_x
 _atom_site_fract_y
 _atom_site_fract_z
 _atom_site_occupancy
  Ir  Ir0  1  0.834319  0.668637  0.250000  1
  Os  Os1  1  0.173999  0.841186  0.750000  1
  Os  Os2  1  0.667187  0.841186  0.750000  1
  Os  Os3  1  0.332010  0.160369  0.250000  1
  Os  Os4  1  0.828361  0.160369  0.250000  1
  Rh  Rh5  1  0.165372  0.330745  0.750000  1
  W  W6  1  0.336549  0.673100  0.250000  1
  W  W7  1  0.662205  0.324408  0.750000  1
