# generated using pymatgen
data_Lu4AlIr
_symmetry_space_group_name_H-M   'P 1'
_cell_length_a   9.34548712
_cell_length_b   9.34548800
_cell_length_c   9.34548800
_cell_angle_alpha   60.00000000
_cell_angle_beta   59.99999688
_cell_angle_gamma   59.99999899
_symmetry_Int_Tables_number   1
_chemical_formula_structural   Lu4AlIr
_chemical_formula_sum   'Lu16 Al4 Ir4'
_cell_volume   577.15292376
_cell_formula_units_Z   4
loop_
 _symmetry_equiv_pos_site_id
 _symmetry_equiv_pos_as_xyz
  1  'x, y, z'
loop_
 _atom_site_type_symbol
 _atom_site_label
 _atom_site_symmetry_multiplicity
 _atom_site_fract_x
 _atom_site_fract_y
 _atom_site_fract_z
 _atom_site_occupancy
  Lu  Lu0  1  0.353033  0.353033  0.353033  1
  Lu  Lu1  1  0.353033  0.353033  0.940899  1
  Lu  Lu2  1  0.353033  0.940899  0.353033  1
  Lu  Lu3  1  0.940899  0.353033  0.353033  1
  Lu  Lu4  1  0.805574  0.194426  0.194426  1
  Lu  Lu5  1  0.194426  0.805574  0.805574  1
  Lu  Lu6  1  0.194426  0.805574  0.194426  1
  Lu  Lu7  1  0.805574  0.194426  0.805574  1
  Lu  Lu8  1  0.194426  0.194426  0.805574  1
  Lu  Lu9  1  0.805574  0.805574  0.194426  1
  Lu  Lu10  1  0.938134  0.561866  0.561866  1
  Lu  Lu11  1  0.561866  0.938134  0.938134  1
  Lu  Lu12  1  0.561866  0.938134  0.561866  1
  Lu  Lu13  1  0.938134  0.561866  0.938134  1
  Lu  Lu14  1  0.561866  0.561866  0.938134  1
  Lu  Lu15  1  0.938134  0.938134  0.561866  1
  Al  Al16  1  0.579096  0.579096  0.579096  1
  Al  Al17  1  0.579096  0.579096  0.262711  1
  Al  Al18  1  0.579096  0.262711  0.579096  1
  Al  Al19  1  0.262711  0.579096  0.579096  1
  Ir  Ir20  1  0.142193  0.142193  0.142193  1
  Ir  Ir21  1  0.142193  0.142193  0.573419  1
  Ir  Ir22  1  0.142193  0.573419  0.142193  1
  Ir  Ir23  1  0.573419  0.142193  0.142193  1
