# generated using pymatgen
data_CaYbAl20Fe3Pd
_symmetry_space_group_name_H-M   'P 1'
_cell_length_a   6.82727931
_cell_length_b   6.81205545
_cell_length_c   9.03939400
_cell_angle_alpha   90.13694337
_cell_angle_beta   89.98352276
_cell_angle_gamma   96.97115764
_symmetry_Int_Tables_number   1
_chemical_formula_structural   CaYbAl20Fe3Pd
_chemical_formula_sum   'Ca1 Yb1 Al20 Fe3 Pd1'
_cell_volume   417.29330622
_cell_formula_units_Z   1
loop_
 _symmetry_equiv_pos_site_id
 _symmetry_equiv_pos_as_xyz
  1  'x, y, z'
loop_
 _atom_site_type_symbol
 _atom_site_label
 _atom_site_symmetry_multiplicity
 _atom_site_fract_x
 _atom_site_fract_y
 _atom_site_fract_z
 _atom_site_occupancy
  Ca  Ca0  1  0.877187  0.124443  0.248883  1
  Yb  Yb1  1  0.122809  0.875550  0.751124  1
  Al  Al2  1  0.219058  0.231929  0.495277  1
  Al  Al3  1  0.776459  0.773129  0.000578  1
  Al  Al4  1  0.780971  0.768038  0.504782  1
  Al  Al5  1  0.223572  0.226836  0.999369  1
  Al  Al6  1  0.370774  0.615613  0.550790  1
  Al  Al7  1  0.626336  0.376434  0.047652  1
  Al  Al8  1  0.587880  0.862121  0.756964  1
  Al  Al9  1  0.412105  0.137858  0.243029  1
  Al  Al10  1  0.866539  0.583721  0.248181  1
  Al  Al11  1  0.133484  0.416300  0.751816  1
  Al  Al12  1  0.477365  0.225859  0.759437  1
  Al  Al13  1  0.522604  0.774105  0.240561  1
  Al  Al14  1  0.220242  0.477502  0.248922  1
  Al  Al15  1  0.779793  0.522531  0.751078  1
  Al  Al16  1  0.151868  0.835639  0.399081  1
  Al  Al17  1  0.841053  0.157822  0.905161  1
  Al  Al18  1  0.848154  0.164331  0.600968  1
  Al  Al19  1  0.158973  0.842149  0.094794  1
  Al  Al20  1  0.373643  0.623587  0.952300  1
  Al  Al21  1  0.629206  0.384415  0.449264  1
  Fe  Fe22  1  0.000026  0.500068  0.500031  1
  Fe  Fe23  1  0.000035  0.500077  0.999961  1
  Fe  Fe24  1  0.499929  0.999969  0.999968  1
  Pd  Pd25  1  0.499934  0.999973  0.500029  1
