# generated using pymatgen
data_Pr20Si11Pb
_symmetry_space_group_name_H-M   'P 1'
_cell_length_a   7.86131900
_cell_length_b   7.86131900
_cell_length_c   14.72589700
_cell_angle_alpha   90.00000000
_cell_angle_beta   90.00000000
_cell_angle_gamma   90.00000000
_symmetry_Int_Tables_number   1
_chemical_formula_structural   Pr20Si11Pb
_chemical_formula_sum   'Pr20 Si11 Pb1'
_cell_volume   910.06538868
_cell_formula_units_Z   1
loop_
 _symmetry_equiv_pos_site_id
 _symmetry_equiv_pos_as_xyz
  1  'x, y, z'
loop_
 _atom_site_type_symbol
 _atom_site_label
 _atom_site_symmetry_multiplicity
 _atom_site_fract_x
 _atom_site_fract_y
 _atom_site_fract_z
 _atom_site_occupancy
  Pr  Pr0  1  0.835941  0.808228  0.614255  1
  Pr  Pr1  1  0.186962  0.830033  0.104376  1
  Pr  Pr2  1  0.162072  0.806245  0.385726  1
  Pr  Pr3  1  0.000000  0.500000  0.781133  1
  Pr  Pr4  1  0.837928  0.193755  0.385726  1
  Pr  Pr5  1  0.693755  0.662072  0.385726  1
  Pr  Pr6  1  0.691772  0.335941  0.614255  1
  Pr  Pr7  1  0.308228  0.664059  0.614255  1
  Pr  Pr8  1  0.000000  0.500000  0.215865  1
  Pr  Pr9  1  0.669967  0.686962  0.104376  1
  Pr  Pr10  1  0.672328  0.316042  0.895712  1
  Pr  Pr11  1  0.816042  0.827672  0.895712  1
  Pr  Pr12  1  0.306245  0.337928  0.385726  1
  Pr  Pr13  1  0.164059  0.191772  0.614255  1
  Pr  Pr14  1  0.813038  0.169967  0.104376  1
  Pr  Pr15  1  0.327672  0.683958  0.895712  1
  Pr  Pr16  1  0.330033  0.313038  0.104376  1
  Pr  Pr17  1  0.500000  0.000000  0.267422  1
  Pr  Pr18  1  0.183958  0.172328  0.895712  1
  Pr  Pr19  1  0.500000  0.000000  0.736874  1
  Si  Si20  1  0.500000  0.000000  0.998130  1
  Si  Si21  1  0.000000  0.500000  0.998742  1
  Si  Si22  1  0.613498  0.385353  0.244985  1
  Si  Si23  1  0.114396  0.886706  0.754819  1
  Si  Si24  1  0.386706  0.385604  0.754819  1
  Si  Si25  1  0.386502  0.614647  0.244985  1
  Si  Si26  1  0.885353  0.886502  0.244985  1
  Si  Si27  1  0.613294  0.614396  0.754819  1
  Si  Si28  1  0.000000  0.500000  0.501670  1
  Si  Si29  1  0.885604  0.113294  0.754819  1
  Si  Si30  1  0.114647  0.113498  0.244985  1
  Pb  Pb31  1  0.500000  0.000000  0.500669  1
