# generated using pymatgen
data_Yb2Dy2ErCuPb3
_symmetry_space_group_name_H-M   'P 1'
_cell_length_a   9.19178037
_cell_length_b   9.19177988
_cell_length_c   6.80900400
_cell_angle_alpha   90.00000000
_cell_angle_beta   90.00000000
_cell_angle_gamma   119.96731915
_symmetry_Int_Tables_number   1
_chemical_formula_structural   Yb2Dy2ErCuPb3
_chemical_formula_sum   'Yb4 Dy4 Er2 Cu2 Pb6'
_cell_volume   498.37517414
_cell_formula_units_Z   2
loop_
 _symmetry_equiv_pos_site_id
 _symmetry_equiv_pos_as_xyz
  1  'x, y, z'
loop_
 _atom_site_type_symbol
 _atom_site_label
 _atom_site_symmetry_multiplicity
 _atom_site_fract_x
 _atom_site_fract_y
 _atom_site_fract_z
 _atom_site_occupancy
  Yb  Yb0  1  0.333404  0.666596  0.000000  1
  Yb  Yb1  1  0.666596  0.333404  0.000000  1
  Yb  Yb2  1  0.666596  0.333404  0.500000  1
  Yb  Yb3  1  0.333404  0.666596  0.500000  1
  Dy  Dy4  1  0.257275  0.000106  0.250000  1
  Dy  Dy5  1  0.742725  0.999894  0.750000  1
  Dy  Dy6  1  0.000106  0.257275  0.250000  1
  Dy  Dy7  1  0.999894  0.742725  0.750000  1
  Er  Er8  1  0.743476  0.743476  0.250000  1
  Er  Er9  1  0.256524  0.256524  0.750000  1
  Cu  Cu10  1  0.000000  0.000000  0.000000  1
  Cu  Cu11  1  0.000000  0.000000  0.500000  1
  Pb  Pb12  1  0.612581  0.999516  0.250000  1
  Pb  Pb13  1  0.387419  0.000484  0.750000  1
  Pb  Pb14  1  0.999516  0.612581  0.250000  1
  Pb  Pb15  1  0.000484  0.387419  0.750000  1
  Pb  Pb16  1  0.388379  0.388379  0.250000  1
  Pb  Pb17  1  0.611621  0.611621  0.750000  1
