# generated using pymatgen
data_Ce2Si2PtRh3
_symmetry_space_group_name_H-M   'P 1'
_cell_length_a   9.41098360
_cell_length_b   9.41098377
_cell_length_c   4.06939000
_cell_angle_alpha   90.00000000
_cell_angle_beta   90.00000000
_cell_angle_gamma   155.47286584
_symmetry_Int_Tables_number   1
_chemical_formula_structural   Ce2Si2PtRh3
_chemical_formula_sum   'Ce2 Si2 Pt1 Rh3'
_cell_volume   149.61575886
_cell_formula_units_Z   1
loop_
 _symmetry_equiv_pos_site_id
 _symmetry_equiv_pos_as_xyz
  1  'x, y, z'
loop_
 _atom_site_type_symbol
 _atom_site_label
 _atom_site_symmetry_multiplicity
 _atom_site_fract_x
 _atom_site_fract_y
 _atom_site_fract_z
 _atom_site_occupancy
  Ce  Ce0  1  0.102300  0.897700  0.750000  1
  Ce  Ce1  1  0.899308  0.100692  0.250000  1
  Si  Si2  1  0.320283  0.679717  0.750000  1
  Si  Si3  1  0.680848  0.319152  0.250000  1
  Pt  Pt4  1  0.549303  0.450697  0.250000  1
  Rh  Rh5  1  0.448722  0.551278  0.750000  1
  Rh  Rh6  1  0.249776  0.750224  0.250000  1
  Rh  Rh7  1  0.749460  0.250540  0.750000  1
