# generated using pymatgen
data_Eu4BeCuH12
_symmetry_space_group_name_H-M   'P 1'
_cell_length_a   7.16179166
_cell_length_b   7.16178924
_cell_length_c   5.20800800
_cell_angle_alpha   89.99827670
_cell_angle_beta   89.99828358
_cell_angle_gamma   137.43606026
_symmetry_Int_Tables_number   1
_chemical_formula_structural   Eu4BeCuH12
_chemical_formula_sum   'Eu4 Be1 Cu1 H12'
_cell_volume   180.68684003
_cell_formula_units_Z   1
loop_
 _symmetry_equiv_pos_site_id
 _symmetry_equiv_pos_as_xyz
  1  'x, y, z'
loop_
 _atom_site_type_symbol
 _atom_site_label
 _atom_site_symmetry_multiplicity
 _atom_site_fract_x
 _atom_site_fract_y
 _atom_site_fract_z
 _atom_site_occupancy
  Eu  Eu0  1  0.140449  0.859551  0.500000  1
  Eu  Eu1  1  0.641994  0.358006  0.000000  1
  Eu  Eu2  1  0.859551  0.140449  0.500000  1
  Eu  Eu3  1  0.358006  0.641994  0.000000  1
  Be  Be4  1  0.500000  0.500000  0.500000  1
  Cu  Cu5  1  0.000000  0.000000  0.000000  1
  H  H6  1  0.999996  0.500007  0.747312  1
  H  H7  1  0.499993  0.000004  0.252688  1
  H  H8  1  0.000004  0.499993  0.252688  1
  H  H9  1  0.500007  0.999996  0.747312  1
  H  H10  1  0.383251  0.616749  0.500000  1
  H  H11  1  0.876339  0.123661  0.000000  1
  H  H12  1  0.616749  0.383251  0.500000  1
  H  H13  1  0.123661  0.876339  0.000000  1
  H  H14  1  0.264872  0.264872  0.734781  1
  H  H15  1  0.735128  0.735128  0.265219  1
  H  H16  1  0.264640  0.264640  0.265132  1
  H  H17  1  0.735360  0.735360  0.734868  1
