# generated using pymatgen
data_Li2Lu3ZnSi2Hg
_symmetry_space_group_name_H-M   'P 1'
_cell_length_a   6.95378454
_cell_length_b   7.01877477
_cell_length_c   4.17934700
_cell_angle_alpha   90.00000000
_cell_angle_beta   90.00000000
_cell_angle_gamma   120.30964854
_symmetry_Int_Tables_number   1
_chemical_formula_structural   Li2Lu3ZnSi2Hg
_chemical_formula_sum   'Li2 Lu3 Zn1 Si2 Hg1'
_cell_volume   176.09946200
_cell_formula_units_Z   1
loop_
 _symmetry_equiv_pos_site_id
 _symmetry_equiv_pos_as_xyz
  1  'x, y, z'
loop_
 _atom_site_type_symbol
 _atom_site_label
 _atom_site_symmetry_multiplicity
 _atom_site_fract_x
 _atom_site_fract_y
 _atom_site_fract_z
 _atom_site_occupancy
  Li  Li0  1  0.748282  0.749029  0.000000  1
  Li  Li1  1  0.251718  0.000746  0.000000  1
  Lu  Lu2  1  0.428720  0.429317  0.500000  1
  Lu  Lu3  1  0.571280  0.000597  0.500000  1
  Lu  Lu4  1  0.000000  0.567884  0.500000  1
  Zn  Zn5  1  0.000000  0.261721  0.000000  1
  Si  Si6  1  0.666400  0.333401  0.000000  1
  Si  Si7  1  0.333600  0.667003  0.000000  1
  Hg  Hg8  1  0.000000  0.990301  0.500000  1
