# generated using pymatgen
data_Pr16Cd4Ir3Pd
_symmetry_space_group_name_H-M   'P 1'
_cell_length_a   10.05492745
_cell_length_b   10.05492640
_cell_length_c   10.05492681
_cell_angle_alpha   60.19924469
_cell_angle_beta   60.19924908
_cell_angle_gamma   60.19924599
_symmetry_Int_Tables_number   1
_chemical_formula_structural   Pr16Cd4Ir3Pd
_chemical_formula_sum   'Pr16 Cd4 Ir3 Pd1'
_cell_volume   722.06576880
_cell_formula_units_Z   1
loop_
 _symmetry_equiv_pos_site_id
 _symmetry_equiv_pos_as_xyz
  1  'x, y, z'
loop_
 _atom_site_type_symbol
 _atom_site_label
 _atom_site_symmetry_multiplicity
 _atom_site_fract_x
 _atom_site_fract_y
 _atom_site_fract_z
 _atom_site_occupancy
  Pr  Pr0  1  0.347093  0.347093  0.347093  1
  Pr  Pr1  1  0.352540  0.352540  0.949671  1
  Pr  Pr2  1  0.352540  0.949671  0.352540  1
  Pr  Pr3  1  0.949671  0.352540  0.352540  1
  Pr  Pr4  1  0.803899  0.191280  0.191280  1
  Pr  Pr5  1  0.189311  0.809033  0.809033  1
  Pr  Pr6  1  0.191280  0.803899  0.191280  1
  Pr  Pr7  1  0.809033  0.189311  0.809033  1
  Pr  Pr8  1  0.191280  0.191280  0.803899  1
  Pr  Pr9  1  0.809033  0.809033  0.189311  1
  Pr  Pr10  1  0.940028  0.562119  0.562119  1
  Pr  Pr11  1  0.562594  0.938441  0.938441  1
  Pr  Pr12  1  0.562119  0.940028  0.562119  1
  Pr  Pr13  1  0.938441  0.562594  0.938441  1
  Pr  Pr14  1  0.562119  0.562119  0.940028  1
  Pr  Pr15  1  0.938441  0.938441  0.562594  1
  Cd  Cd16  1  0.580049  0.580049  0.580049  1
  Cd  Cd17  1  0.580158  0.580158  0.259551  1
  Cd  Cd18  1  0.580158  0.259551  0.580158  1
  Cd  Cd19  1  0.259551  0.580158  0.580158  1
  Ir  Ir20  1  0.142243  0.142243  0.573694  1
  Ir  Ir21  1  0.142243  0.573694  0.142243  1
  Ir  Ir22  1  0.573694  0.142243  0.142243  1
  Pd  Pd23  1  0.142478  0.142478  0.142478  1
