# generated using pymatgen
data_Tb3CeHo4(ReB6)4
_symmetry_space_group_name_H-M   'P 1'
_cell_length_a   3.69442100
_cell_length_b   9.18047430
_cell_length_c   11.57191600
_cell_angle_alpha   90.04851250
_cell_angle_beta   90.00000000
_cell_angle_gamma   90.00000000
_symmetry_Int_Tables_number   1
_chemical_formula_structural   Tb3CeHo4(ReB6)4
_chemical_formula_sum   'Tb3 Ce1 Ho4 Re4 B24'
_cell_volume   392.47917718
_cell_formula_units_Z   1
loop_
 _symmetry_equiv_pos_site_id
 _symmetry_equiv_pos_as_xyz
  1  'x, y, z'
loop_
 _atom_site_type_symbol
 _atom_site_label
 _atom_site_symmetry_multiplicity
 _atom_site_fract_x
 _atom_site_fract_y
 _atom_site_fract_z
 _atom_site_occupancy
  Tb  Tb0  1  0.000000  0.677305  0.586661  1
  Tb  Tb1  1  0.000000  0.823296  0.085564  1
  Tb  Tb2  1  0.000000  0.176229  0.913904  1
  Ce  Ce3  1  0.000000  0.323162  0.414054  1
  Ho  Ho4  1  0.000000  0.942638  0.369846  1
  Ho  Ho5  1  0.000000  0.056534  0.630438  1
  Ho  Ho6  1  0.000000  0.443215  0.129225  1
  Ho  Ho7  1  0.000000  0.557111  0.870236  1
  Re  Re8  1  0.000000  0.638008  0.320930  1
  Re  Re9  1  0.000000  0.361498  0.678861  1
  Re  Re10  1  0.000000  0.139250  0.179770  1
  Re  Re11  1  0.000000  0.861381  0.820660  1
  B  B12  1  0.500000  0.553880  0.432134  1
  B  B13  1  0.500000  0.446065  0.567978  1
  B  B14  1  0.500000  0.053470  0.067136  1
  B  B15  1  0.500000  0.946582  0.932693  1
  B  B16  1  0.500000  0.749653  0.418071  1
  B  B17  1  0.500000  0.250935  0.582655  1
  B  B18  1  0.500000  0.248983  0.081233  1
  B  B19  1  0.500000  0.750747  0.918226  1
  B  B20  1  0.500000  0.791916  0.265622  1
  B  B21  1  0.500000  0.208218  0.734924  1
  B  B22  1  0.500000  0.291339  0.233805  1
  B  B23  1  0.500000  0.708055  0.765703  1
  B  B24  1  0.500000  0.631221  0.185247  1
  B  B25  1  0.500000  0.369606  0.814507  1
  B  B26  1  0.500000  0.130693  0.313748  1
  B  B27  1  0.500000  0.869192  0.685961  1
  B  B28  1  0.500000  0.982620  0.211780  1
  B  B29  1  0.500000  0.017148  0.788047  1
  B  B30  1  0.500000  0.483707  0.287388  1
  B  B31  1  0.500000  0.517512  0.712900  1
  B  B32  1  0.500000  0.600454  0.027782  1
  B  B33  1  0.500000  0.399892  0.971740  1
  B  B34  1  0.500000  0.099421  0.472259  1
  B  B35  1  0.500000  0.899064  0.528310  1
