# generated using pymatgen
data_Nd3DyIn2Ir3
_symmetry_space_group_name_H-M   'P 1'
_cell_length_a   7.68576093
_cell_length_b   7.59041175
_cell_length_c   4.19765500
_cell_angle_alpha   90.00000000
_cell_angle_beta   90.00000000
_cell_angle_gamma   119.59044443
_symmetry_Int_Tables_number   1
_chemical_formula_structural   Nd3DyIn2Ir3
_chemical_formula_sum   'Nd3 Dy1 In2 Ir3'
_cell_volume   212.94484949
_cell_formula_units_Z   1
loop_
 _symmetry_equiv_pos_site_id
 _symmetry_equiv_pos_as_xyz
  1  'x, y, z'
loop_
 _atom_site_type_symbol
 _atom_site_label
 _atom_site_symmetry_multiplicity
 _atom_site_fract_x
 _atom_site_fract_y
 _atom_site_fract_z
 _atom_site_occupancy
  Nd  Nd0  1  0.434118  0.413518  0.000000  1
  Nd  Nd1  1  0.565882  0.979400  0.000000  1
  Nd  Nd2  1  0.000000  0.613110  0.000000  1
  Dy  Dy3  1  0.000000  0.243257  0.500000  1
  In  In4  1  0.744269  0.750972  0.500000  1
  In  In5  1  0.255731  0.006703  0.500000  1
  Ir  Ir6  1  0.000000  0.997705  0.000000  1
  Ir  Ir7  1  0.328110  0.661723  0.500000  1
  Ir  Ir8  1  0.671890  0.333612  0.500000  1
