# generated using pymatgen
data_Lu6ZrCo17(SiP2)4
_symmetry_space_group_name_H-M   'P 1'
_cell_length_a   3.69270200
_cell_length_b   10.59684100
_cell_length_c   12.25873800
_cell_angle_alpha   90.00000000
_cell_angle_beta   90.00000000
_cell_angle_gamma   90.00000000
_symmetry_Int_Tables_number   1
_chemical_formula_structural   Lu6ZrCo17(SiP2)4
_chemical_formula_sum   'Lu6 Zr1 Co17 Si4 P8'
_cell_volume   479.69638191
_cell_formula_units_Z   1
loop_
 _symmetry_equiv_pos_site_id
 _symmetry_equiv_pos_as_xyz
  1  'x, y, z'
loop_
 _atom_site_type_symbol
 _atom_site_label
 _atom_site_symmetry_multiplicity
 _atom_site_fract_x
 _atom_site_fract_y
 _atom_site_fract_z
 _atom_site_occupancy
  Lu  Lu0  1  0.000000  0.500000  0.530251  1
  Lu  Lu1  1  0.500000  0.000000  0.473660  1
  Lu  Lu2  1  0.500000  0.821334  0.207068  1
  Lu  Lu3  1  0.500000  0.178666  0.207068  1
  Lu  Lu4  1  0.000000  0.680791  0.799046  1
  Lu  Lu5  1  0.000000  0.319209  0.799046  1
  Zr  Zr6  1  0.500000  0.500000  0.153746  1
  Co  Co7  1  0.000000  0.000000  0.832994  1
  Co  Co8  1  0.500000  0.500000  0.703804  1
  Co  Co9  1  0.000000  0.000000  0.300490  1
  Co  Co10  1  0.000000  0.500000  0.983645  1
  Co  Co11  1  0.500000  0.000000  0.026221  1
  Co  Co12  1  0.500000  0.326411  0.988902  1
  Co  Co13  1  0.500000  0.673589  0.988902  1
  Co  Co14  1  0.000000  0.160282  0.005857  1
  Co  Co15  1  0.000000  0.839718  0.005857  1
  Co  Co16  1  0.500000  0.293353  0.430447  1
  Co  Co17  1  0.500000  0.706647  0.430447  1
  Co  Co18  1  0.000000  0.196224  0.566886  1
  Co  Co19  1  0.000000  0.803776  0.566886  1
  Co  Co20  1  0.500000  0.883488  0.701835  1
  Co  Co21  1  0.500000  0.116512  0.701835  1
  Co  Co22  1  0.000000  0.623052  0.298353  1
  Co  Co23  1  0.000000  0.376948  0.298353  1
  Si  Si24  1  0.500000  0.308733  0.617535  1
  Si  Si25  1  0.500000  0.691267  0.617535  1
  Si  Si26  1  0.500000  0.860046  0.887616  1
  Si  Si27  1  0.500000  0.139954  0.887616  1
  P  P28  1  0.500000  0.500000  0.882571  1
  P  P29  1  0.000000  0.000000  0.121277  1
  P  P30  1  0.500000  0.500000  0.362374  1
  P  P31  1  0.000000  0.000000  0.651071  1
  P  P32  1  0.000000  0.188559  0.384922  1
  P  P33  1  0.000000  0.811441  0.384922  1
  P  P34  1  0.000000  0.666172  0.100480  1
  P  P35  1  0.000000  0.333828  0.100480  1
