# generated using pymatgen
data_Tb3Dy3P13Rh20
_symmetry_space_group_name_H-M   'P 1'
_cell_length_a   13.35337800
_cell_length_b   13.35337737
_cell_length_c   3.92818900
_cell_angle_alpha   90.00000000
_cell_angle_beta   90.00000000
_cell_angle_gamma   119.99999166
_symmetry_Int_Tables_number   1
_chemical_formula_structural   Tb3Dy3P13Rh20
_chemical_formula_sum   'Tb3 Dy3 P13 Rh20'
_cell_volume   606.60405443
_cell_formula_units_Z   1
loop_
 _symmetry_equiv_pos_site_id
 _symmetry_equiv_pos_as_xyz
  1  'x, y, z'
loop_
 _atom_site_type_symbol
 _atom_site_label
 _atom_site_symmetry_multiplicity
 _atom_site_fract_x
 _atom_site_fract_y
 _atom_site_fract_z
 _atom_site_occupancy
  Tb  Tb0  1  0.530239  0.717801  0.247352  1
  Tb  Tb1  1  0.282199  0.812438  0.247352  1
  Tb  Tb2  1  0.187562  0.469761  0.247352  1
  Dy  Dy3  1  0.471019  0.283260  0.752075  1
  Dy  Dy4  1  0.716740  0.187760  0.752075  1
  Dy  Dy5  1  0.812240  0.528981  0.752075  1
  P  P6  1  0.525611  0.139603  0.250551  1
  P  P7  1  0.860397  0.386009  0.250551  1
  P  P8  1  0.613991  0.474389  0.250551  1
  P  P9  1  0.945688  0.714360  0.254255  1
  P  P10  1  0.285640  0.231329  0.254255  1
  P  P11  1  0.768671  0.054312  0.254255  1
  P  P12  1  0.387363  0.526174  0.748941  1
  P  P13  1  0.473826  0.861188  0.748941  1
  P  P14  1  0.138812  0.612637  0.748941  1
  P  P15  1  0.715939  0.770469  0.744565  1
  P  P16  1  0.229531  0.945469  0.744565  1
  P  P17  1  0.054531  0.284061  0.744565  1
  P  P18  1  0.000000  0.000000  0.007509  1
  Rh  Rh19  1  0.333333  0.666667  0.751185  1
  Rh  Rh20  1  0.919961  0.248663  0.254543  1
  Rh  Rh21  1  0.751337  0.671299  0.254543  1
  Rh  Rh22  1  0.328701  0.080039  0.254543  1
  Rh  Rh23  1  0.437688  0.022928  0.751551  1
  Rh  Rh24  1  0.977072  0.414761  0.751551  1
  Rh  Rh25  1  0.585239  0.562312  0.751551  1
  Rh  Rh26  1  0.666667  0.333333  0.248696  1
  Rh  Rh27  1  0.094722  0.187655  0.247033  1
  Rh  Rh28  1  0.812345  0.907067  0.247033  1
  Rh  Rh29  1  0.092933  0.905278  0.247033  1
  Rh  Rh30  1  0.022807  0.583296  0.247954  1
  Rh  Rh31  1  0.416704  0.439511  0.247954  1
  Rh  Rh32  1  0.560489  0.977193  0.247954  1
  Rh  Rh33  1  0.671466  0.922624  0.745124  1
  Rh  Rh34  1  0.077376  0.748842  0.745124  1
  Rh  Rh35  1  0.251158  0.328534  0.745124  1
  Rh  Rh36  1  0.906632  0.814216  0.753592  1
  Rh  Rh37  1  0.185784  0.092416  0.753592  1
  Rh  Rh38  1  0.907584  0.093368  0.753592  1
