# generated using pymatgen
data_Tb8Er9Lu3Pt16
_symmetry_space_group_name_H-M   'P 1'
_cell_length_a   7.42655800
_cell_length_b   7.51285786
_cell_length_c   14.61237800
_cell_angle_alpha   90.00000000
_cell_angle_beta   90.00000000
_cell_angle_gamma   89.97252984
_symmetry_Int_Tables_number   1
_chemical_formula_structural   Tb8Er9Lu3Pt16
_chemical_formula_sum   'Tb8 Er9 Lu3 Pt16'
_cell_volume   815.29278294
_cell_formula_units_Z   1
loop_
 _symmetry_equiv_pos_site_id
 _symmetry_equiv_pos_as_xyz
  1  'x, y, z'
loop_
 _atom_site_type_symbol
 _atom_site_label
 _atom_site_symmetry_multiplicity
 _atom_site_fract_x
 _atom_site_fract_y
 _atom_site_fract_z
 _atom_site_occupancy
  Tb  Tb0  1  0.499424  0.678496  0.593188  1
  Tb  Tb1  1  0.000860  0.822306  0.906667  1
  Tb  Tb2  1  0.500507  0.322204  0.094023  1
  Tb  Tb3  1  0.999867  0.178162  0.406152  1
  Tb  Tb4  1  0.500507  0.322204  0.405977  1
  Tb  Tb5  1  0.999867  0.178162  0.093848  1
  Tb  Tb6  1  0.499424  0.678496  0.906812  1
  Tb  Tb7  1  0.000860  0.822306  0.593333  1
  Er  Er8  1  0.654925  0.167582  0.622683  1
  Er  Er9  1  0.155525  0.331330  0.877378  1
  Er  Er10  1  0.344805  0.831556  0.123036  1
  Er  Er11  1  0.844773  0.668378  0.377159  1
  Er  Er12  1  0.344805  0.831556  0.376964  1
  Er  Er13  1  0.844773  0.668378  0.122841  1
  Er  Er14  1  0.654925  0.167582  0.877317  1
  Er  Er15  1  0.155525  0.331330  0.622622  1
  Er  Er16  1  0.818403  0.510735  0.750000  1
  Lu  Lu17  1  0.318057  0.989933  0.750000  1
  Lu  Lu18  1  0.181749  0.489730  0.250000  1
  Lu  Lu19  1  0.681717  0.010321  0.250000  1
  Pt  Pt20  1  0.682742  0.967419  0.457096  1
  Pt  Pt21  1  0.182776  0.532697  0.042654  1
  Pt  Pt22  1  0.317075  0.032925  0.957776  1
  Pt  Pt23  1  0.816930  0.467239  0.542192  1
  Pt  Pt24  1  0.317075  0.032925  0.542224  1
  Pt  Pt25  1  0.816930  0.467239  0.957808  1
  Pt  Pt26  1  0.682742  0.967419  0.042904  1
  Pt  Pt27  1  0.182776  0.532697  0.457346  1
  Pt  Pt28  1  0.451302  0.384477  0.750000  1
  Pt  Pt29  1  0.952992  0.112673  0.750000  1
  Pt  Pt30  1  0.547521  0.613197  0.250000  1
  Pt  Pt31  1  0.046760  0.886241  0.250000  1
  Pt  Pt32  1  0.678388  0.857770  0.750000  1
  Pt  Pt33  1  0.182069  0.644571  0.750000  1
  Pt  Pt34  1  0.320197  0.143788  0.250000  1
  Pt  Pt35  1  0.820427  0.355980  0.250000  1
