# generated using pymatgen
data_CeHo5MoO12
_symmetry_space_group_name_H-M   'P 1'
_cell_length_a   6.46932254
_cell_length_b   6.49841569
_cell_length_c   6.45033603
_cell_angle_alpha   99.00376834
_cell_angle_beta   98.69351364
_cell_angle_gamma   98.93104318
_symmetry_Int_Tables_number   1
_chemical_formula_structural   CeHo5MoO12
_chemical_formula_sum   'Ce1 Ho5 Mo1 O12'
_cell_volume   260.27317060
_cell_formula_units_Z   1
loop_
 _symmetry_equiv_pos_site_id
 _symmetry_equiv_pos_as_xyz
  1  'x, y, z'
loop_
 _atom_site_type_symbol
 _atom_site_label
 _atom_site_symmetry_multiplicity
 _atom_site_fract_x
 _atom_site_fract_y
 _atom_site_fract_z
 _atom_site_occupancy
  Ce  Ce0  1  0.306388  0.604270  0.139866  1
  Ho  Ho1  1  0.612129  0.142820  0.311226  1
  Ho  Ho2  1  0.857676  0.690451  0.394093  1
  Ho  Ho3  1  0.138993  0.302472  0.608666  1
  Ho  Ho4  1  0.391114  0.865793  0.694298  1
  Ho  Ho5  1  0.695268  0.387111  0.856843  1
  Mo  Mo6  1  0.997216  0.996681  0.000449  1
  O  O7  1  0.927383  0.695724  0.047666  1
  O  O8  1  0.302677  0.960241  0.070760  1
  O  O9  1  0.587072  0.432595  0.176938  1
  O  O10  1  0.956688  0.074402  0.302397  1
  O  O11  1  0.566409  0.822893  0.410587  1
  O  O12  1  0.181981  0.588501  0.431565  1
  O  O13  1  0.824791  0.413427  0.564894  1
  O  O14  1  0.435075  0.179578  0.590179  1
  O  O15  1  0.044160  0.926887  0.696648  1
  O  O16  1  0.410278  0.569219  0.825991  1
  O  O17  1  0.697369  0.042868  0.926578  1
  O  O18  1  0.067334  0.304072  0.950360  1
