# generated using pymatgen
data_Tb3Zn3Pd2Ru
_symmetry_space_group_name_H-M   'P 1'
_cell_length_a   7.24595700
_cell_length_b   7.24595776
_cell_length_c   3.92375000
_cell_angle_alpha   90.00000000
_cell_angle_beta   90.00000000
_cell_angle_gamma   119.99999198
_symmetry_Int_Tables_number   1
_chemical_formula_structural   Tb3Zn3Pd2Ru
_chemical_formula_sum   'Tb3 Zn3 Pd2 Ru1'
_cell_volume   178.41178808
_cell_formula_units_Z   1
loop_
 _symmetry_equiv_pos_site_id
 _symmetry_equiv_pos_as_xyz
  1  'x, y, z'
loop_
 _atom_site_type_symbol
 _atom_site_label
 _atom_site_symmetry_multiplicity
 _atom_site_fract_x
 _atom_site_fract_y
 _atom_site_fract_z
 _atom_site_occupancy
  Tb  Tb0  1  0.012451  0.414162  0.000000  1
  Tb  Tb1  1  0.585838  0.598289  0.000000  1
  Tb  Tb2  1  0.401711  0.987549  0.000000  1
  Zn  Zn3  1  0.003285  0.749480  0.500000  1
  Zn  Zn4  1  0.250520  0.253805  0.500000  1
  Zn  Zn5  1  0.746195  0.996715  0.500000  1
  Pd  Pd6  1  0.000000  0.000000  0.000000  1
  Pd  Pd7  1  0.666667  0.333333  0.500000  1
  Ru  Ru8  1  0.333333  0.666667  0.500000  1
