# generated using pymatgen
data_NdH9W
_symmetry_space_group_name_H-M   'P 1'
_cell_length_a   4.81925300
_cell_length_b   4.81925366
_cell_length_c   8.94861900
_cell_angle_alpha   90.00000000
_cell_angle_beta   90.00000000
_cell_angle_gamma   120.00000233
_symmetry_Int_Tables_number   1
_chemical_formula_structural   NdH9W
_chemical_formula_sum   'Nd2 H18 W2'
_cell_volume   179.98907774
_cell_formula_units_Z   2
loop_
 _symmetry_equiv_pos_site_id
 _symmetry_equiv_pos_as_xyz
  1  'x, y, z'
loop_
 _atom_site_type_symbol
 _atom_site_label
 _atom_site_symmetry_multiplicity
 _atom_site_fract_x
 _atom_site_fract_y
 _atom_site_fract_z
 _atom_site_occupancy
  Nd  Nd0  1  0.000000  0.000000  0.000000  1
  Nd  Nd1  1  0.000000  0.000000  0.500000  1
  H  H2  1  0.482221  0.517779  0.392105  1
  H  H3  1  0.482221  0.964442  0.392105  1
  H  H4  1  0.035558  0.517779  0.392105  1
  H  H5  1  0.964442  0.482221  0.892105  1
  H  H6  1  0.127930  0.255860  0.250000  1
  H  H7  1  0.872070  0.127930  0.750000  1
  H  H8  1  0.255860  0.127930  0.750000  1
  H  H9  1  0.744140  0.872070  0.250000  1
  H  H10  1  0.127930  0.872070  0.250000  1
  H  H11  1  0.872070  0.744140  0.750000  1
  H  H12  1  0.482221  0.964442  0.107895  1
  H  H13  1  0.517779  0.482221  0.607895  1
  H  H14  1  0.964442  0.482221  0.607895  1
  H  H15  1  0.035558  0.517779  0.107895  1
  H  H16  1  0.482221  0.517779  0.107895  1
  H  H17  1  0.517779  0.035558  0.892105  1
  H  H18  1  0.517779  0.482221  0.892105  1
  H  H19  1  0.517779  0.035558  0.607895  1
  W  W20  1  0.333333  0.666667  0.250000  1
  W  W21  1  0.666667  0.333333  0.750000  1
