# generated using pymatgen
data_Ti3Be2CuC
_symmetry_space_group_name_H-M   'P 1'
_cell_length_a   7.77388001
_cell_length_b   7.77388100
_cell_length_c   7.77388000
_cell_angle_alpha   59.99999574
_cell_angle_beta   59.99999153
_cell_angle_gamma   59.99999610
_symmetry_Int_Tables_number   1
_chemical_formula_structural   Ti3Be2CuC
_chemical_formula_sum   'Ti12 Be8 Cu4 C4'
_cell_volume   332.19913806
_cell_formula_units_Z   4
loop_
 _symmetry_equiv_pos_site_id
 _symmetry_equiv_pos_as_xyz
  1  'x, y, z'
loop_
 _atom_site_type_symbol
 _atom_site_label
 _atom_site_symmetry_multiplicity
 _atom_site_fract_x
 _atom_site_fract_y
 _atom_site_fract_z
 _atom_site_occupancy
  Ti  Ti0  1  0.949615  0.949615  0.550385  1
  Ti  Ti1  1  0.550385  0.949615  0.550385  1
  Ti  Ti2  1  0.949615  0.550385  0.550385  1
  Ti  Ti3  1  0.550385  0.550385  0.949615  1
  Ti  Ti4  1  0.949615  0.550385  0.949615  1
  Ti  Ti5  1  0.550385  0.949615  0.949615  1
  Ti  Ti6  1  0.300385  0.300385  0.699615  1
  Ti  Ti7  1  0.699615  0.300385  0.699615  1
  Ti  Ti8  1  0.300385  0.699615  0.699615  1
  Ti  Ti9  1  0.699615  0.699615  0.300385  1
  Ti  Ti10  1  0.300385  0.699615  0.300385  1
  Ti  Ti11  1  0.699615  0.300385  0.300385  1
  Be  Be12  1  0.324068  0.324068  0.027796  1
  Be  Be13  1  0.324068  0.027796  0.324068  1
  Be  Be14  1  0.027796  0.324068  0.324068  1
  Be  Be15  1  0.324068  0.324068  0.324068  1
  Be  Be16  1  0.925932  0.925932  0.222204  1
  Be  Be17  1  0.925932  0.222204  0.925932  1
  Be  Be18  1  0.222204  0.925932  0.925932  1
  Be  Be19  1  0.925932  0.925932  0.925932  1
  Cu  Cu20  1  0.125000  0.125000  0.625000  1
  Cu  Cu21  1  0.125000  0.625000  0.125000  1
  Cu  Cu22  1  0.625000  0.125000  0.125000  1
  Cu  Cu23  1  0.125000  0.125000  0.125000  1
  C  C24  1  0.625000  0.625000  0.125000  1
  C  C25  1  0.625000  0.125000  0.625000  1
  C  C26  1  0.125000  0.625000  0.625000  1
  C  C27  1  0.625000  0.625000  0.625000  1
