# generated using pymatgen
data_LaY4(TcB3)2
_symmetry_space_group_name_H-M   'P 1'
_cell_length_a   5.56620082
_cell_length_b   5.56620123
_cell_length_c   8.65887734
_cell_angle_alpha   71.25142964
_cell_angle_beta   71.25142750
_cell_angle_gamma   59.99999227
_symmetry_Int_Tables_number   1
_chemical_formula_structural   LaY4(TcB3)2
_chemical_formula_sum   'La1 Y4 Tc2 B6'
_cell_volume   215.73868299
_cell_formula_units_Z   1
loop_
 _symmetry_equiv_pos_site_id
 _symmetry_equiv_pos_as_xyz
  1  'x, y, z'
loop_
 _atom_site_type_symbol
 _atom_site_label
 _atom_site_symmetry_multiplicity
 _atom_site_fract_x
 _atom_site_fract_y
 _atom_site_fract_z
 _atom_site_occupancy
  La  La0  1  0.000000  0.000000  0.000000  1
  Y  Y1  1  0.754137  0.754137  0.737589  1
  Y  Y2  1  0.245863  0.245863  0.262411  1
  Y  Y3  1  0.578870  0.578870  0.263390  1
  Y  Y4  1  0.421130  0.421130  0.736610  1
  Tc  Tc5  1  0.888077  0.888077  0.335769  1
  Tc  Tc6  1  0.111923  0.111923  0.664231  1
  B  B7  1  0.500000  0.170476  0.500000  1
  B  B8  1  0.829524  0.500000  0.500000  1
  B  B9  1  0.170476  0.829524  0.500000  1
  B  B10  1  0.170476  0.500000  0.500000  1
  B  B11  1  0.829524  0.170476  0.500000  1
  B  B12  1  0.500000  0.829524  0.500000  1
