# generated using pymatgen
data_Ti8Al14SiRu4Rh3
_symmetry_space_group_name_H-M   'P 1'
_cell_length_a   8.63958560
_cell_length_b   8.63786419
_cell_length_c   8.63747122
_cell_angle_alpha   119.99666065
_cell_angle_beta   119.99876282
_cell_angle_gamma   89.95431727
_symmetry_Int_Tables_number   1
_chemical_formula_structural   Ti8Al14SiRu4Rh3
_chemical_formula_sum   'Ti8 Al14 Si1 Ru4 Rh3'
_cell_volume   456.00927919
_cell_formula_units_Z   1
loop_
 _symmetry_equiv_pos_site_id
 _symmetry_equiv_pos_as_xyz
  1  'x, y, z'
loop_
 _atom_site_type_symbol
 _atom_site_label
 _atom_site_symmetry_multiplicity
 _atom_site_fract_x
 _atom_site_fract_y
 _atom_site_fract_z
 _atom_site_occupancy
  Ti  Ti0  1  0.795075  0.295680  0.086489  1
  Ti  Ti1  1  0.211734  0.298814  0.501323  1
  Ti  Ti2  1  0.204247  0.704246  0.503567  1
  Ti  Ti3  1  0.212243  0.712057  0.913643  1
  Ti  Ti4  1  0.798066  0.710884  0.500122  1
  Ti  Ti5  1  0.786684  0.286913  0.496542  1
  Ti  Ti6  1  0.376236  0.120837  0.743662  1
  Ti  Ti7  1  0.382346  0.634147  0.259713  1
  Al  Al8  1  0.155524  0.341331  0.184915  1
  Al  Al9  1  0.156754  0.973020  0.815965  1
  Al  Al10  1  0.152523  0.344861  0.808120  1
  Al  Al11  1  0.535038  0.344153  0.190623  1
  Al  Al12  1  0.844247  0.654509  0.809078  1
  Al  Al13  1  0.845191  0.033284  0.189142  1
  Al  Al14  1  0.841865  0.656790  0.184476  1
  Al  Al15  1  0.474092  0.657983  0.816196  1
  Al  Al16  1  0.380975  0.121288  0.259968  1
  Al  Al17  1  0.860440  0.120107  0.738894  1
  Al  Al18  1  0.620366  0.877327  0.256808  1
  Al  Al19  1  0.619282  0.362797  0.742171  1
  Al  Al20  1  0.618630  0.877780  0.741432  1
  Al  Al21  1  0.137023  0.879113  0.259603  1
  Si  Si22  1  0.996454  0.495969  0.500318  1
  Ru  Ru23  1  0.001674  0.999810  0.501287  1
  Ru  Ru24  1  0.498920  0.000517  0.998919  1
  Ru  Ru25  1  0.497567  0.498121  0.000060  1
  Ru  Ru26  1  0.497942  0.500056  0.497600  1
  Rh  Rh27  1  0.000583  0.499915  0.000365  1
  Rh  Rh28  1  0.999676  0.999431  0.999511  1
  Rh  Rh29  1  0.498599  0.998258  0.499488  1
