# generated using pymatgen
data_Lu12In2Fe2Re
_symmetry_space_group_name_H-M   'P 1'
_cell_length_a   8.21021538
_cell_length_b   8.21021548
_cell_length_c   8.21021492
_cell_angle_alpha   108.95515918
_cell_angle_beta   108.95516074
_cell_angle_gamma   110.50834361
_symmetry_Int_Tables_number   1
_chemical_formula_structural   Lu12In2Fe2Re
_chemical_formula_sum   'Lu12 In2 Fe2 Re1'
_cell_volume   425.92663377
_cell_formula_units_Z   1
loop_
 _symmetry_equiv_pos_site_id
 _symmetry_equiv_pos_as_xyz
  1  'x, y, z'
loop_
 _atom_site_type_symbol
 _atom_site_label
 _atom_site_symmetry_multiplicity
 _atom_site_fract_x
 _atom_site_fract_y
 _atom_site_fract_z
 _atom_site_occupancy
  Lu  Lu0  1  0.308330  0.308330  0.616660  1
  Lu  Lu1  1  0.691670  0.691670  0.383340  1
  Lu  Lu2  1  0.691670  0.308330  0.000000  1
  Lu  Lu3  1  0.308330  0.691670  0.000000  1
  Lu  Lu4  1  0.193188  0.431390  0.238202  1
  Lu  Lu5  1  0.806812  0.568610  0.761798  1
  Lu  Lu6  1  0.193188  0.954986  0.761798  1
  Lu  Lu7  1  0.954986  0.193188  0.761798  1
  Lu  Lu8  1  0.806812  0.045014  0.238202  1
  Lu  Lu9  1  0.045014  0.806812  0.238202  1
  Lu  Lu10  1  0.431390  0.193188  0.238202  1
  Lu  Lu11  1  0.568610  0.806812  0.761798  1
  In  In12  1  0.000000  0.500000  0.500000  1
  In  In13  1  0.500000  0.000000  0.500000  1
  Fe  Fe14  1  0.383632  0.383632  0.000000  1
  Fe  Fe15  1  0.616368  0.616368  0.000000  1
  Re  Re16  1  0.000000  0.000000  0.000000  1
