# generated using pymatgen
data_Er4MnMoIr6
_symmetry_space_group_name_H-M   'P 1'
_cell_length_a   5.46635000
_cell_length_b   5.46634903
_cell_length_c   8.31810400
_cell_angle_alpha   90.00000000
_cell_angle_beta   90.00000000
_cell_angle_gamma   119.99998167
_symmetry_Int_Tables_number   1
_chemical_formula_structural   Er4MnMoIr6
_chemical_formula_sum   'Er4 Mn1 Mo1 Ir6'
_cell_volume   215.25331643
_cell_formula_units_Z   1
loop_
 _symmetry_equiv_pos_site_id
 _symmetry_equiv_pos_as_xyz
  1  'x, y, z'
loop_
 _atom_site_type_symbol
 _atom_site_label
 _atom_site_symmetry_multiplicity
 _atom_site_fract_x
 _atom_site_fract_y
 _atom_site_fract_z
 _atom_site_occupancy
  Er  Er0  1  0.333333  0.666667  0.435382  1
  Er  Er1  1  0.666667  0.333333  0.564618  1
  Er  Er2  1  0.666667  0.333333  0.937000  1
  Er  Er3  1  0.333333  0.666667  0.063000  1
  Mn  Mn4  1  0.000000  0.000000  0.000000  1
  Mo  Mo5  1  0.000000  0.000000  0.500000  1
  Ir  Ir6  1  0.830247  0.169753  0.248577  1
  Ir  Ir7  1  0.830247  0.660495  0.248577  1
  Ir  Ir8  1  0.339505  0.169753  0.248577  1
  Ir  Ir9  1  0.169753  0.830247  0.751423  1
  Ir  Ir10  1  0.169753  0.339505  0.751423  1
  Ir  Ir11  1  0.660495  0.830247  0.751423  1
