# generated using pymatgen
data_AgSn14Ir3O14
_symmetry_space_group_name_H-M   'P 1'
_cell_length_a   7.26549922
_cell_length_b   7.27583944
_cell_length_c   13.20640749
_cell_angle_alpha   72.53411914
_cell_angle_beta   74.03353373
_cell_angle_gamma   60.04700606
_symmetry_Int_Tables_number   1
_chemical_formula_structural   AgSn14Ir3O14
_chemical_formula_sum   'Ag1 Sn14 Ir3 O14'
_cell_volume   570.33204195
_cell_formula_units_Z   1
loop_
 _symmetry_equiv_pos_site_id
 _symmetry_equiv_pos_as_xyz
  1  'x, y, z'
loop_
 _atom_site_type_symbol
 _atom_site_label
 _atom_site_symmetry_multiplicity
 _atom_site_fract_x
 _atom_site_fract_y
 _atom_site_fract_z
 _atom_site_occupancy
  Ag  Ag0  1  0.893287  0.027494  0.185931  1
  Sn  Sn1  1  0.480071  0.618940  0.420917  1
  Sn  Sn2  1  0.484409  0.091751  0.425053  1
  Sn  Sn3  1  0.998789  0.091751  0.425053  1
  Sn  Sn4  1  0.095002  0.155603  0.654392  1
  Sn  Sn5  1  0.443611  0.974035  0.138744  1
  Sn  Sn6  1  0.148909  0.782022  0.920158  1
  Sn  Sn7  1  0.446331  0.488482  0.160430  1
  Sn  Sn8  1  0.904758  0.488482  0.160430  1
  Sn  Sn9  1  0.683677  0.746678  0.885967  1
  Sn  Sn10  1  0.681718  0.255968  0.913121  1
  Sn  Sn11  1  0.149193  0.255968  0.913121  1
  Sn  Sn12  1  0.574222  0.680402  0.650595  1
  Sn  Sn13  1  0.094781  0.680402  0.650595  1
  Sn  Sn14  1  0.004949  0.614032  0.376070  1
  Ir  Ir15  1  0.684240  0.316013  0.315507  1
  Ir  Ir16  1  0.885497  0.463211  0.765795  1
  Ir  Ir17  1  0.293673  0.378698  0.033956  1
  O  O18  1  0.114810  0.727174  0.470381  1
  O  O19  1  0.687635  0.727174  0.470381  1
  O  O20  1  0.970504  0.070018  0.988976  1
  O  O21  1  0.116500  0.290335  0.476665  1
  O  O22  1  0.647092  0.655848  0.049967  1
  O  O23  1  0.420467  0.566539  0.592527  1
  O  O24  1  0.335730  0.961816  0.366724  1
  O  O25  1  0.422601  0.013131  0.595484  1
  O  O26  1  0.968781  0.013131  0.595484  1
  O  O27  1  0.364525  0.940429  0.879372  1
  O  O28  1  0.815674  0.940429  0.879372  1
  O  O29  1  0.735688  0.809459  0.185152  1
  O  O30  1  0.269701  0.809459  0.185152  1
  O  O31  1  0.223544  0.803612  0.749299  1
