# generated using pymatgen
data_Dy3Lu5Ga3Co
_symmetry_space_group_name_H-M   'P 1'
_cell_length_a   9.83382400
_cell_length_b   9.84261340
_cell_length_c   6.92200902
_cell_angle_alpha   90.00654936
_cell_angle_beta   90.00000000
_cell_angle_gamma   119.97046436
_symmetry_Int_Tables_number   1
_chemical_formula_structural   Dy3Lu5Ga3Co
_chemical_formula_sum   'Dy6 Lu10 Ga6 Co2'
_cell_volume   580.39655386
_cell_formula_units_Z   2
loop_
 _symmetry_equiv_pos_site_id
 _symmetry_equiv_pos_as_xyz
  1  'x, y, z'
loop_
 _atom_site_type_symbol
 _atom_site_label
 _atom_site_symmetry_multiplicity
 _atom_site_fract_x
 _atom_site_fract_y
 _atom_site_fract_z
 _atom_site_occupancy
  Dy  Dy0  1  0.463569  0.927139  0.208483  1
  Dy  Dy1  1  0.535516  0.464511  0.708342  1
  Dy  Dy2  1  0.928996  0.464511  0.708342  1
  Dy  Dy3  1  0.535819  0.071638  0.708711  1
  Dy  Dy4  1  0.000034  0.000069  0.231741  1
  Dy  Dy5  1  0.999925  0.999850  0.731735  1
  Lu  Lu6  1  0.173599  0.825039  0.511636  1
  Lu  Lu7  1  0.651440  0.825039  0.511636  1
  Lu  Lu8  1  0.174490  0.348980  0.510483  1
  Lu  Lu9  1  0.826885  0.175060  0.013935  1
  Lu  Lu10  1  0.348175  0.175060  0.013935  1
  Lu  Lu11  1  0.825602  0.651205  0.014892  1
  Lu  Lu12  1  0.332761  0.665522  0.826804  1
  Lu  Lu13  1  0.667184  0.334367  0.325502  1
  Lu  Lu14  1  0.462699  0.536905  0.207704  1
  Lu  Lu15  1  0.074205  0.536905  0.207704  1
  Ga  Ga16  1  0.163370  0.835770  0.957184  1
  Ga  Ga17  1  0.672400  0.835770  0.957184  1
  Ga  Ga18  1  0.164371  0.328743  0.958129  1
  Ga  Ga19  1  0.836441  0.163296  0.456400  1
  Ga  Ga20  1  0.326856  0.163296  0.456400  1
  Ga  Ga21  1  0.836489  0.672978  0.455431  1
  Co  Co22  1  0.332513  0.665028  0.445412  1
  Co  Co23  1  0.666661  0.333320  0.947111  1
