# generated using pymatgen
data_Tb2TlAg3Se5
_symmetry_space_group_name_H-M   'P 1'
_cell_length_a   4.31234000
_cell_length_b   8.06825794
_cell_length_c   17.53734400
_cell_angle_alpha   90.00000000
_cell_angle_beta   90.00000000
_cell_angle_gamma   74.49983898
_symmetry_Int_Tables_number   1
_chemical_formula_structural   Tb2TlAg3Se5
_chemical_formula_sum   'Tb4 Tl2 Ag6 Se10'
_cell_volume   587.98570520
_cell_formula_units_Z   2
loop_
 _symmetry_equiv_pos_site_id
 _symmetry_equiv_pos_as_xyz
  1  'x, y, z'
loop_
 _atom_site_type_symbol
 _atom_site_label
 _atom_site_symmetry_multiplicity
 _atom_site_fract_x
 _atom_site_fract_y
 _atom_site_fract_z
 _atom_site_occupancy
  Tb  Tb0  1  0.308226  0.383549  0.095609  1
  Tb  Tb1  1  0.308226  0.383549  0.404391  1
  Tb  Tb2  1  0.691773  0.616452  0.595609  1
  Tb  Tb3  1  0.691773  0.616452  0.904391  1
  Tl  Tl4  1  0.571296  0.857406  0.250000  1
  Tl  Tl5  1  0.428704  0.142593  0.750000  1
  Ag  Ag6  1  0.083668  0.832663  0.040104  1
  Ag  Ag7  1  0.840927  0.318147  0.250000  1
  Ag  Ag8  1  0.083668  0.832663  0.459896  1
  Ag  Ag9  1  0.916332  0.167336  0.540104  1
  Ag  Ag10  1  0.159074  0.681853  0.750000  1
  Ag  Ag11  1  0.916332  0.167336  0.959896  1
  Se  Se12  1  0.681081  0.637838  0.070993  1
  Se  Se13  1  0.932469  0.135062  0.118567  1
  Se  Se14  1  0.239584  0.520832  0.250000  1
  Se  Se15  1  0.932469  0.135062  0.381433  1
  Se  Se16  1  0.681081  0.637838  0.429007  1
  Se  Se17  1  0.318919  0.362163  0.570993  1
  Se  Se18  1  0.067530  0.864939  0.618568  1
  Se  Se19  1  0.760416  0.479167  0.750000  1
  Se  Se20  1  0.067530  0.864939  0.881433  1
  Se  Se21  1  0.318919  0.362163  0.929007  1
