# generated using pymatgen
data_Rb4SiAu8
_symmetry_space_group_name_H-M   'P 1'
_cell_length_a   10.93744631
_cell_length_b   10.93744557
_cell_length_c   10.35884200
_cell_angle_alpha   76.51199712
_cell_angle_beta   76.51199266
_cell_angle_gamma   35.94605631
_symmetry_Int_Tables_number   1
_chemical_formula_structural   Rb4SiAu8
_chemical_formula_sum   'Rb8 Si2 Au16'
_cell_volume   705.23368718
_cell_formula_units_Z   2
loop_
 _symmetry_equiv_pos_site_id
 _symmetry_equiv_pos_as_xyz
  1  'x, y, z'
loop_
 _atom_site_type_symbol
 _atom_site_label
 _atom_site_symmetry_multiplicity
 _atom_site_fract_x
 _atom_site_fract_y
 _atom_site_fract_z
 _atom_site_occupancy
  Rb  Rb0  1  0.479402  0.479402  0.842298  1
  Rb  Rb1  1  0.520598  0.520598  0.157702  1
  Rb  Rb2  1  0.282195  0.282195  0.916298  1
  Rb  Rb3  1  0.717805  0.717805  0.083702  1
  Rb  Rb4  1  0.220552  0.220552  0.601320  1
  Rb  Rb5  1  0.779448  0.779448  0.398680  1
  Rb  Rb6  1  0.041180  0.041180  0.646720  1
  Rb  Rb7  1  0.958820  0.958820  0.353280  1
  Si  Si8  1  0.664382  0.664382  0.770795  1
  Si  Si9  1  0.335618  0.335618  0.229205  1
  Au  Au10  1  0.782772  0.782772  0.733217  1
  Au  Au11  1  0.217228  0.217228  0.266783  1
  Au  Au12  1  0.621108  0.621108  0.577478  1
  Au  Au13  1  0.378892  0.378892  0.422522  1
  Au  Au14  1  0.500000  0.500000  0.500000  1
  Au  Au15  1  0.000000  0.000000  0.000000  1
  Au  Au16  1  0.112837  0.112837  0.140025  1
  Au  Au17  1  0.887163  0.887163  0.859975  1
  Au  Au18  1  0.845026  0.377493  0.357710  1
  Au  Au19  1  0.622507  0.154974  0.642290  1
  Au  Au20  1  0.154974  0.622507  0.642290  1
  Au  Au21  1  0.377493  0.845026  0.357710  1
  Au  Au22  1  0.093161  0.665911  0.098853  1
  Au  Au23  1  0.334089  0.906839  0.901147  1
  Au  Au24  1  0.906839  0.334089  0.901147  1
  Au  Au25  1  0.665911  0.093161  0.098853  1
