# generated using pymatgen
data_HoPa3(NbN2)4
_symmetry_space_group_name_H-M   'P 1'
_cell_length_a   3.31210000
_cell_length_b   5.72701458
_cell_length_c   10.98433401
_cell_angle_alpha   90.09699844
_cell_angle_beta   90.00000000
_cell_angle_gamma   90.00000000
_symmetry_Int_Tables_number   1
_chemical_formula_structural   HoPa3(NbN2)4
_chemical_formula_sum   'Ho1 Pa3 Nb4 N8'
_cell_volume   208.35543691
_cell_formula_units_Z   1
loop_
 _symmetry_equiv_pos_site_id
 _symmetry_equiv_pos_as_xyz
  1  'x, y, z'
loop_
 _atom_site_type_symbol
 _atom_site_label
 _atom_site_symmetry_multiplicity
 _atom_site_fract_x
 _atom_site_fract_y
 _atom_site_fract_z
 _atom_site_occupancy
  Ho  Ho0  1  0.250000  0.578026  0.854377  1
  Pa  Pa1  1  0.750000  0.425658  0.139353  1
  Pa  Pa2  1  0.750000  0.922908  0.355782  1
  Pa  Pa3  1  0.250000  0.079138  0.647671  1
  Nb  Nb4  1  0.250000  0.922898  0.096524  1
  Nb  Nb5  1  0.750000  0.071707  0.905459  1
  Nb  Nb6  1  0.750000  0.576846  0.598920  1
  Nb  Nb7  1  0.250000  0.424604  0.402640  1
  N  N8  1  0.250000  0.659415  0.245405  1
  N  N9  1  0.750000  0.334505  0.752112  1
  N  N10  1  0.750000  0.844981  0.743996  1
  N  N11  1  0.250000  0.158071  0.255581  1
  N  N12  1  0.250000  0.766748  0.504728  1
  N  N13  1  0.750000  0.234593  0.496349  1
  N  N14  1  0.750000  0.732569  0.003157  1
  N  N15  1  0.250000  0.267333  0.997947  1
