# generated using pymatgen
data_Ho16Cd4Ir2OsRh
_symmetry_space_group_name_H-M   'P 1'
_cell_length_a   9.58900722
_cell_length_b   9.58900694
_cell_length_c   9.62130847
_cell_angle_alpha   60.02675694
_cell_angle_beta   60.02676544
_cell_angle_gamma   59.92615494
_symmetry_Int_Tables_number   1
_chemical_formula_structural   Ho16Cd4Ir2OsRh
_chemical_formula_sum   'Ho16 Cd4 Ir2 Os1 Rh1'
_cell_volume   625.45895726
_cell_formula_units_Z   1
loop_
 _symmetry_equiv_pos_site_id
 _symmetry_equiv_pos_as_xyz
  1  'x, y, z'
loop_
 _atom_site_type_symbol
 _atom_site_label
 _atom_site_symmetry_multiplicity
 _atom_site_fract_x
 _atom_site_fract_y
 _atom_site_fract_z
 _atom_site_occupancy
  Ho  Ho0  1  0.937883  0.937883  0.560760  1
  Ho  Ho1  1  0.561363  0.561363  0.935496  1
  Ho  Ho2  1  0.689758  0.689758  0.310890  1
  Ho  Ho3  1  0.150406  0.546194  0.150636  1
  Ho  Ho4  1  0.687965  0.312467  0.690020  1
  Ho  Ho5  1  0.151642  0.151642  0.152064  1
  Ho  Ho6  1  0.546194  0.150406  0.150636  1
  Ho  Ho7  1  0.690620  0.311038  0.310398  1
  Ho  Ho8  1  0.149550  0.149550  0.547994  1
  Ho  Ho9  1  0.311038  0.690620  0.310398  1
  Ho  Ho10  1  0.312467  0.687965  0.690020  1
  Ho  Ho11  1  0.936849  0.563193  0.562265  1
  Ho  Ho12  1  0.942457  0.559876  0.936200  1
  Ho  Ho13  1  0.563193  0.936849  0.562265  1
  Ho  Ho14  1  0.559876  0.942457  0.936200  1
  Ho  Ho15  1  0.311174  0.311174  0.691232  1
  Cd  Cd16  1  0.919316  0.919316  0.242689  1
  Cd  Cd17  1  0.243079  0.919287  0.918882  1
  Cd  Cd18  1  0.919693  0.919693  0.919200  1
  Cd  Cd19  1  0.919287  0.243079  0.918882  1
  Ir  Ir20  1  0.356975  0.924214  0.359043  1
  Ir  Ir21  1  0.924214  0.356975  0.359043  1
  Os  Os22  1  0.357043  0.357043  0.925081  1
  Rh  Rh23  1  0.357951  0.357951  0.359703  1
