# generated using pymatgen
data_Tb5PrNd2(CdPt)2
_symmetry_space_group_name_H-M   'P 1'
_cell_length_a   9.83127843
_cell_length_b   9.84113253
_cell_length_c   9.84113193
_cell_angle_alpha   59.93377067
_cell_angle_beta   60.03311680
_cell_angle_gamma   60.03311496
_symmetry_Int_Tables_number   1
_chemical_formula_structural   Tb5PrNd2(CdPt)2
_chemical_formula_sum   'Tb10 Pr2 Nd4 Cd4 Pt4'
_cell_volume   673.26226037
_cell_formula_units_Z   2
loop_
 _symmetry_equiv_pos_site_id
 _symmetry_equiv_pos_as_xyz
  1  'x, y, z'
loop_
 _atom_site_type_symbol
 _atom_site_label
 _atom_site_symmetry_multiplicity
 _atom_site_fract_x
 _atom_site_fract_y
 _atom_site_fract_z
 _atom_site_occupancy
  Tb  Tb0  1  0.349906  0.350265  0.350265  1
  Tb  Tb1  1  0.350265  0.349906  0.949563  1
  Tb  Tb2  1  0.350265  0.949563  0.349906  1
  Tb  Tb3  1  0.949563  0.350265  0.350265  1
  Tb  Tb4  1  0.810926  0.189074  0.189074  1
  Tb  Tb5  1  0.189074  0.810926  0.810926  1
  Tb  Tb6  1  0.188885  0.811115  0.188885  1
  Tb  Tb7  1  0.811115  0.188885  0.811115  1
  Tb  Tb8  1  0.188885  0.188885  0.811115  1
  Tb  Tb9  1  0.811115  0.811115  0.188885  1
  Pr  Pr10  1  0.936782  0.563218  0.563218  1
  Pr  Pr11  1  0.563218  0.936782  0.936782  1
  Nd  Nd12  1  0.561951  0.938049  0.561951  1
  Nd  Nd13  1  0.938049  0.561951  0.938049  1
  Nd  Nd14  1  0.561951  0.561951  0.938049  1
  Nd  Nd15  1  0.938049  0.938049  0.561951  1
  Cd  Cd16  1  0.579776  0.579920  0.579920  1
  Cd  Cd17  1  0.579920  0.579776  0.260385  1
  Cd  Cd18  1  0.579920  0.260385  0.579776  1
  Cd  Cd19  1  0.260385  0.579920  0.579920  1
  Pt  Pt20  1  0.142192  0.143169  0.143169  1
  Pt  Pt21  1  0.143169  0.142192  0.571469  1
  Pt  Pt22  1  0.143169  0.571469  0.142192  1
  Pt  Pt23  1  0.571469  0.143169  0.143169  1
