# generated using pymatgen
data_YbAl10FeIr
_symmetry_space_group_name_H-M   'P 1'
_cell_length_a   6.82252159
_cell_length_b   6.83735468
_cell_length_c   9.06622000
_cell_angle_alpha   90.00000000
_cell_angle_beta   90.00000000
_cell_angle_gamma   96.70005833
_symmetry_Int_Tables_number   1
_chemical_formula_structural   YbAl10FeIr
_chemical_formula_sum   'Yb2 Al20 Fe2 Ir2'
_cell_volume   420.03270394
_cell_formula_units_Z   2
loop_
 _symmetry_equiv_pos_site_id
 _symmetry_equiv_pos_as_xyz
  1  'x, y, z'
loop_
 _atom_site_type_symbol
 _atom_site_label
 _atom_site_symmetry_multiplicity
 _atom_site_fract_x
 _atom_site_fract_y
 _atom_site_fract_z
 _atom_site_occupancy
  Yb  Yb0  1  0.875263  0.123891  0.250000  1
  Yb  Yb1  1  0.124737  0.876109  0.750000  1
  Al  Al2  1  0.230414  0.218955  0.501574  1
  Al  Al3  1  0.769586  0.781045  0.001574  1
  Al  Al4  1  0.769586  0.781045  0.498426  1
  Al  Al5  1  0.230414  0.218955  0.998426  1
  Al  Al6  1  0.381388  0.629136  0.549904  1
  Al  Al7  1  0.618612  0.370864  0.049904  1
  Al  Al8  1  0.580297  0.864551  0.750000  1
  Al  Al9  1  0.419703  0.135449  0.250000  1
  Al  Al10  1  0.857928  0.588767  0.250000  1
  Al  Al11  1  0.142072  0.411233  0.750000  1
  Al  Al12  1  0.479023  0.220092  0.750000  1
  Al  Al13  1  0.520977  0.779908  0.250000  1
  Al  Al14  1  0.225263  0.477989  0.250000  1
  Al  Al15  1  0.774737  0.522011  0.750000  1
  Al  Al16  1  0.162507  0.846352  0.401162  1
  Al  Al17  1  0.837493  0.153648  0.901162  1
  Al  Al18  1  0.837493  0.153648  0.598838  1
  Al  Al19  1  0.162507  0.846352  0.098838  1
  Al  Al20  1  0.381388  0.629136  0.950096  1
  Al  Al21  1  0.618612  0.370864  0.450096  1
  Fe  Fe22  1  0.500000  0.000000  0.500000  1
  Fe  Fe23  1  0.500000  0.000000  0.000000  1
  Ir  Ir24  1  0.000000  0.500000  0.500000  1
  Ir  Ir25  1  0.000000  0.500000  0.000000  1
