# generated using pymatgen
data_Dy4Al16Ge2IrRh5
_symmetry_space_group_name_H-M   'P 1'
_cell_length_a   7.55140010
_cell_length_b   7.55139025
_cell_length_c   9.45954800
_cell_angle_alpha   89.99953151
_cell_angle_beta   89.99962180
_cell_angle_gamma   119.56750805
_symmetry_Int_Tables_number   1
_chemical_formula_structural   Dy4Al16Ge2IrRh5
_chemical_formula_sum   'Dy4 Al16 Ge2 Ir1 Rh5'
_cell_volume   469.17153139
_cell_formula_units_Z   1
loop_
 _symmetry_equiv_pos_site_id
 _symmetry_equiv_pos_as_xyz
  1  'x, y, z'
loop_
 _atom_site_type_symbol
 _atom_site_label
 _atom_site_symmetry_multiplicity
 _atom_site_fract_x
 _atom_site_fract_y
 _atom_site_fract_z
 _atom_site_occupancy
  Dy  Dy0  1  0.995399  0.675676  0.750091  1
  Dy  Dy1  1  0.004213  0.323871  0.249856  1
  Dy  Dy2  1  0.676127  0.995785  0.750144  1
  Dy  Dy3  1  0.324323  0.004600  0.249909  1
  Al  Al4  1  0.001014  0.337519  0.574061  1
  Al  Al5  1  0.999466  0.662614  0.425901  1
  Al  Al6  1  0.999655  0.662745  0.074120  1
  Al  Al7  1  0.337254  0.000344  0.925880  1
  Al  Al8  1  0.001502  0.337673  0.925865  1
  Al  Al9  1  0.662326  0.998497  0.074135  1
  Al  Al10  1  0.662480  0.998984  0.425939  1
  Al  Al11  1  0.337385  0.000533  0.574099  1
  Al  Al12  1  0.335539  0.335864  0.058124  1
  Al  Al13  1  0.664135  0.664459  0.941877  1
  Al  Al14  1  0.664171  0.664268  0.558262  1
  Al  Al15  1  0.335730  0.335828  0.441738  1
  Al  Al16  1  0.335528  0.553720  0.749917  1
  Al  Al17  1  0.664245  0.447242  0.250684  1
  Al  Al18  1  0.552756  0.335753  0.749315  1
  Al  Al19  1  0.446279  0.664470  0.250083  1
  Ge  Ge20  1  0.133298  0.133233  0.750012  1
  Ge  Ge21  1  0.866782  0.866722  0.249986  1
  Ir  Ir22  1  0.671256  0.328744  0.000000  1
  Rh  Rh23  1  0.671251  0.328747  0.500000  1
  Rh  Rh24  1  0.328883  0.671116  0.499999  1
  Rh  Rh25  1  0.328894  0.671105  0.000000  1
  Rh  Rh26  1  0.000067  0.999932  0.500000  1
  Rh  Rh27  1  0.000040  0.999957  0.000001  1
