# generated using pymatgen
data_Li2Hg(CO3)2
_symmetry_space_group_name_H-M   'P 1'
_cell_length_a   5.48469551
_cell_length_b   7.70151388
_cell_length_c   7.66969304
_cell_angle_alpha   89.99604563
_cell_angle_beta   90.00513247
_cell_angle_gamma   98.22094304
_symmetry_Int_Tables_number   1
_chemical_formula_structural   Li2Hg(CO3)2
_chemical_formula_sum   'Li4 Hg2 C4 O12'
_cell_volume   320.64222977
_cell_formula_units_Z   2
loop_
 _symmetry_equiv_pos_site_id
 _symmetry_equiv_pos_as_xyz
  1  'x, y, z'
loop_
 _atom_site_type_symbol
 _atom_site_label
 _atom_site_symmetry_multiplicity
 _atom_site_fract_x
 _atom_site_fract_y
 _atom_site_fract_z
 _atom_site_occupancy
  Li  Li0  1  0.960520  0.344220  0.615687  1
  Li  Li1  1  0.539429  0.155763  0.115681  1
  Li  Li2  1  0.460722  0.844287  0.884278  1
  Li  Li3  1  0.039317  0.655702  0.384268  1
  Hg  Hg4  1  0.000097  0.999943  0.000036  1
  Hg  Hg5  1  0.499908  0.500076  0.500066  1
  C  C6  1  0.423116  0.204349  0.743903  1
  C  C7  1  0.076853  0.295682  0.243944  1
  C  C8  1  0.923288  0.704277  0.756060  1
  C  C9  1  0.576778  0.795707  0.256037  1
  O  O10  1  0.496979  0.103121  0.859953  1
  O  O11  1  0.601375  0.290532  0.643411  1
  O  O12  1  0.199814  0.225317  0.722420  1
  O  O13  1  0.300057  0.274709  0.222459  1
  O  O14  1  0.898667  0.209513  0.143415  1
  O  O15  1  0.997015  0.603041  0.640007  1
  O  O16  1  0.003042  0.396909  0.359990  1
  O  O17  1  0.101464  0.790370  0.856652  1
  O  O18  1  0.700095  0.725354  0.777534  1
  O  O19  1  0.799911  0.774610  0.277540  1
  O  O20  1  0.398538  0.709648  0.356604  1
  O  O21  1  0.503022  0.896873  0.140063  1
