# generated using pymatgen
data_Sc4CoSi4NiPt4
_symmetry_space_group_name_H-M   'P 1'
_cell_length_a   3.91594600
_cell_length_b   6.45488434
_cell_length_c   8.56222555
_cell_angle_alpha   90.25744322
_cell_angle_beta   90.00000000
_cell_angle_gamma   90.00000000
_symmetry_Int_Tables_number   1
_chemical_formula_structural   Sc4CoSi4NiPt4
_chemical_formula_sum   'Sc4 Co1 Si4 Ni1 Pt4'
_cell_volume   216.42500629
_cell_formula_units_Z   1
loop_
 _symmetry_equiv_pos_site_id
 _symmetry_equiv_pos_as_xyz
  1  'x, y, z'
loop_
 _atom_site_type_symbol
 _atom_site_label
 _atom_site_symmetry_multiplicity
 _atom_site_fract_x
 _atom_site_fract_y
 _atom_site_fract_z
 _atom_site_occupancy
  Sc  Sc0  1  0.000000  0.879247  0.326957  1
  Sc  Sc1  1  0.000000  0.120753  0.673043  1
  Sc  Sc2  1  0.000000  0.378498  0.167292  1
  Sc  Sc3  1  0.000000  0.621502  0.832708  1
  Co  Co4  1  0.000000  0.000000  0.000000  1
  Si  Si5  1  0.500000  0.566836  0.354432  1
  Si  Si6  1  0.500000  0.433164  0.645568  1
  Si  Si7  1  0.500000  0.067310  0.142887  1
  Si  Si8  1  0.500000  0.932690  0.857113  1
  Ni  Ni9  1  0.000000  0.500000  0.500000  1
  Pt  Pt10  1  0.500000  0.691509  0.085739  1
  Pt  Pt11  1  0.500000  0.308491  0.914261  1
  Pt  Pt12  1  0.500000  0.191398  0.415229  1
  Pt  Pt13  1  0.500000  0.808602  0.584771  1
