# generated using pymatgen
data_V8Zn11Ni(TeO10)4
_symmetry_space_group_name_H-M   'P 1'
_cell_length_a   30.71158723
_cell_length_b   5.36157505
_cell_length_c   5.63325032
_cell_angle_alpha   81.66511264
_cell_angle_beta   89.98943509
_cell_angle_gamma   90.21636453
_symmetry_Int_Tables_number   1
_chemical_formula_structural   V8Zn11Ni(TeO10)4
_chemical_formula_sum   'V8 Zn11 Ni1 Te4 O40'
_cell_volume   917.78074726
_cell_formula_units_Z   1
loop_
 _symmetry_equiv_pos_site_id
 _symmetry_equiv_pos_as_xyz
  1  'x, y, z'
loop_
 _atom_site_type_symbol
 _atom_site_label
 _atom_site_symmetry_multiplicity
 _atom_site_fract_x
 _atom_site_fract_y
 _atom_site_fract_z
 _atom_site_occupancy
  V  V0  1  0.444458  0.753243  0.219922  1
  V  V1  1  0.205005  0.930869  0.724915  1
  V  V2  1  0.055207  0.749807  0.717901  1
  V  V3  1  0.796696  0.074566  0.280117  1
  V  V4  1  0.294353  0.931312  0.223461  1
  V  V5  1  0.705583  0.070535  0.775715  1
  V  V6  1  0.555775  0.246638  0.779730  1
  V  V7  1  0.942774  0.240845  0.282605  1
  Zn  Zn8  1  0.056767  0.301964  0.359280  1
  Zn  Zn9  1  0.129019  0.778657  0.264934  1
  Zn  Zn10  1  0.727233  0.581681  0.272729  1
  Zn  Zn11  1  0.629366  0.221931  0.234697  1
  Zn  Zn12  1  0.941656  0.687746  0.635345  1
  Zn  Zn13  1  0.441945  0.304065  0.861418  1
  Zn  Zn14  1  0.558185  0.695886  0.138067  1
  Zn  Zn15  1  0.272802  0.423804  0.720544  1
  Zn  Zn16  1  0.226526  0.421452  0.220768  1
  Zn  Zn17  1  0.773673  0.584781  0.769905  1
  Zn  Zn18  1  0.370636  0.778440  0.766288  1
  Ni  Ni19  1  0.870946  0.219440  0.758244  1
  Te  Te20  1  0.130237  0.326659  0.930988  1
  Te  Te21  1  0.869405  0.677049  0.065058  1
  Te  Te22  1  0.369096  0.327473  0.431463  1
  Te  Te23  1  0.631184  0.673001  0.567681  1
  O  O24  1  0.902819  0.879387  0.826117  1
  O  O25  1  0.001411  0.678351  0.735419  1
  O  O26  1  0.599574  0.882813  0.325611  1
  O  O27  1  0.565680  0.929441  0.828818  1
  O  O28  1  0.762368  0.313879  0.154645  1
  O  O29  1  0.268655  0.203695  0.066707  1
  O  O30  1  0.498411  0.687199  0.237282  1
  O  O31  1  0.664740  0.515715  0.340489  1
  O  O32  1  0.831893  0.173438  0.475957  1
  O  O33  1  0.829272  0.993032  0.029025  1
  O  O34  1  0.996584  0.315433  0.263546  1
  O  O35  1  0.163914  0.485512  0.157291  1
  O  O36  1  0.918750  0.378599  0.518186  1
  O  O37  1  0.230749  0.203638  0.567071  1
  O  O38  1  0.668761  0.178862  0.958613  1
  O  O39  1  0.084573  0.606731  0.984618  1
  O  O40  1  0.415197  0.608170  0.486465  1
  O  O41  1  0.239559  0.691888  0.852327  1
  O  O42  1  0.331424  0.819881  0.043652  1
  O  O43  1  0.912440  0.377723  0.015356  1
  O  O44  1  0.324837  0.031757  0.469282  1
  O  O45  1  0.420462  0.612694  0.985171  1
  O  O46  1  0.731863  0.798220  0.929001  1
  O  O47  1  0.079166  0.610290  0.483124  1
  O  O48  1  0.174407  0.030623  0.970363  1
  O  O49  1  0.259998  0.690543  0.352246  1
  O  O50  1  0.770168  0.797243  0.423430  1
  O  O51  1  0.064623  0.068055  0.668243  1
  O  O52  1  0.675175  0.970523  0.529267  1
  O  O53  1  0.835763  0.532035  0.830676  1
  O  O54  1  0.585265  0.391202  0.513326  1
  O  O55  1  0.739765  0.312038  0.650480  1
  O  O56  1  0.579716  0.387254  0.014532  1
  O  O57  1  0.168092  0.818144  0.544497  1
  O  O58  1  0.434549  0.070549  0.170917  1
  O  O59  1  0.335622  0.485997  0.657951  1
  O  O60  1  0.934324  0.922337  0.327886  1
  O  O61  1  0.501806  0.312536  0.762467  1
  O  O62  1  0.098631  0.115740  0.173768  1
  O  O63  1  0.400464  0.116990  0.674401  1
