# generated using pymatgen
data_Re(S8O)3
_symmetry_space_group_name_H-M   'P 1'
_cell_length_a   14.88032096
_cell_length_b   14.88024689
_cell_length_c   14.88046173
_cell_angle_alpha   118.72283787
_cell_angle_beta   118.72320548
_cell_angle_gamma   118.72498191
_symmetry_Int_Tables_number   1
_chemical_formula_structural   Re(S8O)3
_chemical_formula_sum   'Re1 S24 O3'
_cell_volume   961.27152174
_cell_formula_units_Z   1
loop_
 _symmetry_equiv_pos_site_id
 _symmetry_equiv_pos_as_xyz
  1  'x, y, z'
loop_
 _atom_site_type_symbol
 _atom_site_label
 _atom_site_symmetry_multiplicity
 _atom_site_fract_x
 _atom_site_fract_y
 _atom_site_fract_z
 _atom_site_occupancy
  Re  Re0  1  0.004270  0.004266  0.004256  1
  S  S1  1  0.804236  0.525453  0.525451  1
  S  S2  1  0.525469  0.525469  0.804253  1
  S  S3  1  0.525452  0.804235  0.525450  1
  S  S4  1  0.246474  0.377977  0.634603  1
  S  S5  1  0.349518  0.951587  0.349515  1
  S  S6  1  0.349499  0.349499  0.951569  1
  S  S7  1  0.951589  0.349519  0.349517  1
  S  S8  1  0.122526  0.736899  0.253377  1
  S  S9  1  0.253368  0.122519  0.736898  1
  S  S10  1  0.736909  0.253383  0.122539  1
  S  S11  1  0.736899  0.122526  0.253377  1
  S  S12  1  0.253383  0.736909  0.122538  1
  S  S13  1  0.122520  0.253368  0.736898  1
  S  S14  1  0.350195  0.883091  0.534672  1
  S  S15  1  0.534678  0.350195  0.883091  1
  S  S16  1  0.883106  0.534688  0.350207  1
  S  S17  1  0.883091  0.350195  0.534671  1
  S  S18  1  0.534687  0.883104  0.350206  1
  S  S19  1  0.350196  0.534679  0.883092  1
  S  S20  1  0.246459  0.634584  0.377964  1
  S  S21  1  0.377975  0.246472  0.634600  1
  S  S22  1  0.634595  0.377971  0.246472  1
  S  S23  1  0.634585  0.246460  0.377965  1
  S  S24  1  0.377971  0.634594  0.246471  1
  O  O25  1  0.837012  0.949307  0.949307  1
  O  O26  1  0.949318  0.949319  0.837019  1
  O  O27  1  0.949315  0.837028  0.949315  1
