# generated using pymatgen
data_NdMnOs2C
_symmetry_space_group_name_H-M   'P 1'
_cell_length_a   5.81711513
_cell_length_b   5.81711642
_cell_length_c   7.40842700
_cell_angle_alpha   90.00000000
_cell_angle_beta   90.00000000
_cell_angle_gamma   140.53029794
_symmetry_Int_Tables_number   1
_chemical_formula_structural   NdMnOs2C
_chemical_formula_sum   'Nd2 Mn2 Os4 C2'
_cell_volume   159.35775502
_cell_formula_units_Z   2
loop_
 _symmetry_equiv_pos_site_id
 _symmetry_equiv_pos_as_xyz
  1  'x, y, z'
loop_
 _atom_site_type_symbol
 _atom_site_label
 _atom_site_symmetry_multiplicity
 _atom_site_fract_x
 _atom_site_fract_y
 _atom_site_fract_z
 _atom_site_occupancy
  Nd  Nd0  1  0.540694  0.459306  0.250000  1
  Nd  Nd1  1  0.459306  0.540694  0.750000  1
  Mn  Mn2  1  0.269367  0.730633  0.250000  1
  Mn  Mn3  1  0.730633  0.269367  0.750000  1
  Os  Os4  1  0.829899  0.170101  0.059597  1
  Os  Os5  1  0.170101  0.829899  0.940403  1
  Os  Os6  1  0.170101  0.829899  0.559597  1
  Os  Os7  1  0.829899  0.170101  0.440403  1
  C  C8  1  0.000000  0.000000  0.000000  1
  C  C9  1  0.000000  0.000000  0.500000  1
