# generated using pymatgen
data_PrNd7(Si3Pt)4
_symmetry_space_group_name_H-M   'P 1'
_cell_length_a   8.23715238
_cell_length_b   8.23715221
_cell_length_c   8.63823900
_cell_angle_alpha   90.00000000
_cell_angle_beta   90.00000000
_cell_angle_gamma   119.99339823
_symmetry_Int_Tables_number   1
_chemical_formula_structural   PrNd7(Si3Pt)4
_chemical_formula_sum   'Pr1 Nd7 Si12 Pt4'
_cell_volume   507.62023534
_cell_formula_units_Z   1
loop_
 _symmetry_equiv_pos_site_id
 _symmetry_equiv_pos_as_xyz
  1  'x, y, z'
loop_
 _atom_site_type_symbol
 _atom_site_label
 _atom_site_symmetry_multiplicity
 _atom_site_fract_x
 _atom_site_fract_y
 _atom_site_fract_z
 _atom_site_occupancy
  Pr  Pr0  1  0.499295  0.500705  0.750000  1
  Nd  Nd1  1  0.500680  0.499320  0.250000  1
  Nd  Nd2  1  0.001246  0.500635  0.750000  1
  Nd  Nd3  1  0.998661  0.499328  0.250000  1
  Nd  Nd4  1  0.499365  0.998754  0.750000  1
  Nd  Nd5  1  0.500672  0.001339  0.250000  1
  Nd  Nd6  1  0.000015  0.999985  0.750000  1
  Nd  Nd7  1  0.000004  0.999996  0.250000  1
  Si  Si8  1  0.834079  0.165921  0.999111  1
  Si  Si9  1  0.165936  0.834064  0.000765  1
  Si  Si10  1  0.331863  0.165709  0.999659  1
  Si  Si11  1  0.165936  0.834064  0.499235  1
  Si  Si12  1  0.668142  0.834280  0.001355  1
  Si  Si13  1  0.834079  0.165921  0.500889  1
  Si  Si14  1  0.834291  0.668137  0.999659  1
  Si  Si15  1  0.668142  0.834280  0.498645  1
  Si  Si16  1  0.165720  0.331858  0.001355  1
  Si  Si17  1  0.331863  0.165709  0.500341  1
  Si  Si18  1  0.165720  0.331858  0.498645  1
  Si  Si19  1  0.834291  0.668137  0.500341  1
  Pt  Pt20  1  0.666839  0.333161  0.999526  1
  Pt  Pt21  1  0.333161  0.666839  0.002269  1
  Pt  Pt22  1  0.333161  0.666839  0.497731  1
  Pt  Pt23  1  0.666839  0.333161  0.500474  1
