# generated using pymatgen
data_LiDy2Er4Co17P12
_symmetry_space_group_name_H-M   'P 1'
_cell_length_a   3.69983800
_cell_length_b   10.53053200
_cell_length_c   12.16316100
_cell_angle_alpha   90.00000000
_cell_angle_beta   90.00000000
_cell_angle_gamma   90.00000000
_symmetry_Int_Tables_number   1
_chemical_formula_structural   LiDy2Er4Co17P12
_chemical_formula_sum   'Li1 Dy2 Er4 Co17 P12'
_cell_volume   473.89210799
_cell_formula_units_Z   1
loop_
 _symmetry_equiv_pos_site_id
 _symmetry_equiv_pos_as_xyz
  1  'x, y, z'
loop_
 _atom_site_type_symbol
 _atom_site_label
 _atom_site_symmetry_multiplicity
 _atom_site_fract_x
 _atom_site_fract_y
 _atom_site_fract_z
 _atom_site_occupancy
  Li  Li0  1  0.250000  0.250000  0.848509  1
  Dy  Dy1  1  0.750000  0.250000  0.477237  1
  Dy  Dy2  1  0.250000  0.750000  0.521792  1
  Er  Er3  1  0.250000  0.930409  0.793602  1
  Er  Er4  1  0.250000  0.569591  0.793602  1
  Er  Er5  1  0.750000  0.067973  0.205513  1
  Er  Er6  1  0.750000  0.432027  0.205513  1
  Co  Co7  1  0.750000  0.750000  0.159536  1
  Co  Co8  1  0.250000  0.250000  0.294915  1
  Co  Co9  1  0.750000  0.750000  0.704084  1
  Co  Co10  1  0.750000  0.250000  0.013843  1
  Co  Co11  1  0.250000  0.750000  0.987884  1
  Co  Co12  1  0.250000  0.419250  0.004946  1
  Co  Co13  1  0.250000  0.080750  0.004946  1
  Co  Co14  1  0.750000  0.585029  0.996821  1
  Co  Co15  1  0.750000  0.914971  0.996821  1
  Co  Co16  1  0.250000  0.453758  0.568142  1
  Co  Co17  1  0.250000  0.046242  0.568142  1
  Co  Co18  1  0.750000  0.547508  0.429405  1
  Co  Co19  1  0.750000  0.952492  0.429405  1
  Co  Co20  1  0.250000  0.870627  0.290369  1
  Co  Co21  1  0.250000  0.629373  0.290369  1
  Co  Co22  1  0.750000  0.127417  0.707682  1
  Co  Co23  1  0.750000  0.372583  0.707682  1
  P  P24  1  0.250000  0.250000  0.115676  1
  P  P25  1  0.750000  0.750000  0.883108  1
  P  P26  1  0.250000  0.250000  0.654877  1
  P  P27  1  0.750000  0.750000  0.344079  1
  P  P28  1  0.250000  0.439758  0.382563  1
  P  P29  1  0.250000  0.060242  0.382563  1
  P  P30  1  0.750000  0.560476  0.615458  1
  P  P31  1  0.750000  0.939524  0.615458  1
  P  P32  1  0.250000  0.902793  0.108575  1
  P  P33  1  0.250000  0.597207  0.108575  1
  P  P34  1  0.750000  0.092223  0.894153  1
  P  P35  1  0.750000  0.407777  0.894153  1
