# generated using pymatgen
data_Pr5Nd3Sc12Si15Pb
_symmetry_space_group_name_H-M   'P 1'
_cell_length_a   7.29158520
_cell_length_b   7.56435461
_cell_length_c   14.32803327
_cell_angle_alpha   89.95865586
_cell_angle_beta   89.58848883
_cell_angle_gamma   90.16180830
_symmetry_Int_Tables_number   1
_chemical_formula_structural   Pr5Nd3Sc12Si15Pb
_chemical_formula_sum   'Pr5 Nd3 Sc12 Si15 Pb1'
_cell_volume   790.25520114
_cell_formula_units_Z   1
loop_
 _symmetry_equiv_pos_site_id
 _symmetry_equiv_pos_as_xyz
  1  'x, y, z'
loop_
 _atom_site_type_symbol
 _atom_site_label
 _atom_site_symmetry_multiplicity
 _atom_site_fract_x
 _atom_site_fract_y
 _atom_site_fract_z
 _atom_site_occupancy
  Pr  Pr0  1  0.501772  0.681699  0.601227  1
  Pr  Pr1  1  0.987952  0.835738  0.598864  1
  Pr  Pr2  1  0.987477  0.828019  0.903092  1
  Pr  Pr3  1  0.511736  0.327800  0.097567  1
  Pr  Pr4  1  0.012950  0.172976  0.097886  1
  Nd  Nd5  1  0.006510  0.166290  0.396874  1
  Nd  Nd6  1  0.513589  0.322939  0.396964  1
  Nd  Nd7  1  0.488706  0.672984  0.902614  1
  Sc  Sc8  1  0.345153  0.161696  0.631455  1
  Sc  Sc9  1  0.663254  0.825176  0.372545  1
  Sc  Sc10  1  0.662045  0.002420  0.752590  1
  Sc  Sc11  1  0.165724  0.682148  0.369380  1
  Sc  Sc12  1  0.830733  0.324326  0.876306  1
  Sc  Sc13  1  0.818148  0.323944  0.626405  1
  Sc  Sc14  1  0.839015  0.502235  0.249305  1
  Sc  Sc15  1  0.339978  0.997246  0.249074  1
  Sc  Sc16  1  0.329002  0.174829  0.875722  1
  Sc  Sc17  1  0.169319  0.675677  0.125186  1
  Sc  Sc18  1  0.669726  0.823381  0.124310  1
  Sc  Sc19  1  0.160846  0.498890  0.757053  1
  Si  Si20  1  0.288760  0.879297  0.752614  1
  Si  Si21  1  0.464020  0.624748  0.248612  1
  Si  Si22  1  0.035214  0.129502  0.751004  1
  Si  Si23  1  0.534174  0.376174  0.752677  1
  Si  Si24  1  0.962348  0.875149  0.247494  1
  Si  Si25  1  0.709899  0.115904  0.247998  1
  Si  Si26  1  0.848823  0.536455  0.040169  1
  Si  Si27  1  0.348857  0.962236  0.039604  1
  Si  Si28  1  0.152392  0.464106  0.961127  1
  Si  Si29  1  0.654720  0.041201  0.537038  1
  Si  Si30  1  0.344545  0.963003  0.459426  1
  Si  Si31  1  0.832350  0.541500  0.456337  1
  Si  Si32  1  0.792359  0.617055  0.751878  1
  Si  Si33  1  0.209750  0.382948  0.249642  1
  Si  Si34  1  0.649853  0.036312  0.960513  1
  Pb  Pb35  1  0.168298  0.454002  0.539448  1
