# generated using pymatgen
data_Rb3Tm(Si2O5)3
_symmetry_space_group_name_H-M   'P 1'
_cell_length_a   7.38990200
_cell_length_b   14.81145300
_cell_length_c   16.03808200
_cell_angle_alpha   90.00000000
_cell_angle_beta   90.00000000
_cell_angle_gamma   90.00000000
_symmetry_Int_Tables_number   1
_chemical_formula_structural   Rb3Tm(Si2O5)3
_chemical_formula_sum   'Rb12 Tm4 Si24 O60'
_cell_volume   1755.45125076
_cell_formula_units_Z   4
loop_
 _symmetry_equiv_pos_site_id
 _symmetry_equiv_pos_as_xyz
  1  'x, y, z'
loop_
 _atom_site_type_symbol
 _atom_site_label
 _atom_site_symmetry_multiplicity
 _atom_site_fract_x
 _atom_site_fract_y
 _atom_site_fract_z
 _atom_site_occupancy
  Rb  Rb0  1  0.500000  0.543960  0.378862  1
  Rb  Rb1  1  0.500000  0.596424  0.930040  1
  Rb  Rb2  1  0.500000  0.403576  0.069960  1
  Rb  Rb3  1  0.500000  0.096424  0.569960  1
  Rb  Rb4  1  0.000000  0.615754  0.711861  1
  Rb  Rb5  1  0.000000  0.384246  0.288139  1
  Rb  Rb6  1  0.000000  0.115754  0.788139  1
  Rb  Rb7  1  0.000000  0.884246  0.211861  1
  Rb  Rb8  1  0.500000  0.903576  0.430040  1
  Rb  Rb9  1  0.500000  0.043960  0.121138  1
  Rb  Rb10  1  0.500000  0.456040  0.621138  1
  Rb  Rb11  1  0.500000  0.956040  0.878862  1
  Tm  Tm12  1  0.000000  0.500000  0.000000  1
  Tm  Tm13  1  0.000000  0.000000  0.500000  1
  Tm  Tm14  1  0.000000  0.500000  0.500000  1
  Tm  Tm15  1  0.000000  0.000000  0.000000  1
  Si  Si16  1  0.717570  0.196710  0.961047  1
  Si  Si17  1  0.717570  0.803290  0.038953  1
  Si  Si18  1  0.282430  0.696710  0.538953  1
  Si  Si19  1  0.282430  0.303290  0.461046  1
  Si  Si20  1  0.282430  0.803290  0.038953  1
  Si  Si21  1  0.282430  0.196710  0.961047  1
  Si  Si22  1  0.717570  0.303290  0.461046  1
  Si  Si23  1  0.717570  0.696710  0.538953  1
  Si  Si24  1  0.000000  0.783186  0.413023  1
  Si  Si25  1  0.000000  0.216814  0.586977  1
  Si  Si26  1  0.000000  0.283186  0.086977  1
  Si  Si27  1  0.000000  0.716814  0.913023  1
  Si  Si28  1  0.716380  0.366842  0.854376  1
  Si  Si29  1  0.716380  0.633158  0.145624  1
  Si  Si30  1  0.283620  0.866842  0.645624  1
  Si  Si31  1  0.000000  0.873629  0.793363  1
  Si  Si32  1  0.283620  0.133158  0.354376  1
  Si  Si33  1  0.000000  0.126371  0.206637  1
  Si  Si34  1  0.283620  0.366842  0.854376  1
  Si  Si35  1  0.716380  0.133158  0.354376  1
  Si  Si36  1  0.283620  0.633158  0.145624  1
  Si  Si37  1  0.000000  0.626371  0.293363  1
  Si  Si38  1  0.000000  0.373629  0.706637  1
  Si  Si39  1  0.716380  0.866842  0.645624  1
  O  O40  1  0.753697  0.257707  0.875686  1
  O  O41  1  0.500000  0.795550  0.014957  1
  O  O42  1  0.500000  0.204450  0.985043  1
  O  O43  1  0.500000  0.295550  0.485043  1
  O  O44  1  0.500000  0.704450  0.514957  1
  O  O45  1  0.780868  0.093727  0.949879  1
  O  O46  1  0.780868  0.906273  0.050121  1
  O  O47  1  0.219132  0.593727  0.550121  1
  O  O48  1  0.219132  0.406273  0.449879  1
  O  O49  1  0.219132  0.906273  0.050121  1
  O  O50  1  0.219132  0.093727  0.949879  1
  O  O51  1  0.780868  0.406273  0.449879  1
  O  O52  1  0.780868  0.593727  0.550121  1
  O  O53  1  0.753697  0.742293  0.124314  1
  O  O54  1  0.246303  0.757707  0.624314  1
  O  O55  1  0.246303  0.242293  0.375686  1
  O  O56  1  0.246303  0.742293  0.124314  1
  O  O57  1  0.500000  0.621689  0.170144  1
  O  O58  1  0.753697  0.242293  0.375686  1
  O  O59  1  0.753697  0.757707  0.624314  1
  O  O60  1  0.772203  0.432184  0.929530  1
  O  O61  1  0.772203  0.567816  0.070470  1
  O  O62  1  0.227797  0.932184  0.570470  1
  O  O63  1  0.227797  0.067816  0.429530  1
  O  O64  1  0.227797  0.567816  0.070470  1
  O  O65  1  0.246303  0.257707  0.875686  1
  O  O66  1  0.772203  0.067816  0.429530  1
  O  O67  1  0.772203  0.932184  0.570470  1
  O  O68  1  0.814898  0.753265  0.959473  1
  O  O69  1  0.814898  0.246735  0.040527  1
  O  O70  1  0.185102  0.253265  0.540527  1
  O  O71  1  0.185102  0.746735  0.459473  1
  O  O72  1  0.185102  0.246735  0.040527  1
  O  O73  1  0.185102  0.753265  0.959473  1
  O  O74  1  0.814898  0.746735  0.459473  1
  O  O75  1  0.814898  0.253265  0.540527  1
  O  O76  1  0.000000  0.609742  0.902823  1
  O  O77  1  0.000000  0.390258  0.097177  1
  O  O78  1  0.000000  0.109742  0.597177  1
  O  O79  1  0.000000  0.890258  0.402823  1
  O  O80  1  0.000000  0.765674  0.819766  1
  O  O81  1  0.000000  0.234326  0.180234  1
  O  O82  1  0.000000  0.265674  0.680234  1
  O  O83  1  0.000000  0.734326  0.319766  1
  O  O84  1  0.000000  0.940191  0.872081  1
  O  O85  1  0.000000  0.059809  0.127919  1
  O  O86  1  0.000000  0.440191  0.627919  1
  O  O87  1  0.000000  0.559809  0.372081  1
  O  O88  1  0.818466  0.890263  0.734877  1
  O  O89  1  0.818466  0.109737  0.265123  1
  O  O90  1  0.181534  0.390263  0.765123  1
  O  O91  1  0.181534  0.609737  0.234877  1
  O  O92  1  0.181534  0.109737  0.265123  1
  O  O93  1  0.181534  0.890263  0.734877  1
  O  O94  1  0.818466  0.609737  0.234877  1
  O  O95  1  0.818466  0.390263  0.765123  1
  O  O96  1  0.500000  0.878311  0.670144  1
  O  O97  1  0.500000  0.121689  0.329856  1
  O  O98  1  0.500000  0.378311  0.829856  1
  O  O99  1  0.227797  0.432184  0.929530  1
