# generated using pymatgen
data_HoLu7Ga3Ni
_symmetry_space_group_name_H-M   'P 1'
_cell_length_a   9.89134600
_cell_length_b   9.89134557
_cell_length_c   6.73793200
_cell_angle_alpha   90.00000000
_cell_angle_beta   90.00000000
_cell_angle_gamma   119.99999473
_symmetry_Int_Tables_number   1
_chemical_formula_structural   HoLu7Ga3Ni
_chemical_formula_sum   'Ho2 Lu14 Ga6 Ni2'
_cell_volume   570.91052218
_cell_formula_units_Z   2
loop_
 _symmetry_equiv_pos_site_id
 _symmetry_equiv_pos_as_xyz
  1  'x, y, z'
loop_
 _atom_site_type_symbol
 _atom_site_label
 _atom_site_symmetry_multiplicity
 _atom_site_fract_x
 _atom_site_fract_y
 _atom_site_fract_z
 _atom_site_occupancy
  Ho  Ho0  1  0.000000  0.000000  0.235559  1
  Ho  Ho1  1  0.000000  0.000000  0.735559  1
  Lu  Lu2  1  0.173240  0.826760  0.508893  1
  Lu  Lu3  1  0.653520  0.826760  0.508893  1
  Lu  Lu4  1  0.173240  0.346480  0.508893  1
  Lu  Lu5  1  0.826760  0.173240  0.008893  1
  Lu  Lu6  1  0.346480  0.173240  0.008893  1
  Lu  Lu7  1  0.826760  0.653520  0.008893  1
  Lu  Lu8  1  0.333333  0.666667  0.829927  1
  Lu  Lu9  1  0.666667  0.333333  0.329927  1
  Lu  Lu10  1  0.465723  0.534277  0.203538  1
  Lu  Lu11  1  0.068555  0.534277  0.203538  1
  Lu  Lu12  1  0.465723  0.931445  0.203538  1
  Lu  Lu13  1  0.534277  0.465723  0.703538  1
  Lu  Lu14  1  0.931445  0.465723  0.703538  1
  Lu  Lu15  1  0.534277  0.068555  0.703538  1
  Ga  Ga16  1  0.163769  0.836231  0.963773  1
  Ga  Ga17  1  0.672462  0.836231  0.963773  1
  Ga  Ga18  1  0.163769  0.327538  0.963773  1
  Ga  Ga19  1  0.836231  0.163769  0.463773  1
  Ga  Ga20  1  0.327538  0.163769  0.463773  1
  Ga  Ga21  1  0.836231  0.672462  0.463773  1
  Ni  Ni22  1  0.333333  0.666667  0.443320  1
  Ni  Ni23  1  0.666667  0.333333  0.943320  1
