# generated using pymatgen
data_SmCd2Cu9
_symmetry_space_group_name_H-M   'P 1'
_cell_length_a   5.09467000
_cell_length_b   5.09467117
_cell_length_c   15.87788700
_cell_angle_alpha   90.00000000
_cell_angle_beta   90.00000000
_cell_angle_gamma   119.99999237
_symmetry_Int_Tables_number   1
_chemical_formula_structural   SmCd2Cu9
_chemical_formula_sum   'Sm2 Cd4 Cu18'
_cell_volume   356.90742986
_cell_formula_units_Z   2
loop_
 _symmetry_equiv_pos_site_id
 _symmetry_equiv_pos_as_xyz
  1  'x, y, z'
loop_
 _atom_site_type_symbol
 _atom_site_label
 _atom_site_symmetry_multiplicity
 _atom_site_fract_x
 _atom_site_fract_y
 _atom_site_fract_z
 _atom_site_occupancy
  Sm  Sm0  1  0.666667  0.333333  0.250000  1
  Sm  Sm1  1  0.333333  0.666667  0.750000  1
  Cd  Cd2  1  0.666667  0.333333  0.465085  1
  Cd  Cd3  1  0.333333  0.666667  0.965085  1
  Cd  Cd4  1  0.666667  0.333333  0.034915  1
  Cd  Cd5  1  0.333333  0.666667  0.534915  1
  Cu  Cu6  1  0.333333  0.666667  0.250000  1
  Cu  Cu7  1  0.666667  0.333333  0.750000  1
  Cu  Cu8  1  0.168229  0.831771  0.376357  1
  Cu  Cu9  1  0.168229  0.336457  0.376357  1
  Cu  Cu10  1  0.000000  0.000000  0.750000  1
  Cu  Cu11  1  0.000000  0.000000  0.250000  1
  Cu  Cu12  1  0.000000  0.000000  0.000000  1
  Cu  Cu13  1  0.000000  0.000000  0.500000  1
  Cu  Cu14  1  0.168229  0.336457  0.123643  1
  Cu  Cu15  1  0.831771  0.168229  0.623643  1
  Cu  Cu16  1  0.336457  0.168229  0.623643  1
  Cu  Cu17  1  0.663543  0.831771  0.123643  1
  Cu  Cu18  1  0.168229  0.831771  0.123643  1
  Cu  Cu19  1  0.831771  0.663543  0.876357  1
  Cu  Cu20  1  0.831771  0.168229  0.876357  1
  Cu  Cu21  1  0.831771  0.663543  0.623643  1
  Cu  Cu22  1  0.336457  0.168229  0.876357  1
  Cu  Cu23  1  0.663543  0.831771  0.376357  1
