# generated using pymatgen
data_Fe7Co5(W6C)2
_symmetry_space_group_name_H-M   'P 1'
_cell_length_a   7.70461031
_cell_length_b   7.70461086
_cell_length_c   7.70461033
_cell_angle_alpha   60.04324762
_cell_angle_beta   60.04325868
_cell_angle_gamma   60.04324321
_symmetry_Int_Tables_number   1
_chemical_formula_structural   Fe7Co5(W6C)2
_chemical_formula_sum   'Fe7 Co5 W12 C2'
_cell_volume   323.71483581
_cell_formula_units_Z   1
loop_
 _symmetry_equiv_pos_site_id
 _symmetry_equiv_pos_as_xyz
  1  'x, y, z'
loop_
 _atom_site_type_symbol
 _atom_site_label
 _atom_site_symmetry_multiplicity
 _atom_site_fract_x
 _atom_site_fract_y
 _atom_site_fract_z
 _atom_site_occupancy
  Fe  Fe0  1  0.422285  0.422285  0.732393  1
  Fe  Fe1  1  0.422285  0.732393  0.422285  1
  Fe  Fe2  1  0.732393  0.422285  0.422285  1
  Fe  Fe3  1  0.626217  0.626217  0.124769  1
  Fe  Fe4  1  0.626217  0.124769  0.626217  1
  Fe  Fe5  1  0.124769  0.626217  0.626217  1
  Fe  Fe6  1  0.624968  0.624968  0.624968  1
  Co  Co7  1  0.419540  0.419540  0.419540  1
  Co  Co8  1  0.831901  0.831901  0.504360  1
  Co  Co9  1  0.831901  0.504360  0.831901  1
  Co  Co10  1  0.504360  0.831901  0.831901  1
  Co  Co11  1  0.832015  0.832015  0.832015  1
  W  W12  1  0.052162  0.052162  0.447657  1
  W  W13  1  0.448567  0.050735  0.448567  1
  W  W14  1  0.050735  0.448567  0.448567  1
  W  W15  1  0.448567  0.448567  0.050735  1
  W  W16  1  0.052162  0.447657  0.052162  1
  W  W17  1  0.447657  0.052162  0.052162  1
  W  W18  1  0.198423  0.198423  0.801809  1
  W  W19  1  0.802006  0.198157  0.802006  1
  W  W20  1  0.198157  0.802006  0.802006  1
  W  W21  1  0.802006  0.802006  0.198157  1
  W  W22  1  0.198423  0.801809  0.198423  1
  W  W23  1  0.801809  0.198423  0.198423  1
  C  C24  1  0.250210  0.250210  0.250210  1
  C  C25  1  0.000272  0.000272  0.000272  1
