# generated using pymatgen
data_Nd4Si4SnRh9
_symmetry_space_group_name_H-M   'P 1'
_cell_length_a   12.07336262
_cell_length_b   12.07336260
_cell_length_c   12.07336321
_cell_angle_alpha   27.08949148
_cell_angle_beta   27.08948870
_cell_angle_gamma   27.08949808
_symmetry_Int_Tables_number   1
_chemical_formula_structural   Nd4Si4SnRh9
_chemical_formula_sum   'Nd4 Si4 Sn1 Rh9'
_cell_volume   321.93974561
_cell_formula_units_Z   1
loop_
 _symmetry_equiv_pos_site_id
 _symmetry_equiv_pos_as_xyz
  1  'x, y, z'
loop_
 _atom_site_type_symbol
 _atom_site_label
 _atom_site_symmetry_multiplicity
 _atom_site_fract_x
 _atom_site_fract_y
 _atom_site_fract_z
 _atom_site_occupancy
  Nd  Nd0  1  0.949059  0.949059  0.949059  1
  Nd  Nd1  1  0.852608  0.852608  0.852608  1
  Nd  Nd2  1  0.147392  0.147392  0.147392  1
  Nd  Nd3  1  0.050941  0.050941  0.050941  1
  Si  Si4  1  0.280412  0.280412  0.280412  1
  Si  Si5  1  0.386337  0.386337  0.386337  1
  Si  Si6  1  0.719588  0.719588  0.719588  1
  Si  Si7  1  0.613663  0.613663  0.613663  1
  Sn  Sn8  1  0.500000  0.500000  0.500000  1
  Rh  Rh9  1  0.604835  0.604835  0.100156  1
  Rh  Rh10  1  0.899844  0.395165  0.395165  1
  Rh  Rh11  1  0.500000  0.000000  0.500000  1
  Rh  Rh12  1  0.395165  0.899844  0.395165  1
  Rh  Rh13  1  0.500000  0.500000  0.000000  1
  Rh  Rh14  1  0.100156  0.604835  0.604835  1
  Rh  Rh15  1  0.000000  0.500000  0.500000  1
  Rh  Rh16  1  0.395165  0.395165  0.899844  1
  Rh  Rh17  1  0.604835  0.100156  0.604835  1
