# generated using pymatgen
data_Tb2Dy2GaRu7
_symmetry_space_group_name_H-M   'P 1'
_cell_length_a   5.37307865
_cell_length_b   5.37307884
_cell_length_c   8.67949756
_cell_angle_alpha   89.96712055
_cell_angle_beta   90.03287830
_cell_angle_gamma   120.00769732
_symmetry_Int_Tables_number   1
_chemical_formula_structural   Tb2Dy2GaRu7
_chemical_formula_sum   'Tb2 Dy2 Ga1 Ru7'
_cell_volume   216.98906165
_cell_formula_units_Z   1
loop_
 _symmetry_equiv_pos_site_id
 _symmetry_equiv_pos_as_xyz
  1  'x, y, z'
loop_
 _atom_site_type_symbol
 _atom_site_label
 _atom_site_symmetry_multiplicity
 _atom_site_fract_x
 _atom_site_fract_y
 _atom_site_fract_z
 _atom_site_occupancy
  Tb  Tb0  1  0.666655  0.333345  0.570972  1
  Tb  Tb1  1  0.333345  0.666655  0.429028  1
  Dy  Dy2  1  0.333133  0.666867  0.064448  1
  Dy  Dy3  1  0.666867  0.333133  0.935552  1
  Ga  Ga4  1  0.000000  0.000000  0.500000  1
  Ru  Ru5  1  0.000000  0.000000  0.000000  1
  Ru  Ru6  1  0.170910  0.342468  0.750404  1
  Ru  Ru7  1  0.171250  0.828750  0.750216  1
  Ru  Ru8  1  0.657532  0.829090  0.750404  1
  Ru  Ru9  1  0.829090  0.657532  0.249596  1
  Ru  Ru10  1  0.828750  0.171250  0.249784  1
  Ru  Ru11  1  0.342468  0.170910  0.249596  1
