# generated using pymatgen
data_PrEr7Sc12Si15Ru
_symmetry_space_group_name_H-M   'P 1'
_cell_length_a   7.07044718
_cell_length_b   7.44304070
_cell_length_c   13.93825309
_cell_angle_alpha   90.11424238
_cell_angle_beta   90.04608368
_cell_angle_gamma   90.26689254
_symmetry_Int_Tables_number   1
_chemical_formula_structural   PrEr7Sc12Si15Ru
_chemical_formula_sum   'Pr1 Er7 Sc12 Si15 Ru1'
_cell_volume   733.49963749
_cell_formula_units_Z   1
loop_
 _symmetry_equiv_pos_site_id
 _symmetry_equiv_pos_as_xyz
  1  'x, y, z'
loop_
 _atom_site_type_symbol
 _atom_site_label
 _atom_site_symmetry_multiplicity
 _atom_site_fract_x
 _atom_site_fract_y
 _atom_site_fract_z
 _atom_site_occupancy
  Pr  Pr0  1  0.010008  0.176678  0.093986  1
  Er  Er1  1  0.991157  0.826132  0.903763  1
  Er  Er2  1  0.490187  0.677528  0.903775  1
  Er  Er3  1  0.991273  0.826417  0.595587  1
  Er  Er4  1  0.510380  0.322827  0.095688  1
  Er  Er5  1  0.011406  0.179646  0.403830  1
  Er  Er6  1  0.510972  0.322221  0.404940  1
  Er  Er7  1  0.489359  0.677427  0.595555  1
  Sc  Sc8  1  0.158009  0.503204  0.750011  1
  Sc  Sc9  1  0.837884  0.495342  0.250623  1
  Sc  Sc10  1  0.339030  0.005499  0.250524  1
  Sc  Sc11  1  0.670259  0.997653  0.750060  1
  Sc  Sc12  1  0.316417  0.171677  0.627996  1
  Sc  Sc13  1  0.671118  0.825404  0.374597  1
  Sc  Sc14  1  0.171445  0.677507  0.374819  1
  Sc  Sc15  1  0.671285  0.824974  0.126227  1
  Sc  Sc16  1  0.837643  0.319659  0.627704  1
  Sc  Sc17  1  0.317498  0.171623  0.871315  1
  Sc  Sc18  1  0.836541  0.321029  0.871829  1
  Sc  Sc19  1  0.171513  0.677348  0.125935  1
  Si  Si20  1  0.968105  0.882343  0.251614  1
  Si  Si21  1  0.469626  0.612613  0.250405  1
  Si  Si22  1  0.529097  0.389792  0.749697  1
  Si  Si23  1  0.286433  0.865683  0.749655  1
  Si  Si24  1  0.709971  0.129855  0.252631  1
  Si  Si25  1  0.216873  0.372754  0.252374  1
  Si  Si26  1  0.779952  0.628290  0.749801  1
  Si  Si27  1  0.160651  0.468511  0.537442  1
  Si  Si28  1  0.843079  0.535385  0.461691  1
  Si  Si29  1  0.343344  0.966273  0.460423  1
  Si  Si30  1  0.841023  0.540163  0.036898  1
  Si  Si31  1  0.656469  0.034301  0.538962  1
  Si  Si32  1  0.161667  0.472988  0.960840  1
  Si  Si33  1  0.654945  0.033322  0.960090  1
  Si  Si34  1  0.348958  0.962866  0.038536  1
  Ru  Ru35  1  0.026423  0.105064  0.750178  1
