# generated using pymatgen
data_Pr3GeS2
_symmetry_space_group_name_H-M   'P 1'
_cell_length_a   7.27257290
_cell_length_b   7.27257326
_cell_length_c   7.27257285
_cell_angle_alpha   146.38749400
_cell_angle_beta   132.03416049
_cell_angle_gamma   59.84281068
_symmetry_Int_Tables_number   1
_chemical_formula_structural   Pr3GeS2
_chemical_formula_sum   'Pr3 Ge1 S2'
_cell_volume   156.71958461
_cell_formula_units_Z   1
loop_
 _symmetry_equiv_pos_site_id
 _symmetry_equiv_pos_as_xyz
  1  'x, y, z'
loop_
 _atom_site_type_symbol
 _atom_site_label
 _atom_site_symmetry_multiplicity
 _atom_site_fract_x
 _atom_site_fract_y
 _atom_site_fract_z
 _atom_site_occupancy
  Pr  Pr0  1  0.331751  0.331751  0.000000  1
  Pr  Pr1  1  0.000000  0.000000  0.000000  1
  Pr  Pr2  1  0.668249  0.668249  0.000000  1
  Ge  Ge3  1  0.500000  0.000000  0.500000  1
  S  S4  1  0.165044  0.665044  0.500000  1
  S  S5  1  0.834956  0.334956  0.500000  1
