# generated using pymatgen
data_La4Yb4PPd24
_symmetry_space_group_name_H-M   'P 1'
_cell_length_a   8.34253433
_cell_length_b   8.35284194
_cell_length_c   8.35284200
_cell_angle_alpha   90.02203251
_cell_angle_beta   90.01600910
_cell_angle_gamma   90.01601063
_symmetry_Int_Tables_number   1
_chemical_formula_structural   La4Yb4PPd24
_chemical_formula_sum   'La4 Yb4 P1 Pd24'
_cell_volume   582.05827286
_cell_formula_units_Z   1
loop_
 _symmetry_equiv_pos_site_id
 _symmetry_equiv_pos_as_xyz
  1  'x, y, z'
loop_
 _atom_site_type_symbol
 _atom_site_label
 _atom_site_symmetry_multiplicity
 _atom_site_fract_x
 _atom_site_fract_y
 _atom_site_fract_z
 _atom_site_occupancy
  La  La0  1  0.254454  0.254650  0.746274  1
  La  La1  1  0.254454  0.746274  0.254650  1
  La  La2  1  0.254153  0.745785  0.745785  1
  La  La3  1  0.745783  0.255145  0.255145  1
  Yb  Yb4  1  0.252938  0.252375  0.252375  1
  Yb  Yb5  1  0.747119  0.747581  0.747581  1
  Yb  Yb6  1  0.747298  0.746658  0.252537  1
  Yb  Yb7  1  0.747298  0.252537  0.746658  1
  P  P8  1  0.999216  0.999234  0.999234  1
  Pd  Pd9  1  0.255804  0.497765  0.003579  1
  Pd  Pd10  1  0.743194  0.501765  0.996601  1
  Pd  Pd11  1  0.000683  0.256280  0.500164  1
  Pd  Pd12  1  0.500835  0.256343  0.999579  1
  Pd  Pd13  1  0.993555  0.743702  0.500133  1
  Pd  Pd14  1  0.504761  0.743601  0.000150  1
  Pd  Pd15  1  0.500835  0.999579  0.256343  1
  Pd  Pd16  1  0.255804  0.003579  0.497765  1
  Pd  Pd17  1  0.504761  0.000150  0.743601  1
  Pd  Pd18  1  0.743194  0.996601  0.501765  1
  Pd  Pd19  1  0.000683  0.500164  0.256280  1
  Pd  Pd20  1  0.993555  0.500133  0.743702  1
  Pd  Pd21  1  0.251713  0.496494  0.496494  1
  Pd  Pd22  1  0.748539  0.503255  0.503255  1
  Pd  Pd23  1  0.499957  0.251719  0.500362  1
  Pd  Pd24  1  0.506543  0.748312  0.500075  1
  Pd  Pd25  1  0.499957  0.500362  0.251719  1
  Pd  Pd26  1  0.506543  0.500075  0.748312  1
  Pd  Pd27  1  0.278456  0.003883  0.003883  1
  Pd  Pd28  1  0.723285  0.996564  0.996564  1
  Pd  Pd29  1  0.999765  0.277365  0.999665  1
  Pd  Pd30  1  0.992548  0.722232  0.000171  1
  Pd  Pd31  1  0.999765  0.999665  0.277365  1
  Pd  Pd32  1  0.992548  0.000171  0.722232  1
