# generated using pymatgen
data_K2Nb3OsCl22
_symmetry_space_group_name_H-M   'P 1'
_cell_length_a   7.02440066
_cell_length_b   7.08660422
_cell_length_c   17.47539100
_cell_angle_alpha   79.09674411
_cell_angle_beta   78.96821366
_cell_angle_gamma   88.22722782
_symmetry_Int_Tables_number   1
_chemical_formula_structural   K2Nb3OsCl22
_chemical_formula_sum   'K2 Nb3 Os1 Cl22'
_cell_volume   838.40920580
_cell_formula_units_Z   1
loop_
 _symmetry_equiv_pos_site_id
 _symmetry_equiv_pos_as_xyz
  1  'x, y, z'
loop_
 _atom_site_type_symbol
 _atom_site_label
 _atom_site_symmetry_multiplicity
 _atom_site_fract_x
 _atom_site_fract_y
 _atom_site_fract_z
 _atom_site_occupancy
  K  K0  1  0.747992  0.748743  0.502516  1
  K  K1  1  0.253052  0.252764  0.494781  1
  Nb  Nb2  1  0.675327  0.177852  0.660421  1
  Nb  Nb3  1  0.828681  0.327311  0.088445  1
  Nb  Nb4  1  0.170660  0.671933  0.912006  1
  Os  Os5  1  0.323083  0.820355  0.343290  1
  Cl  Cl6  1  0.255040  0.773130  0.485690  1
  Cl  Cl7  1  0.747030  0.228398  0.510750  1
  Cl  Cl8  1  0.572465  0.025363  0.345111  1
  Cl  Cl9  1  0.421851  0.970788  0.653677  1
  Cl  Cl10  1  0.535829  0.562585  0.353642  1
  Cl  Cl11  1  0.459596  0.443697  0.646035  1
  Cl  Cl12  1  0.384889  0.860969  0.209506  1
  Cl  Cl13  1  0.612697  0.137357  0.796136  1
  Cl  Cl14  1  0.069025  0.607796  0.354065  1
  Cl  Cl15  1  0.937258  0.397341  0.644569  1
  Cl  Cl16  1  0.108821  0.074883  0.341384  1
  Cl  Cl17  1  0.896151  0.918743  0.658447  1
  Cl  Cl18  1  0.900112  0.026738  0.149081  1
  Cl  Cl19  1  0.099293  0.972972  0.851094  1
  Cl  Cl20  1  0.522402  0.380692  0.151749  1
  Cl  Cl21  1  0.477383  0.618480  0.848431  1
  Cl  Cl22  1  0.720545  0.216642  0.986377  1
  Cl  Cl23  1  0.280137  0.784017  0.013410  1
  Cl  Cl24  1  0.974898  0.479935  0.169665  1
  Cl  Cl25  1  0.025567  0.520433  0.829948  1
  Cl  Cl26  1  0.169790  0.337686  0.999527  1
  Cl  Cl27  1  0.830424  0.662397  0.000247  1
