# generated using pymatgen
data_Li2P2RuPt
_symmetry_space_group_name_H-M   'P 1'
_cell_length_a   3.88771200
_cell_length_b   6.57107400
_cell_length_c   6.75728500
_cell_angle_alpha   90.00000000
_cell_angle_beta   90.00000000
_cell_angle_gamma   90.00000000
_symmetry_Int_Tables_number   1
_chemical_formula_structural   Li2P2RuPt
_chemical_formula_sum   'Li4 P4 Ru2 Pt2'
_cell_volume   172.62459773
_cell_formula_units_Z   2
loop_
 _symmetry_equiv_pos_site_id
 _symmetry_equiv_pos_as_xyz
  1  'x, y, z'
loop_
 _atom_site_type_symbol
 _atom_site_label
 _atom_site_symmetry_multiplicity
 _atom_site_fract_x
 _atom_site_fract_y
 _atom_site_fract_z
 _atom_site_occupancy
  Li  Li0  1  0.750000  0.526366  0.339411  1
  Li  Li1  1  0.250000  0.982171  0.836380  1
  Li  Li2  1  0.750000  0.026366  0.160589  1
  Li  Li3  1  0.250000  0.482171  0.663620  1
  P  P4  1  0.250000  0.715303  0.115734  1
  P  P5  1  0.250000  0.215303  0.384266  1
  P  P6  1  0.750000  0.288641  0.861160  1
  P  P7  1  0.750000  0.788641  0.638840  1
  Ru  Ru8  1  0.750000  0.140283  0.554408  1
  Ru  Ru9  1  0.750000  0.640283  0.945592  1
  Pt  Pt10  1  0.250000  0.347235  0.057798  1
  Pt  Pt11  1  0.250000  0.847235  0.442202  1
