# generated using pymatgen
data_Ho12Ir2OsRh
_symmetry_space_group_name_H-M   'P 1'
_cell_length_a   6.37397224
_cell_length_b   7.24901235
_cell_length_c   9.12525200
_cell_angle_alpha   90.00000000
_cell_angle_beta   90.00000000
_cell_angle_gamma   90.00351375
_symmetry_Int_Tables_number   1
_chemical_formula_structural   Ho12Ir2OsRh
_chemical_formula_sum   'Ho12 Ir2 Os1 Rh1'
_cell_volume   421.63229976
_cell_formula_units_Z   1
loop_
 _symmetry_equiv_pos_site_id
 _symmetry_equiv_pos_as_xyz
  1  'x, y, z'
loop_
 _atom_site_type_symbol
 _atom_site_label
 _atom_site_symmetry_multiplicity
 _atom_site_fract_x
 _atom_site_fract_y
 _atom_site_fract_z
 _atom_site_occupancy
  Ho  Ho0  1  0.330948  0.677312  0.059573  1
  Ho  Ho1  1  0.173016  0.178500  0.436001  1
  Ho  Ho2  1  0.670880  0.324226  0.562748  1
  Ho  Ho3  1  0.825978  0.819376  0.935881  1
  Ho  Ho4  1  0.670880  0.324226  0.937252  1
  Ho  Ho5  1  0.825978  0.819376  0.564119  1
  Ho  Ho6  1  0.330948  0.677312  0.440427  1
  Ho  Ho7  1  0.173016  0.178500  0.063999  1
  Ho  Ho8  1  0.872791  0.536892  0.250000  1
  Ho  Ho9  1  0.630609  0.035122  0.250000  1
  Ho  Ho10  1  0.128201  0.463984  0.750000  1
  Ho  Ho11  1  0.371869  0.965829  0.750000  1
  Ir  Ir12  1  0.045808  0.885377  0.250000  1
  Ir  Ir13  1  0.457637  0.385031  0.250000  1
  Os  Os14  1  0.536443  0.614824  0.750000  1
  Rh  Rh15  1  0.954998  0.114112  0.750000  1
