# generated using pymatgen
data_NaHoEr5Co6Sn23
_symmetry_space_group_name_H-M   'P 1'
_cell_length_a   9.68870118
_cell_length_b   9.68870025
_cell_length_c   9.93837109
_cell_angle_alpha   90.01298958
_cell_angle_beta   89.98700994
_cell_angle_gamma   119.98250653
_symmetry_Int_Tables_number   1
_chemical_formula_structural   NaHoEr5Co6Sn23
_chemical_formula_sum   'Na1 Ho1 Er5 Co6 Sn23'
_cell_volume   808.07828290
_cell_formula_units_Z   1
loop_
 _symmetry_equiv_pos_site_id
 _symmetry_equiv_pos_as_xyz
  1  'x, y, z'
loop_
 _atom_site_type_symbol
 _atom_site_label
 _atom_site_symmetry_multiplicity
 _atom_site_fract_x
 _atom_site_fract_y
 _atom_site_fract_z
 _atom_site_occupancy
  Na  Na0  1  0.000003  0.999997  0.999991  1
  Ho  Ho1  1  0.479542  0.520458  0.305888  1
  Er  Er2  1  0.520337  0.479663  0.694188  1
  Er  Er3  1  0.520267  0.040599  0.694235  1
  Er  Er4  1  0.959401  0.479733  0.694235  1
  Er  Er5  1  0.040541  0.520214  0.305760  1
  Er  Er6  1  0.479786  0.959459  0.305760  1
  Co  Co7  1  0.170547  0.829453  0.799036  1
  Co  Co8  1  0.170530  0.341087  0.799082  1
  Co  Co9  1  0.658913  0.829470  0.799082  1
  Co  Co10  1  0.341024  0.170354  0.200874  1
  Co  Co11  1  0.829646  0.658976  0.200874  1
  Co  Co12  1  0.829446  0.170554  0.200933  1
  Sn  Sn13  1  0.666693  0.333307  0.184455  1
  Sn  Sn14  1  0.666652  0.333348  0.881792  1
  Sn  Sn15  1  0.333220  0.666780  0.118050  1
  Sn  Sn16  1  0.344216  0.344206  0.999949  1
  Sn  Sn17  1  0.000011  0.655718  0.000002  1
  Sn  Sn18  1  0.655717  0.000012  0.999988  1
  Sn  Sn19  1  0.655794  0.655784  0.999949  1
  Sn  Sn20  1  0.333334  0.666666  0.815536  1
  Sn  Sn21  1  0.437198  0.218502  0.453789  1
  Sn  Sn22  1  0.218634  0.781366  0.546278  1
  Sn  Sn23  1  0.218589  0.437177  0.546404  1
  Sn  Sn24  1  0.562823  0.781411  0.546404  1
  Sn  Sn25  1  0.116564  0.883436  0.272107  1
  Sn  Sn26  1  0.781498  0.562802  0.453789  1
  Sn  Sn27  1  0.781368  0.218632  0.453733  1
  Sn  Sn28  1  0.344282  0.999989  0.000002  1
  Sn  Sn29  1  0.116451  0.233017  0.272096  1
  Sn  Sn30  1  0.766983  0.883549  0.272096  1
  Sn  Sn31  1  0.233125  0.116587  0.727871  1
  Sn  Sn32  1  0.883413  0.766875  0.727871  1
  Sn  Sn33  1  0.883444  0.116556  0.727900  1
  Sn  Sn34  1  0.000020  0.999980  0.500011  1
  Sn  Sn35  1  0.999988  0.344283  0.999988  1
