# generated using pymatgen
data_Y3HoAl18(OsRh2)2
_symmetry_space_group_name_H-M   'P 1'
_cell_length_a   7.52579164
_cell_length_b   7.52335290
_cell_length_c   9.50515100
_cell_angle_alpha   90.00000000
_cell_angle_beta   90.00000000
_cell_angle_gamma   118.52795784
_symmetry_Int_Tables_number   1
_chemical_formula_structural   Y3HoAl18(OsRh2)2
_chemical_formula_sum   'Y3 Ho1 Al18 Os2 Rh4'
_cell_volume   472.83108612
_cell_formula_units_Z   1
loop_
 _symmetry_equiv_pos_site_id
 _symmetry_equiv_pos_as_xyz
  1  'x, y, z'
loop_
 _atom_site_type_symbol
 _atom_site_label
 _atom_site_symmetry_multiplicity
 _atom_site_fract_x
 _atom_site_fract_y
 _atom_site_fract_z
 _atom_site_occupancy
  Y  Y0  1  0.006869  0.320378  0.750000  1
  Y  Y1  1  0.679981  0.993277  0.250000  1
  Y  Y2  1  0.320291  0.006639  0.750000  1
  Ho  Ho3  1  0.993395  0.680473  0.250000  1
  Al  Al4  1  0.134073  0.133747  0.250000  1
  Al  Al5  1  0.866012  0.865824  0.750000  1
  Al  Al6  1  0.002556  0.338069  0.075084  1
  Al  Al7  1  0.997351  0.662284  0.926069  1
  Al  Al8  1  0.997351  0.662284  0.573931  1
  Al  Al9  1  0.337445  0.002242  0.424889  1
  Al  Al10  1  0.002556  0.338069  0.424916  1
  Al  Al11  1  0.662335  0.997256  0.574352  1
  Al  Al12  1  0.662335  0.997256  0.925648  1
  Al  Al13  1  0.337445  0.002242  0.075111  1
  Al  Al14  1  0.331814  0.331770  0.544196  1
  Al  Al15  1  0.668215  0.667874  0.454872  1
  Al  Al16  1  0.668215  0.667874  0.045128  1
  Al  Al17  1  0.331814  0.331770  0.955804  1
  Al  Al18  1  0.340166  0.553790  0.250000  1
  Al  Al19  1  0.659406  0.446531  0.750000  1
  Al  Al20  1  0.554380  0.341577  0.250000  1
  Al  Al21  1  0.446569  0.659250  0.750000  1
  Os  Os22  1  0.999861  0.999928  0.000258  1
  Os  Os23  1  0.999861  0.999928  0.499742  1
  Rh  Rh24  1  0.671726  0.328004  0.000042  1
  Rh  Rh25  1  0.328127  0.671830  0.000067  1
  Rh  Rh26  1  0.328127  0.671830  0.499933  1
  Rh  Rh27  1  0.671726  0.328004  0.499958  1
