# generated using pymatgen
data_Tm24ZnRu13
_symmetry_space_group_name_H-M   'P 1'
_cell_length_a   11.16385323
_cell_length_b   8.29938050
_cell_length_c   11.13959045
_cell_angle_alpha   56.48558329
_cell_angle_beta   89.92262505
_cell_angle_gamma   89.86317202
_symmetry_Int_Tables_number   1
_chemical_formula_structural   Tm24ZnRu13
_chemical_formula_sum   'Tm24 Zn1 Ru13'
_cell_volume   860.52208569
_cell_formula_units_Z   1
loop_
 _symmetry_equiv_pos_site_id
 _symmetry_equiv_pos_as_xyz
  1  'x, y, z'
loop_
 _atom_site_type_symbol
 _atom_site_label
 _atom_site_symmetry_multiplicity
 _atom_site_fract_x
 _atom_site_fract_y
 _atom_site_fract_z
 _atom_site_occupancy
  Tm  Tm0  1  0.705947  0.240376  0.532485  1
  Tm  Tm1  1  0.204891  0.755398  0.968881  1
  Tm  Tm2  1  0.848075  0.507187  0.657678  1
  Tm  Tm3  1  0.343425  0.491094  0.843558  1
  Tm  Tm4  1  0.153049  0.491892  0.345319  1
  Tm  Tm5  1  0.653340  0.489214  0.161612  1
  Tm  Tm6  1  0.006083  0.851155  0.361273  1
  Tm  Tm7  1  0.502031  0.151892  0.138960  1
  Tm  Tm8  1  0.994193  0.149946  0.638426  1
  Tm  Tm9  1  0.489466  0.850438  0.855924  1
  Tm  Tm10  1  0.799332  0.251322  0.027964  1
  Tm  Tm11  1  0.294366  0.756323  0.468835  1
  Tm  Tm12  1  0.933212  0.779754  0.089408  1
  Tm  Tm13  1  0.430514  0.222099  0.410281  1
  Tm  Tm14  1  0.071247  0.223613  0.909771  1
  Tm  Tm15  1  0.566552  0.780489  0.591583  1
  Tm  Tm16  1  0.303237  0.242499  0.674524  1
  Tm  Tm17  1  0.800618  0.761441  0.824085  1
  Tm  Tm18  1  0.698672  0.750197  0.340744  1
  Tm  Tm19  1  0.197449  0.240666  0.176226  1
  Tm  Tm20  1  0.926352  0.279598  0.292234  1
  Tm  Tm21  1  0.422890  0.718308  0.207095  1
  Tm  Tm22  1  0.074069  0.720551  0.707343  1
  Tm  Tm23  1  0.576364  0.288715  0.785920  1
  Zn  Zn24  1  0.655700  0.913888  0.037096  1
  Ru  Ru25  1  0.500228  0.504106  0.496915  1
  Ru  Ru26  1  0.000877  0.502260  0.998971  1
  Ru  Ru27  1  0.143606  0.077921  0.463665  1
  Ru  Ru28  1  0.353257  0.081106  0.961890  1
  Ru  Ru29  1  0.855105  0.924983  0.536108  1
  Ru  Ru30  1  0.399246  0.486708  0.103258  1
  Ru  Ru31  1  0.893236  0.519509  0.392661  1
  Ru  Ru32  1  0.602474  0.513218  0.898633  1
  Ru  Ru33  1  0.102861  0.484667  0.603130  1
  Ru  Ru34  1  0.816017  0.103200  0.848545  1
  Ru  Ru35  1  0.319300  0.901095  0.650944  1
  Ru  Ru36  1  0.181977  0.897856  0.152262  1
  Ru  Ru37  1  0.680741  0.095318  0.345798  1
