# generated using pymatgen
data_Sc3(In2Ni)2
_symmetry_space_group_name_H-M   'P 1'
_cell_length_a   7.65004100
_cell_length_b   7.65004102
_cell_length_c   3.48986500
_cell_angle_alpha   90.00000000
_cell_angle_beta   90.00000000
_cell_angle_gamma   120.00001290
_symmetry_Int_Tables_number   1
_chemical_formula_structural   Sc3(In2Ni)2
_chemical_formula_sum   'Sc3 In4 Ni2'
_cell_volume   176.87511246
_cell_formula_units_Z   1
loop_
 _symmetry_equiv_pos_site_id
 _symmetry_equiv_pos_as_xyz
  1  'x, y, z'
loop_
 _atom_site_type_symbol
 _atom_site_label
 _atom_site_symmetry_multiplicity
 _atom_site_fract_x
 _atom_site_fract_y
 _atom_site_fract_z
 _atom_site_occupancy
  Sc  Sc0  1  0.045419  0.292701  0.500000  1
  Sc  Sc1  1  0.707299  0.752717  0.500000  1
  Sc  Sc2  1  0.247283  0.954581  0.500000  1
  In  In3  1  0.668752  0.076794  0.000000  1
  In  In4  1  0.923206  0.591959  0.000000  1
  In  In5  1  0.408041  0.331248  0.000000  1
  In  In6  1  0.333333  0.666667  0.000000  1
  Ni  Ni7  1  0.666667  0.333333  0.500000  1
  Ni  Ni8  1  0.000000  0.000000  0.000000  1
