# generated using pymatgen
data_Y3Ho2Lu7Ru4
_symmetry_space_group_name_H-M   'P 1'
_cell_length_a   6.21879446
_cell_length_b   7.29497053
_cell_length_c   8.94896342
_cell_angle_alpha   89.99124627
_cell_angle_beta   90.13689837
_cell_angle_gamma   89.91476528
_symmetry_Int_Tables_number   1
_chemical_formula_structural   Y3Ho2Lu7Ru4
_chemical_formula_sum   'Y3 Ho2 Lu7 Ru4'
_cell_volume   405.97636633
_cell_formula_units_Z   1
loop_
 _symmetry_equiv_pos_site_id
 _symmetry_equiv_pos_as_xyz
  1  'x, y, z'
loop_
 _atom_site_type_symbol
 _atom_site_label
 _atom_site_symmetry_multiplicity
 _atom_site_fract_x
 _atom_site_fract_y
 _atom_site_fract_z
 _atom_site_occupancy
  Y  Y0  1  0.870757  0.539470  0.250559  1
  Y  Y1  1  0.630051  0.040724  0.250291  1
  Y  Y2  1  0.129044  0.460101  0.749512  1
  Ho  Ho3  1  0.334423  0.676613  0.063399  1
  Ho  Ho4  1  0.369596  0.959088  0.749542  1
  Lu  Lu5  1  0.166166  0.174499  0.436571  1
  Lu  Lu6  1  0.665260  0.323699  0.564605  1
  Lu  Lu7  1  0.833515  0.825299  0.935220  1
  Lu  Lu8  1  0.665467  0.323375  0.935015  1
  Lu  Lu9  1  0.833542  0.825154  0.564459  1
  Lu  Lu10  1  0.334529  0.676087  0.436931  1
  Lu  Lu11  1  0.165835  0.174256  0.063594  1
  Ru  Ru12  1  0.044323  0.885753  0.250655  1
  Ru  Ru13  1  0.454867  0.384388  0.250570  1
  Ru  Ru14  1  0.958780  0.114680  0.750190  1
  Ru  Ru15  1  0.543843  0.616814  0.748887  1
