# generated using pymatgen
data_LaEu(CuH4)2
_symmetry_space_group_name_H-M   'P 1'
_cell_length_a   6.31413107
_cell_length_b   6.31413140
_cell_length_c   5.02522063
_cell_angle_alpha   89.94601570
_cell_angle_beta   90.05398230
_cell_angle_gamma   144.59968174
_symmetry_Int_Tables_number   1
_chemical_formula_structural   LaEu(CuH4)2
_chemical_formula_sum   'La1 Eu1 Cu2 H8'
_cell_volume   116.05796145
_cell_formula_units_Z   1
loop_
 _symmetry_equiv_pos_site_id
 _symmetry_equiv_pos_as_xyz
  1  'x, y, z'
loop_
 _atom_site_type_symbol
 _atom_site_label
 _atom_site_symmetry_multiplicity
 _atom_site_fract_x
 _atom_site_fract_y
 _atom_site_fract_z
 _atom_site_occupancy
  La  La0  1  0.130540  0.869460  0.307972  1
  Eu  Eu1  1  0.867364  0.132636  0.808159  1
  Cu  Cu2  1  0.403194  0.596806  0.308569  1
  Cu  Cu3  1  0.595519  0.404481  0.808223  1
  H  H4  1  0.306253  0.693747  0.063028  1
  H  H5  1  0.692684  0.307316  0.562268  1
  H  H6  1  0.306156  0.693844  0.553567  1
  H  H7  1  0.692845  0.307155  0.053516  1
  H  H8  1  0.086362  0.913638  0.807802  1
  H  H9  1  0.916602  0.083398  0.308325  1
  H  H10  1  0.501287  0.498713  0.061279  1
  H  H11  1  0.501194  0.498806  0.555292  1
