# generated using pymatgen
data_LaCr3(BO3)4
_symmetry_space_group_name_H-M   'P 1'
_cell_length_a   6.14903163
_cell_length_b   6.14903271
_cell_length_c   6.14903274
_cell_angle_alpha   103.73309358
_cell_angle_beta   103.73309072
_cell_angle_gamma   103.73310436
_symmetry_Int_Tables_number   1
_chemical_formula_structural   LaCr3(BO3)4
_chemical_formula_sum   'La1 Cr3 B4 O12'
_cell_volume   208.49379518
_cell_formula_units_Z   1
loop_
 _symmetry_equiv_pos_site_id
 _symmetry_equiv_pos_as_xyz
  1  'x, y, z'
loop_
 _atom_site_type_symbol
 _atom_site_label
 _atom_site_symmetry_multiplicity
 _atom_site_fract_x
 _atom_site_fract_y
 _atom_site_fract_z
 _atom_site_occupancy
  La  La0  1  0.000000  0.000000  0.000000  1
  Cr  Cr1  1  0.554305  0.445692  0.000000  1
  Cr  Cr2  1  0.999999  0.554305  0.445693  1
  Cr  Cr3  1  0.445692  0.999999  0.554306  1
  B  B4  1  0.500000  0.943048  0.056954  1
  B  B5  1  0.943048  0.056953  0.500001  1
  B  B6  1  0.500001  0.500001  0.500001  1
  B  B7  1  0.056953  0.500001  0.943048  1
  O  O8  1  0.623161  0.784788  0.029031  1
  O  O9  1  0.912207  0.500001  0.087794  1
  O  O10  1  0.376839  0.970969  0.215212  1
  O  O11  1  0.643992  0.500001  0.356009  1
  O  O12  1  0.970968  0.215211  0.376840  1
  O  O13  1  0.356008  0.643993  0.500001  1
  O  O14  1  0.087794  0.912207  0.500001  1
  O  O15  1  0.784788  0.029031  0.623160  1
  O  O16  1  0.500000  0.356009  0.643992  1
  O  O17  1  0.029031  0.623161  0.784788  1
  O  O18  1  0.500001  0.087794  0.912207  1
  O  O19  1  0.215212  0.376839  0.970969  1
