# generated using pymatgen
data_B(HS)3
_symmetry_space_group_name_H-M   'P 1'
_cell_length_a   4.61996120
_cell_length_b   11.91315802
_cell_length_c   11.47658052
_cell_angle_alpha   89.99377502
_cell_angle_beta   107.02288808
_cell_angle_gamma   89.99859302
_symmetry_Int_Tables_number   1
_chemical_formula_structural   B(HS)3
_chemical_formula_sum   'B4 H12 S12'
_cell_volume   603.97779516
_cell_formula_units_Z   4
loop_
 _symmetry_equiv_pos_site_id
 _symmetry_equiv_pos_as_xyz
  1  'x, y, z'
loop_
 _atom_site_type_symbol
 _atom_site_label
 _atom_site_symmetry_multiplicity
 _atom_site_fract_x
 _atom_site_fract_y
 _atom_site_fract_z
 _atom_site_occupancy
  B  B0  1  0.234119  0.220461  0.251736  1
  B  B1  1  0.765844  0.720469  0.248238  1
  B  B2  1  0.234150  0.279534  0.751761  1
  B  B3  1  0.765885  0.779537  0.748265  1
  H  H4  1  0.929912  0.247305  0.044860  1
  H  H5  1  0.618370  0.880007  0.115651  1
  H  H6  1  0.574917  0.536190  0.176331  1
  H  H7  1  0.425058  0.036207  0.323664  1
  H  H8  1  0.381666  0.380026  0.384378  1
  H  H9  1  0.070110  0.747301  0.455150  1
  H  H10  1  0.929876  0.252693  0.544846  1
  H  H11  1  0.618323  0.619972  0.615620  1
  H  H12  1  0.574945  0.963789  0.676342  1
  H  H13  1  0.425066  0.463816  0.823654  1
  H  H14  1  0.381658  0.120004  0.884357  1
  H  H15  1  0.070094  0.752692  0.955143  1
  S  S16  1  0.046918  0.153633  0.108143  1
  S  S17  1  0.556925  0.636917  0.119708  1
  S  S18  1  0.791855  0.871073  0.232705  1
  S  S19  1  0.208184  0.371071  0.267315  1
  S  S20  1  0.443058  0.136916  0.380288  1
  S  S21  1  0.953071  0.653652  0.391844  1
  S  S22  1  0.046897  0.346348  0.608143  1
  S  S23  1  0.556942  0.863083  0.619711  1
  S  S24  1  0.791817  0.628923  0.732683  1
  S  S25  1  0.208164  0.128922  0.767301  1
  S  S26  1  0.443071  0.363096  0.880294  1
  S  S27  1  0.953095  0.846364  0.891860  1
