# generated using pymatgen
data_ThSc3VSi7Pt9
_symmetry_space_group_name_H-M   'P 1'
_cell_length_a   9.99866490
_cell_length_b   10.01651888
_cell_length_c   3.96148000
_cell_angle_alpha   90.00000000
_cell_angle_beta   90.00000000
_cell_angle_gamma   119.82755838
_symmetry_Int_Tables_number   1
_chemical_formula_structural   ThSc3VSi7Pt9
_chemical_formula_sum   'Th1 Sc3 V1 Si7 Pt9'
_cell_volume   344.19055856
_cell_formula_units_Z   1
loop_
 _symmetry_equiv_pos_site_id
 _symmetry_equiv_pos_as_xyz
  1  'x, y, z'
loop_
 _atom_site_type_symbol
 _atom_site_label
 _atom_site_symmetry_multiplicity
 _atom_site_fract_x
 _atom_site_fract_y
 _atom_site_fract_z
 _atom_site_occupancy
  Th  Th0  1  0.330276  0.665129  0.500000  1
  Sc  Sc1  1  0.001317  0.995652  0.000000  1
  Sc  Sc2  1  0.568190  0.111270  0.500000  1
  Sc  Sc3  1  0.547498  0.436503  0.500000  1
  V  V4  1  0.881517  0.455479  0.500000  1
  Si  Si5  1  0.240639  0.193713  0.500000  1
  Si  Si6  1  0.813074  0.049108  0.500000  1
  Si  Si7  1  0.951504  0.748458  0.500000  1
  Si  Si8  1  0.562334  0.645107  0.000000  1
  Si  Si9  1  0.354149  0.918426  0.000000  1
  Si  Si10  1  0.073030  0.437743  0.000000  1
  Si  Si11  1  0.677081  0.338364  0.000000  1
  Pt  Pt12  1  0.216468  0.938724  0.500000  1
  Pt  Pt13  1  0.062317  0.281940  0.500000  1
  Pt  Pt14  1  0.722575  0.782146  0.500000  1
  Pt  Pt15  1  0.311436  0.415542  0.000000  1
  Pt  Pt16  1  0.584551  0.898919  0.000000  1
  Pt  Pt17  1  0.098087  0.687727  0.000000  1
  Pt  Pt18  1  0.389515  0.178596  0.000000  1
  Pt  Pt19  1  0.823323  0.206422  0.000000  1
  Pt  Pt20  1  0.791118  0.615033  0.000000  1
