# generated using pymatgen
data_Dy5Ge8P4Ir14Rh5
_symmetry_space_group_name_H-M   'P 1'
_cell_length_a   13.03610778
_cell_length_b   12.99875805
_cell_length_c   3.98262000
_cell_angle_alpha   90.00000000
_cell_angle_beta   90.00000000
_cell_angle_gamma   119.71795825
_symmetry_Int_Tables_number   1
_chemical_formula_structural   Dy5Ge8P4Ir14Rh5
_chemical_formula_sum   'Dy5 Ge8 P4 Ir14 Rh5'
_cell_volume   586.10656276
_cell_formula_units_Z   1
loop_
 _symmetry_equiv_pos_site_id
 _symmetry_equiv_pos_as_xyz
  1  'x, y, z'
loop_
 _atom_site_type_symbol
 _atom_site_label
 _atom_site_symmetry_multiplicity
 _atom_site_fract_x
 _atom_site_fract_y
 _atom_site_fract_z
 _atom_site_occupancy
  Dy  Dy0  1  0.334641  0.665829  0.500000  1
  Dy  Dy1  1  0.667575  0.331874  0.500000  1
  Dy  Dy2  1  0.000115  0.815672  0.000000  1
  Dy  Dy3  1  0.182366  0.183413  0.000000  1
  Dy  Dy4  1  0.817400  0.000040  0.000000  1
  Ge  Ge5  1  0.000597  0.635428  0.500000  1
  Ge  Ge6  1  0.363265  0.364112  0.500000  1
  Ge  Ge7  1  0.637687  0.001357  0.500000  1
  Ge  Ge8  1  0.520353  0.683376  0.000000  1
  Ge  Ge9  1  0.318868  0.837432  0.000000  1
  Ge  Ge10  1  0.161886  0.482508  0.000000  1
  Ge  Ge11  1  0.480474  0.162831  0.000000  1
  Ge  Ge12  1  0.683002  0.516608  0.000000  1
  P  P13  1  0.830729  0.310213  0.000000  1
  P  P14  1  0.999334  0.178404  0.500000  1
  P  P15  1  0.824157  0.821427  0.500000  1
  P  P16  1  0.176364  0.000197  0.500000  1
  Ir  Ir17  1  0.353474  0.483292  0.000000  1
  Ir  Ir18  1  0.482310  0.354962  0.000000  1
  Ir  Ir19  1  0.867801  0.501109  0.000000  1
  Ir  Ir20  1  0.649234  0.132559  0.000000  1
  Ir  Ir21  1  0.994904  0.271882  0.000000  1
  Ir  Ir22  1  0.732664  0.729946  0.000000  1
  Ir  Ir23  1  0.268534  0.000522  0.000000  1
  Ir  Ir24  1  0.635245  0.809012  0.500000  1
  Ir  Ir25  1  0.192982  0.825669  0.500000  1
  Ir  Ir26  1  0.173458  0.365222  0.500000  1
  Ir  Ir27  1  0.365456  0.175104  0.500000  1
  Ir  Ir28  1  0.808421  0.628916  0.500000  1
  Ir  Ir29  1  0.825562  0.204235  0.500000  1
  Ir  Ir30  1  0.999039  0.000774  0.500000  1
  Rh  Rh31  1  0.518988  0.873769  0.000000  1
  Rh  Rh32  1  0.127197  0.646816  0.000000  1
  Rh  Rh33  1  0.004545  0.449203  0.500000  1
  Rh  Rh34  1  0.552851  0.553993  0.500000  1
  Rh  Rh35  1  0.448522  0.002297  0.500000  1
