# generated using pymatgen
data_Eu2Th(As2Pd3)3
_symmetry_space_group_name_H-M   'P 1'
_cell_length_a   4.14679800
_cell_length_b   8.68352716
_cell_length_c   10.14322869
_cell_angle_alpha   107.13859345
_cell_angle_beta   90.00000000
_cell_angle_gamma   103.81418187
_symmetry_Int_Tables_number   1
_chemical_formula_structural   Eu2Th(As2Pd3)3
_chemical_formula_sum   'Eu2 Th1 As6 Pd9'
_cell_volume   337.95570313
_cell_formula_units_Z   1
loop_
 _symmetry_equiv_pos_site_id
 _symmetry_equiv_pos_as_xyz
  1  'x, y, z'
loop_
 _atom_site_type_symbol
 _atom_site_label
 _atom_site_symmetry_multiplicity
 _atom_site_fract_x
 _atom_site_fract_y
 _atom_site_fract_z
 _atom_site_occupancy
  Eu  Eu0  1  0.844751  0.689500  0.297837  1
  Eu  Eu1  1  0.155249  0.310500  0.702163  1
  Th  Th2  1  0.000000  0.000000  0.000000  1
  As  As3  1  0.801130  0.602262  0.870793  1
  As  As4  1  0.198870  0.397738  0.129207  1
  As  As5  1  0.537854  0.075708  0.789529  1
  As  As6  1  0.462146  0.924292  0.210471  1
  As  As7  1  0.636521  0.273041  0.454703  1
  As  As8  1  0.363479  0.726959  0.545297  1
  Pd  Pd9  1  0.956182  0.912363  0.669280  1
  Pd  Pd10  1  0.043818  0.087637  0.330720  1
  Pd  Pd11  1  0.779644  0.559290  0.607982  1
  Pd  Pd12  1  0.220356  0.440710  0.392018  1
  Pd  Pd13  1  0.376752  0.753502  0.798377  1
  Pd  Pd14  1  0.623248  0.246498  0.201623  1
  Pd  Pd15  1  0.500000  0.000000  0.500000  1
  Pd  Pd16  1  0.678974  0.357948  0.969042  1
  Pd  Pd17  1  0.321026  0.642052  0.030958  1
