# generated using pymatgen
data_EuBPRu2
_symmetry_space_group_name_H-M   'P 1'
_cell_length_a   5.96417765
_cell_length_b   5.96417799
_cell_length_c   5.96417843
_cell_angle_alpha   140.43557016
_cell_angle_beta   140.43556671
_cell_angle_gamma   57.19254056
_symmetry_Int_Tables_number   1
_chemical_formula_structural   EuBPRu2
_chemical_formula_sum   'Eu1 B1 P1 Ru2'
_cell_volume   85.34767757
_cell_formula_units_Z   1
loop_
 _symmetry_equiv_pos_site_id
 _symmetry_equiv_pos_as_xyz
  1  'x, y, z'
loop_
 _atom_site_type_symbol
 _atom_site_label
 _atom_site_symmetry_multiplicity
 _atom_site_fract_x
 _atom_site_fract_y
 _atom_site_fract_z
 _atom_site_occupancy
  Eu  Eu0  1  0.999156  0.999156  0.000000  1
  B  B1  1  0.671445  0.671445  0.000000  1
  P  P2  1  0.347490  0.347490  0.000000  1
  Ru  Ru3  1  0.240954  0.740954  0.500000  1
  Ru  Ru4  1  0.740954  0.240954  0.500000  1
