# generated using pymatgen
data_YbBi3(Ru2O7)2
_symmetry_space_group_name_H-M   'P 1'
_cell_length_a   7.30544452
_cell_length_b   7.30544423
_cell_length_c   7.30544453
_cell_angle_alpha   59.99480690
_cell_angle_beta   59.99480348
_cell_angle_gamma   59.99480885
_symmetry_Int_Tables_number   1
_chemical_formula_structural   YbBi3(Ru2O7)2
_chemical_formula_sum   'Yb1 Bi3 Ru4 O14'
_cell_volume   275.66001963
_cell_formula_units_Z   1
loop_
 _symmetry_equiv_pos_site_id
 _symmetry_equiv_pos_as_xyz
  1  'x, y, z'
loop_
 _atom_site_type_symbol
 _atom_site_label
 _atom_site_symmetry_multiplicity
 _atom_site_fract_x
 _atom_site_fract_y
 _atom_site_fract_z
 _atom_site_occupancy
  Yb  Yb0  1  0.500000  0.500000  0.500000  1
  Bi  Bi1  1  0.500000  0.000000  0.500000  1
  Bi  Bi2  1  0.000000  0.500000  0.500000  1
  Bi  Bi3  1  0.500000  0.500000  0.000000  1
  Ru  Ru4  1  0.000000  0.000000  0.000000  1
  Ru  Ru5  1  0.000000  0.500000  0.000000  1
  Ru  Ru6  1  0.500000  0.000000  0.000000  1
  Ru  Ru7  1  0.000000  0.000000  0.500000  1
  O  O8  1  0.622798  0.622798  0.622798  1
  O  O9  1  0.377202  0.377202  0.377202  1
  O  O10  1  0.920756  0.920756  0.327886  1
  O  O11  1  0.327886  0.920756  0.920756  1
  O  O12  1  0.920756  0.327886  0.920756  1
  O  O13  1  0.326532  0.326532  0.929809  1
  O  O14  1  0.929809  0.326532  0.326532  1
  O  O15  1  0.326532  0.929809  0.326532  1
  O  O16  1  0.079244  0.079244  0.672114  1
  O  O17  1  0.672114  0.079244  0.079244  1
  O  O18  1  0.079244  0.672114  0.079244  1
  O  O19  1  0.673468  0.673468  0.070191  1
  O  O20  1  0.070191  0.673468  0.673468  1
  O  O21  1  0.673468  0.070191  0.673468  1
