# generated using pymatgen
data_Np2Te4Br10O
_symmetry_space_group_name_H-M   'P 1'
_cell_length_a   7.81351772
_cell_length_b   9.18387624
_cell_length_c   10.07142249
_cell_angle_alpha   97.15248246
_cell_angle_beta   94.25641823
_cell_angle_gamma   104.57589991
_symmetry_Int_Tables_number   1
_chemical_formula_structural   Np2Te4Br10O
_chemical_formula_sum   'Np2 Te4 Br10 O1'
_cell_volume   689.80035536
_cell_formula_units_Z   1
loop_
 _symmetry_equiv_pos_site_id
 _symmetry_equiv_pos_as_xyz
  1  'x, y, z'
loop_
 _atom_site_type_symbol
 _atom_site_label
 _atom_site_symmetry_multiplicity
 _atom_site_fract_x
 _atom_site_fract_y
 _atom_site_fract_z
 _atom_site_occupancy
  Np  Np0  1  0.521551  0.362918  0.641184  1
  Np  Np1  1  0.478449  0.637082  0.358816  1
  Te  Te2  1  0.087554  0.821654  0.999627  1
  Te  Te3  1  0.912446  0.178346  0.000373  1
  Te  Te4  1  0.819944  0.894147  0.851738  1
  Te  Te5  1  0.180056  0.105853  0.148262  1
  Br  Br6  1  0.549486  0.163281  0.827874  1
  Br  Br7  1  0.394805  0.534213  0.824378  1
  Br  Br8  1  0.860737  0.543466  0.733315  1
  Br  Br9  1  0.190090  0.191089  0.562703  1
  Br  Br10  1  0.340673  0.800987  0.536060  1
  Br  Br11  1  0.659327  0.199013  0.463940  1
  Br  Br12  1  0.809910  0.808911  0.437297  1
  Br  Br13  1  0.139263  0.456534  0.266685  1
  Br  Br14  1  0.605195  0.465787  0.175622  1
  Br  Br15  1  0.450514  0.836719  0.172126  1
  O  O16  1  0.500000  0.500000  0.500000  1
