# generated using pymatgen
data_TbTh2Ga3Ru2Rh
_symmetry_space_group_name_H-M   'P 1'
_cell_length_a   7.29710536
_cell_length_b   7.09953131
_cell_length_c   3.99398700
_cell_angle_alpha   90.00000000
_cell_angle_beta   90.00000000
_cell_angle_gamma   119.10831167
_symmetry_Int_Tables_number   1
_chemical_formula_structural   TbTh2Ga3Ru2Rh
_chemical_formula_sum   'Tb1 Th2 Ga3 Ru2 Rh1'
_cell_volume   180.77988465
_cell_formula_units_Z   1
loop_
 _symmetry_equiv_pos_site_id
 _symmetry_equiv_pos_as_xyz
  1  'x, y, z'
loop_
 _atom_site_type_symbol
 _atom_site_label
 _atom_site_symmetry_multiplicity
 _atom_site_fract_x
 _atom_site_fract_y
 _atom_site_fract_z
 _atom_site_occupancy
  Tb  Tb0  1  0.000000  0.409931  0.500000  1
  Th  Th1  1  0.580349  0.582104  0.500000  1
  Th  Th2  1  0.419651  0.001756  0.500000  1
  Ga  Ga3  1  0.000000  0.740134  0.000000  1
  Ga  Ga4  1  0.230110  0.243893  0.000000  1
  Ga  Ga5  1  0.769890  0.013783  0.000000  1
  Ru  Ru6  1  0.355431  0.687035  0.000000  1
  Ru  Ru7  1  0.644569  0.331602  0.000000  1
  Rh  Rh8  1  0.000000  0.989762  0.500000  1
