# generated using pymatgen
data_Cs2ZrP3WO12
_symmetry_space_group_name_H-M   'P 1'
_cell_length_a   10.44449200
_cell_length_b   10.44449200
_cell_length_c   10.44449200
_cell_angle_alpha   90.00000000
_cell_angle_beta   90.00000000
_cell_angle_gamma   90.00000000
_symmetry_Int_Tables_number   1
_chemical_formula_structural   Cs2ZrP3WO12
_chemical_formula_sum   'Cs8 Zr4 P12 W4 O48'
_cell_volume   1139.36261382
_cell_formula_units_Z   4
loop_
 _symmetry_equiv_pos_site_id
 _symmetry_equiv_pos_as_xyz
  1  'x, y, z'
loop_
 _atom_site_type_symbol
 _atom_site_label
 _atom_site_symmetry_multiplicity
 _atom_site_fract_x
 _atom_site_fract_y
 _atom_site_fract_z
 _atom_site_occupancy
  Cs  Cs0  1  0.817111  0.817111  0.817111  1
  Cs  Cs1  1  0.682889  0.182889  0.317111  1
  Cs  Cs2  1  0.182889  0.317111  0.682889  1
  Cs  Cs3  1  0.317111  0.682889  0.182889  1
  Cs  Cs4  1  0.041012  0.041012  0.041012  1
  Cs  Cs5  1  0.458988  0.958988  0.541012  1
  Cs  Cs6  1  0.958988  0.541012  0.458988  1
  Cs  Cs7  1  0.541012  0.458988  0.958988  1
  Zr  Zr8  1  0.336809  0.336809  0.336809  1
  Zr  Zr9  1  0.163191  0.663191  0.836809  1
  Zr  Zr10  1  0.663191  0.836809  0.163191  1
  Zr  Zr11  1  0.836809  0.163191  0.663191  1
  P  P12  1  0.020964  0.209903  0.374542  1
  P  P13  1  0.479036  0.790097  0.874542  1
  P  P14  1  0.979036  0.709903  0.125458  1
  P  P15  1  0.374542  0.020964  0.209903  1
  P  P16  1  0.520964  0.290097  0.625458  1
  P  P17  1  0.874542  0.479036  0.790097  1
  P  P18  1  0.125458  0.979036  0.709903  1
  P  P19  1  0.625458  0.520964  0.290097  1
  P  P20  1  0.209903  0.374542  0.020964  1
  P  P21  1  0.709903  0.125458  0.979036  1
  P  P22  1  0.290097  0.625458  0.520964  1
  P  P23  1  0.790097  0.874542  0.479036  1
  W  W24  1  0.604803  0.604803  0.604803  1
  W  W25  1  0.895197  0.395197  0.104803  1
  W  W26  1  0.395197  0.104803  0.895197  1
  W  W27  1  0.104803  0.895197  0.395197  1
  O  O28  1  0.162256  0.254457  0.393736  1
  O  O29  1  0.337744  0.745543  0.893736  1
  O  O30  1  0.837744  0.754457  0.106264  1
  O  O31  1  0.393736  0.162256  0.254457  1
  O  O32  1  0.662256  0.245543  0.606264  1
  O  O33  1  0.893736  0.337744  0.745543  1
  O  O34  1  0.106264  0.837744  0.754457  1
  O  O35  1  0.606264  0.662256  0.245543  1
  O  O36  1  0.254457  0.393736  0.162256  1
  O  O37  1  0.754457  0.106264  0.837744  1
  O  O38  1  0.245543  0.606264  0.662256  1
  O  O39  1  0.745543  0.893736  0.337744  1
  O  O40  1  0.014945  0.069808  0.329503  1
  O  O41  1  0.485055  0.930192  0.829503  1
  O  O42  1  0.985055  0.569808  0.170497  1
  O  O43  1  0.329503  0.014945  0.069808  1
  O  O44  1  0.514945  0.430192  0.670497  1
  O  O45  1  0.829503  0.485055  0.930192  1
  O  O46  1  0.170497  0.985055  0.569808  1
  O  O47  1  0.670497  0.514945  0.430192  1
  O  O48  1  0.069808  0.329503  0.014945  1
  O  O49  1  0.569808  0.170497  0.985055  1
  O  O50  1  0.430192  0.670497  0.514945  1
  O  O51  1  0.930192  0.829503  0.485055  1
  O  O52  1  0.275005  0.494035  0.450062  1
  O  O53  1  0.224995  0.505965  0.950062  1
  O  O54  1  0.724995  0.994035  0.049938  1
  O  O55  1  0.450062  0.275005  0.494035  1
  O  O56  1  0.775005  0.005965  0.549938  1
  O  O57  1  0.950062  0.224995  0.505965  1
  O  O58  1  0.049938  0.724995  0.994035  1
  O  O59  1  0.549938  0.775005  0.005965  1
  O  O60  1  0.494035  0.450062  0.275005  1
  O  O61  1  0.994035  0.049938  0.724995  1
  O  O62  1  0.005965  0.549938  0.775005  1
  O  O63  1  0.505965  0.950062  0.224995  1
  O  O64  1  0.046911  0.798334  0.220642  1
  O  O65  1  0.453089  0.201666  0.720642  1
  O  O66  1  0.953089  0.298334  0.279358  1
  O  O67  1  0.220642  0.046911  0.798334  1
  O  O68  1  0.546911  0.701666  0.779358  1
  O  O69  1  0.720642  0.453089  0.201666  1
  O  O70  1  0.279358  0.953089  0.298334  1
  O  O71  1  0.779358  0.546911  0.701666  1
  O  O72  1  0.798334  0.220642  0.046911  1
  O  O73  1  0.298334  0.279358  0.953089  1
  O  O74  1  0.701666  0.779358  0.546911  1
  O  O75  1  0.201666  0.720642  0.453089  1
