# generated using pymatgen
data_Dy4ErPaGa10
_symmetry_space_group_name_H-M   'P 1'
_cell_length_a   6.12548703
_cell_length_b   9.63275982
_cell_length_c   11.49478800
_cell_angle_alpha   90.00000000
_cell_angle_beta   90.00000000
_cell_angle_gamma   90.02946901
_symmetry_Int_Tables_number   1
_chemical_formula_structural   Dy4ErPaGa10
_chemical_formula_sum   'Dy8 Er2 Pa2 Ga20'
_cell_volume   678.25384593
_cell_formula_units_Z   2
loop_
 _symmetry_equiv_pos_site_id
 _symmetry_equiv_pos_as_xyz
  1  'x, y, z'
loop_
 _atom_site_type_symbol
 _atom_site_label
 _atom_site_symmetry_multiplicity
 _atom_site_fract_x
 _atom_site_fract_y
 _atom_site_fract_z
 _atom_site_occupancy
  Dy  Dy0  1  0.146763  0.248091  0.925073  1
  Dy  Dy1  1  0.353237  0.251909  0.425073  1
  Dy  Dy2  1  0.111881  0.009136  0.648702  1
  Dy  Dy3  1  0.388119  0.490864  0.148702  1
  Dy  Dy4  1  0.111655  0.489959  0.648734  1
  Dy  Dy5  1  0.388345  0.010041  0.148734  1
  Dy  Dy6  1  0.888807  0.990556  0.351422  1
  Dy  Dy7  1  0.611193  0.509444  0.851422  1
  Er  Er8  1  0.851899  0.749232  0.074451  1
  Er  Er9  1  0.648101  0.750768  0.574451  1
  Pa  Pa10  1  0.886402  0.511033  0.353750  1
  Pa  Pa11  1  0.613598  0.988967  0.853750  1
  Ga  Ga12  1  0.871203  0.053595  0.090268  1
  Ga  Ga13  1  0.628797  0.446405  0.590268  1
  Ga  Ga14  1  0.127993  0.552211  0.907559  1
  Ga  Ga15  1  0.372007  0.947789  0.407559  1
  Ga  Ga16  1  0.124738  0.946443  0.908685  1
  Ga  Ga17  1  0.375262  0.553557  0.408685  1
  Ga  Ga18  1  0.871922  0.446563  0.091593  1
  Ga  Ga19  1  0.628078  0.053437  0.591593  1
  Ga  Ga20  1  0.172233  0.749636  0.255108  1
  Ga  Ga21  1  0.327767  0.750364  0.755108  1
  Ga  Ga22  1  0.824645  0.248887  0.746014  1
  Ga  Ga23  1  0.675355  0.251113  0.246014  1
  Ga  Ga24  1  0.375823  0.751141  0.002129  1
  Ga  Ga25  1  0.124177  0.748859  0.502129  1
  Ga  Ga26  1  0.624810  0.248710  0.994641  1
  Ga  Ga27  1  0.875190  0.251290  0.494641  1
  Ga  Ga28  1  0.602681  0.749883  0.299773  1
  Ga  Ga29  1  0.897319  0.750117  0.799773  1
  Ga  Ga30  1  0.401368  0.247585  0.702097  1
  Ga  Ga31  1  0.098632  0.252415  0.202097  1
