# generated using pymatgen
data_ZrMnGa6Fe5
_symmetry_space_group_name_H-M   'P 1'
_cell_length_a   6.54035877
_cell_length_b   6.54035765
_cell_length_c   6.54035790
_cell_angle_alpha   135.11914001
_cell_angle_beta   99.67524876
_cell_angle_gamma   97.08610914
_symmetry_Int_Tables_number   1
_chemical_formula_structural   ZrMnGa6Fe5
_chemical_formula_sum   'Zr1 Mn1 Ga6 Fe5'
_cell_volume   182.40554468
_cell_formula_units_Z   1
loop_
 _symmetry_equiv_pos_site_id
 _symmetry_equiv_pos_as_xyz
  1  'x, y, z'
loop_
 _atom_site_type_symbol
 _atom_site_label
 _atom_site_symmetry_multiplicity
 _atom_site_fract_x
 _atom_site_fract_y
 _atom_site_fract_z
 _atom_site_occupancy
  Zr  Zr0  1  0.998923  0.000000  0.998923  1
  Mn  Mn1  1  0.757457  0.500000  0.257457  1
  Ga  Ga2  1  0.330460  0.000000  0.330460  1
  Ga  Ga3  1  0.668947  0.000000  0.668947  1
  Ga  Ga4  1  0.659300  0.659257  0.000043  1
  Ga  Ga5  1  0.340786  0.340743  0.000043  1
  Ga  Ga6  1  0.176149  0.675978  0.500171  1
  Ga  Ga7  1  0.824194  0.324022  0.500171  1
  Fe  Fe8  1  0.244313  0.500000  0.744313  1
  Fe  Fe9  1  0.000690  0.000786  0.499831  1
  Fe  Fe10  1  0.000690  0.500859  0.999904  1
  Fe  Fe11  1  0.499045  0.999214  0.999904  1
  Fe  Fe12  1  0.499045  0.499141  0.499831  1
