# generated using pymatgen
data_Pr10GaSi4Hg
_symmetry_space_group_name_H-M   'P 1'
_cell_length_a   7.88652200
_cell_length_b   9.20311495
_cell_length_c   7.88652200
_cell_angle_alpha   115.37051772
_cell_angle_beta   90.00000000
_cell_angle_gamma   115.37051772
_symmetry_Int_Tables_number   1
_chemical_formula_structural   Pr10GaSi4Hg
_chemical_formula_sum   'Pr10 Ga1 Si4 Hg1'
_cell_volume   455.35300587
_cell_formula_units_Z   1
loop_
 _symmetry_equiv_pos_site_id
 _symmetry_equiv_pos_as_xyz
  1  'x, y, z'
loop_
 _atom_site_type_symbol
 _atom_site_label
 _atom_site_symmetry_multiplicity
 _atom_site_fract_x
 _atom_site_fract_y
 _atom_site_fract_z
 _atom_site_occupancy
  Pr  Pr0  1  0.980818  0.961638  0.980818  1
  Pr  Pr1  1  0.519182  0.038362  0.519182  1
  Pr  Pr2  1  0.533020  0.717708  0.678314  1
  Pr  Pr3  1  0.184689  0.717708  0.039395  1
  Pr  Pr4  1  0.678314  0.717708  0.184689  1
  Pr  Pr5  1  0.039395  0.717708  0.533020  1
  Pr  Pr6  1  0.460605  0.282292  0.315311  1
  Pr  Pr7  1  0.821686  0.282292  0.966980  1
  Pr  Pr8  1  0.315311  0.282292  0.821686  1
  Pr  Pr9  1  0.966980  0.282292  0.460605  1
  Ga  Ga10  1  0.750000  0.500000  0.750000  1
  Si  Si11  1  0.885712  0.000000  0.614288  1
  Si  Si12  1  0.114288  0.000000  0.385712  1
  Si  Si13  1  0.614288  0.000000  0.114288  1
  Si  Si14  1  0.385712  0.000000  0.885712  1
  Hg  Hg15  1  0.250000  0.500000  0.250000  1
