# generated using pymatgen
data_Tm3Al12FeNiOs2
_symmetry_space_group_name_H-M   'P 1'
_cell_length_a   8.73714055
_cell_length_b   8.73713957
_cell_length_c   9.39787308
_cell_angle_alpha   90.36367539
_cell_angle_beta   89.63632077
_cell_angle_gamma   120.34284638
_symmetry_Int_Tables_number   1
_chemical_formula_structural   Tm3Al12FeNiOs2
_chemical_formula_sum   'Tm6 Al24 Fe2 Ni2 Os4'
_cell_volume   619.12224571
_cell_formula_units_Z   2
loop_
 _symmetry_equiv_pos_site_id
 _symmetry_equiv_pos_as_xyz
  1  'x, y, z'
loop_
 _atom_site_type_symbol
 _atom_site_label
 _atom_site_symmetry_multiplicity
 _atom_site_fract_x
 _atom_site_fract_y
 _atom_site_fract_z
 _atom_site_occupancy
  Tm  Tm0  1  0.199840  0.390180  0.249891  1
  Tm  Tm1  1  0.800160  0.609820  0.750109  1
  Tm  Tm2  1  0.609820  0.800160  0.249891  1
  Tm  Tm3  1  0.390180  0.199840  0.750109  1
  Tm  Tm4  1  0.193429  0.806571  0.252034  1
  Tm  Tm5  1  0.806571  0.193429  0.747966  1
  Al  Al6  1  0.331176  0.668824  0.021223  1
  Al  Al7  1  0.668824  0.331176  0.978777  1
  Al  Al8  1  0.666790  0.333210  0.517787  1
  Al  Al9  1  0.333210  0.666790  0.482213  1
  Al  Al10  1  0.158631  0.319253  0.575936  1
  Al  Al11  1  0.841369  0.680747  0.424064  1
  Al  Al12  1  0.680747  0.841369  0.575936  1
  Al  Al13  1  0.839407  0.679125  0.075863  1
  Al  Al14  1  0.319253  0.158631  0.424064  1
  Al  Al15  1  0.160593  0.320875  0.924137  1
  Al  Al16  1  0.159181  0.840819  0.577919  1
  Al  Al17  1  0.320875  0.160593  0.075863  1
  Al  Al18  1  0.840819  0.159181  0.422081  1
  Al  Al19  1  0.679125  0.839407  0.924137  1
  Al  Al20  1  0.840653  0.159347  0.076006  1
  Al  Al21  1  0.159347  0.840653  0.923994  1
  Al  Al22  1  0.560921  0.120219  0.244304  1
  Al  Al23  1  0.439079  0.879781  0.755696  1
  Al  Al24  1  0.879781  0.439079  0.244304  1
  Al  Al25  1  0.120219  0.560921  0.755696  1
  Al  Al26  1  0.563602  0.436398  0.247956  1
  Al  Al27  1  0.436398  0.563602  0.752044  1
  Al  Al28  1  0.000494  0.999506  0.250376  1
  Al  Al29  1  0.999506  0.000494  0.749624  1
  Fe  Fe30  1  0.000000  0.000000  0.000000  1
  Fe  Fe31  1  0.000000  0.000000  0.500000  1
  Ni  Ni32  1  0.500000  0.000000  0.000000  1
  Ni  Ni33  1  0.000000  0.500000  0.000000  1
  Os  Os34  1  0.500000  0.000000  0.500000  1
  Os  Os35  1  0.500000  0.500000  0.000000  1
  Os  Os36  1  0.000000  0.500000  0.500000  1
  Os  Os37  1  0.500000  0.500000  0.500000  1
