# generated using pymatgen
data_Tb4MoI4
_symmetry_space_group_name_H-M   'P 1'
_cell_length_a   11.40628639
_cell_length_b   11.40628643
_cell_length_c   6.01761321
_cell_angle_alpha   90.39788834
_cell_angle_beta   90.39788383
_cell_angle_gamma   90.00389901
_symmetry_Int_Tables_number   1
_chemical_formula_structural   Tb4MoI4
_chemical_formula_sum   'Tb8 Mo2 I8'
_cell_volume   782.87399529
_cell_formula_units_Z   2
loop_
 _symmetry_equiv_pos_site_id
 _symmetry_equiv_pos_as_xyz
  1  'x, y, z'
loop_
 _atom_site_type_symbol
 _atom_site_label
 _atom_site_symmetry_multiplicity
 _atom_site_fract_x
 _atom_site_fract_y
 _atom_site_fract_z
 _atom_site_occupancy
  Tb  Tb0  1  0.206713  0.915204  0.002801  1
  Tb  Tb1  1  0.793287  0.084796  0.997199  1
  Tb  Tb2  1  0.084796  0.793287  0.497199  1
  Tb  Tb3  1  0.915204  0.206713  0.502801  1
  Tb  Tb4  1  0.793273  0.915200  0.496373  1
  Tb  Tb5  1  0.206727  0.084800  0.503627  1
  Tb  Tb6  1  0.084800  0.206727  0.003627  1
  Tb  Tb7  1  0.915200  0.793273  0.996373  1
  Mo  Mo8  1  0.999737  0.000263  0.250000  1
  Mo  Mo9  1  0.000263  0.999737  0.750000  1
  I  I10  1  0.359407  0.848697  0.495267  1
  I  I11  1  0.640593  0.151303  0.504733  1
  I  I12  1  0.151303  0.640593  0.004733  1
  I  I13  1  0.848697  0.359407  0.995267  1
  I  I14  1  0.359266  0.151564  0.013074  1
  I  I15  1  0.640734  0.848436  0.986926  1
  I  I16  1  0.848436  0.640734  0.486926  1
  I  I17  1  0.151564  0.359266  0.513074  1
