# generated using pymatgen
data_Y4ErTm3(B6Ru)4
_symmetry_space_group_name_H-M   'P 1'
_cell_length_a   3.64171200
_cell_length_b   9.11192701
_cell_length_c   11.49817602
_cell_angle_alpha   90.00642722
_cell_angle_beta   90.00000000
_cell_angle_gamma   90.00000000
_symmetry_Int_Tables_number   1
_chemical_formula_structural   Y4ErTm3(B6Ru)4
_chemical_formula_sum   'Y4 Er1 Tm3 B24 Ru4'
_cell_volume   381.54413282
_cell_formula_units_Z   1
loop_
 _symmetry_equiv_pos_site_id
 _symmetry_equiv_pos_as_xyz
  1  'x, y, z'
loop_
 _atom_site_type_symbol
 _atom_site_label
 _atom_site_symmetry_multiplicity
 _atom_site_fract_x
 _atom_site_fract_y
 _atom_site_fract_z
 _atom_site_occupancy
  Y  Y0  1  0.000000  0.321905  0.414262  1
  Y  Y1  1  0.000000  0.678123  0.585890  1
  Y  Y2  1  0.000000  0.821742  0.085691  1
  Y  Y3  1  0.000000  0.178269  0.914195  1
  Er  Er4  1  0.000000  0.943785  0.372330  1
  Tm  Tm5  1  0.000000  0.056279  0.627905  1
  Tm  Tm6  1  0.000000  0.443792  0.127633  1
  Tm  Tm7  1  0.000000  0.556216  0.872283  1
  B  B8  1  0.500000  0.554327  0.432810  1
  B  B9  1  0.500000  0.445471  0.567264  1
  B  B10  1  0.500000  0.054548  0.067109  1
  B  B11  1  0.500000  0.945499  0.932766  1
  B  B12  1  0.500000  0.748811  0.419270  1
  B  B13  1  0.500000  0.250875  0.580834  1
  B  B14  1  0.500000  0.249285  0.080716  1
  B  B15  1  0.500000  0.750792  0.919226  1
  B  B16  1  0.500000  0.791153  0.265842  1
  B  B17  1  0.500000  0.208540  0.734086  1
  B  B18  1  0.500000  0.291669  0.233975  1
  B  B19  1  0.500000  0.708487  0.765980  1
  B  B20  1  0.500000  0.630887  0.184495  1
  B  B21  1  0.500000  0.369021  0.815445  1
  B  B22  1  0.500000  0.131347  0.315290  1
  B  B23  1  0.500000  0.868965  0.684651  1
  B  B24  1  0.500000  0.983437  0.213063  1
  B  B25  1  0.500000  0.016758  0.786692  1
  B  B26  1  0.500000  0.483129  0.286613  1
  B  B27  1  0.500000  0.516779  0.713360  1
  B  B28  1  0.500000  0.605277  0.028868  1
  B  B29  1  0.500000  0.394712  0.971071  1
  B  B30  1  0.500000  0.105863  0.471269  1
  B  B31  1  0.500000  0.894406  0.529283  1
  Ru  Ru32  1  0.000000  0.638021  0.320244  1
  Ru  Ru33  1  0.000000  0.361565  0.679783  1
  Ru  Ru34  1  0.000000  0.138749  0.179475  1
  Ru  Ru35  1  0.000000  0.861516  0.820331  1
