# generated using pymatgen
data_Dy3Tm(Si5Pt3)2
_symmetry_space_group_name_H-M   'P 1'
_cell_length_a   8.15443264
_cell_length_b   8.14373549
_cell_length_c   8.14373547
_cell_angle_alpha   136.30713853
_cell_angle_beta   104.45309994
_cell_angle_gamma   91.54694022
_symmetry_Int_Tables_number   1
_chemical_formula_structural   Dy3Tm(Si5Pt3)2
_chemical_formula_sum   'Dy3 Tm1 Si10 Pt6'
_cell_volume   343.92324940
_cell_formula_units_Z   1
loop_
 _symmetry_equiv_pos_site_id
 _symmetry_equiv_pos_as_xyz
  1  'x, y, z'
loop_
 _atom_site_type_symbol
 _atom_site_label
 _atom_site_symmetry_multiplicity
 _atom_site_fract_x
 _atom_site_fract_y
 _atom_site_fract_z
 _atom_site_occupancy
  Dy  Dy0  1  0.641437  0.370415  0.271022  1
  Dy  Dy1  1  0.358511  0.629540  0.728971  1
  Dy  Dy2  1  0.099364  0.870382  0.228983  1
  Tm  Tm3  1  0.901051  0.129753  0.771297  1
  Si  Si4  1  0.271449  0.521621  0.249375  1
  Si  Si5  1  0.728021  0.478200  0.750347  1
  Si  Si6  1  0.728021  0.977675  0.249822  1
  Si  Si7  1  0.271449  0.022074  0.749828  1
  Si  Si8  1  0.460563  0.112117  0.348445  1
  Si  Si9  1  0.540243  0.888650  0.651593  1
  Si  Si10  1  0.763370  0.612111  0.151260  1
  Si  Si11  1  0.236273  0.387400  0.848873  1
  Si  Si12  1  0.000045  0.250231  0.250072  1
  Si  Si13  1  0.000045  0.749973  0.749813  1
  Pt  Pt14  1  0.250021  0.137487  0.112533  1
  Pt  Pt15  1  0.750295  0.862996  0.887299  1
  Pt  Pt16  1  0.024644  0.637495  0.387149  1
  Pt  Pt17  1  0.974814  0.361826  0.612987  1
  Pt  Pt18  1  0.500193  0.249841  0.749979  1
  Pt  Pt19  1  0.500193  0.750215  0.250353  1
