# generated using pymatgen
data_Cs2NaInBi2
_symmetry_space_group_name_H-M   'P 1'
_cell_length_a   11.75514935
_cell_length_b   11.75514935
_cell_length_c   7.52425200
_cell_angle_alpha   90.00000000
_cell_angle_beta   90.00000000
_cell_angle_gamma   100.95152321
_symmetry_Int_Tables_number   1
_chemical_formula_structural   Cs2NaInBi2
_chemical_formula_sum   'Cs8 Na4 In4 Bi8'
_cell_volume   1020.79250961
_cell_formula_units_Z   4
loop_
 _symmetry_equiv_pos_site_id
 _symmetry_equiv_pos_as_xyz
  1  'x, y, z'
loop_
 _atom_site_type_symbol
 _atom_site_label
 _atom_site_symmetry_multiplicity
 _atom_site_fract_x
 _atom_site_fract_y
 _atom_site_fract_z
 _atom_site_occupancy
  Cs  Cs0  1  0.079290  0.420710  0.250000  1
  Cs  Cs1  1  0.420710  0.079290  0.750000  1
  Cs  Cs2  1  0.920710  0.579290  0.750000  1
  Cs  Cs3  1  0.579290  0.920710  0.250000  1
  Cs  Cs4  1  0.670992  0.329008  0.220176  1
  Cs  Cs5  1  0.829008  0.170992  0.720176  1
  Cs  Cs6  1  0.329008  0.670992  0.779824  1
  Cs  Cs7  1  0.170992  0.829008  0.279824  1
  Na  Na8  1  0.380186  0.380186  0.000000  1
  Na  Na9  1  0.119814  0.119814  0.500000  1
  Na  Na10  1  0.619814  0.619814  0.000000  1
  Na  Na11  1  0.880186  0.880186  0.500000  1
  In  In12  1  0.132031  0.132031  0.000000  1
  In  In13  1  0.367969  0.367969  0.500000  1
  In  In14  1  0.867969  0.867969  0.000000  1
  In  In15  1  0.632031  0.632031  0.500000  1
  Bi  Bi16  1  0.846023  0.653976  0.250000  1
  Bi  Bi17  1  0.653976  0.846023  0.750000  1
  Bi  Bi18  1  0.153976  0.346023  0.750000  1
  Bi  Bi19  1  0.346023  0.153976  0.250000  1
  Bi  Bi20  1  0.903950  0.096050  0.203982  1
  Bi  Bi21  1  0.596050  0.403950  0.703982  1
  Bi  Bi22  1  0.096050  0.903950  0.796018  1
  Bi  Bi23  1  0.403950  0.596050  0.296018  1
