# generated using pymatgen
data_Er8Nb12Si15P
_symmetry_space_group_name_H-M   'P 1'
_cell_length_a   6.79946000
_cell_length_b   7.00747664
_cell_length_c   13.28417200
_cell_angle_alpha   90.00000000
_cell_angle_beta   90.00000000
_cell_angle_gamma   90.06596703
_symmetry_Int_Tables_number   1
_chemical_formula_structural   Er8Nb12Si15P
_chemical_formula_sum   'Er8 Nb12 Si15 P1'
_cell_volume   632.95128290
_cell_formula_units_Z   1
loop_
 _symmetry_equiv_pos_site_id
 _symmetry_equiv_pos_as_xyz
  1  'x, y, z'
loop_
 _atom_site_type_symbol
 _atom_site_label
 _atom_site_symmetry_multiplicity
 _atom_site_fract_x
 _atom_site_fract_y
 _atom_site_fract_z
 _atom_site_occupancy
  Er  Er0  1  0.004332  0.172500  0.095637  1
  Er  Er1  1  0.996615  0.830428  0.903117  1
  Er  Er2  1  0.496690  0.672228  0.905037  1
  Er  Er3  1  0.996615  0.830428  0.596883  1
  Er  Er4  1  0.504054  0.327592  0.095373  1
  Er  Er5  1  0.004332  0.172500  0.404363  1
  Er  Er6  1  0.504054  0.327592  0.404627  1
  Er  Er7  1  0.496690  0.672228  0.594963  1
  Nb  Nb8  1  0.158449  0.492521  0.750000  1
  Nb  Nb9  1  0.840434  0.507049  0.250000  1
  Nb  Nb10  1  0.339605  0.993647  0.250000  1
  Nb  Nb11  1  0.662779  0.007559  0.750000  1
  Nb  Nb12  1  0.331213  0.173362  0.626555  1
  Nb  Nb13  1  0.665132  0.825105  0.374808  1
  Nb  Nb14  1  0.164519  0.674435  0.374572  1
  Nb  Nb15  1  0.665132  0.825105  0.125192  1
  Nb  Nb16  1  0.836631  0.324124  0.626500  1
  Nb  Nb17  1  0.331213  0.173362  0.873445  1
  Nb  Nb18  1  0.836631  0.324124  0.873500  1
  Nb  Nb19  1  0.164519  0.674435  0.125428  1
  Si  Si20  1  0.962170  0.880085  0.250000  1
  Si  Si21  1  0.461956  0.621017  0.250000  1
  Si  Si22  1  0.537667  0.378492  0.750000  1
  Si  Si23  1  0.297525  0.865532  0.750000  1
  Si  Si24  1  0.707438  0.130115  0.250000  1
  Si  Si25  1  0.207036  0.369860  0.250000  1
  Si  Si26  1  0.792625  0.629612  0.750000  1
  Si  Si27  1  0.162716  0.464619  0.540671  1
  Si  Si28  1  0.837219  0.536115  0.459799  1
  Si  Si29  1  0.336322  0.964018  0.459283  1
  Si  Si30  1  0.837219  0.536115  0.040201  1
  Si  Si31  1  0.661987  0.036665  0.540775  1
  Si  Si32  1  0.162716  0.464619  0.959329  1
  Si  Si33  1  0.661987  0.036665  0.959225  1
  Si  Si34  1  0.336322  0.964018  0.040717  1
  P  P35  1  0.037457  0.122133  0.750000  1
