# generated using pymatgen
data_Ho2ZnNiRh
_symmetry_space_group_name_H-M   'P 1'
_cell_length_a   5.37550966
_cell_length_b   5.37551088
_cell_length_c   5.37551077
_cell_angle_alpha   134.08081061
_cell_angle_beta   117.45910856
_cell_angle_gamma   80.97951020
_symmetry_Int_Tables_number   1
_chemical_formula_structural   Ho2ZnNiRh
_chemical_formula_sum   'Ho2 Zn1 Ni1 Rh1'
_cell_volume   95.67965516
_cell_formula_units_Z   1
loop_
 _symmetry_equiv_pos_site_id
 _symmetry_equiv_pos_as_xyz
  1  'x, y, z'
loop_
 _atom_site_type_symbol
 _atom_site_label
 _atom_site_symmetry_multiplicity
 _atom_site_fract_x
 _atom_site_fract_y
 _atom_site_fract_z
 _atom_site_occupancy
  Ho  Ho0  1  0.701569  0.204527  0.497042  1
  Ho  Ho1  1  0.292515  0.795473  0.497042  1
  Zn  Zn2  1  0.989647  0.000000  0.989647  1
  Ni  Ni3  1  0.738048  0.500000  0.238048  1
  Rh  Rh4  1  0.278220  0.500000  0.778220  1
