# generated using pymatgen
data_SmTm7(LuSb)12
_symmetry_space_group_name_H-M   'P 1'
_cell_length_a   8.05599916
_cell_length_b   9.13940700
_cell_length_c   11.70402000
_cell_angle_alpha   90.00000000
_cell_angle_beta   90.01154308
_cell_angle_gamma   90.00000000
_symmetry_Int_Tables_number   1
_chemical_formula_structural   SmTm7(LuSb)12
_chemical_formula_sum   'Sm1 Tm7 Lu12 Sb12'
_cell_volume   861.73250849
_cell_formula_units_Z   1
loop_
 _symmetry_equiv_pos_site_id
 _symmetry_equiv_pos_as_xyz
  1  'x, y, z'
loop_
 _atom_site_type_symbol
 _atom_site_label
 _atom_site_symmetry_multiplicity
 _atom_site_fract_x
 _atom_site_fract_y
 _atom_site_fract_z
 _atom_site_occupancy
  Sm  Sm0  1  0.175297  0.750000  0.227852  1
  Tm  Tm1  1  0.675633  0.250000  0.272447  1
  Tm  Tm2  1  0.823968  0.250000  0.771341  1
  Tm  Tm3  1  0.323722  0.750000  0.729129  1
  Tm  Tm4  1  0.660778  0.750000  0.291598  1
  Tm  Tm5  1  0.159394  0.250000  0.209295  1
  Tm  Tm6  1  0.340334  0.250000  0.709210  1
  Tm  Tm7  1  0.838650  0.750000  0.789901  1
  Lu  Lu8  1  0.811497  0.937551  0.065735  1
  Lu  Lu9  1  0.309152  0.062018  0.434578  1
  Lu  Lu10  1  0.191176  0.438155  0.934436  1
  Lu  Lu11  1  0.690085  0.561030  0.566394  1
  Lu  Lu12  1  0.191176  0.061845  0.934436  1
  Lu  Lu13  1  0.690085  0.938970  0.566394  1
  Lu  Lu14  1  0.811497  0.562449  0.065735  1
  Lu  Lu15  1  0.309152  0.437982  0.434578  1
  Lu  Lu16  1  0.526350  0.250000  0.994082  1
  Lu  Lu17  1  0.023673  0.750000  0.505092  1
  Lu  Lu18  1  0.476237  0.750000  0.004215  1
  Lu  Lu19  1  0.974589  0.250000  0.496612  1
  Sb  Sb20  1  0.932909  0.993553  0.327983  1
  Sb  Sb21  1  0.440488  0.010882  0.173174  1
  Sb  Sb22  1  0.062670  0.490878  0.673976  1
  Sb  Sb23  1  0.562444  0.508990  0.825377  1
  Sb  Sb24  1  0.062670  0.009122  0.673976  1
  Sb  Sb25  1  0.562444  0.991010  0.825377  1
  Sb  Sb26  1  0.932909  0.506447  0.327983  1
  Sb  Sb27  1  0.440488  0.489118  0.173174  1
  Sb  Sb28  1  0.902007  0.250000  0.025339  1
  Sb  Sb29  1  0.402234  0.750000  0.475358  1
  Sb  Sb30  1  0.098715  0.750000  0.969081  1
  Sb  Sb31  1  0.597578  0.250000  0.526140  1
