# generated using pymatgen
data_Sm6Al17Zn(Tc3Os4)2
_symmetry_space_group_name_H-M   'P 1'
_cell_length_a   8.85013300
_cell_length_b   8.85013275
_cell_length_c   9.66450300
_cell_angle_alpha   90.00000000
_cell_angle_beta   90.00000000
_cell_angle_gamma   119.99999721
_symmetry_Int_Tables_number   1
_chemical_formula_structural   Sm6Al17Zn(Tc3Os4)2
_chemical_formula_sum   'Sm6 Al17 Zn1 Tc6 Os8'
_cell_volume   655.55593156
_cell_formula_units_Z   1
loop_
 _symmetry_equiv_pos_site_id
 _symmetry_equiv_pos_as_xyz
  1  'x, y, z'
loop_
 _atom_site_type_symbol
 _atom_site_label
 _atom_site_symmetry_multiplicity
 _atom_site_fract_x
 _atom_site_fract_y
 _atom_site_fract_z
 _atom_site_occupancy
  Sm  Sm0  1  0.190360  0.380719  0.250000  1
  Sm  Sm1  1  0.804147  0.608295  0.750000  1
  Sm  Sm2  1  0.619281  0.809640  0.250000  1
  Sm  Sm3  1  0.391705  0.195853  0.750000  1
  Sm  Sm4  1  0.190360  0.809640  0.250000  1
  Sm  Sm5  1  0.804147  0.195853  0.750000  1
  Al  Al6  1  0.333333  0.666667  0.007256  1
  Al  Al7  1  0.666667  0.333333  0.992657  1
  Al  Al8  1  0.666667  0.333333  0.507343  1
  Al  Al9  1  0.333333  0.666667  0.492744  1
  Al  Al10  1  0.165078  0.330159  0.576975  1
  Al  Al11  1  0.835560  0.671117  0.424099  1
  Al  Al12  1  0.669841  0.834922  0.576975  1
  Al  Al13  1  0.835560  0.671117  0.075901  1
  Al  Al14  1  0.328883  0.164440  0.424099  1
  Al  Al15  1  0.165078  0.330159  0.923025  1
  Al  Al16  1  0.165078  0.834922  0.576975  1
  Al  Al17  1  0.328883  0.164440  0.075901  1
  Al  Al18  1  0.835560  0.164440  0.424099  1
  Al  Al19  1  0.669841  0.834922  0.923025  1
  Al  Al20  1  0.835560  0.164440  0.075901  1
  Al  Al21  1  0.165078  0.834922  0.923025  1
  Al  Al22  1  0.000000  0.000000  0.750000  1
  Zn  Zn23  1  0.000000  0.000000  0.250000  1
  Tc  Tc24  1  0.573366  0.146732  0.250000  1
  Tc  Tc25  1  0.426155  0.852310  0.750000  1
  Tc  Tc26  1  0.853268  0.426634  0.250000  1
  Tc  Tc27  1  0.147690  0.573845  0.750000  1
  Tc  Tc28  1  0.573366  0.426634  0.250000  1
  Tc  Tc29  1  0.426155  0.573845  0.750000  1
  Os  Os30  1  0.499616  0.999233  0.001717  1
  Os  Os31  1  0.000767  0.500384  0.001717  1
  Os  Os32  1  0.499616  0.999233  0.498283  1
  Os  Os33  1  0.499616  0.500384  0.001717  1
  Os  Os34  1  0.000767  0.500384  0.498283  1
  Os  Os35  1  0.499616  0.500384  0.498283  1
  Os  Os36  1  0.000000  0.000000  0.996022  1
  Os  Os37  1  0.000000  0.000000  0.503978  1
