# generated using pymatgen
data_Dy2Zr3Ge4
_symmetry_space_group_name_H-M   'P 1'
_cell_length_a   7.45907400
_cell_length_b   7.45907400
_cell_length_c   13.68457900
_cell_angle_alpha   90.00000000
_cell_angle_beta   90.00000000
_cell_angle_gamma   90.00000000
_symmetry_Int_Tables_number   1
_chemical_formula_structural   Dy2Zr3Ge4
_chemical_formula_sum   'Dy8 Zr12 Ge16'
_cell_volume   761.37966336
_cell_formula_units_Z   4
loop_
 _symmetry_equiv_pos_site_id
 _symmetry_equiv_pos_as_xyz
  1  'x, y, z'
loop_
 _atom_site_type_symbol
 _atom_site_label
 _atom_site_symmetry_multiplicity
 _atom_site_fract_x
 _atom_site_fract_y
 _atom_site_fract_z
 _atom_site_occupancy
  Dy  Dy0  1  0.000849  0.343112  0.532894  1
  Dy  Dy1  1  0.999151  0.656888  0.032894  1
  Dy  Dy2  1  0.843112  0.499151  0.282894  1
  Dy  Dy3  1  0.156888  0.500849  0.782894  1
  Dy  Dy4  1  0.656888  0.999151  0.967106  1
  Dy  Dy5  1  0.343112  0.000849  0.467106  1
  Dy  Dy6  1  0.499151  0.843112  0.717106  1
  Dy  Dy7  1  0.500849  0.156888  0.217106  1
  Zr  Zr8  1  0.827269  0.172731  0.750000  1
  Zr  Zr9  1  0.172731  0.827269  0.250000  1
  Zr  Zr10  1  0.672731  0.672731  0.500000  1
  Zr  Zr11  1  0.327269  0.327269  0.000000  1
  Zr  Zr12  1  0.504078  0.344539  0.623975  1
  Zr  Zr13  1  0.495922  0.655461  0.123975  1
  Zr  Zr14  1  0.844539  0.995922  0.373975  1
  Zr  Zr15  1  0.155461  0.004078  0.873975  1
  Zr  Zr16  1  0.655461  0.495922  0.876025  1
  Zr  Zr17  1  0.344539  0.504078  0.376025  1
  Zr  Zr18  1  0.995922  0.844539  0.626025  1
  Zr  Zr19  1  0.004078  0.155461  0.126025  1
  Ge  Ge20  1  0.634580  0.299054  0.426862  1
  Ge  Ge21  1  0.365420  0.700946  0.926862  1
  Ge  Ge22  1  0.799054  0.865420  0.176862  1
  Ge  Ge23  1  0.200946  0.134580  0.676862  1
  Ge  Ge24  1  0.700946  0.365420  0.073138  1
  Ge  Ge25  1  0.299054  0.634580  0.573138  1
  Ge  Ge26  1  0.865420  0.799054  0.823138  1
  Ge  Ge27  1  0.134580  0.200946  0.323138  1
  Ge  Ge28  1  0.702932  0.038886  0.567290  1
  Ge  Ge29  1  0.297068  0.961114  0.067290  1
  Ge  Ge30  1  0.538886  0.797068  0.317290  1
  Ge  Ge31  1  0.461114  0.202932  0.817290  1
  Ge  Ge32  1  0.961114  0.297068  0.932710  1
  Ge  Ge33  1  0.038886  0.702932  0.432710  1
  Ge  Ge34  1  0.797068  0.538886  0.682710  1
  Ge  Ge35  1  0.202932  0.461114  0.182710  1
