# generated using pymatgen
data_Ac7Sm(Er3Sn4)4
_symmetry_space_group_name_H-M   'P 1'
_cell_length_a   8.28114761
_cell_length_b   8.40549802
_cell_length_c   15.80260400
_cell_angle_alpha   90.04045572
_cell_angle_beta   90.02201569
_cell_angle_gamma   90.17434306
_symmetry_Int_Tables_number   1
_chemical_formula_structural   Ac7Sm(Er3Sn4)4
_chemical_formula_sum   'Ac7 Sm1 Er12 Sn16'
_cell_volume   1099.96909148
_cell_formula_units_Z   1
loop_
 _symmetry_equiv_pos_site_id
 _symmetry_equiv_pos_as_xyz
  1  'x, y, z'
loop_
 _atom_site_type_symbol
 _atom_site_label
 _atom_site_symmetry_multiplicity
 _atom_site_fract_x
 _atom_site_fract_y
 _atom_site_fract_z
 _atom_site_occupancy
  Ac  Ac0  1  0.511049  0.326090  0.905172  1
  Ac  Ac1  1  0.010337  0.171678  0.594814  1
  Ac  Ac2  1  0.488749  0.672260  0.405504  1
  Ac  Ac3  1  0.987920  0.828221  0.092808  1
  Ac  Ac4  1  0.492053  0.673530  0.092396  1
  Ac  Ac5  1  0.988835  0.827485  0.405621  1
  Ac  Ac6  1  0.511983  0.326817  0.597252  1
  Sm  Sm7  1  0.015002  0.175423  0.902306  1
  Er  Er8  1  0.349458  0.840747  0.876405  1
  Er  Er9  1  0.849788  0.660617  0.628580  1
  Er  Er10  1  0.649932  0.162080  0.374603  1
  Er  Er11  1  0.150477  0.336615  0.124892  1
  Er  Er12  1  0.648729  0.159683  0.123170  1
  Er  Er13  1  0.151011  0.339496  0.373885  1
  Er  Er14  1  0.348381  0.839175  0.626744  1
  Er  Er15  1  0.848612  0.662265  0.874068  1
  Er  Er16  1  0.183945  0.504434  0.751486  1
  Er  Er17  1  0.685559  0.997702  0.751738  1
  Er  Er18  1  0.815360  0.494010  0.249248  1
  Er  Er19  1  0.313484  0.004064  0.248942  1
  Sn  Sn20  1  0.309779  0.048375  0.041084  1
  Sn  Sn21  1  0.819288  0.454376  0.456323  1
  Sn  Sn22  1  0.679965  0.951889  0.545292  1
  Sn  Sn23  1  0.176822  0.539091  0.955312  1
  Sn  Sn24  1  0.691902  0.961005  0.953227  1
  Sn  Sn25  1  0.180498  0.545883  0.545387  1
  Sn  Sn26  1  0.319031  0.047640  0.455733  1
  Sn  Sn27  1  0.824019  0.449231  0.040874  1
  Sn  Sn28  1  0.544870  0.634375  0.751616  1
  Sn  Sn29  1  0.046928  0.870833  0.752573  1
  Sn  Sn30  1  0.454242  0.365838  0.248191  1
  Sn  Sn31  1  0.952166  0.132939  0.249846  1
  Sn  Sn32  1  0.312816  0.138922  0.752471  1
  Sn  Sn33  1  0.824307  0.356293  0.754143  1
  Sn  Sn34  1  0.680743  0.862140  0.249374  1
  Sn  Sn35  1  0.181956  0.638778  0.248916  1
