# generated using pymatgen
data_Tb20(PdRh3)3
_symmetry_space_group_name_H-M   'P 1'
_cell_length_a   11.05313611
_cell_length_b   11.03761799
_cell_length_c   6.35731207
_cell_angle_alpha   90.00375103
_cell_angle_beta   89.98670016
_cell_angle_gamma   90.03813991
_symmetry_Int_Tables_number   1
_chemical_formula_structural   Tb20(PdRh3)3
_chemical_formula_sum   'Tb20 Pd3 Rh9'
_cell_volume   775.59374686
_cell_formula_units_Z   1
loop_
 _symmetry_equiv_pos_site_id
 _symmetry_equiv_pos_as_xyz
  1  'x, y, z'
loop_
 _atom_site_type_symbol
 _atom_site_label
 _atom_site_symmetry_multiplicity
 _atom_site_fract_x
 _atom_site_fract_y
 _atom_site_fract_z
 _atom_site_occupancy
  Tb  Tb0  1  0.290579  0.085992  0.380273  1
  Tb  Tb1  1  0.290770  0.914140  0.880945  1
  Tb  Tb2  1  0.708714  0.089795  0.881621  1
  Tb  Tb3  1  0.709074  0.910045  0.381064  1
  Tb  Tb4  1  0.592806  0.794327  0.880620  1
  Tb  Tb5  1  0.593456  0.206076  0.379842  1
  Tb  Tb6  1  0.412297  0.793205  0.372579  1
  Tb  Tb7  1  0.412883  0.206520  0.873225  1
  Tb  Tb8  1  0.206640  0.406451  0.629957  1
  Tb  Tb9  1  0.205612  0.593508  0.122009  1
  Tb  Tb10  1  0.790151  0.408306  0.118484  1
  Tb  Tb11  1  0.789357  0.592008  0.625724  1
  Tb  Tb12  1  0.907256  0.710313  0.116423  1
  Tb  Tb13  1  0.907224  0.288600  0.623080  1
  Tb  Tb14  1  0.086381  0.712114  0.624108  1
  Tb  Tb15  1  0.086403  0.288583  0.117216  1
  Tb  Tb16  1  0.999722  0.000754  0.498513  1
  Tb  Tb17  1  0.999426  0.999153  0.998659  1
  Tb  Tb18  1  0.504102  0.501201  0.999230  1
  Tb  Tb19  1  0.504601  0.498914  0.498998  1
  Pd  Pd20  1  0.344364  0.345855  0.250418  1
  Pd  Pd21  1  0.345301  0.654776  0.749869  1
  Pd  Pd22  1  0.000864  0.500347  0.374582  1
  Rh  Rh23  1  0.846406  0.155782  0.249302  1
  Rh  Rh24  1  0.845776  0.845029  0.749201  1
  Rh  Rh25  1  0.155853  0.155826  0.750512  1
  Rh  Rh26  1  0.155221  0.843407  0.250961  1
  Rh  Rh27  1  0.654344  0.345281  0.749472  1
  Rh  Rh28  1  0.654845  0.654296  0.249314  1
  Rh  Rh29  1  0.498923  0.000858  0.125325  1
  Rh  Rh30  1  0.498907  0.999349  0.624829  1
  Rh  Rh31  1  0.001741  0.499189  0.873644  1
