# generated using pymatgen
data_DyTmAg2(Pt2O7)2
_symmetry_space_group_name_H-M   'P 1'
_cell_length_a   7.22856999
_cell_length_b   7.21511940
_cell_length_c   7.14167900
_cell_angle_alpha   60.33613613
_cell_angle_beta   60.39683995
_cell_angle_gamma   61.43376496
_symmetry_Int_Tables_number   1
_chemical_formula_structural   DyTmAg2(Pt2O7)2
_chemical_formula_sum   'Dy1 Tm1 Ag2 Pt4 O14'
_cell_volume   267.61066341
_cell_formula_units_Z   1
loop_
 _symmetry_equiv_pos_site_id
 _symmetry_equiv_pos_as_xyz
  1  'x, y, z'
loop_
 _atom_site_type_symbol
 _atom_site_label
 _atom_site_symmetry_multiplicity
 _atom_site_fract_x
 _atom_site_fract_y
 _atom_site_fract_z
 _atom_site_occupancy
  Dy  Dy0  1  0.125000  0.625000  0.125000  1
  Tm  Tm1  1  0.625000  0.125000  0.125000  1
  Ag  Ag2  1  0.125000  0.125000  0.625000  1
  Ag  Ag3  1  0.125000  0.125000  0.125000  1
  Pt  Pt4  1  0.625000  0.625000  0.625000  1
  Pt  Pt5  1  0.125000  0.625000  0.625000  1
  Pt  Pt6  1  0.625000  0.125000  0.625000  1
  Pt  Pt7  1  0.625000  0.625000  0.125000  1
  O  O8  1  0.293905  0.695908  0.721740  1
  O  O9  1  0.555515  0.957168  0.962133  1
  O  O10  1  0.694485  0.292832  0.724817  1
  O  O11  1  0.295304  0.294885  0.704905  1
  O  O12  1  0.717709  0.721827  0.280232  1
  O  O13  1  0.006739  0.013726  0.989767  1
  O  O14  1  0.293905  0.695908  0.288447  1
  O  O15  1  0.956095  0.554092  0.961553  1
  O  O16  1  0.954696  0.955115  0.545095  1
  O  O17  1  0.532291  0.528173  0.969768  1
  O  O18  1  0.243261  0.236274  0.260233  1
  O  O19  1  0.555515  0.957168  0.525183  1
  O  O20  1  0.694485  0.292832  0.287867  1
  O  O21  1  0.956095  0.554092  0.528260  1
