# generated using pymatgen
data_Nd2SmCI3
_symmetry_space_group_name_H-M   'P 1'
_cell_length_a   4.01758900
_cell_length_b   8.98517439
_cell_length_c   12.13364539
_cell_angle_alpha   92.46243966
_cell_angle_beta   90.00000000
_cell_angle_gamma   90.00000000
_symmetry_Int_Tables_number   1
_chemical_formula_structural   Nd2SmCI3
_chemical_formula_sum   'Nd4 Sm2 C2 I6'
_cell_volume   437.60482614
_cell_formula_units_Z   2
loop_
 _symmetry_equiv_pos_site_id
 _symmetry_equiv_pos_as_xyz
  1  'x, y, z'
loop_
 _atom_site_type_symbol
 _atom_site_label
 _atom_site_symmetry_multiplicity
 _atom_site_fract_x
 _atom_site_fract_y
 _atom_site_fract_z
 _atom_site_occupancy
  Nd  Nd0  1  0.250000  0.914824  0.602342  1
  Nd  Nd1  1  0.750000  0.085176  0.397658  1
  Nd  Nd2  1  0.250000  0.886031  0.179812  1
  Nd  Nd3  1  0.750000  0.113969  0.820188  1
  Sm  Sm4  1  0.250000  0.296113  0.616171  1
  Sm  Sm5  1  0.750000  0.703887  0.383829  1
  C  C6  1  0.250000  0.878039  0.384661  1
  C  C7  1  0.750000  0.121961  0.615339  1
  I  I8  1  0.250000  0.854435  0.875768  1
  I  I9  1  0.750000  0.145565  0.124232  1
  I  I10  1  0.250000  0.379907  0.872186  1
  I  I11  1  0.750000  0.620093  0.127814  1
  I  I12  1  0.250000  0.384244  0.366656  1
  I  I13  1  0.750000  0.615756  0.633344  1
