# generated using pymatgen
data_Ca3Sm(SiPd14)2
_symmetry_space_group_name_H-M   'P 1'
_cell_length_a   8.95122000
_cell_length_b   8.95122000
_cell_length_c   7.10202900
_cell_angle_alpha   90.00000000
_cell_angle_beta   90.00000000
_cell_angle_gamma   90.00000000
_symmetry_Int_Tables_number   1
_chemical_formula_structural   Ca3Sm(SiPd14)2
_chemical_formula_sum   'Ca3 Sm1 Si2 Pd28'
_cell_volume   569.04538265
_cell_formula_units_Z   1
loop_
 _symmetry_equiv_pos_site_id
 _symmetry_equiv_pos_as_xyz
  1  'x, y, z'
loop_
 _atom_site_type_symbol
 _atom_site_label
 _atom_site_symmetry_multiplicity
 _atom_site_fract_x
 _atom_site_fract_y
 _atom_site_fract_z
 _atom_site_occupancy
  Ca  Ca0  1  0.000000  0.500000  0.061368  1
  Ca  Ca1  1  0.000000  0.000000  0.500022  1
  Ca  Ca2  1  0.500000  0.500000  0.500022  1
  Sm  Sm3  1  0.500000  0.000000  0.938816  1
  Si  Si4  1  0.500000  0.000000  0.448302  1
  Si  Si5  1  0.000000  0.500000  0.551754  1
  Pd  Pd6  1  0.333876  0.833876  0.616916  1
  Pd  Pd7  1  0.333876  0.166124  0.616916  1
  Pd  Pd8  1  0.666124  0.833876  0.616916  1
  Pd  Pd9  1  0.666124  0.166124  0.616916  1
  Pd  Pd10  1  0.166149  0.666149  0.382967  1
  Pd  Pd11  1  0.166149  0.333851  0.382967  1
  Pd  Pd12  1  0.833851  0.666149  0.382967  1
  Pd  Pd13  1  0.833851  0.333851  0.382967  1
  Pd  Pd14  1  0.500000  0.770485  0.257302  1
  Pd  Pd15  1  0.500000  0.229515  0.257302  1
  Pd  Pd16  1  0.270485  0.000000  0.257302  1
  Pd  Pd17  1  0.729515  0.000000  0.257302  1
  Pd  Pd18  1  0.000000  0.729699  0.742619  1
  Pd  Pd19  1  0.000000  0.270301  0.742619  1
  Pd  Pd20  1  0.229699  0.500000  0.742619  1
  Pd  Pd21  1  0.770301  0.500000  0.742619  1
  Pd  Pd22  1  0.500000  0.348500  0.856501  1
  Pd  Pd23  1  0.500000  0.651500  0.856501  1
  Pd  Pd24  1  0.848500  0.000000  0.856501  1
  Pd  Pd25  1  0.151500  0.000000  0.856501  1
  Pd  Pd26  1  0.000000  0.151314  0.143659  1
  Pd  Pd27  1  0.000000  0.848686  0.143659  1
  Pd  Pd28  1  0.651314  0.500000  0.143659  1
  Pd  Pd29  1  0.348686  0.500000  0.143659  1
  Pd  Pd30  1  0.250168  0.750168  0.999966  1
  Pd  Pd31  1  0.250168  0.249832  0.999966  1
  Pd  Pd32  1  0.749832  0.750168  0.999966  1
  Pd  Pd33  1  0.749832  0.249832  0.999966  1
