# generated using pymatgen
data_K5Mo3F14
_symmetry_space_group_name_H-M   'P 1'
_cell_length_a   8.05896800
_cell_length_b   8.05896800
_cell_length_c   12.13544000
_cell_angle_alpha   90.00000000
_cell_angle_beta   90.00000000
_cell_angle_gamma   90.00000000
_symmetry_Int_Tables_number   1
_chemical_formula_structural   K5Mo3F14
_chemical_formula_sum   'K10 Mo6 F28'
_cell_volume   788.15999967
_cell_formula_units_Z   2
loop_
 _symmetry_equiv_pos_site_id
 _symmetry_equiv_pos_as_xyz
  1  'x, y, z'
loop_
 _atom_site_type_symbol
 _atom_site_label
 _atom_site_symmetry_multiplicity
 _atom_site_fract_x
 _atom_site_fract_y
 _atom_site_fract_z
 _atom_site_occupancy
  K  K0  1  0.715244  0.215244  0.250000  1
  K  K1  1  0.284756  0.784756  0.250000  1
  K  K2  1  0.784756  0.715244  0.750000  1
  K  K3  1  0.215244  0.284756  0.750000  1
  K  K4  1  0.215244  0.284756  0.250000  1
  K  K5  1  0.784756  0.715244  0.250000  1
  K  K6  1  0.715244  0.215244  0.750000  1
  K  K7  1  0.284756  0.784756  0.750000  1
  K  K8  1  0.000000  0.000000  0.500000  1
  K  K9  1  0.500000  0.500000  0.000000  1
  Mo  Mo10  1  0.500000  0.000000  0.500000  1
  Mo  Mo11  1  0.000000  0.500000  0.000000  1
  Mo  Mo12  1  0.000000  0.500000  0.500000  1
  Mo  Mo13  1  0.500000  0.000000  0.000000  1
  Mo  Mo14  1  0.500000  0.500000  0.500000  1
  Mo  Mo15  1  0.000000  0.000000  0.000000  1
  F  F16  1  0.748487  0.585393  0.500000  1
  F  F17  1  0.251513  0.414607  0.500000  1
  F  F18  1  0.751513  0.085393  0.000000  1
  F  F19  1  0.248487  0.914607  0.000000  1
  F  F20  1  0.585393  0.251513  0.500000  1
  F  F21  1  0.414607  0.748487  0.500000  1
  F  F22  1  0.085393  0.248487  0.000000  1
  F  F23  1  0.914607  0.751513  0.000000  1
  F  F24  1  0.681700  0.954270  0.380547  1
  F  F25  1  0.318300  0.045730  0.380547  1
  F  F26  1  0.818300  0.454270  0.880547  1
  F  F27  1  0.181700  0.545730  0.880547  1
  F  F28  1  0.954270  0.318300  0.380547  1
  F  F29  1  0.045730  0.681700  0.380547  1
  F  F30  1  0.454270  0.181700  0.880547  1
  F  F31  1  0.545730  0.818300  0.880547  1
  F  F32  1  0.318300  0.045730  0.619453  1
  F  F33  1  0.681700  0.954270  0.619453  1
  F  F34  1  0.181700  0.545730  0.119453  1
  F  F35  1  0.818300  0.454270  0.119453  1
  F  F36  1  0.045730  0.681700  0.619453  1
  F  F37  1  0.954270  0.318300  0.619453  1
  F  F38  1  0.545730  0.818300  0.119453  1
  F  F39  1  0.454270  0.181700  0.119453  1
  F  F40  1  0.500000  0.500000  0.327561  1
  F  F41  1  0.000000  0.000000  0.827561  1
  F  F42  1  0.500000  0.500000  0.672439  1
  F  F43  1  0.000000  0.000000  0.172439  1
