# generated using pymatgen
data_Nd4Ho3Er(B6Ru)4
_symmetry_space_group_name_H-M   'P 1'
_cell_length_a   3.70989500
_cell_length_b   9.20830201
_cell_length_c   11.62848001
_cell_angle_alpha   90.00448186
_cell_angle_beta   90.00000000
_cell_angle_gamma   90.00000000
_symmetry_Int_Tables_number   1
_chemical_formula_structural   Nd4Ho3Er(B6Ru)4
_chemical_formula_sum   'Nd4 Ho3 Er1 B24 Ru4'
_cell_volume   397.25019757
_cell_formula_units_Z   1
loop_
 _symmetry_equiv_pos_site_id
 _symmetry_equiv_pos_as_xyz
  1  'x, y, z'
loop_
 _atom_site_type_symbol
 _atom_site_label
 _atom_site_symmetry_multiplicity
 _atom_site_fract_x
 _atom_site_fract_y
 _atom_site_fract_z
 _atom_site_occupancy
  Nd  Nd0  1  0.000000  0.322972  0.414413  1
  Nd  Nd1  1  0.000000  0.677024  0.585652  1
  Nd  Nd2  1  0.000000  0.822897  0.085542  1
  Nd  Nd3  1  0.000000  0.177122  0.914385  1
  Ho  Ho4  1  0.000000  0.944167  0.371691  1
  Ho  Ho5  1  0.000000  0.055831  0.628335  1
  Ho  Ho6  1  0.000000  0.444231  0.128151  1
  Er  Er7  1  0.000000  0.555778  0.871776  1
  B  B8  1  0.500000  0.556532  0.430241  1
  B  B9  1  0.500000  0.443483  0.569805  1
  B  B10  1  0.500000  0.056515  0.069746  1
  B  B11  1  0.500000  0.943408  0.930226  1
  B  B12  1  0.500000  0.749906  0.417277  1
  B  B13  1  0.500000  0.250125  0.582735  1
  B  B14  1  0.500000  0.249923  0.082712  1
  B  B15  1  0.500000  0.749805  0.917278  1
  B  B16  1  0.500000  0.790587  0.266633  1
  B  B17  1  0.500000  0.209502  0.733389  1
  B  B18  1  0.500000  0.290601  0.233351  1
  B  B19  1  0.500000  0.709136  0.766708  1
  B  B20  1  0.500000  0.630849  0.184992  1
  B  B21  1  0.500000  0.369373  0.815116  1
  B  B22  1  0.500000  0.130870  0.314995  1
  B  B23  1  0.500000  0.869091  0.685040  1
  B  B24  1  0.500000  0.986089  0.213918  1
  B  B25  1  0.500000  0.013874  0.786087  1
  B  B26  1  0.500000  0.486077  0.286066  1
  B  B27  1  0.500000  0.514092  0.714123  1
  B  B28  1  0.500000  0.602935  0.027755  1
  B  B29  1  0.500000  0.397297  0.971747  1
  B  B30  1  0.500000  0.103036  0.471942  1
  B  B31  1  0.500000  0.896955  0.528064  1
  Ru  Ru32  1  0.000000  0.639755  0.319296  1
  Ru  Ru33  1  0.000000  0.360432  0.680821  1
  Ru  Ru34  1  0.000000  0.139787  0.180642  1
  Ru  Ru35  1  0.000000  0.859943  0.819349  1
