# generated using pymatgen
data_ScPa3(Ni2Pt)2
_symmetry_space_group_name_H-M   'P 1'
_cell_length_a   7.05612505
_cell_length_b   7.05612521
_cell_length_c   3.55284000
_cell_angle_alpha   90.00000000
_cell_angle_beta   90.00000000
_cell_angle_gamma   90.30266619
_symmetry_Int_Tables_number   1
_chemical_formula_structural   ScPa3(Ni2Pt)2
_chemical_formula_sum   'Sc1 Pa3 Ni4 Pt2'
_cell_volume   176.88953396
_cell_formula_units_Z   1
loop_
 _symmetry_equiv_pos_site_id
 _symmetry_equiv_pos_as_xyz
  1  'x, y, z'
loop_
 _atom_site_type_symbol
 _atom_site_label
 _atom_site_symmetry_multiplicity
 _atom_site_fract_x
 _atom_site_fract_y
 _atom_site_fract_z
 _atom_site_occupancy
  Sc  Sc0  1  0.321623  0.821623  0.500000  1
  Pa  Pa1  1  0.675827  0.175827  0.500000  1
  Pa  Pa2  1  0.182780  0.324594  0.500000  1
  Pa  Pa3  1  0.824594  0.682780  0.500000  1
  Ni  Ni4  1  0.870379  0.370379  0.000000  1
  Ni  Ni5  1  0.375648  0.127228  0.000000  1
  Ni  Ni6  1  0.627228  0.875648  0.000000  1
  Ni  Ni7  1  0.118448  0.618448  0.000000  1
  Pt  Pt8  1  0.004335  0.999139  0.000000  1
  Pt  Pt9  1  0.499139  0.504335  0.000000  1
