# generated using pymatgen
data_Cs2KScO3
_symmetry_space_group_name_H-M   'P 1'
_cell_length_a   7.16525206
_cell_length_b   7.16525269
_cell_length_c   7.45000000
_cell_angle_alpha   90.00000000
_cell_angle_beta   90.00000000
_cell_angle_gamma   122.15597047
_symmetry_Int_Tables_number   1
_chemical_formula_structural   Cs2KScO3
_chemical_formula_sum   'Cs4 K2 Sc2 O6'
_cell_volume   323.81633756
_cell_formula_units_Z   2
loop_
 _symmetry_equiv_pos_site_id
 _symmetry_equiv_pos_as_xyz
  1  'x, y, z'
loop_
 _atom_site_type_symbol
 _atom_site_label
 _atom_site_symmetry_multiplicity
 _atom_site_fract_x
 _atom_site_fract_y
 _atom_site_fract_z
 _atom_site_occupancy
  Cs  Cs0  1  0.250000  0.250000  0.000000  1
  Cs  Cs1  1  0.750001  0.750001  0.000000  1
  Cs  Cs2  1  0.750000  0.250001  0.348185  1
  Cs  Cs3  1  0.250001  0.750000  0.651815  1
  K  K4  1  0.250000  0.250000  0.500000  1
  K  K5  1  0.750001  0.750001  0.500000  1
  Sc  Sc6  1  0.250001  0.750000  0.153110  1
  Sc  Sc7  1  0.750000  0.250001  0.846890  1
  O  O8  1  0.500000  0.000000  0.000000  1
  O  O9  1  0.000000  0.500000  0.000000  1
  O  O10  1  0.380892  0.619109  0.300747  1
  O  O11  1  0.119109  0.880892  0.300747  1
  O  O12  1  0.880892  0.119109  0.699253  1
  O  O13  1  0.619109  0.380892  0.699253  1
