# generated using pymatgen
data_ScBe4MoRu5
_symmetry_space_group_name_H-M   'P 1'
_cell_length_a   3.16229500
_cell_length_b   8.58523630
_cell_length_c   10.07316616
_cell_angle_alpha   90.23028385
_cell_angle_beta   90.00000000
_cell_angle_gamma   90.00000000
_symmetry_Int_Tables_number   1
_chemical_formula_structural   ScBe4MoRu5
_chemical_formula_sum   'Sc2 Be8 Mo2 Ru10'
_cell_volume   273.47468109
_cell_formula_units_Z   2
loop_
 _symmetry_equiv_pos_site_id
 _symmetry_equiv_pos_as_xyz
  1  'x, y, z'
loop_
 _atom_site_type_symbol
 _atom_site_label
 _atom_site_symmetry_multiplicity
 _atom_site_fract_x
 _atom_site_fract_y
 _atom_site_fract_z
 _atom_site_occupancy
  Sc  Sc0  1  0.500000  0.657543  0.678589  1
  Sc  Sc1  1  0.500000  0.342457  0.321411  1
  Be  Be2  1  0.500000  0.961660  0.593829  1
  Be  Be3  1  0.500000  0.038340  0.406171  1
  Be  Be4  1  0.500000  0.843763  0.904214  1
  Be  Be5  1  0.500000  0.156237  0.095786  1
  Be  Be6  1  0.500000  0.656358  0.403930  1
  Be  Be7  1  0.500000  0.343642  0.596070  1
  Be  Be8  1  0.500000  0.462866  0.905519  1
  Be  Be9  1  0.500000  0.537134  0.094481  1
  Mo  Mo10  1  0.500000  0.843316  0.184361  1
  Mo  Mo11  1  0.500000  0.156684  0.815639  1
  Ru  Ru12  1  0.000000  0.660514  0.953430  1
  Ru  Ru13  1  0.000000  0.339486  0.046570  1
  Ru  Ru14  1  0.000000  0.843123  0.448095  1
  Ru  Ru15  1  0.000000  0.156877  0.551905  1
  Ru  Ru16  1  0.000000  0.000000  0.000000  1
  Ru  Ru17  1  0.000000  0.385806  0.761889  1
  Ru  Ru18  1  0.000000  0.614194  0.238111  1
  Ru  Ru19  1  0.000000  0.500000  0.500000  1
  Ru  Ru20  1  0.000000  0.913607  0.744852  1
  Ru  Ru21  1  0.000000  0.086393  0.255148  1
