# generated using pymatgen
data_LiYbPrAlPt2
_symmetry_space_group_name_H-M   'P 1'
_cell_length_a   4.32148700
_cell_length_b   7.07588500
_cell_length_c   8.14049500
_cell_angle_alpha   90.00000000
_cell_angle_beta   90.00000000
_cell_angle_gamma   90.00000000
_symmetry_Int_Tables_number   1
_chemical_formula_structural   LiYbPrAlPt2
_chemical_formula_sum   'Li2 Yb2 Pr2 Al2 Pt4'
_cell_volume   248.92286491
_cell_formula_units_Z   2
loop_
 _symmetry_equiv_pos_site_id
 _symmetry_equiv_pos_as_xyz
  1  'x, y, z'
loop_
 _atom_site_type_symbol
 _atom_site_label
 _atom_site_symmetry_multiplicity
 _atom_site_fract_x
 _atom_site_fract_y
 _atom_site_fract_z
 _atom_site_occupancy
  Li  Li0  1  0.250000  0.137675  0.947342  1
  Li  Li1  1  0.250000  0.637675  0.552658  1
  Yb  Yb2  1  0.250000  0.029012  0.313001  1
  Yb  Yb3  1  0.250000  0.529012  0.186999  1
  Pr  Pr4  1  0.750000  0.966520  0.675644  1
  Pr  Pr5  1  0.750000  0.466520  0.824356  1
  Al  Al6  1  0.750000  0.866529  0.063216  1
  Al  Al7  1  0.750000  0.366529  0.436784  1
  Pt  Pt8  1  0.250000  0.271070  0.600402  1
  Pt  Pt9  1  0.250000  0.771070  0.899598  1
  Pt  Pt10  1  0.750000  0.729195  0.364690  1
  Pt  Pt11  1  0.750000  0.229195  0.135310  1
