# generated using pymatgen
data_Ta3Al2V2GaB
_symmetry_space_group_name_H-M   'P 1'
_cell_length_a   7.72386202
_cell_length_b   7.72386178
_cell_length_c   5.11921700
_cell_angle_alpha   90.00000000
_cell_angle_beta   90.00000000
_cell_angle_gamma   120.05039784
_symmetry_Int_Tables_number   1
_chemical_formula_structural   Ta3Al2V2GaB
_chemical_formula_sum   'Ta6 Al4 V4 Ga2 B2'
_cell_volume   264.35187448
_cell_formula_units_Z   2
loop_
 _symmetry_equiv_pos_site_id
 _symmetry_equiv_pos_as_xyz
  1  'x, y, z'
loop_
 _atom_site_type_symbol
 _atom_site_label
 _atom_site_symmetry_multiplicity
 _atom_site_fract_x
 _atom_site_fract_y
 _atom_site_fract_z
 _atom_site_occupancy
  Ta  Ta0  1  0.243639  0.001913  0.250000  1
  Ta  Ta1  1  0.756361  0.998087  0.750000  1
  Ta  Ta2  1  0.001913  0.243639  0.250000  1
  Ta  Ta3  1  0.998087  0.756361  0.750000  1
  Ta  Ta4  1  0.755515  0.755515  0.250000  1
  Ta  Ta5  1  0.244485  0.244485  0.750000  1
  Al  Al6  1  0.591503  0.000393  0.250000  1
  Al  Al7  1  0.408497  0.999607  0.750000  1
  Al  Al8  1  0.000393  0.591503  0.250000  1
  Al  Al9  1  0.999607  0.408497  0.750000  1
  V  V10  1  0.334047  0.665953  0.000000  1
  V  V11  1  0.665953  0.334047  0.000000  1
  V  V12  1  0.665953  0.334047  0.500000  1
  V  V13  1  0.334047  0.665953  0.500000  1
  Ga  Ga14  1  0.406909  0.406909  0.250000  1
  Ga  Ga15  1  0.593091  0.593091  0.750000  1
  B  B16  1  0.000000  0.000000  0.000000  1
  B  B17  1  0.000000  0.000000  0.500000  1
