# generated using pymatgen
data_AcY(AgSn)2
_symmetry_space_group_name_H-M   'P 1'
_cell_length_a   4.81579600
_cell_length_b   4.81579592
_cell_length_c   8.01395900
_cell_angle_alpha   90.00000000
_cell_angle_beta   90.00000000
_cell_angle_gamma   120.00001432
_symmetry_Int_Tables_number   1
_chemical_formula_structural   AcY(AgSn)2
_chemical_formula_sum   'Ac1 Y1 Ag2 Sn2'
_cell_volume   160.95847212
_cell_formula_units_Z   1
loop_
 _symmetry_equiv_pos_site_id
 _symmetry_equiv_pos_as_xyz
  1  'x, y, z'
loop_
 _atom_site_type_symbol
 _atom_site_label
 _atom_site_symmetry_multiplicity
 _atom_site_fract_x
 _atom_site_fract_y
 _atom_site_fract_z
 _atom_site_occupancy
  Ac  Ac0  1  0.000000  0.000000  0.490506  1
  Y  Y1  1  0.000000  0.000000  0.993434  1
  Ag  Ag2  1  0.666667  0.333333  0.165977  1
  Ag  Ag3  1  0.333333  0.666667  0.748238  1
  Sn  Sn4  1  0.333333  0.666667  0.244018  1
  Sn  Sn5  1  0.666667  0.333333  0.785824  1
