# generated using pymatgen
data_Dy5ScGeP11Ir18
_symmetry_space_group_name_H-M   'P 1'
_cell_length_a   12.74064001
_cell_length_b   12.93077023
_cell_length_c   3.97905700
_cell_angle_alpha   90.00000000
_cell_angle_beta   90.00000000
_cell_angle_gamma   120.49489112
_symmetry_Int_Tables_number   1
_chemical_formula_structural   Dy5ScGeP11Ir18
_chemical_formula_sum   'Dy5 Sc1 Ge1 P11 Ir18'
_cell_volume   564.85762653
_cell_formula_units_Z   1
loop_
 _symmetry_equiv_pos_site_id
 _symmetry_equiv_pos_as_xyz
  1  'x, y, z'
loop_
 _atom_site_type_symbol
 _atom_site_label
 _atom_site_symmetry_multiplicity
 _atom_site_fract_x
 _atom_site_fract_y
 _atom_site_fract_z
 _atom_site_occupancy
  Dy  Dy0  1  0.329467  0.664290  0.500000  1
  Dy  Dy1  1  0.670533  0.334821  0.500000  1
  Dy  Dy2  1  0.000000  0.816008  0.000000  1
  Dy  Dy3  1  0.186529  0.187983  0.000000  1
  Dy  Dy4  1  0.813471  0.001453  0.000000  1
  Sc  Sc5  1  0.000000  0.439916  0.500000  1
  Ge  Ge6  1  0.000000  0.645681  0.500000  1
  P  P7  1  0.357877  0.352986  0.500000  1
  P  P8  1  0.642123  0.995110  0.500000  1
  P  P9  1  0.513943  0.689681  0.000000  1
  P  P10  1  0.310262  0.828270  0.000000  1
  P  P11  1  0.168311  0.482676  0.000000  1
  P  P12  1  0.486057  0.175738  0.000000  1
  P  P13  1  0.689738  0.518008  0.000000  1
  P  P14  1  0.831689  0.314365  0.000000  1
  P  P15  1  0.000000  0.175092  0.500000  1
  P  P16  1  0.819348  0.821228  0.500000  1
  P  P17  1  0.180652  0.001880  0.500000  1
  Ir  Ir18  1  0.507621  0.870344  0.000000  1
  Ir  Ir19  1  0.133321  0.641339  0.000000  1
  Ir  Ir20  1  0.359601  0.495386  0.000000  1
  Ir  Ir21  1  0.492379  0.362722  0.000000  1
  Ir  Ir22  1  0.866679  0.508017  0.000000  1
  Ir  Ir23  1  0.640399  0.135784  0.000000  1
  Ir  Ir24  1  0.533723  0.535918  0.500000  1
  Ir  Ir25  1  0.466277  0.002195  0.500000  1
  Ir  Ir26  1  0.000000  0.277625  0.000000  1
  Ir  Ir27  1  0.713809  0.719417  0.000000  1
  Ir  Ir28  1  0.286191  0.005609  0.000000  1
  Ir  Ir29  1  0.618142  0.800388  0.500000  1
  Ir  Ir30  1  0.209566  0.833407  0.500000  1
  Ir  Ir31  1  0.184053  0.373272  0.500000  1
  Ir  Ir32  1  0.381858  0.182246  0.500000  1
  Ir  Ir33  1  0.790434  0.623843  0.500000  1
  Ir  Ir34  1  0.815947  0.189219  0.500000  1
  Ir  Ir35  1  0.000000  0.998086  0.500000  1
