# generated using pymatgen
data_Sm2Ho4NiI10
_symmetry_space_group_name_H-M   'P 1'
_cell_length_a   7.70340236
_cell_length_b   9.67864736
_cell_length_c   9.77346592
_cell_angle_alpha   107.09936302
_cell_angle_beta   96.83664475
_cell_angle_gamma   104.84005473
_symmetry_Int_Tables_number   1
_chemical_formula_structural   Sm2Ho4NiI10
_chemical_formula_sum   'Sm2 Ho4 Ni1 I10'
_cell_volume   658.18916990
_cell_formula_units_Z   1
loop_
 _symmetry_equiv_pos_site_id
 _symmetry_equiv_pos_as_xyz
  1  'x, y, z'
loop_
 _atom_site_type_symbol
 _atom_site_label
 _atom_site_symmetry_multiplicity
 _atom_site_fract_x
 _atom_site_fract_y
 _atom_site_fract_z
 _atom_site_occupancy
  Sm  Sm0  1  0.884212  0.957511  0.238689  1
  Sm  Sm1  1  0.115788  0.042489  0.761311  1
  Ho  Ho2  1  0.030519  0.721961  0.916816  1
  Ho  Ho3  1  0.969481  0.278039  0.083184  1
  Ho  Ho4  1  0.661587  0.879455  0.839614  1
  Ho  Ho5  1  0.338413  0.120545  0.160386  1
  Ni  Ni6  1  0.000000  0.000000  0.000000  1
  I  I7  1  0.648958  0.549817  0.728302  1
  I  I8  1  0.351042  0.450183  0.271698  1
  I  I9  1  0.734507  0.910534  0.539730  1
  I  I10  1  0.265493  0.089466  0.460270  1
  I  I11  1  0.084034  0.377389  0.823412  1
  I  I12  1  0.915966  0.622611  0.176588  1
  I  I13  1  0.449652  0.814676  0.089617  1
  I  I14  1  0.550348  0.185324  0.910383  1
  I  I15  1  0.225825  0.739451  0.657174  1
  I  I16  1  0.774175  0.260549  0.342826  1
