# generated using pymatgen
data_Ca2TmLu(BO4)2
_symmetry_space_group_name_H-M   'P 1'
_cell_length_a   3.54391400
_cell_length_b   9.57887635
_cell_length_c   10.46537671
_cell_angle_alpha   89.89104289
_cell_angle_beta   90.00000000
_cell_angle_gamma   90.00000000
_symmetry_Int_Tables_number   1
_chemical_formula_structural   Ca2TmLu(BO4)2
_chemical_formula_sum   'Ca4 Tm2 Lu2 B4 O16'
_cell_volume   355.26450768
_cell_formula_units_Z   2
loop_
 _symmetry_equiv_pos_site_id
 _symmetry_equiv_pos_as_xyz
  1  'x, y, z'
loop_
 _atom_site_type_symbol
 _atom_site_label
 _atom_site_symmetry_multiplicity
 _atom_site_fract_x
 _atom_site_fract_y
 _atom_site_fract_z
 _atom_site_occupancy
  Ca  Ca0  1  0.250000  0.666825  0.085101  1
  Ca  Ca1  1  0.750000  0.333175  0.914899  1
  Ca  Ca2  1  0.750000  0.168592  0.415632  1
  Ca  Ca3  1  0.250000  0.831408  0.584368  1
  Tm  Tm4  1  0.250000  0.085640  0.111286  1
  Tm  Tm5  1  0.750000  0.914360  0.888714  1
  Lu  Lu6  1  0.750000  0.585054  0.390110  1
  Lu  Lu7  1  0.250000  0.414946  0.609890  1
  B  B8  1  0.250000  0.367463  0.200640  1
  B  B9  1  0.750000  0.632537  0.799360  1
  B  B10  1  0.750000  0.865988  0.301122  1
  B  B11  1  0.250000  0.134012  0.698878  1
  O  O12  1  0.250000  0.498682  0.256785  1
  O  O13  1  0.750000  0.501318  0.743215  1
  O  O14  1  0.750000  0.997551  0.245309  1
  O  O15  1  0.250000  0.002449  0.754691  1
  O  O16  1  0.250000  0.245245  0.273253  1
  O  O17  1  0.750000  0.754755  0.726747  1
  O  O18  1  0.750000  0.743815  0.228662  1
  O  O19  1  0.250000  0.256185  0.771338  1
  O  O20  1  0.250000  0.354816  0.067649  1
  O  O21  1  0.750000  0.645184  0.932351  1
  O  O22  1  0.750000  0.852568  0.433937  1
  O  O23  1  0.250000  0.147432  0.566063  1
  O  O24  1  0.250000  0.612956  0.505194  1
  O  O25  1  0.750000  0.387044  0.494806  1
  O  O26  1  0.750000  0.114429  0.993755  1
  O  O27  1  0.250000  0.885571  0.006245  1
