# generated using pymatgen
data_Be6Co11Si6Ru
_symmetry_space_group_name_H-M   'P 1'
_cell_length_a   3.81090400
_cell_length_b   5.41408800
_cell_length_c   11.44091400
_cell_angle_alpha   90.00015421
_cell_angle_beta   90.00013025
_cell_angle_gamma   90.00002562
_symmetry_Int_Tables_number   1
_chemical_formula_structural   Be6Co11Si6Ru
_chemical_formula_sum   'Be6 Co11 Si6 Ru1'
_cell_volume   236.05545457
_cell_formula_units_Z   1
loop_
 _symmetry_equiv_pos_site_id
 _symmetry_equiv_pos_as_xyz
  1  'x, y, z'
loop_
 _atom_site_type_symbol
 _atom_site_label
 _atom_site_symmetry_multiplicity
 _atom_site_fract_x
 _atom_site_fract_y
 _atom_site_fract_z
 _atom_site_occupancy
  Be  Be0  1  0.000001  0.510414  0.999997  1
  Be  Be1  1  0.499814  0.996412  0.170373  1
  Be  Be2  1  0.999787  0.499270  0.334175  1
  Be  Be3  1  0.500001  0.000758  0.499998  1
  Be  Be4  1  0.000211  0.499279  0.665828  1
  Be  Be5  1  0.500187  0.996404  0.829630  1
  Co  Co6  1  0.500001  0.747933  0.999999  1
  Co  Co7  1  0.999888  0.250102  0.172293  1
  Co  Co8  1  0.999852  0.749775  0.169882  1
  Co  Co9  1  0.499868  0.250269  0.335964  1
  Co  Co10  1  0.499856  0.751084  0.335483  1
  Co  Co11  1  0.000000  0.250426  0.500000  1
  Co  Co12  1  0.000000  0.750192  0.499999  1
  Co  Co13  1  0.500132  0.250271  0.664039  1
  Co  Co14  1  0.500143  0.751080  0.664520  1
  Co  Co15  1  0.000112  0.250104  0.827707  1
  Co  Co16  1  0.000149  0.749773  0.830121  1
  Si  Si17  1  0.000001  0.989092  0.999996  1
  Si  Si18  1  0.499842  0.502954  0.170844  1
  Si  Si19  1  0.999845  0.000994  0.334471  1
  Si  Si20  1  0.500001  0.500150  0.499998  1
  Si  Si21  1  0.000159  0.000990  0.665534  1
  Si  Si22  1  0.500159  0.502962  0.829157  1
  Ru  Ru23  1  0.500000  0.249302  0.999995  1
