# generated using pymatgen
data_Pr3YTi4Cr4O20
_symmetry_space_group_name_H-M   'P 1'
_cell_length_a   5.89826600
_cell_length_b   7.63629285
_cell_length_c   8.72740732
_cell_angle_alpha   90.09946816
_cell_angle_beta   90.00000000
_cell_angle_gamma   90.00000000
_symmetry_Int_Tables_number   1
_chemical_formula_structural   Pr3YTi4Cr4O20
_chemical_formula_sum   'Pr3 Y1 Ti4 Cr4 O20'
_cell_volume   393.08956997
_cell_formula_units_Z   1
loop_
 _symmetry_equiv_pos_site_id
 _symmetry_equiv_pos_as_xyz
  1  'x, y, z'
loop_
 _atom_site_type_symbol
 _atom_site_label
 _atom_site_symmetry_multiplicity
 _atom_site_fract_x
 _atom_site_fract_y
 _atom_site_fract_z
 _atom_site_occupancy
  Pr  Pr0  1  0.500000  0.360683  0.328517  1
  Pr  Pr1  1  0.500000  0.639285  0.671406  1
  Pr  Pr2  1  0.500000  0.136251  0.830802  1
  Y  Y3  1  0.500000  0.855798  0.172130  1
  Ti  Ti4  1  0.000000  0.116856  0.145315  1
  Ti  Ti5  1  0.000000  0.879821  0.856997  1
  Ti  Ti6  1  0.000000  0.380729  0.643948  1
  Ti  Ti7  1  0.000000  0.621813  0.354188  1
  Cr  Cr8  1  0.252025  0.999488  0.498585  1
  Cr  Cr9  1  0.747975  0.999488  0.498585  1
  Cr  Cr10  1  0.748478  0.501952  0.000745  1
  Cr  Cr11  1  0.251522  0.501952  0.000745  1
  O  O12  1  0.247274  0.101451  0.285798  1
  O  O13  1  0.755409  0.894808  0.712465  1
  O  O14  1  0.244591  0.894808  0.712465  1
  O  O15  1  0.755142  0.395475  0.787612  1
  O  O16  1  0.752726  0.101451  0.285798  1
  O  O17  1  0.247651  0.613935  0.211501  1
  O  O18  1  0.752349  0.613935  0.211501  1
  O  O19  1  0.244858  0.395475  0.787612  1
  O  O20  1  0.000000  0.340466  0.077651  1
  O  O21  1  0.000000  0.658732  0.924155  1
  O  O22  1  0.000000  0.159462  0.574329  1
  O  O23  1  0.000000  0.840536  0.426382  1
  O  O24  1  0.500000  0.339447  0.055646  1
  O  O25  1  0.500000  0.667021  0.948238  1
  O  O26  1  0.500000  0.161957  0.555331  1
  O  O27  1  0.500000  0.837715  0.437376  1
  O  O28  1  0.216338  0.994531  0.003508  1
  O  O29  1  0.783662  0.994531  0.003508  1
  O  O30  1  0.786863  0.500073  0.498580  1
  O  O31  1  0.213137  0.500073  0.498580  1
