# generated using pymatgen
data_Pr4Y5LuSn8
_symmetry_space_group_name_H-M   'P 1'
_cell_length_a   8.08699400
_cell_length_b   8.31570900
_cell_length_c   15.68152700
_cell_angle_alpha   90.00000000
_cell_angle_beta   90.00000000
_cell_angle_gamma   90.00000000
_symmetry_Int_Tables_number   1
_chemical_formula_structural   Pr4Y5LuSn8
_chemical_formula_sum   'Pr8 Y10 Lu2 Sn16'
_cell_volume   1054.56840157
_cell_formula_units_Z   2
loop_
 _symmetry_equiv_pos_site_id
 _symmetry_equiv_pos_as_xyz
  1  'x, y, z'
loop_
 _atom_site_type_symbol
 _atom_site_label
 _atom_site_symmetry_multiplicity
 _atom_site_fract_x
 _atom_site_fract_y
 _atom_site_fract_z
 _atom_site_occupancy
  Pr  Pr0  1  0.508276  0.323626  0.903958  1
  Pr  Pr1  1  0.008276  0.176374  0.596042  1
  Pr  Pr2  1  0.491775  0.676279  0.403408  1
  Pr  Pr3  1  0.991775  0.823721  0.096592  1
  Pr  Pr4  1  0.491775  0.676279  0.096592  1
  Pr  Pr5  1  0.991775  0.823721  0.403408  1
  Pr  Pr6  1  0.508276  0.323626  0.596042  1
  Pr  Pr7  1  0.008276  0.176374  0.903958  1
  Y  Y8  1  0.348774  0.835306  0.875830  1
  Y  Y9  1  0.848774  0.664694  0.624170  1
  Y  Y10  1  0.651172  0.164632  0.375302  1
  Y  Y11  1  0.151172  0.335368  0.124698  1
  Y  Y12  1  0.651172  0.164632  0.124698  1
  Y  Y13  1  0.151172  0.335368  0.375302  1
  Y  Y14  1  0.348774  0.835306  0.624170  1
  Y  Y15  1  0.848774  0.664694  0.875830  1
  Y  Y16  1  0.182158  0.500979  0.750000  1
  Y  Y17  1  0.682158  0.999021  0.750000  1
  Lu  Lu18  1  0.817735  0.498771  0.250000  1
  Lu  Lu19  1  0.317735  0.001229  0.250000  1
  Sn  Sn20  1  0.313602  0.040531  0.042534  1
  Sn  Sn21  1  0.813602  0.459469  0.457466  1
  Sn  Sn22  1  0.686104  0.959016  0.541438  1
  Sn  Sn23  1  0.186104  0.540984  0.958562  1
  Sn  Sn24  1  0.686104  0.959016  0.958562  1
  Sn  Sn25  1  0.186104  0.540984  0.541438  1
  Sn  Sn26  1  0.313602  0.040531  0.457466  1
  Sn  Sn27  1  0.813602  0.459469  0.042534  1
  Sn  Sn28  1  0.547098  0.623031  0.750000  1
  Sn  Sn29  1  0.047098  0.876969  0.750000  1
  Sn  Sn30  1  0.454647  0.376932  0.250000  1
  Sn  Sn31  1  0.954647  0.123068  0.250000  1
  Sn  Sn32  1  0.315387  0.144276  0.750000  1
  Sn  Sn33  1  0.815387  0.355724  0.750000  1
  Sn  Sn34  1  0.683568  0.854019  0.250000  1
  Sn  Sn35  1  0.183568  0.645981  0.250000  1
