# generated using pymatgen
data_V3GaTc3Ge
_symmetry_space_group_name_H-M   'P 1'
_cell_length_a   4.80226006
_cell_length_b   4.80226006
_cell_length_c   4.80226006
_cell_angle_alpha   90.12883167
_cell_angle_beta   89.87116833
_cell_angle_gamma   90.12883167
_symmetry_Int_Tables_number   1
_chemical_formula_structural   V3GaTc3Ge
_chemical_formula_sum   'V3 Ga1 Tc3 Ge1'
_cell_volume   110.74745049
_cell_formula_units_Z   1
loop_
 _symmetry_equiv_pos_site_id
 _symmetry_equiv_pos_as_xyz
  1  'x, y, z'
loop_
 _atom_site_type_symbol
 _atom_site_label
 _atom_site_symmetry_multiplicity
 _atom_site_fract_x
 _atom_site_fract_y
 _atom_site_fract_z
 _atom_site_occupancy
  V  V0  1  0.000730  0.501139  0.249810  1
  V  V1  1  0.498861  0.750190  0.000730  1
  V  V2  1  0.249810  0.999270  0.498861  1
  Ga  Ga3  1  0.498178  0.501822  0.498178  1
  Tc  Tc4  1  0.001807  0.501973  0.750556  1
  Tc  Tc5  1  0.498027  0.249444  0.001807  1
  Tc  Tc6  1  0.750556  0.998193  0.498027  1
  Ge  Ge7  1  0.002031  0.997969  0.002031  1
