# generated using pymatgen
data_Pr10Si5Hg
_symmetry_space_group_name_H-M   'P 1'
_cell_length_a   7.87021910
_cell_length_b   7.87021913
_cell_length_c   9.10202820
_cell_angle_alpha   115.61572255
_cell_angle_beta   115.61572590
_cell_angle_gamma   90.00000302
_symmetry_Int_Tables_number   1
_chemical_formula_structural   Pr10Si5Hg
_chemical_formula_sum   'Pr10 Si5 Hg1'
_cell_volume   446.12854370
_cell_formula_units_Z   1
loop_
 _symmetry_equiv_pos_site_id
 _symmetry_equiv_pos_as_xyz
  1  'x, y, z'
loop_
 _atom_site_type_symbol
 _atom_site_label
 _atom_site_symmetry_multiplicity
 _atom_site_fract_x
 _atom_site_fract_y
 _atom_site_fract_z
 _atom_site_occupancy
  Pr  Pr0  1  0.496640  0.496640  0.993280  1
  Pr  Pr1  1  0.003360  0.003360  0.006720  1
  Pr  Pr2  1  0.969647  0.825217  0.286416  1
  Pr  Pr3  1  0.316769  0.461198  0.286416  1
  Pr  Pr4  1  0.825217  0.316769  0.286416  1
  Pr  Pr5  1  0.461198  0.969647  0.286416  1
  Pr  Pr6  1  0.038802  0.183231  0.713584  1
  Pr  Pr7  1  0.674783  0.530353  0.713584  1
  Pr  Pr8  1  0.183231  0.674783  0.713584  1
  Pr  Pr9  1  0.530353  0.038802  0.713584  1
  Si  Si10  1  0.250000  0.250000  0.500000  1
  Si  Si11  1  0.614198  0.885802  0.000000  1
  Si  Si12  1  0.385802  0.114198  0.000000  1
  Si  Si13  1  0.885802  0.385802  0.000000  1
  Si  Si14  1  0.114198  0.614198  0.000000  1
  Hg  Hg15  1  0.750000  0.750000  0.500000  1
