# generated using pymatgen
data_PaFe(SO4)3
_symmetry_space_group_name_H-M   'P 1'
_cell_length_a   8.84568521
_cell_length_b   8.84568642
_cell_length_c   9.36398100
_cell_angle_alpha   118.18532466
_cell_angle_beta   61.81467117
_cell_angle_gamma   119.99999759
_symmetry_Int_Tables_number   1
_chemical_formula_structural   PaFe(SO4)3
_chemical_formula_sum   'Pa2 Fe2 S6 O24'
_cell_volume   531.85271355
_cell_formula_units_Z   2
loop_
 _symmetry_equiv_pos_site_id
 _symmetry_equiv_pos_as_xyz
  1  'x, y, z'
loop_
 _atom_site_type_symbol
 _atom_site_label
 _atom_site_symmetry_multiplicity
 _atom_site_fract_x
 _atom_site_fract_y
 _atom_site_fract_z
 _atom_site_occupancy
  Pa  Pa0  1  0.644276  0.354743  0.067547  1
  Pa  Pa1  1  0.852512  0.147654  0.442957  1
  Fe  Fe2  1  0.145906  0.851329  0.556135  1
  Fe  Fe3  1  0.355491  0.644277  0.929765  1
  S  S4  1  0.254624  0.482012  0.250466  1
  S  S5  1  0.520277  0.024242  0.250109  1
  S  S6  1  0.975542  0.745515  0.249191  1
  S  S7  1  0.058037  0.248276  0.748624  1
  S  S8  1  0.443221  0.942194  0.748654  1
  S  S9  1  0.749681  0.557033  0.749879  1
  O  O10  1  0.108703  0.697910  0.083518  1
  O  O11  1  0.302784  0.499228  0.085667  1
  O  O12  1  0.506156  0.892663  0.083872  1
  O  O13  1  0.374846  0.397838  0.237178  1
  O  O14  1  0.604725  0.216720  0.239186  1
  O  O15  1  0.784123  0.627444  0.235556  1
  O  O16  1  0.061383  0.345390  0.290931  1
  O  O17  1  0.656411  0.007270  0.290978  1
  O  O18  1  0.993473  0.939978  0.291332  1
  O  O19  1  0.273677  0.653681  0.390817  1
  O  O20  1  0.347896  0.010057  0.388851  1
  O  O21  1  0.987110  0.722553  0.387392  1
  O  O22  1  0.026672  0.266899  0.612391  1
  O  O23  1  0.629936  0.971534  0.613079  1
  O  O24  1  0.733013  0.372189  0.611962  1
  O  O25  1  0.031155  0.057597  0.709116  1
  O  O26  1  0.320982  0.969019  0.707259  1
  O  O27  1  0.938884  0.684084  0.711678  1
  O  O28  1  0.237177  0.378669  0.766069  1
  O  O29  1  0.374740  0.763154  0.768685  1
  O  O30  1  0.616366  0.621643  0.770350  1
  O  O31  1  0.478900  0.093403  0.910558  1
  O  O32  1  0.704557  0.519220  0.910061  1
  O  O33  1  0.906759  0.294587  0.910192  1
