# generated using pymatgen
data_Na3Mn3NiO8
_symmetry_space_group_name_H-M   'P 1'
_cell_length_a   5.87668804
_cell_length_b   6.40250890
_cell_length_c   6.45878518
_cell_angle_alpha   123.66631639
_cell_angle_beta   116.88080915
_cell_angle_gamma   90.20954357
_symmetry_Int_Tables_number   1
_chemical_formula_structural   Na3Mn3NiO8
_chemical_formula_sum   'Na3 Mn3 Ni1 O8'
_cell_volume   169.48757908
_cell_formula_units_Z   1
loop_
 _symmetry_equiv_pos_site_id
 _symmetry_equiv_pos_as_xyz
  1  'x, y, z'
loop_
 _atom_site_type_symbol
 _atom_site_label
 _atom_site_symmetry_multiplicity
 _atom_site_fract_x
 _atom_site_fract_y
 _atom_site_fract_z
 _atom_site_occupancy
  Na  Na0  1  0.000000  0.500000  0.000000  1
  Na  Na1  1  0.500000  0.500000  0.000000  1
  Na  Na2  1  0.000000  0.000000  0.500000  1
  Mn  Mn3  1  0.500000  0.500000  0.500000  1
  Mn  Mn4  1  0.500000  0.000000  0.000000  1
  Mn  Mn5  1  0.000000  0.500000  0.500000  1
  Ni  Ni6  1  0.000000  0.000000  0.000000  1
  O  O7  1  0.709023  0.752779  0.939282  1
  O  O8  1  0.226997  0.751891  0.931368  1
  O  O9  1  0.237847  0.287476  0.480066  1
  O  O10  1  0.750826  0.298501  0.499584  1
  O  O11  1  0.249174  0.701499  0.500416  1
  O  O12  1  0.762153  0.712524  0.519934  1
  O  O13  1  0.773003  0.248109  0.068632  1
  O  O14  1  0.290977  0.247221  0.060718  1
