# generated using pymatgen
data_TbHo10In(Hg2Pd)4
_symmetry_space_group_name_H-M   'P 1'
_cell_length_a   12.96281225
_cell_length_b   12.96281225
_cell_length_c   3.70439900
_cell_angle_alpha   90.00000000
_cell_angle_beta   90.00000000
_cell_angle_gamma   111.31165477
_symmetry_Int_Tables_number   1
_chemical_formula_structural   TbHo10In(Hg2Pd)4
_chemical_formula_sum   'Tb1 Ho10 In1 Hg8 Pd4'
_cell_volume   579.90088706
_cell_formula_units_Z   1
loop_
 _symmetry_equiv_pos_site_id
 _symmetry_equiv_pos_as_xyz
  1  'x, y, z'
loop_
 _atom_site_type_symbol
 _atom_site_label
 _atom_site_symmetry_multiplicity
 _atom_site_fract_x
 _atom_site_fract_y
 _atom_site_fract_z
 _atom_site_occupancy
  Tb  Tb0  1  0.000000  0.000000  0.000000  1
  Ho  Ho1  1  0.415544  0.076287  0.000000  1
  Ho  Ho2  1  0.584456  0.923713  0.000000  1
  Ho  Ho3  1  0.076287  0.415544  0.000000  1
  Ho  Ho4  1  0.923713  0.584456  0.000000  1
  Ho  Ho5  1  0.166760  0.833240  0.000000  1
  Ho  Ho6  1  0.833240  0.166760  0.000000  1
  Ho  Ho7  1  0.370213  0.629787  0.000000  1
  Ho  Ho8  1  0.629787  0.370213  0.000000  1
  Ho  Ho9  1  0.300921  0.300921  0.000000  1
  Ho  Ho10  1  0.699079  0.699079  0.000000  1
  In  In11  1  0.500000  0.500000  0.500000  1
  Hg  Hg12  1  0.369291  0.846630  0.500000  1
  Hg  Hg13  1  0.630709  0.153370  0.500000  1
  Hg  Hg14  1  0.846632  0.369291  0.500000  1
  Hg  Hg15  1  0.153368  0.630709  0.500000  1
  Hg  Hg16  1  0.215927  0.062142  0.500000  1
  Hg  Hg17  1  0.784073  0.937858  0.500000  1
  Hg  Hg18  1  0.062141  0.215926  0.500000  1
  Hg  Hg19  1  0.937859  0.784074  0.500000  1
  Pd  Pd20  1  0.448875  0.250562  0.500000  1
  Pd  Pd21  1  0.551125  0.749438  0.500000  1
  Pd  Pd22  1  0.250563  0.448875  0.500000  1
  Pd  Pd23  1  0.749437  0.551125  0.500000  1
