# generated using pymatgen
data_PrHo2Ag(Ir2O7)2
_symmetry_space_group_name_H-M   'P 1'
_cell_length_a   7.38576918
_cell_length_b   7.35918041
_cell_length_c   7.20287947
_cell_angle_alpha   59.27954606
_cell_angle_beta   59.13424121
_cell_angle_gamma   60.11902146
_symmetry_Int_Tables_number   1
_chemical_formula_structural   PrHo2Ag(Ir2O7)2
_chemical_formula_sum   'Pr1 Ho2 Ag1 Ir4 O14'
_cell_volume   273.70501727
_cell_formula_units_Z   1
loop_
 _symmetry_equiv_pos_site_id
 _symmetry_equiv_pos_as_xyz
  1  'x, y, z'
loop_
 _atom_site_type_symbol
 _atom_site_label
 _atom_site_symmetry_multiplicity
 _atom_site_fract_x
 _atom_site_fract_y
 _atom_site_fract_z
 _atom_site_occupancy
  Pr  Pr0  1  0.625000  0.125000  0.125000  1
  Ho  Ho1  1  0.125000  0.125000  0.125000  1
  Ho  Ho2  1  0.125000  0.625000  0.125000  1
  Ag  Ag3  1  0.125000  0.125000  0.625000  1
  Ir  Ir4  1  0.625000  0.625000  0.625000  1
  Ir  Ir5  1  0.125000  0.625000  0.625000  1
  Ir  Ir6  1  0.625000  0.125000  0.625000  1
  Ir  Ir7  1  0.625000  0.625000  0.125000  1
  O  O8  1  0.950852  0.561808  0.538205  1
  O  O9  1  0.299148  0.300866  0.711795  1
  O  O10  1  0.957553  0.540160  0.962127  1
  O  O11  1  0.718892  0.292112  0.285851  1
  O  O12  1  0.531108  0.546855  0.964149  1
  O  O13  1  0.550713  0.948909  0.551469  1
  O  O14  1  0.531108  0.957888  0.964149  1
  O  O15  1  0.235642  0.257221  0.249915  1
  O  O16  1  0.299148  0.688192  0.711795  1
  O  O17  1  0.699287  0.301091  0.698531  1
  O  O18  1  0.014358  0.992779  0.000085  1
  O  O19  1  0.950852  0.949134  0.538205  1
  O  O20  1  0.292447  0.709840  0.287873  1
  O  O21  1  0.718892  0.703145  0.285851  1
