# generated using pymatgen
data_Rb3YIr2O9
_symmetry_space_group_name_H-M   'P 1'
_cell_length_a   6.10043907
_cell_length_b   6.10043864
_cell_length_c   14.64671957
_cell_angle_alpha   89.77007716
_cell_angle_beta   89.77007910
_cell_angle_gamma   120.01249001
_symmetry_Int_Tables_number   1
_chemical_formula_structural   Rb3YIr2O9
_chemical_formula_sum   'Rb6 Y2 Ir4 O18'
_cell_volume   471.98097069
_cell_formula_units_Z   2
loop_
 _symmetry_equiv_pos_site_id
 _symmetry_equiv_pos_as_xyz
  1  'x, y, z'
loop_
 _atom_site_type_symbol
 _atom_site_label
 _atom_site_symmetry_multiplicity
 _atom_site_fract_x
 _atom_site_fract_y
 _atom_site_fract_z
 _atom_site_occupancy
  Rb  Rb0  1  0.670178  0.336594  0.400545  1
  Rb  Rb1  1  0.663406  0.329822  0.099455  1
  Rb  Rb2  1  0.000990  0.999010  0.250000  1
  Rb  Rb3  1  0.999010  0.000990  0.750000  1
  Rb  Rb4  1  0.336594  0.670178  0.900545  1
  Rb  Rb5  1  0.329822  0.663406  0.599455  1
  Y  Y6  1  0.000000  0.000000  0.000000  1
  Y  Y7  1  0.000000  0.000000  0.500000  1
  Ir  Ir8  1  0.662629  0.329567  0.653289  1
  Ir  Ir9  1  0.670433  0.337371  0.846711  1
  Ir  Ir10  1  0.337371  0.670433  0.346711  1
  Ir  Ir11  1  0.329567  0.662629  0.153289  1
  O  O12  1  0.826868  0.647059  0.913539  1
  O  O13  1  0.352941  0.173132  0.586461  1
  O  O14  1  0.173132  0.352941  0.086461  1
  O  O15  1  0.647059  0.826868  0.413539  1
  O  O16  1  0.365621  0.186406  0.917930  1
  O  O17  1  0.813594  0.634379  0.582070  1
  O  O18  1  0.634379  0.813594  0.082070  1
  O  O19  1  0.186406  0.365621  0.417930  1
  O  O20  1  0.826932  0.186602  0.915755  1
  O  O21  1  0.813398  0.173068  0.584245  1
  O  O22  1  0.173068  0.813398  0.084245  1
  O  O23  1  0.186602  0.826932  0.415755  1
  O  O24  1  0.468313  0.531687  0.250000  1
  O  O25  1  0.531687  0.468313  0.750000  1
  O  O26  1  0.063775  0.531573  0.252102  1
  O  O27  1  0.468427  0.936225  0.247898  1
  O  O28  1  0.936225  0.468427  0.747898  1
  O  O29  1  0.531573  0.063775  0.752102  1
