# generated using pymatgen
data_Ba2TmCoO5
_symmetry_space_group_name_H-M   'P 1'
_cell_length_a   6.12193900
_cell_length_b   7.91611578
_cell_length_c   12.42385056
_cell_angle_alpha   91.58237675
_cell_angle_beta   90.00000000
_cell_angle_gamma   90.00000000
_symmetry_Int_Tables_number   1
_chemical_formula_structural   Ba2TmCoO5
_chemical_formula_sum   'Ba8 Tm4 Co4 O20'
_cell_volume   601.85477066
_cell_formula_units_Z   4
loop_
 _symmetry_equiv_pos_site_id
 _symmetry_equiv_pos_as_xyz
  1  'x, y, z'
loop_
 _atom_site_type_symbol
 _atom_site_label
 _atom_site_symmetry_multiplicity
 _atom_site_fract_x
 _atom_site_fract_y
 _atom_site_fract_z
 _atom_site_occupancy
  Ba  Ba0  1  0.757722  0.492777  0.361187  1
  Ba  Ba1  1  0.742278  0.992777  0.861187  1
  Ba  Ba2  1  0.242278  0.507223  0.638813  1
  Ba  Ba3  1  0.257722  0.007223  0.138813  1
  Ba  Ba4  1  0.753773  0.992474  0.384024  1
  Ba  Ba5  1  0.746227  0.492474  0.884024  1
  Ba  Ba6  1  0.246227  0.007526  0.615976  1
  Ba  Ba7  1  0.253773  0.507526  0.115976  1
  Tm  Tm8  1  0.747859  0.262263  0.629828  1
  Tm  Tm9  1  0.752141  0.762263  0.129828  1
  Tm  Tm10  1  0.252141  0.737737  0.370172  1
  Tm  Tm11  1  0.247859  0.237737  0.870172  1
  Co  Co12  1  0.741689  0.745990  0.591672  1
  Co  Co13  1  0.758311  0.245990  0.091672  1
  Co  Co14  1  0.258311  0.254010  0.408328  1
  Co  Co15  1  0.241689  0.754010  0.908328  1
  O  O16  1  0.754770  0.972599  0.632696  1
  O  O17  1  0.745230  0.472599  0.132696  1
  O  O18  1  0.245230  0.027401  0.367304  1
  O  O19  1  0.254770  0.527401  0.867304  1
  O  O20  1  0.739020  0.052272  0.169039  1
  O  O21  1  0.760980  0.552272  0.669039  1
  O  O22  1  0.260980  0.947728  0.830961  1
  O  O23  1  0.239020  0.447728  0.330961  1
  O  O24  1  0.536246  0.746855  0.267799  1
  O  O25  1  0.963754  0.246855  0.767799  1
  O  O26  1  0.463754  0.253145  0.732201  1
  O  O27  1  0.036246  0.753145  0.232201  1
  O  O28  1  0.526302  0.230252  0.987435  1
  O  O29  1  0.973698  0.730252  0.487435  1
  O  O30  1  0.473698  0.769748  0.012565  1
  O  O31  1  0.026302  0.269748  0.512565  1
  O  O32  1  0.029243  0.233704  0.015566  1
  O  O33  1  0.470757  0.733704  0.515566  1
  O  O34  1  0.970757  0.766296  0.984434  1
  O  O35  1  0.529243  0.266296  0.484434  1
