# generated using pymatgen
data_Sm2Ta2Ni10P7
_symmetry_space_group_name_H-M   'P 1'
_cell_length_a   9.29277292
_cell_length_b   9.24273471
_cell_length_c   3.73301300
_cell_angle_alpha   90.00000000
_cell_angle_beta   90.00000000
_cell_angle_gamma   120.20709478
_symmetry_Int_Tables_number   1
_chemical_formula_structural   Sm2Ta2Ni10P7
_chemical_formula_sum   'Sm2 Ta2 Ni10 P7'
_cell_volume   277.09319638
_cell_formula_units_Z   1
loop_
 _symmetry_equiv_pos_site_id
 _symmetry_equiv_pos_as_xyz
  1  'x, y, z'
loop_
 _atom_site_type_symbol
 _atom_site_label
 _atom_site_symmetry_multiplicity
 _atom_site_fract_x
 _atom_site_fract_y
 _atom_site_fract_z
 _atom_site_occupancy
  Sm  Sm0  1  0.994282  0.000770  0.000000  1
  Sm  Sm1  1  0.336875  0.669834  0.500000  1
  Ta  Ta2  1  0.884593  0.448225  0.500000  1
  Ta  Ta3  1  0.549507  0.433498  0.500000  1
  Ni  Ni4  1  0.297394  0.393428  0.000000  1
  Ni  Ni5  1  0.100128  0.704794  0.000000  1
  Ni  Ni6  1  0.383800  0.173409  0.000000  1
  Ni  Ni7  1  0.797157  0.618338  0.000000  1
  Ni  Ni8  1  0.819210  0.206491  0.000000  1
  Ni  Ni9  1  0.235110  0.950133  0.500000  1
  Ni  Ni10  1  0.049713  0.278125  0.500000  1
  Ni  Ni11  1  0.720355  0.774225  0.500000  1
  Ni  Ni12  1  0.566543  0.110336  0.500000  1
  Ni  Ni13  1  0.601649  0.901554  0.000000  1
  P  P14  1  0.661496  0.324618  0.000000  1
  P  P15  1  0.080881  0.442571  0.000000  1
  P  P16  1  0.255280  0.215912  0.500000  1
  P  P17  1  0.774032  0.044474  0.500000  1
  P  P18  1  0.960838  0.744568  0.500000  1
  P  P19  1  0.560444  0.637812  0.000000  1
  P  P20  1  0.370711  0.926885  0.000000  1
