# generated using pymatgen
data_Y6Ho7Th3(MgRh)4
_symmetry_space_group_name_H-M   'P 1'
_cell_length_a   9.76489189
_cell_length_b   9.77250438
_cell_length_c   9.77250400
_cell_angle_alpha   59.99999453
_cell_angle_beta   59.97420294
_cell_angle_gamma   59.97419800
_symmetry_Int_Tables_number   1
_chemical_formula_structural   Y6Ho7Th3(MgRh)4
_chemical_formula_sum   'Y6 Ho7 Th3 Mg4 Rh4'
_cell_volume   659.16583109
_cell_formula_units_Z   1
loop_
 _symmetry_equiv_pos_site_id
 _symmetry_equiv_pos_as_xyz
  1  'x, y, z'
loop_
 _atom_site_type_symbol
 _atom_site_label
 _atom_site_symmetry_multiplicity
 _atom_site_fract_x
 _atom_site_fract_y
 _atom_site_fract_z
 _atom_site_occupancy
  Y  Y0  1  0.185558  0.814627  0.814627  1
  Y  Y1  1  0.815126  0.184638  0.184638  1
  Y  Y2  1  0.815126  0.184638  0.815599  1
  Y  Y3  1  0.185558  0.814627  0.185188  1
  Y  Y4  1  0.815126  0.815599  0.184638  1
  Y  Y5  1  0.185558  0.185188  0.814627  1
  Ho  Ho6  1  0.202638  0.599121  0.599121  1
  Ho  Ho7  1  0.063218  0.437291  0.437291  1
  Ho  Ho8  1  0.436636  0.063765  0.063765  1
  Ho  Ho9  1  0.436636  0.063765  0.435832  1
  Ho  Ho10  1  0.063218  0.437291  0.062198  1
  Ho  Ho11  1  0.436636  0.435832  0.063765  1
  Ho  Ho12  1  0.063218  0.062198  0.437291  1
  Th  Th13  1  0.595873  0.598585  0.598585  1
  Th  Th14  1  0.595873  0.598585  0.206957  1
  Th  Th15  1  0.595873  0.206957  0.598585  1
  Mg  Mg16  1  0.830731  0.830014  0.830014  1
  Mg  Mg17  1  0.830731  0.830014  0.509240  1
  Mg  Mg18  1  0.830731  0.509240  0.830014  1
  Mg  Mg19  1  0.507540  0.830820  0.830820  1
  Rh  Rh20  1  0.396472  0.391708  0.391708  1
  Rh  Rh21  1  0.396472  0.391708  0.820113  1
  Rh  Rh22  1  0.396472  0.820113  0.391708  1
  Rh  Rh23  1  0.818980  0.393673  0.393673  1
