# generated using pymatgen
data_Dy3Y(Tm3Pt4)2
_symmetry_space_group_name_H-M   'P 1'
_cell_length_a   7.41125100
_cell_length_b   7.50759971
_cell_length_c   14.69151300
_cell_angle_alpha   89.97502143
_cell_angle_beta   90.00000000
_cell_angle_gamma   90.00000000
_symmetry_Int_Tables_number   1
_chemical_formula_structural   Dy3Y(Tm3Pt4)2
_chemical_formula_sum   'Dy6 Y2 Tm12 Pt16'
_cell_volume   817.44607614
_cell_formula_units_Z   2
loop_
 _symmetry_equiv_pos_site_id
 _symmetry_equiv_pos_as_xyz
  1  'x, y, z'
loop_
 _atom_site_type_symbol
 _atom_site_label
 _atom_site_symmetry_multiplicity
 _atom_site_fract_x
 _atom_site_fract_y
 _atom_site_fract_z
 _atom_site_occupancy
  Dy  Dy0  1  0.514747  0.324498  0.094357  1
  Dy  Dy1  1  0.014747  0.175502  0.405643  1
  Dy  Dy2  1  0.514882  0.324671  0.405221  1
  Dy  Dy3  1  0.014882  0.175329  0.094779  1
  Dy  Dy4  1  0.484605  0.674707  0.905260  1
  Dy  Dy5  1  0.984605  0.825293  0.594740  1
  Y  Y6  1  0.485588  0.675065  0.594001  1
  Y  Y7  1  0.985588  0.824935  0.905999  1
  Tm  Tm8  1  0.640516  0.168034  0.621791  1
  Tm  Tm9  1  0.140516  0.331966  0.878209  1
  Tm  Tm10  1  0.358407  0.831463  0.121868  1
  Tm  Tm11  1  0.858407  0.668537  0.378132  1
  Tm  Tm12  1  0.358925  0.832163  0.377982  1
  Tm  Tm13  1  0.858925  0.667837  0.122018  1
  Tm  Tm14  1  0.641594  0.167890  0.878088  1
  Tm  Tm15  1  0.141594  0.332110  0.621912  1
  Tm  Tm16  1  0.802923  0.510150  0.749830  1
  Tm  Tm17  1  0.302923  0.989850  0.750170  1
  Tm  Tm18  1  0.197248  0.490050  0.250309  1
  Tm  Tm19  1  0.697248  0.009950  0.249691  1
  Pt  Pt20  1  0.692664  0.970287  0.457706  1
  Pt  Pt21  1  0.192664  0.529713  0.042294  1
  Pt  Pt22  1  0.308744  0.032221  0.958858  1
  Pt  Pt23  1  0.808744  0.467779  0.541142  1
  Pt  Pt24  1  0.306105  0.030850  0.541902  1
  Pt  Pt25  1  0.806105  0.469150  0.958098  1
  Pt  Pt26  1  0.692217  0.969559  0.042320  1
  Pt  Pt27  1  0.192217  0.530441  0.457680  1
  Pt  Pt28  1  0.436079  0.381526  0.750572  1
  Pt  Pt29  1  0.936079  0.118474  0.749428  1
  Pt  Pt30  1  0.564174  0.617603  0.249883  1
  Pt  Pt31  1  0.064174  0.882397  0.250117  1
  Pt  Pt32  1  0.665026  0.858806  0.750108  1
  Pt  Pt33  1  0.165026  0.641194  0.749892  1
  Pt  Pt34  1  0.335556  0.141457  0.250043  1
  Pt  Pt35  1  0.835556  0.358543  0.249957  1
