# generated using pymatgen
data_CeSc4Si5Ge2Pt9
_symmetry_space_group_name_H-M   'P 1'
_cell_length_a   10.11441961
_cell_length_b   10.14789003
_cell_length_c   3.97663100
_cell_angle_alpha   90.00000000
_cell_angle_beta   90.00000000
_cell_angle_gamma   120.07876518
_symmetry_Int_Tables_number   1
_chemical_formula_structural   CeSc4Si5Ge2Pt9
_chemical_formula_sum   'Ce1 Sc4 Si5 Ge2 Pt9'
_cell_volume   353.19732206
_cell_formula_units_Z   1
loop_
 _symmetry_equiv_pos_site_id
 _symmetry_equiv_pos_as_xyz
  1  'x, y, z'
loop_
 _atom_site_type_symbol
 _atom_site_label
 _atom_site_symmetry_multiplicity
 _atom_site_fract_x
 _atom_site_fract_y
 _atom_site_fract_z
 _atom_site_occupancy
  Ce  Ce0  1  0.333847  0.668043  0.500000  1
  Sc  Sc1  1  0.998318  0.990535  0.000000  1
  Sc  Sc2  1  0.892994  0.457833  0.500000  1
  Sc  Sc3  1  0.564492  0.107448  0.500000  1
  Sc  Sc4  1  0.542027  0.435189  0.500000  1
  Si  Si5  1  0.950205  0.758395  0.500000  1
  Si  Si6  1  0.561400  0.647241  0.000000  1
  Si  Si7  1  0.352146  0.912908  0.000000  1
  Si  Si8  1  0.088446  0.443600  0.000000  1
  Si  Si9  1  0.666972  0.335103  0.000000  1
  Ge  Ge10  1  0.233737  0.187651  0.500000  1
  Ge  Ge11  1  0.812789  0.047917  0.500000  1
  Pt  Pt12  1  0.217825  0.931786  0.500000  1
  Pt  Pt13  1  0.064947  0.295136  0.500000  1
  Pt  Pt14  1  0.714791  0.773001  0.500000  1
  Pt  Pt15  1  0.318238  0.418124  0.000000  1
  Pt  Pt16  1  0.583615  0.899373  0.000000  1
  Pt  Pt17  1  0.098452  0.684926  0.000000  1
  Pt  Pt18  1  0.388405  0.173182  0.000000  1
  Pt  Pt19  1  0.825020  0.215758  0.000000  1
  Pt  Pt20  1  0.791330  0.616855  0.000000  1
