# generated using pymatgen
data_Co8Re3Mo13N4
_symmetry_space_group_name_H-M   'P 1'
_cell_length_a   7.94074180
_cell_length_b   7.97536194
_cell_length_c   7.97536100
_cell_angle_alpha   59.99999976
_cell_angle_beta   59.85567325
_cell_angle_gamma   59.85567145
_symmetry_Int_Tables_number   1
_chemical_formula_structural   Co8Re3Mo13N4
_chemical_formula_sum   'Co8 Re3 Mo13 N4'
_cell_volume   356.36574938
_cell_formula_units_Z   1
loop_
 _symmetry_equiv_pos_site_id
 _symmetry_equiv_pos_as_xyz
  1  'x, y, z'
loop_
 _atom_site_type_symbol
 _atom_site_label
 _atom_site_symmetry_multiplicity
 _atom_site_fract_x
 _atom_site_fract_y
 _atom_site_fract_z
 _atom_site_occupancy
  Co  Co0  1  0.242751  0.919083  0.919083  1
  Co  Co1  1  0.917328  0.248045  0.917313  1
  Co  Co2  1  0.917328  0.917313  0.917313  1
  Co  Co3  1  0.917328  0.917313  0.248045  1
  Co  Co4  1  0.007249  0.330917  0.330917  1
  Co  Co5  1  0.332672  0.332687  0.001955  1
  Co  Co6  1  0.332672  0.001955  0.332687  1
  Co  Co7  1  0.332672  0.332687  0.332687  1
  Re  Re8  1  0.125000  0.125000  0.625000  1
  Re  Re9  1  0.125000  0.625000  0.125000  1
  Re  Re10  1  0.125000  0.125000  0.125000  1
  Mo  Mo11  1  0.694735  0.308233  0.688799  1
  Mo  Mo12  1  0.625000  0.125000  0.125000  1
  Mo  Mo13  1  0.555265  0.561201  0.941767  1
  Mo  Mo14  1  0.555265  0.941767  0.561201  1
  Mo  Mo15  1  0.945077  0.944534  0.555195  1
  Mo  Mo16  1  0.945077  0.555195  0.555195  1
  Mo  Mo17  1  0.945077  0.555195  0.944534  1
  Mo  Mo18  1  0.694735  0.308233  0.308233  1
  Mo  Mo19  1  0.304923  0.694805  0.305466  1
  Mo  Mo20  1  0.304923  0.305466  0.694805  1
  Mo  Mo21  1  0.304923  0.694805  0.694805  1
  Mo  Mo22  1  0.694735  0.688799  0.308233  1
  Mo  Mo23  1  0.555265  0.941767  0.941767  1
  N  N24  1  0.625000  0.625000  0.625000  1
  N  N25  1  0.125000  0.625000  0.625000  1
  N  N26  1  0.625000  0.125000  0.625000  1
  N  N27  1  0.625000  0.625000  0.125000  1
