# generated using pymatgen
data_Dy2ErCoSn3Rh2
_symmetry_space_group_name_H-M   'P 1'
_cell_length_a   7.59513500
_cell_length_b   7.57922290
_cell_length_c   3.71883300
_cell_angle_alpha   90.00000000
_cell_angle_beta   90.00000000
_cell_angle_gamma   120.06946878
_symmetry_Int_Tables_number   1
_chemical_formula_structural   Dy2ErCoSn3Rh2
_chemical_formula_sum   'Dy2 Er1 Co1 Sn3 Rh2'
_cell_volume   185.26485769
_cell_formula_units_Z   1
loop_
 _symmetry_equiv_pos_site_id
 _symmetry_equiv_pos_as_xyz
  1  'x, y, z'
loop_
 _atom_site_type_symbol
 _atom_site_label
 _atom_site_symmetry_multiplicity
 _atom_site_fract_x
 _atom_site_fract_y
 _atom_site_fract_z
 _atom_site_occupancy
  Dy  Dy0  1  0.403174  0.403429  0.000000  1
  Dy  Dy1  1  0.999744  0.596571  0.000000  1
  Er  Er2  1  0.596983  0.000000  0.000000  1
  Co  Co3  1  0.000166  0.000000  0.000000  1
  Sn  Sn4  1  0.743655  0.745279  0.500000  1
  Sn  Sn5  1  0.998377  0.254721  0.500000  1
  Sn  Sn6  1  0.256774  0.000000  0.500000  1
  Rh  Rh7  1  0.666422  0.331716  0.500000  1
  Rh  Rh8  1  0.334705  0.668284  0.500000  1
