# generated using pymatgen
data_La10AgSn6I
_symmetry_space_group_name_H-M   'P 1'
_cell_length_a   9.81814100
_cell_length_b   9.81814030
_cell_length_c   6.91015800
_cell_angle_alpha   90.00000000
_cell_angle_beta   90.00000000
_cell_angle_gamma   119.99999900
_symmetry_Int_Tables_number   1
_chemical_formula_structural   La10AgSn6I
_chemical_formula_sum   'La10 Ag1 Sn6 I1'
_cell_volume   576.86888149
_cell_formula_units_Z   1
loop_
 _symmetry_equiv_pos_site_id
 _symmetry_equiv_pos_as_xyz
  1  'x, y, z'
loop_
 _atom_site_type_symbol
 _atom_site_label
 _atom_site_symmetry_multiplicity
 _atom_site_fract_x
 _atom_site_fract_y
 _atom_site_fract_z
 _atom_site_occupancy
  La  La0  1  0.725042  0.725042  0.247201  1
  La  La1  1  0.333333  0.666667  0.500000  1
  La  La2  1  0.274958  0.274958  0.752799  1
  La  La3  1  0.000000  0.274958  0.247201  1
  La  La4  1  0.666667  0.333333  0.500000  1
  La  La5  1  0.274958  0.000000  0.247201  1
  La  La6  1  0.725042  0.000000  0.752799  1
  La  La7  1  0.333333  0.666667  0.000000  1
  La  La8  1  0.666667  0.333333  0.000000  1
  La  La9  1  0.000000  0.725042  0.752799  1
  Ag  Ag10  1  0.000000  0.000000  0.000000  1
  Sn  Sn11  1  0.381751  0.381751  0.249316  1
  Sn  Sn12  1  0.618249  0.618249  0.750684  1
  Sn  Sn13  1  0.381751  0.000000  0.750684  1
  Sn  Sn14  1  0.000000  0.618249  0.249316  1
  Sn  Sn15  1  0.618249  0.000000  0.249316  1
  Sn  Sn16  1  0.000000  0.381751  0.750684  1
  I  I17  1  0.000000  0.000000  0.500000  1
