# generated using pymatgen
data_ErTmTh(InRh)3
_symmetry_space_group_name_H-M   'P 1'
_cell_length_a   7.56279614
_cell_length_b   7.79173003
_cell_length_c   3.86071400
_cell_angle_alpha   90.00000000
_cell_angle_beta   90.00000000
_cell_angle_gamma   121.01268180
_symmetry_Int_Tables_number   1
_chemical_formula_structural   ErTmTh(InRh)3
_chemical_formula_sum   'Er1 Tm1 Th1 In3 Rh3'
_cell_volume   194.98075293
_cell_formula_units_Z   1
loop_
 _symmetry_equiv_pos_site_id
 _symmetry_equiv_pos_as_xyz
  1  'x, y, z'
loop_
 _atom_site_type_symbol
 _atom_site_label
 _atom_site_symmetry_multiplicity
 _atom_site_fract_x
 _atom_site_fract_y
 _atom_site_fract_z
 _atom_site_occupancy
  Er  Er0  1  0.595753  0.595019  0.500000  1
  Tm  Tm1  1  0.404018  0.999266  0.500000  1
  Th  Th2  1  0.999939  0.417994  0.500000  1
  In  In3  1  0.270144  0.257381  0.000000  1
  In  In4  1  0.000451  0.756792  0.000000  1
  In  In5  1  0.729564  0.987571  0.000000  1
  Rh  Rh6  1  0.316068  0.648897  0.000000  1
  Rh  Rh7  1  0.000384  0.004923  0.500000  1
  Rh  Rh8  1  0.683679  0.332156  0.000000  1
