# generated using pymatgen
data_Hf2Sc(AsRu)3
_symmetry_space_group_name_H-M   'P 1'
_cell_length_a   7.68938836
_cell_length_b   7.68938827
_cell_length_c   7.68938849
_cell_angle_alpha   128.22969444
_cell_angle_beta   120.38709040
_cell_angle_gamma   82.83916691
_symmetry_Int_Tables_number   1
_chemical_formula_structural   Hf2Sc(AsRu)3
_chemical_formula_sum   'Hf4 Sc2 As6 Ru6'
_cell_volume   295.93863183
_cell_formula_units_Z   2
loop_
 _symmetry_equiv_pos_site_id
 _symmetry_equiv_pos_as_xyz
  1  'x, y, z'
loop_
 _atom_site_type_symbol
 _atom_site_label
 _atom_site_symmetry_multiplicity
 _atom_site_fract_x
 _atom_site_fract_y
 _atom_site_fract_z
 _atom_site_occupancy
  Hf  Hf0  1  0.750332  0.832364  0.582032  1
  Hf  Hf1  1  0.249668  0.831701  0.082032  1
  Hf  Hf2  1  0.051990  0.258157  0.706166  1
  Hf  Hf3  1  0.948010  0.654176  0.206166  1
  Sc  Sc4  1  0.469575  0.697540  0.727965  1
  Sc  Sc5  1  0.530425  0.258390  0.227965  1
  As  As6  1  0.278354  0.277204  0.498851  1
  As  As7  1  0.721646  0.220497  0.998851  1
  As  As8  1  0.330824  0.586371  0.251742  1
  As  As9  1  0.669176  0.920918  0.255547  1
  As  As10  1  0.165371  0.920918  0.751742  1
  As  As11  1  0.834629  0.586371  0.755547  1
  Ru  Ru12  1  0.500000  0.497554  0.997554  1
  Ru  Ru13  1  0.000000  0.497554  0.497554  1
  Ru  Ru14  1  0.088590  0.251713  0.096818  1
  Ru  Ru15  1  0.911410  0.008229  0.163123  1
  Ru  Ru16  1  0.345106  0.008229  0.596818  1
  Ru  Ru17  1  0.654894  0.251713  0.663123  1
