# generated using pymatgen
data_Y10InPb5Cl2
_symmetry_space_group_name_H-M   'P 1'
_cell_length_a   9.18359511
_cell_length_b   9.18359550
_cell_length_c   6.65771000
_cell_angle_alpha   90.00003055
_cell_angle_beta   90.00002111
_cell_angle_gamma   119.87992804
_symmetry_Int_Tables_number   1
_chemical_formula_structural   Y10InPb5Cl2
_chemical_formula_sum   'Y10 In1 Pb5 Cl2'
_cell_volume   486.86120946
_cell_formula_units_Z   1
loop_
 _symmetry_equiv_pos_site_id
 _symmetry_equiv_pos_as_xyz
  1  'x, y, z'
loop_
 _atom_site_type_symbol
 _atom_site_label
 _atom_site_symmetry_multiplicity
 _atom_site_fract_x
 _atom_site_fract_y
 _atom_site_fract_z
 _atom_site_occupancy
  Y  Y0  1  0.666130  0.335968  0.999108  1
  Y  Y1  1  0.335968  0.666131  0.999108  1
  Y  Y2  1  0.739408  0.739408  0.249998  1
  Y  Y3  1  0.259328  0.999987  0.250000  1
  Y  Y4  1  0.999986  0.259328  0.250000  1
  Y  Y5  1  0.666131  0.335968  0.500891  1
  Y  Y6  1  0.335969  0.666132  0.500891  1
  Y  Y7  1  0.262793  0.262793  0.749997  1
  Y  Y8  1  0.738136  0.995004  0.750001  1
  Y  Y9  1  0.995003  0.738135  0.750001  1
  In  In10  1  0.608459  0.608459  0.750000  1
  Pb  Pb11  1  0.610066  0.000741  0.249999  1
  Pb  Pb12  1  0.000742  0.610067  0.249999  1
  Pb  Pb13  1  0.391037  0.391037  0.250000  1
  Pb  Pb14  1  0.389152  0.999638  0.750000  1
  Pb  Pb15  1  0.999638  0.389151  0.750000  1
  Cl  Cl16  1  0.001029  0.001029  0.000654  1
  Cl  Cl17  1  0.001028  0.001027  0.499346  1
