# generated using pymatgen
data_TbNd4Y3(B6Os)4
_symmetry_space_group_name_H-M   'P 1'
_cell_length_a   3.70720800
_cell_length_b   9.25410702
_cell_length_c   11.67083502
_cell_angle_alpha   90.00728816
_cell_angle_beta   90.00000000
_cell_angle_gamma   90.00000000
_symmetry_Int_Tables_number   1
_chemical_formula_structural   TbNd4Y3(B6Os)4
_chemical_formula_sum   'Tb1 Nd4 Y3 B24 Os4'
_cell_volume   400.39016184
_cell_formula_units_Z   1
loop_
 _symmetry_equiv_pos_site_id
 _symmetry_equiv_pos_as_xyz
  1  'x, y, z'
loop_
 _atom_site_type_symbol
 _atom_site_label
 _atom_site_symmetry_multiplicity
 _atom_site_fract_x
 _atom_site_fract_y
 _atom_site_fract_z
 _atom_site_occupancy
  Tb  Tb0  1  0.000000  0.944209  0.372257  1
  Nd  Nd1  1  0.000000  0.322928  0.414130  1
  Nd  Nd2  1  0.000000  0.677100  0.585960  1
  Nd  Nd3  1  0.000000  0.822860  0.085857  1
  Nd  Nd4  1  0.000000  0.177153  0.914064  1
  Y  Y5  1  0.000000  0.055701  0.627632  1
  Y  Y6  1  0.000000  0.444336  0.127488  1
  Y  Y7  1  0.000000  0.555676  0.872472  1
  B  B8  1  0.500000  0.556011  0.430463  1
  B  B9  1  0.500000  0.443874  0.569560  1
  B  B10  1  0.500000  0.056130  0.069494  1
  B  B11  1  0.500000  0.943903  0.930463  1
  B  B12  1  0.500000  0.748597  0.417511  1
  B  B13  1  0.500000  0.251185  0.582421  1
  B  B14  1  0.500000  0.248847  0.082425  1
  B  B15  1  0.500000  0.751182  0.917571  1
  B  B16  1  0.500000  0.789966  0.267093  1
  B  B17  1  0.500000  0.209764  0.732940  1
  B  B18  1  0.500000  0.290367  0.232887  1
  B  B19  1  0.500000  0.709747  0.767063  1
  B  B20  1  0.500000  0.631211  0.185658  1
  B  B21  1  0.500000  0.368753  0.814323  1
  B  B22  1  0.500000  0.131397  0.314198  1
  B  B23  1  0.500000  0.868729  0.685662  1
  B  B24  1  0.500000  0.986205  0.213719  1
  B  B25  1  0.500000  0.014010  0.786153  1
  B  B26  1  0.500000  0.485947  0.286148  1
  B  B27  1  0.500000  0.514031  0.713857  1
  B  B28  1  0.500000  0.604390  0.028632  1
  B  B29  1  0.500000  0.395602  0.971360  1
  B  B30  1  0.500000  0.104700  0.471560  1
  B  B31  1  0.500000  0.895531  0.528936  1
  Os  Os32  1  0.000000  0.638770  0.319937  1
  Os  Os33  1  0.000000  0.361060  0.680116  1
  Os  Os34  1  0.000000  0.139126  0.179991  1
  Os  Os35  1  0.000000  0.861002  0.819999  1
