# generated using pymatgen
data_Er3Sc7(Si5Ir2)4
_symmetry_space_group_name_H-M   'P 1'
_cell_length_a   12.44819619
_cell_length_b   12.44819619
_cell_length_c   4.13610900
_cell_angle_alpha   90.00000000
_cell_angle_beta   90.00000000
_cell_angle_gamma   89.94996824
_symmetry_Int_Tables_number   1
_chemical_formula_structural   Er3Sc7(Si5Ir2)4
_chemical_formula_sum   'Er3 Sc7 Si20 Ir8'
_cell_volume   640.92123122
_cell_formula_units_Z   1
loop_
 _symmetry_equiv_pos_site_id
 _symmetry_equiv_pos_as_xyz
  1  'x, y, z'
loop_
 _atom_site_type_symbol
 _atom_site_label
 _atom_site_symmetry_multiplicity
 _atom_site_fract_x
 _atom_site_fract_y
 _atom_site_fract_z
 _atom_site_occupancy
  Er  Er0  1  0.115917  0.615917  0.500000  1
  Er  Er1  1  0.384155  0.116052  0.500000  1
  Er  Er2  1  0.616052  0.884155  0.500000  1
  Sc  Sc3  1  0.500569  0.499838  0.000000  1
  Sc  Sc4  1  0.999838  0.000569  0.000000  1
  Sc  Sc5  1  0.674065  0.174065  0.500000  1
  Sc  Sc6  1  0.326400  0.826400  0.500000  1
  Sc  Sc7  1  0.172898  0.326404  0.500000  1
  Sc  Sc8  1  0.826404  0.672898  0.500000  1
  Sc  Sc9  1  0.883489  0.383489  0.500000  1
  Si  Si10  1  0.567520  0.067520  0.000000  1
  Si  Si11  1  0.432855  0.932855  0.000000  1
  Si  Si12  1  0.065956  0.432552  0.000000  1
  Si  Si13  1  0.932552  0.565956  0.000000  1
  Si  Si14  1  0.666519  0.698598  0.000000  1
  Si  Si15  1  0.333663  0.300837  0.000000  1
  Si  Si16  1  0.166052  0.800842  0.000000  1
  Si  Si17  1  0.834310  0.200406  0.000000  1
  Si  Si18  1  0.300842  0.666052  0.000000  1
  Si  Si19  1  0.700406  0.334310  0.000000  1
  Si  Si20  1  0.198598  0.166519  0.000000  1
  Si  Si21  1  0.800837  0.833663  0.000000  1
  Si  Si22  1  0.652195  0.505683  0.500000  1
  Si  Si23  1  0.349042  0.492334  0.500000  1
  Si  Si24  1  0.150690  0.992934  0.500000  1
  Si  Si25  1  0.849328  0.007412  0.500000  1
  Si  Si26  1  0.492934  0.650690  0.500000  1
  Si  Si27  1  0.507412  0.349328  0.500000  1
  Si  Si28  1  0.005683  0.152195  0.500000  1
  Si  Si29  1  0.992334  0.849042  0.500000  1
  Ir  Ir30  1  0.745901  0.518571  0.000000  1
  Ir  Ir31  1  0.254607  0.480447  0.000000  1
  Ir  Ir32  1  0.244465  0.980800  0.000000  1
  Ir  Ir33  1  0.755812  0.019880  0.000000  1
  Ir  Ir34  1  0.480800  0.744465  0.000000  1
  Ir  Ir35  1  0.519880  0.255812  0.000000  1
  Ir  Ir36  1  0.018571  0.245901  0.000000  1
  Ir  Ir37  1  0.980447  0.754607  0.000000  1
