# generated using pymatgen
data_SrMn2(Sb6Os)2
_symmetry_space_group_name_H-M   'P 1'
_cell_length_a   8.16578060
_cell_length_b   8.17703132
_cell_length_c   8.17703108
_cell_angle_alpha   109.59788801
_cell_angle_beta   109.46114055
_cell_angle_gamma   109.41034337
_symmetry_Int_Tables_number   1
_chemical_formula_structural   SrMn2(Sb6Os)2
_chemical_formula_sum   'Sr1 Mn2 Sb12 Os2'
_cell_volume   420.01735846
_cell_formula_units_Z   1
loop_
 _symmetry_equiv_pos_site_id
 _symmetry_equiv_pos_as_xyz
  1  'x, y, z'
loop_
 _atom_site_type_symbol
 _atom_site_label
 _atom_site_symmetry_multiplicity
 _atom_site_fract_x
 _atom_site_fract_y
 _atom_site_fract_z
 _atom_site_occupancy
  Sr  Sr0  1  0.000000  0.000000  0.000000  1
  Mn  Mn1  1  0.500000  0.500000  0.500000  1
  Mn  Mn2  1  0.500000  0.000000  0.000000  1
  Sb  Sb3  1  0.158503  0.497479  0.339797  1
  Sb  Sb4  1  0.501737  0.659161  0.842577  1
  Sb  Sb5  1  0.339783  0.842101  0.182264  1
  Sb  Sb6  1  0.819007  0.660770  0.158237  1
  Sb  Sb7  1  0.660217  0.842480  0.502318  1
  Sb  Sb8  1  0.180993  0.339230  0.841763  1
  Sb  Sb9  1  0.660217  0.157899  0.817736  1
  Sb  Sb10  1  0.339783  0.157520  0.497682  1
  Sb  Sb11  1  0.498263  0.340839  0.157423  1
  Sb  Sb12  1  0.841497  0.502521  0.660203  1
  Sb  Sb13  1  0.841497  0.181296  0.338977  1
  Sb  Sb14  1  0.158503  0.818704  0.661023  1
  Os  Os15  1  0.000000  0.500000  0.000000  1
  Os  Os16  1  0.000000  0.000000  0.500000  1
