# generated using pymatgen
data_Ba2Zn7Cu3
_symmetry_space_group_name_H-M   'P 1'
_cell_length_a   6.81043422
_cell_length_b   6.81043433
_cell_length_c   5.24599755
_cell_angle_alpha   90.14563232
_cell_angle_beta   90.14563257
_cell_angle_gamma   105.11922973
_symmetry_Int_Tables_number   1
_chemical_formula_structural   Ba2Zn7Cu3
_chemical_formula_sum   'Ba2 Zn7 Cu3'
_cell_volume   234.89539992
_cell_formula_units_Z   1
loop_
 _symmetry_equiv_pos_site_id
 _symmetry_equiv_pos_as_xyz
  1  'x, y, z'
loop_
 _atom_site_type_symbol
 _atom_site_label
 _atom_site_symmetry_multiplicity
 _atom_site_fract_x
 _atom_site_fract_y
 _atom_site_fract_z
 _atom_site_occupancy
  Ba  Ba0  1  0.659603  0.659301  0.252768  1
  Ba  Ba1  1  0.340699  0.340397  0.747232  1
  Zn  Zn2  1  0.926224  0.929577  0.754608  1
  Zn  Zn3  1  0.070423  0.073776  0.245392  1
  Zn  Zn4  1  0.537025  0.928218  0.755833  1
  Zn  Zn5  1  0.472039  0.077926  0.243687  1
  Zn  Zn6  1  0.922074  0.527961  0.756313  1
  Zn  Zn7  1  0.071782  0.462975  0.244167  1
  Zn  Zn8  1  0.203159  0.796841  0.500000  1
  Cu  Cu9  1  0.798275  0.201725  0.500000  1
  Cu  Cu10  1  0.201385  0.798615  0.000000  1
  Cu  Cu11  1  0.797311  0.202689  0.000000  1
