# generated using pymatgen
data_Dy3Ho5In3Co
_symmetry_space_group_name_H-M   'P 1'
_cell_length_a   10.34788200
_cell_length_b   10.34788177
_cell_length_c   7.01517900
_cell_angle_alpha   90.00000000
_cell_angle_beta   90.00000000
_cell_angle_gamma   119.99999434
_symmetry_Int_Tables_number   1
_chemical_formula_structural   Dy3Ho5In3Co
_chemical_formula_sum   'Dy6 Ho10 In6 Co2'
_cell_volume   650.53750427
_cell_formula_units_Z   2
loop_
 _symmetry_equiv_pos_site_id
 _symmetry_equiv_pos_as_xyz
  1  'x, y, z'
loop_
 _atom_site_type_symbol
 _atom_site_label
 _atom_site_symmetry_multiplicity
 _atom_site_fract_x
 _atom_site_fract_y
 _atom_site_fract_z
 _atom_site_occupancy
  Dy  Dy0  1  0.535014  0.070027  0.790937  1
  Dy  Dy1  1  0.929973  0.464986  0.790937  1
  Dy  Dy2  1  0.535014  0.464986  0.790937  1
  Dy  Dy3  1  0.464986  0.929973  0.290937  1
  Dy  Dy4  1  0.070027  0.535014  0.290937  1
  Dy  Dy5  1  0.464986  0.535014  0.290937  1
  Ho  Ho6  1  0.821950  0.643902  0.499217  1
  Ho  Ho7  1  0.356098  0.178050  0.499217  1
  Ho  Ho8  1  0.821950  0.178050  0.499217  1
  Ho  Ho9  1  0.178050  0.356098  0.999217  1
  Ho  Ho10  1  0.643902  0.821950  0.999217  1
  Ho  Ho11  1  0.178050  0.821950  0.999217  1
  Ho  Ho12  1  0.666667  0.333333  0.182786  1
  Ho  Ho13  1  0.333333  0.666667  0.682786  1
  Ho  Ho14  1  0.000000  0.000000  0.779978  1
  Ho  Ho15  1  0.000000  0.000000  0.279978  1
  In  In16  1  0.837118  0.674238  0.039194  1
  In  In17  1  0.325762  0.162882  0.039194  1
  In  In18  1  0.837118  0.162882  0.039194  1
  In  In19  1  0.162882  0.325762  0.539194  1
  In  In20  1  0.674238  0.837118  0.539194  1
  In  In21  1  0.162882  0.837118  0.539194  1
  Co  Co22  1  0.666667  0.333333  0.567145  1
  Co  Co23  1  0.333333  0.666667  0.067145  1
