# generated using pymatgen
data_LaEuDy4Ta2O14
_symmetry_space_group_name_H-M   'P 1'
_cell_length_a   6.51957011
_cell_length_b   6.51956957
_cell_length_c   7.59136967
_cell_angle_alpha   89.78285687
_cell_angle_beta   90.21714146
_cell_angle_gamma   108.87622089
_symmetry_Int_Tables_number   1
_chemical_formula_structural   LaEuDy4Ta2O14
_chemical_formula_sum   'La1 Eu1 Dy4 Ta2 O14'
_cell_volume   305.31300404
_cell_formula_units_Z   1
loop_
 _symmetry_equiv_pos_site_id
 _symmetry_equiv_pos_as_xyz
  1  'x, y, z'
loop_
 _atom_site_type_symbol
 _atom_site_label
 _atom_site_symmetry_multiplicity
 _atom_site_fract_x
 _atom_site_fract_y
 _atom_site_fract_z
 _atom_site_occupancy
  La  La0  1  0.501879  0.501879  0.500000  1
  Eu  Eu1  1  0.497064  0.497064  0.000000  1
  Dy  Dy2  1  0.999214  0.466211  0.751661  1
  Dy  Dy3  1  0.000776  0.533722  0.246348  1
  Dy  Dy4  1  0.533722  0.000776  0.753652  1
  Dy  Dy5  1  0.466211  0.999214  0.248339  1
  Ta  Ta6  1  0.999993  0.999993  0.500000  1
  Ta  Ta7  1  0.000033  0.000033  0.000000  1
  O  O8  1  0.642150  0.357861  0.755011  1
  O  O9  1  0.357861  0.642150  0.244989  1
  O  O10  1  0.935258  0.064699  0.749697  1
  O  O11  1  0.064699  0.935258  0.250303  1
  O  O12  1  0.932856  0.680497  0.532482  1
  O  O13  1  0.067748  0.319194  0.031649  1
  O  O14  1  0.319194  0.067748  0.968351  1
  O  O15  1  0.680497  0.932856  0.467518  1
  O  O16  1  0.364394  0.635507  0.755179  1
  O  O17  1  0.635507  0.364394  0.244821  1
  O  O18  1  0.935426  0.683089  0.966061  1
  O  O19  1  0.064808  0.317621  0.465330  1
  O  O20  1  0.317621  0.064808  0.534670  1
  O  O21  1  0.683089  0.935426  0.033939  1
