# generated using pymatgen
data_La2ErSn3Hg2
_symmetry_space_group_name_H-M   'P 1'
_cell_length_a   6.60072471
_cell_length_b   6.60072454
_cell_length_c   10.40598300
_cell_angle_alpha   90.00000000
_cell_angle_beta   90.00000000
_cell_angle_gamma   102.79830403
_symmetry_Int_Tables_number   1
_chemical_formula_structural   La2ErSn3Hg2
_chemical_formula_sum   'La4 Er2 Sn6 Hg4'
_cell_volume   442.12024270
_cell_formula_units_Z   2
loop_
 _symmetry_equiv_pos_site_id
 _symmetry_equiv_pos_as_xyz
  1  'x, y, z'
loop_
 _atom_site_type_symbol
 _atom_site_label
 _atom_site_symmetry_multiplicity
 _atom_site_fract_x
 _atom_site_fract_y
 _atom_site_fract_z
 _atom_site_occupancy
  La  La0  1  0.204991  0.795009  0.500000  1
  La  La1  1  0.204991  0.795009  0.000000  1
  La  La2  1  0.795009  0.204991  0.500000  1
  La  La3  1  0.795009  0.204991  0.000000  1
  Er  Er4  1  0.632196  0.632196  0.250000  1
  Er  Er5  1  0.367804  0.367804  0.750000  1
  Sn  Sn6  1  0.016367  0.016367  0.250000  1
  Sn  Sn7  1  0.983633  0.983633  0.750000  1
  Sn  Sn8  1  0.490346  0.065816  0.250000  1
  Sn  Sn9  1  0.934184  0.509654  0.750000  1
  Sn  Sn10  1  0.509654  0.934184  0.750000  1
  Sn  Sn11  1  0.065816  0.490346  0.250000  1
  Hg  Hg12  1  0.316963  0.316963  0.042278  1
  Hg  Hg13  1  0.683037  0.683037  0.957722  1
  Hg  Hg14  1  0.316963  0.316963  0.457722  1
  Hg  Hg15  1  0.683037  0.683037  0.542278  1
