# generated using pymatgen
data_Tb4LuMoRuO12
_symmetry_space_group_name_H-M   'P 1'
_cell_length_a   6.85728919
_cell_length_b   6.85728851
_cell_length_c   7.55369900
_cell_angle_alpha   73.76862633
_cell_angle_beta   73.76862797
_cell_angle_gamma   49.61707605
_symmetry_Int_Tables_number   1
_chemical_formula_structural   Tb4LuMoRuO12
_chemical_formula_sum   'Tb4 Lu1 Mo1 Ru1 O12'
_cell_volume   257.41450640
_cell_formula_units_Z   1
loop_
 _symmetry_equiv_pos_site_id
 _symmetry_equiv_pos_as_xyz
  1  'x, y, z'
loop_
 _atom_site_type_symbol
 _atom_site_label
 _atom_site_symmetry_multiplicity
 _atom_site_fract_x
 _atom_site_fract_y
 _atom_site_fract_z
 _atom_site_occupancy
  Tb  Tb0  1  0.316042  0.291859  0.358831  1
  Tb  Tb1  1  0.708141  0.683958  0.641169  1
  Tb  Tb2  1  0.320883  0.309064  0.824139  1
  Tb  Tb3  1  0.690936  0.679117  0.175861  1
  Lu  Lu4  1  0.007927  0.992073  0.500000  1
  Mo  Mo5  1  0.200212  0.799788  0.000000  1
  Ru  Ru6  1  0.763586  0.236414  0.000000  1
  O  O7  1  0.913190  0.427443  0.914249  1
  O  O8  1  0.411183  0.907790  0.916929  1
  O  O9  1  0.092210  0.588817  0.083071  1
  O  O10  1  0.572557  0.086810  0.085751  1
  O  O11  1  0.107008  0.596494  0.569351  1
  O  O12  1  0.605775  0.088200  0.574446  1
  O  O13  1  0.911800  0.394225  0.425554  1
  O  O14  1  0.403506  0.892992  0.430649  1
  O  O15  1  0.994450  0.003462  0.794797  1
  O  O16  1  0.996538  0.005550  0.205203  1
  O  O17  1  0.492975  0.508922  0.822581  1
  O  O18  1  0.491078  0.507025  0.177419  1
