# generated using pymatgen
data_Tb6Al24CuRu6Au
_symmetry_space_group_name_H-M   'P 1'
_cell_length_a   8.86755482
_cell_length_b   8.86755382
_cell_length_c   9.50751529
_cell_angle_alpha   90.15907327
_cell_angle_beta   89.84092720
_cell_angle_gamma   119.59164905
_symmetry_Int_Tables_number   1
_chemical_formula_structural   Tb6Al24CuRu6Au
_chemical_formula_sum   'Tb6 Al24 Cu1 Ru6 Au1'
_cell_volume   650.09303433
_cell_formula_units_Z   1
loop_
 _symmetry_equiv_pos_site_id
 _symmetry_equiv_pos_as_xyz
  1  'x, y, z'
loop_
 _atom_site_type_symbol
 _atom_site_label
 _atom_site_symmetry_multiplicity
 _atom_site_fract_x
 _atom_site_fract_y
 _atom_site_fract_z
 _atom_site_occupancy
  Tb  Tb0  1  0.383198  0.187927  0.249186  1
  Tb  Tb1  1  0.807012  0.192988  0.248708  1
  Tb  Tb2  1  0.812073  0.616802  0.249186  1
  Tb  Tb3  1  0.616802  0.812073  0.750814  1
  Tb  Tb4  1  0.192988  0.807012  0.751292  1
  Tb  Tb5  1  0.187927  0.383198  0.750814  1
  Al  Al6  1  0.440166  0.878650  0.249770  1
  Al  Al7  1  0.121350  0.559834  0.249770  1
  Al  Al8  1  0.436876  0.563124  0.243292  1
  Al  Al9  1  0.559834  0.121350  0.750230  1
  Al  Al10  1  0.878650  0.440166  0.750230  1
  Al  Al11  1  0.563124  0.436876  0.756708  1
  Al  Al12  1  0.163316  0.836684  0.422652  1
  Al  Al13  1  0.151987  0.321991  0.421763  1
  Al  Al14  1  0.678009  0.848013  0.421763  1
  Al  Al15  1  0.836684  0.163316  0.577348  1
  Al  Al16  1  0.848013  0.678009  0.578237  1
  Al  Al17  1  0.321991  0.151987  0.578237  1
  Al  Al18  1  0.836257  0.163743  0.923217  1
  Al  Al19  1  0.844288  0.676650  0.922541  1
  Al  Al20  1  0.323350  0.155712  0.922541  1
  Al  Al21  1  0.163743  0.836257  0.076783  1
  Al  Al22  1  0.155712  0.323350  0.077459  1
  Al  Al23  1  0.676650  0.844288  0.077459  1
  Al  Al24  1  0.328114  0.671886  0.521176  1
  Al  Al25  1  0.671886  0.328114  0.478824  1
  Al  Al26  1  0.668335  0.331665  0.020898  1
  Al  Al27  1  0.331665  0.668335  0.979102  1
  Al  Al28  1  0.002048  0.997952  0.249849  1
  Al  Al29  1  0.997952  0.002048  0.750151  1
  Cu  Cu30  1  0.500000  0.500000  0.000000  1
  Ru  Ru31  1  0.000000  0.000000  0.500000  1
  Ru  Ru32  1  0.000000  0.000000  0.000000  1
  Ru  Ru33  1  0.500000  0.000000  0.500000  1
  Ru  Ru34  1  0.000000  0.500000  0.500000  1
  Ru  Ru35  1  0.500000  0.000000  0.000000  1
  Ru  Ru36  1  0.000000  0.500000  0.000000  1
  Au  Au37  1  0.500000  0.500000  0.500000  1
