# generated using pymatgen
data_Tm12Re(TcPb)2
_symmetry_space_group_name_H-M   'P 1'
_cell_length_a   8.39650913
_cell_length_b   8.39603314
_cell_length_c   8.39650953
_cell_angle_alpha   109.60763218
_cell_angle_beta   109.63910971
_cell_angle_gamma   109.16962160
_symmetry_Int_Tables_number   1
_chemical_formula_structural   Tm12Re(TcPb)2
_chemical_formula_sum   'Tm12 Re1 Tc2 Pb2'
_cell_volume   455.64698090
_cell_formula_units_Z   1
loop_
 _symmetry_equiv_pos_site_id
 _symmetry_equiv_pos_as_xyz
  1  'x, y, z'
loop_
 _atom_site_type_symbol
 _atom_site_label
 _atom_site_symmetry_multiplicity
 _atom_site_fract_x
 _atom_site_fract_y
 _atom_site_fract_z
 _atom_site_occupancy
  Tm  Tm0  1  0.426536  0.186058  0.240473  1
  Tm  Tm1  1  0.573464  0.813942  0.759527  1
  Tm  Tm2  1  0.945585  0.186058  0.759522  1
  Tm  Tm3  1  0.186087  0.945612  0.759525  1
  Tm  Tm4  1  0.054415  0.813942  0.240478  1
  Tm  Tm5  1  0.813913  0.054388  0.240475  1
  Tm  Tm6  1  0.186078  0.426564  0.240486  1
  Tm  Tm7  1  0.813922  0.573436  0.759514  1
  Tm  Tm8  1  0.320070  0.320078  0.640129  1
  Tm  Tm9  1  0.679930  0.679922  0.359871  1
  Tm  Tm10  1  0.320051  0.679922  0.999992  1
  Tm  Tm11  1  0.679949  0.320078  0.000008  1
  Re  Re12  1  0.000000  0.000000  0.000000  1
  Tc  Tc13  1  0.341723  0.341735  0.000012  1
  Tc  Tc14  1  0.658277  0.658265  0.999988  1
  Pb  Pb15  1  0.500000  0.000000  0.500000  1
  Pb  Pb16  1  0.000000  0.500000  0.500000  1
