# generated using pymatgen
data_Ho4Sc(AlTe)2
_symmetry_space_group_name_H-M   'P 1'
_cell_length_a   8.60911400
_cell_length_b   8.60911603
_cell_length_c   7.88945700
_cell_angle_alpha   90.00000000
_cell_angle_beta   90.00000000
_cell_angle_gamma   125.54354985
_symmetry_Int_Tables_number   1
_chemical_formula_structural   Ho4Sc(AlTe)2
_chemical_formula_sum   'Ho8 Sc2 Al4 Te4'
_cell_volume   475.78913213
_cell_formula_units_Z   2
loop_
 _symmetry_equiv_pos_site_id
 _symmetry_equiv_pos_as_xyz
  1  'x, y, z'
loop_
 _atom_site_type_symbol
 _atom_site_label
 _atom_site_symmetry_multiplicity
 _atom_site_fract_x
 _atom_site_fract_y
 _atom_site_fract_z
 _atom_site_occupancy
  Ho  Ho0  1  0.795499  0.538982  0.166983  1
  Ho  Ho1  1  0.461018  0.204501  0.833017  1
  Ho  Ho2  1  0.961018  0.704501  0.666983  1
  Ho  Ho3  1  0.295499  0.038982  0.333017  1
  Ho  Ho4  1  0.204501  0.461018  0.833017  1
  Ho  Ho5  1  0.538982  0.795499  0.166983  1
  Ho  Ho6  1  0.038982  0.295499  0.333017  1
  Ho  Ho7  1  0.704501  0.961018  0.666983  1
  Sc  Sc8  1  0.000000  0.000000  0.000000  1
  Sc  Sc9  1  0.500000  0.500000  0.500000  1
  Al  Al10  1  0.872038  0.872038  0.373068  1
  Al  Al11  1  0.127962  0.127962  0.626932  1
  Al  Al12  1  0.627962  0.627962  0.873068  1
  Al  Al13  1  0.372038  0.372038  0.126932  1
  Te  Te14  1  0.202623  0.797377  0.000000  1
  Te  Te15  1  0.702623  0.297377  0.500000  1
  Te  Te16  1  0.797377  0.202623  0.000000  1
  Te  Te17  1  0.297377  0.702623  0.500000  1
