# generated using pymatgen
data_YbY3(IrRu)4
_symmetry_space_group_name_H-M   'P 1'
_cell_length_a   5.28053303
_cell_length_b   5.31595847
_cell_length_c   8.91722901
_cell_angle_alpha   89.99985634
_cell_angle_beta   89.99623804
_cell_angle_gamma   120.22188150
_symmetry_Int_Tables_number   1
_chemical_formula_structural   YbY3(IrRu)4
_chemical_formula_sum   'Yb1 Y3 Ir4 Ru4'
_cell_volume   216.29403296
_cell_formula_units_Z   1
loop_
 _symmetry_equiv_pos_site_id
 _symmetry_equiv_pos_as_xyz
  1  'x, y, z'
loop_
 _atom_site_type_symbol
 _atom_site_label
 _atom_site_symmetry_multiplicity
 _atom_site_fract_x
 _atom_site_fract_y
 _atom_site_fract_z
 _atom_site_occupancy
  Yb  Yb0  1  0.666200  0.333096  0.934247  1
  Y  Y1  1  0.666584  0.333295  0.576312  1
  Y  Y2  1  0.333182  0.666596  0.432417  1
  Y  Y3  1  0.332425  0.666211  0.061453  1
  Ir  Ir4  1  0.994653  0.997330  0.498940  1
  Ir  Ir5  1  0.995472  0.997734  0.998187  1
  Ir  Ir6  1  0.174173  0.343372  0.749191  1
  Ir  Ir7  1  0.174173  0.830799  0.749189  1
  Ru  Ru8  1  0.661161  0.830579  0.749697  1
  Ru  Ru9  1  0.828933  0.656689  0.250001  1
  Ru  Ru10  1  0.828932  0.172242  0.250001  1
  Ru  Ru11  1  0.344112  0.172056  0.250365  1
