# generated using pymatgen
data_Tb8Ti2ReSi16Tc9
_symmetry_space_group_name_H-M   'P 1'
_cell_length_a   6.78335153
_cell_length_b   6.78335124
_cell_length_c   13.00248073
_cell_angle_alpha   90.00661987
_cell_angle_beta   89.99337949
_cell_angle_gamma   89.12445875
_symmetry_Int_Tables_number   1
_chemical_formula_structural   Tb8Ti2ReSi16Tc9
_chemical_formula_sum   'Tb8 Ti2 Re1 Si16 Tc9'
_cell_volume   598.22441541
_cell_formula_units_Z   1
loop_
 _symmetry_equiv_pos_site_id
 _symmetry_equiv_pos_as_xyz
  1  'x, y, z'
loop_
 _atom_site_type_symbol
 _atom_site_label
 _atom_site_symmetry_multiplicity
 _atom_site_fract_x
 _atom_site_fract_y
 _atom_site_fract_z
 _atom_site_occupancy
  Tb  Tb0  1  0.336037  0.002348  0.472046  1
  Tb  Tb1  1  0.512158  0.820491  0.716999  1
  Tb  Tb2  1  0.488501  0.178781  0.217029  1
  Tb  Tb3  1  0.820491  0.512158  0.283001  1
  Tb  Tb4  1  0.178781  0.488501  0.782971  1
  Tb  Tb5  1  0.663490  0.998118  0.971850  1
  Tb  Tb6  1  0.002348  0.336037  0.527954  1
  Tb  Tb7  1  0.998118  0.663490  0.028150  1
  Ti  Ti8  1  0.157362  0.842858  0.249933  1
  Ti  Ti9  1  0.842858  0.157362  0.750067  1
  Re  Re10  1  0.666082  0.666082  0.500000  1
  Si  Si11  1  0.211719  0.115691  0.683138  1
  Si  Si12  1  0.399185  0.681097  0.941715  1
  Si  Si13  1  0.600867  0.318546  0.441235  1
  Si  Si14  1  0.681097  0.399185  0.058285  1
  Si  Si15  1  0.318546  0.600867  0.558765  1
  Si  Si16  1  0.788783  0.884130  0.182621  1
  Si  Si17  1  0.115691  0.211719  0.316862  1
  Si  Si18  1  0.884130  0.788783  0.817379  1
  Si  Si19  1  0.262782  0.985771  0.055165  1
  Si  Si20  1  0.528603  0.803283  0.317290  1
  Si  Si21  1  0.471291  0.196527  0.816782  1
  Si  Si22  1  0.803283  0.528603  0.682710  1
  Si  Si23  1  0.196527  0.471291  0.183218  1
  Si  Si24  1  0.737075  0.015041  0.555628  1
  Si  Si25  1  0.985771  0.262782  0.944835  1
  Si  Si26  1  0.015041  0.737075  0.444372  1
  Tc  Tc27  1  0.334361  0.334361  0.000000  1
  Tc  Tc28  1  0.182821  0.982054  0.865287  1
  Tc  Tc29  1  0.472444  0.692173  0.134686  1
  Tc  Tc30  1  0.525958  0.307351  0.634258  1
  Tc  Tc31  1  0.692173  0.472444  0.865314  1
  Tc  Tc32  1  0.307351  0.525958  0.365742  1
  Tc  Tc33  1  0.817686  0.018538  0.365333  1
  Tc  Tc34  1  0.982054  0.182821  0.134713  1
  Tc  Tc35  1  0.018538  0.817686  0.634667  1
