# generated using pymatgen
data_Hf3PaIn2(PdPt)2
_symmetry_space_group_name_H-M   'P 1'
_cell_length_a   7.51118090
_cell_length_b   7.51117981
_cell_length_c   7.07222707
_cell_angle_alpha   90.01069993
_cell_angle_beta   90.01069711
_cell_angle_gamma   91.92133750
_symmetry_Int_Tables_number   1
_chemical_formula_structural   Hf3PaIn2(PdPt)2
_chemical_formula_sum   'Hf6 Pa2 In4 Pd4 Pt4'
_cell_volume   398.77537455
_cell_formula_units_Z   2
loop_
 _symmetry_equiv_pos_site_id
 _symmetry_equiv_pos_as_xyz
  1  'x, y, z'
loop_
 _atom_site_type_symbol
 _atom_site_label
 _atom_site_symmetry_multiplicity
 _atom_site_fract_x
 _atom_site_fract_y
 _atom_site_fract_z
 _atom_site_occupancy
  Hf  Hf0  1  0.649002  0.350998  0.500000  1
  Hf  Hf1  1  0.354884  0.645116  0.500000  1
  Hf  Hf2  1  0.686424  0.313576  0.000000  1
  Hf  Hf3  1  0.317444  0.682556  0.000000  1
  Hf  Hf4  1  0.808201  0.813888  0.501556  1
  Hf  Hf5  1  0.186112  0.191799  0.498444  1
  Pa  Pa6  1  0.140197  0.143736  0.002244  1
  Pa  Pa7  1  0.856264  0.859803  0.997756  1
  In  In8  1  0.498227  0.997645  0.259005  1
  In  In9  1  0.496276  0.001575  0.740959  1
  In  In10  1  0.998425  0.503724  0.259041  1
  In  In11  1  0.002355  0.501773  0.740995  1
  Pd  Pd12  1  0.634845  0.634335  0.209162  1
  Pd  Pd13  1  0.365665  0.365155  0.790838  1
  Pd  Pd14  1  0.136851  0.863165  0.296641  1
  Pd  Pd15  1  0.136835  0.863149  0.703359  1
  Pt  Pt16  1  0.370425  0.370390  0.216143  1
  Pt  Pt17  1  0.629610  0.629575  0.783857  1
  Pt  Pt18  1  0.865943  0.133987  0.706291  1
  Pt  Pt19  1  0.866013  0.134057  0.293709  1
