# generated using pymatgen
data_CsTbSm2CBr6
_symmetry_space_group_name_H-M   'P 1'
_cell_length_a   8.95226721
_cell_length_b   8.98740220
_cell_length_c   9.55362405
_cell_angle_alpha   70.92839600
_cell_angle_beta   84.95084526
_cell_angle_gamma   89.22342033
_symmetry_Int_Tables_number   1
_chemical_formula_structural   CsTbSm2CBr6
_chemical_formula_sum   'Cs2 Tb2 Sm4 C2 Br12'
_cell_volume   723.55740180
_cell_formula_units_Z   2
loop_
 _symmetry_equiv_pos_site_id
 _symmetry_equiv_pos_as_xyz
  1  'x, y, z'
loop_
 _atom_site_type_symbol
 _atom_site_label
 _atom_site_symmetry_multiplicity
 _atom_site_fract_x
 _atom_site_fract_y
 _atom_site_fract_z
 _atom_site_occupancy
  Cs  Cs0  1  0.467430  0.363604  0.330809  1
  Cs  Cs1  1  0.532571  0.636396  0.669191  1
  Tb  Tb2  1  0.973560  0.887097  0.323318  1
  Tb  Tb3  1  0.026439  0.112903  0.676683  1
  Sm  Sm4  1  0.915275  0.740773  0.004318  1
  Sm  Sm5  1  0.084725  0.259227  0.995681  1
  Sm  Sm6  1  0.739668  0.086838  0.000952  1
  Sm  Sm7  1  0.260331  0.913162  0.999049  1
  C  C8  1  0.006366  0.026723  0.921502  1
  C  C9  1  0.993633  0.973277  0.078498  1
  Br  Br10  1  0.074714  0.192466  0.330212  1
  Br  Br11  1  0.925286  0.807534  0.669788  1
  Br  Br12  1  0.206623  0.590996  0.000801  1
  Br  Br13  1  0.793378  0.409004  0.999199  1
  Br  Br14  1  0.404728  0.202802  0.001895  1
  Br  Br15  1  0.595271  0.797199  0.998104  1
  Br  Br16  1  0.669991  0.999104  0.328362  1
  Br  Br17  1  0.330009  0.000896  0.671638  1
  Br  Br18  1  0.276705  0.775845  0.325124  1
  Br  Br19  1  0.723295  0.224155  0.674876  1
  Br  Br20  1  0.852575  0.592461  0.329012  1
  Br  Br21  1  0.147424  0.407539  0.670988  1
