# generated using pymatgen
data_Na3Bi(NO3)8
_symmetry_space_group_name_H-M   'P 1'
_cell_length_a   8.08900840
_cell_length_b   8.08900897
_cell_length_c   8.08900929
_cell_angle_alpha   87.17202677
_cell_angle_beta   87.17202787
_cell_angle_gamma   87.17203144
_symmetry_Int_Tables_number   1
_chemical_formula_structural   Na3Bi(NO3)8
_chemical_formula_sum   'Na3 Bi1 N8 O24'
_cell_volume   527.40826282
_cell_formula_units_Z   1
loop_
 _symmetry_equiv_pos_site_id
 _symmetry_equiv_pos_as_xyz
  1  'x, y, z'
loop_
 _atom_site_type_symbol
 _atom_site_label
 _atom_site_symmetry_multiplicity
 _atom_site_fract_x
 _atom_site_fract_y
 _atom_site_fract_z
 _atom_site_occupancy
  Na  Na0  1  0.000000  0.500000  0.500000  1
  Na  Na1  1  0.500000  0.500000  0.000000  1
  Na  Na2  1  0.500000  0.000000  0.500000  1
  Bi  Bi3  1  0.000000  0.000000  0.000000  1
  N  N4  1  0.333975  0.333975  0.333975  1
  N  N5  1  0.328691  0.157635  0.827387  1
  N  N6  1  0.157635  0.827387  0.328691  1
  N  N7  1  0.827387  0.328691  0.157635  1
  N  N8  1  0.666025  0.666025  0.666025  1
  N  N9  1  0.172613  0.671309  0.842365  1
  N  N10  1  0.842365  0.172613  0.671309  1
  N  N11  1  0.671309  0.842365  0.172613  1
  O  O12  1  0.730879  0.303128  0.046704  1
  O  O13  1  0.180421  0.954108  0.224376  1
  O  O14  1  0.249252  0.811769  0.447713  1
  O  O15  1  0.224376  0.180421  0.954108  1
  O  O16  1  0.233199  0.313038  0.455682  1
  O  O17  1  0.455682  0.233199  0.313038  1
  O  O18  1  0.313038  0.455682  0.233199  1
  O  O19  1  0.188231  0.552287  0.750748  1
  O  O20  1  0.953296  0.269121  0.696872  1
  O  O21  1  0.696872  0.953296  0.269121  1
  O  O22  1  0.045892  0.775624  0.819579  1
  O  O23  1  0.552287  0.750748  0.188231  1
  O  O24  1  0.819579  0.045892  0.775624  1
  O  O25  1  0.750748  0.188231  0.552287  1
  O  O26  1  0.775624  0.819579  0.045892  1
  O  O27  1  0.269121  0.696872  0.953296  1
  O  O28  1  0.766801  0.686962  0.544318  1
  O  O29  1  0.544318  0.766801  0.686962  1
  O  O30  1  0.686962  0.544318  0.766801  1
  O  O31  1  0.811769  0.447713  0.249252  1
  O  O32  1  0.046704  0.730879  0.303128  1
  O  O33  1  0.303128  0.046704  0.730879  1
  O  O34  1  0.954108  0.224376  0.180421  1
  O  O35  1  0.447713  0.249252  0.811769  1
