# generated using pymatgen
data_Sr2TbDyF10
_symmetry_space_group_name_H-M   'P 1'
_cell_length_a   8.22334953
_cell_length_b   8.22334927
_cell_length_c   5.79345200
_cell_angle_alpha   89.06055385
_cell_angle_beta   89.06054935
_cell_angle_gamma   149.45231322
_symmetry_Int_Tables_number   1
_chemical_formula_structural   Sr2TbDyF10
_chemical_formula_sum   'Sr2 Tb1 Dy1 F10'
_cell_volume   198.73485310
_cell_formula_units_Z   1
loop_
 _symmetry_equiv_pos_site_id
 _symmetry_equiv_pos_as_xyz
  1  'x, y, z'
loop_
 _atom_site_type_symbol
 _atom_site_label
 _atom_site_symmetry_multiplicity
 _atom_site_fract_x
 _atom_site_fract_y
 _atom_site_fract_z
 _atom_site_occupancy
  Sr  Sr0  1  0.322962  0.677038  0.750000  1
  Sr  Sr1  1  0.677134  0.322866  0.250000  1
  Tb  Tb2  1  0.075296  0.924704  0.750000  1
  Dy  Dy3  1  0.924577  0.075423  0.250000  1
  F  F4  1  0.727998  0.806183  0.601709  1
  F  F5  1  0.805768  0.728505  0.103228  1
  F  F6  1  0.802747  0.180652  0.003132  1
  F  F7  1  0.622336  0.377664  0.750000  1
  F  F8  1  0.819348  0.197253  0.496868  1
  F  F9  1  0.181032  0.802483  0.502358  1
  F  F10  1  0.377973  0.622027  0.250000  1
  F  F11  1  0.197517  0.818968  0.997642  1
  F  F12  1  0.193817  0.272002  0.898291  1
  F  F13  1  0.271495  0.194232  0.396772  1
