# generated using pymatgen
data_Nd4Sm4Sc12Ga11Si5
_symmetry_space_group_name_H-M   'P 1'
_cell_length_a   7.33661992
_cell_length_b   7.58204957
_cell_length_c   14.48915847
_cell_angle_alpha   90.01113506
_cell_angle_beta   89.91556040
_cell_angle_gamma   90.09132636
_symmetry_Int_Tables_number   1
_chemical_formula_structural   Nd4Sm4Sc12Ga11Si5
_chemical_formula_sum   'Nd4 Sm4 Sc12 Ga11 Si5'
_cell_volume   805.98093892
_cell_formula_units_Z   1
loop_
 _symmetry_equiv_pos_site_id
 _symmetry_equiv_pos_as_xyz
  1  'x, y, z'
loop_
 _atom_site_type_symbol
 _atom_site_label
 _atom_site_symmetry_multiplicity
 _atom_site_fract_x
 _atom_site_fract_y
 _atom_site_fract_z
 _atom_site_occupancy
  Nd  Nd0  1  0.013261  0.175440  0.096429  1
  Nd  Nd1  1  0.989526  0.821557  0.904283  1
  Nd  Nd2  1  0.488171  0.678495  0.904033  1
  Nd  Nd3  1  0.988761  0.823139  0.597114  1
  Sm  Sm4  1  0.511305  0.321114  0.097264  1
  Sm  Sm5  1  0.011114  0.177809  0.402066  1
  Sm  Sm6  1  0.510894  0.322193  0.402040  1
  Sm  Sm7  1  0.488693  0.677451  0.597433  1
  Sc  Sc8  1  0.163188  0.505640  0.749555  1
  Sc  Sc9  1  0.837921  0.494360  0.250061  1
  Sc  Sc10  1  0.337149  0.006415  0.248689  1
  Sc  Sc11  1  0.661637  0.994415  0.749573  1
  Sc  Sc12  1  0.329488  0.170908  0.623988  1
  Sc  Sc13  1  0.670026  0.829266  0.375525  1
  Sc  Sc14  1  0.170500  0.670675  0.375545  1
  Sc  Sc15  1  0.667200  0.828331  0.124400  1
  Sc  Sc16  1  0.829062  0.329070  0.624132  1
  Sc  Sc17  1  0.328327  0.170835  0.877419  1
  Sc  Sc18  1  0.829037  0.330438  0.876176  1
  Sc  Sc19  1  0.174951  0.672836  0.122947  1
  Ga  Ga20  1  0.032020  0.119444  0.751323  1
  Ga  Ga21  1  0.967124  0.879840  0.249577  1
  Ga  Ga22  1  0.467259  0.617771  0.249391  1
  Ga  Ga23  1  0.531970  0.380506  0.750225  1
  Ga  Ga24  1  0.158634  0.461890  0.541178  1
  Ga  Ga25  1  0.841061  0.536254  0.458114  1
  Ga  Ga26  1  0.341654  0.963350  0.458047  1
  Ga  Ga27  1  0.841545  0.536906  0.042637  1
  Ga  Ga28  1  0.657459  0.037460  0.541021  1
  Ga  Ga29  1  0.157405  0.462840  0.958899  1
  Ga  Ga30  1  0.656508  0.038202  0.959534  1
  Si  Si31  1  0.286293  0.880631  0.750307  1
  Si  Si32  1  0.714267  0.120515  0.249451  1
  Si  Si33  1  0.214796  0.379778  0.249694  1
  Si  Si34  1  0.784682  0.619110  0.750208  1
  Si  Si35  1  0.347114  0.965117  0.041722  1
