# generated using pymatgen
data_Tb8DyHo11Pb16
_symmetry_space_group_name_H-M   'P 1'
_cell_length_a   8.20227402
_cell_length_b   8.28558303
_cell_length_c   15.63282100
_cell_angle_alpha   89.99716401
_cell_angle_beta   90.00003917
_cell_angle_gamma   89.99133330
_symmetry_Int_Tables_number   1
_chemical_formula_structural   Tb8DyHo11Pb16
_chemical_formula_sum   'Tb8 Dy1 Ho11 Pb16'
_cell_volume   1062.41623229
_cell_formula_units_Z   1
loop_
 _symmetry_equiv_pos_site_id
 _symmetry_equiv_pos_as_xyz
  1  'x, y, z'
loop_
 _atom_site_type_symbol
 _atom_site_label
 _atom_site_symmetry_multiplicity
 _atom_site_fract_x
 _atom_site_fract_y
 _atom_site_fract_z
 _atom_site_occupancy
  Tb  Tb0  1  0.534118  0.322899  0.899899  1
  Tb  Tb1  1  0.034110  0.177143  0.600094  1
  Tb  Tb2  1  0.465880  0.677131  0.399898  1
  Tb  Tb3  1  0.965900  0.822893  0.100092  1
  Tb  Tb4  1  0.465905  0.677113  0.100144  1
  Tb  Tb5  1  0.965885  0.822866  0.399900  1
  Tb  Tb6  1  0.534120  0.322867  0.600091  1
  Tb  Tb7  1  0.034081  0.177163  0.899911  1
  Dy  Dy8  1  0.376744  0.840678  0.879480  1
  Ho  Ho9  1  0.876730  0.659301  0.620517  1
  Ho  Ho10  1  0.623286  0.159316  0.379484  1
  Ho  Ho11  1  0.123286  0.340691  0.120564  1
  Ho  Ho12  1  0.623277  0.159277  0.120534  1
  Ho  Ho13  1  0.123298  0.340701  0.379488  1
  Ho  Ho14  1  0.376714  0.840700  0.620507  1
  Ho  Ho15  1  0.876695  0.659314  0.879442  1
  Ho  Ho16  1  0.208238  0.504149  0.749926  1
  Ho  Ho17  1  0.708334  0.995810  0.749933  1
  Ho  Ho18  1  0.791715  0.495803  0.250039  1
  Ho  Ho19  1  0.291716  0.004214  0.250045  1
  Pb  Pb20  1  0.281842  0.033647  0.042851  1
  Pb  Pb21  1  0.781895  0.466465  0.457245  1
  Pb  Pb22  1  0.718092  0.966464  0.542726  1
  Pb  Pb23  1  0.217998  0.533355  0.957305  1
  Pb  Pb24  1  0.718270  0.966512  0.957305  1
  Pb  Pb25  1  0.218099  0.533530  0.542726  1
  Pb  Pb26  1  0.281903  0.033532  0.457248  1
  Pb  Pb27  1  0.781900  0.466465  0.042754  1
  Pb  Pb28  1  0.571934  0.627059  0.749946  1
  Pb  Pb29  1  0.071756  0.872857  0.749957  1
  Pb  Pb30  1  0.428157  0.372847  0.249997  1
  Pb  Pb31  1  0.928142  0.127149  0.249998  1
  Pb  Pb32  1  0.344822  0.151645  0.749966  1
  Pb  Pb33  1  0.844828  0.348457  0.749999  1
  Pb  Pb34  1  0.655161  0.848435  0.249996  1
  Pb  Pb35  1  0.155166  0.651557  0.249996  1
