# generated using pymatgen
data_Ho3ErInPbAu4
_symmetry_space_group_name_H-M   'P 1'
_cell_length_a   8.08624611
_cell_length_b   8.08714711
_cell_length_c   3.64983800
_cell_angle_alpha   90.00000000
_cell_angle_beta   90.00000000
_cell_angle_gamma   90.08283296
_symmetry_Int_Tables_number   1
_chemical_formula_structural   Ho3ErInPbAu4
_chemical_formula_sum   'Ho3 Er1 In1 Pb1 Au4'
_cell_volume   238.67967258
_cell_formula_units_Z   1
loop_
 _symmetry_equiv_pos_site_id
 _symmetry_equiv_pos_as_xyz
  1  'x, y, z'
loop_
 _atom_site_type_symbol
 _atom_site_label
 _atom_site_symmetry_multiplicity
 _atom_site_fract_x
 _atom_site_fract_y
 _atom_site_fract_z
 _atom_site_occupancy
  Ho  Ho0  1  0.327607  0.835539  0.500000  1
  Ho  Ho1  1  0.164551  0.327567  0.500000  1
  Ho  Ho2  1  0.835427  0.672438  0.500000  1
  Er  Er3  1  0.672406  0.164349  0.500000  1
  In  In4  1  0.999919  0.000056  0.000000  1
  Pb  Pb5  1  0.500071  0.499912  0.000000  1
  Au  Au6  1  0.124078  0.630660  0.000000  1
  Au  Au7  1  0.875524  0.368977  0.000000  1
  Au  Au8  1  0.630800  0.876254  0.000000  1
  Au  Au9  1  0.369617  0.124246  0.000000  1
