# generated using pymatgen
data_Tm4MgSc3(B6Ir)4
_symmetry_space_group_name_H-M   'P 1'
_cell_length_a   3.53081900
_cell_length_b   8.96321218
_cell_length_c   11.31538349
_cell_angle_alpha   90.05888375
_cell_angle_beta   90.00000000
_cell_angle_gamma   90.00000000
_symmetry_Int_Tables_number   1
_chemical_formula_structural   Tm4MgSc3(B6Ir)4
_chemical_formula_sum   'Tm4 Mg1 Sc3 B24 Ir4'
_cell_volume   358.10318232
_cell_formula_units_Z   1
loop_
 _symmetry_equiv_pos_site_id
 _symmetry_equiv_pos_as_xyz
  1  'x, y, z'
loop_
 _atom_site_type_symbol
 _atom_site_label
 _atom_site_symmetry_multiplicity
 _atom_site_fract_x
 _atom_site_fract_y
 _atom_site_fract_z
 _atom_site_occupancy
  Tm  Tm0  1  0.500000  0.318986  0.414607  1
  Tm  Tm1  1  0.500000  0.680798  0.586760  1
  Tm  Tm2  1  0.500000  0.181304  0.913747  1
  Tm  Tm3  1  0.500000  0.818939  0.085866  1
  Mg  Mg4  1  0.500000  0.446991  0.120453  1
  Sc  Sc5  1  0.500000  0.554349  0.877478  1
  Sc  Sc6  1  0.500000  0.055186  0.624251  1
  Sc  Sc7  1  0.500000  0.944745  0.375709  1
  B  B8  1  0.000000  0.101155  0.472667  1
  B  B9  1  0.000000  0.898748  0.527389  1
  B  B10  1  0.000000  0.398203  0.972861  1
  B  B11  1  0.000000  0.600984  0.027679  1
  B  B12  1  0.000000  0.129918  0.318217  1
  B  B13  1  0.000000  0.869575  0.681293  1
  B  B14  1  0.000000  0.370108  0.819745  1
  B  B15  1  0.000000  0.629216  0.181255  1
  B  B16  1  0.000000  0.054912  0.065851  1
  B  B17  1  0.000000  0.945726  0.935223  1
  B  B18  1  0.000000  0.445020  0.564732  1
  B  B19  1  0.000000  0.554866  0.434356  1
  B  B20  1  0.000000  0.481004  0.284407  1
  B  B21  1  0.000000  0.518522  0.715750  1
  B  B22  1  0.000000  0.019597  0.785588  1
  B  B23  1  0.000000  0.981262  0.214428  1
  B  B24  1  0.000000  0.254780  0.080143  1
  B  B25  1  0.000000  0.745536  0.921038  1
  B  B26  1  0.000000  0.245974  0.579274  1
  B  B27  1  0.000000  0.753886  0.420079  1
  B  B28  1  0.000000  0.296146  0.235173  1
  B  B29  1  0.000000  0.703999  0.764462  1
  B  B30  1  0.000000  0.204607  0.736211  1
  B  B31  1  0.000000  0.794567  0.264392  1
  Ir  Ir32  1  0.500000  0.142685  0.181728  1
  Ir  Ir33  1  0.500000  0.859861  0.818736  1
  Ir  Ir34  1  0.500000  0.359286  0.679508  1
  Ir  Ir35  1  0.500000  0.638558  0.318942  1
