# generated using pymatgen
data_TmSiTc4P
_symmetry_space_group_name_H-M   'P 1'
_cell_length_a   4.02567200
_cell_length_b   7.37461511
_cell_length_c   7.37461511
_cell_angle_alpha   89.83006927
_cell_angle_beta   90.00000000
_cell_angle_gamma   90.00000000
_symmetry_Int_Tables_number   1
_chemical_formula_structural   TmSiTc4P
_chemical_formula_sum   'Tm2 Si2 Tc8 P2'
_cell_volume   218.93499948
_cell_formula_units_Z   2
loop_
 _symmetry_equiv_pos_site_id
 _symmetry_equiv_pos_as_xyz
  1  'x, y, z'
loop_
 _atom_site_type_symbol
 _atom_site_label
 _atom_site_symmetry_multiplicity
 _atom_site_fract_x
 _atom_site_fract_y
 _atom_site_fract_z
 _atom_site_occupancy
  Tm  Tm0  1  0.000000  0.500000  0.500000  1
  Tm  Tm1  1  0.500000  0.000000  0.000000  1
  Si  Si2  1  0.500000  0.710574  0.710574  1
  Si  Si3  1  0.500000  0.289426  0.289426  1
  Tc  Tc4  1  0.500000  0.155831  0.592202  1
  Tc  Tc5  1  0.500000  0.844169  0.407798  1
  Tc  Tc6  1  0.000000  0.337456  0.083927  1
  Tc  Tc7  1  0.000000  0.662544  0.916073  1
  Tc  Tc8  1  0.500000  0.592202  0.155831  1
  Tc  Tc9  1  0.500000  0.407798  0.844169  1
  Tc  Tc10  1  0.000000  0.083927  0.337456  1
  Tc  Tc11  1  0.000000  0.916073  0.662544  1
  P  P12  1  0.000000  0.791681  0.208319  1
  P  P13  1  0.000000  0.208319  0.791681  1
