# generated using pymatgen
data_Pr2Fe2(Tc5C)3
_symmetry_space_group_name_H-M   'P 1'
_cell_length_a   6.96547154
_cell_length_b   6.96547190
_cell_length_c   6.96094014
_cell_angle_alpha   82.70424591
_cell_angle_beta   82.70424907
_cell_angle_gamma   83.01165299
_symmetry_Int_Tables_number   1
_chemical_formula_structural   Pr2Fe2(Tc5C)3
_chemical_formula_sum   'Pr2 Fe2 Tc15 C3'
_cell_volume   330.36568150
_cell_formula_units_Z   1
loop_
 _symmetry_equiv_pos_site_id
 _symmetry_equiv_pos_as_xyz
  1  'x, y, z'
loop_
 _atom_site_type_symbol
 _atom_site_label
 _atom_site_symmetry_multiplicity
 _atom_site_fract_x
 _atom_site_fract_y
 _atom_site_fract_z
 _atom_site_occupancy
  Pr  Pr0  1  0.649770  0.649770  0.649307  1
  Pr  Pr1  1  0.350230  0.350230  0.350693  1
  Fe  Fe2  1  0.500000  0.000000  0.000000  1
  Fe  Fe3  1  0.000000  0.500000  0.000000  1
  Tc  Tc4  1  0.000000  0.000000  0.500000  1
  Tc  Tc5  1  0.723353  0.276647  0.000000  1
  Tc  Tc6  1  0.000937  0.720353  0.273594  1
  Tc  Tc7  1  0.279647  0.999063  0.726406  1
  Tc  Tc8  1  0.999063  0.279647  0.726406  1
  Tc  Tc9  1  0.720353  0.000937  0.273594  1
  Tc  Tc10  1  0.276647  0.723353  0.000000  1
  Tc  Tc11  1  0.344905  0.344905  0.866381  1
  Tc  Tc12  1  0.864650  0.349704  0.344158  1
  Tc  Tc13  1  0.349704  0.864650  0.344158  1
  Tc  Tc14  1  0.655095  0.655095  0.133619  1
  Tc  Tc15  1  0.135350  0.650296  0.655842  1
  Tc  Tc16  1  0.650296  0.135350  0.655842  1
  Tc  Tc17  1  0.901644  0.901644  0.902676  1
  Tc  Tc18  1  0.098356  0.098356  0.097324  1
  C  C19  1  0.500000  0.500000  0.000000  1
  C  C20  1  0.000000  0.500000  0.500000  1
  C  C21  1  0.500000  0.000000  0.500000  1
