# generated using pymatgen
data_Er(Lu2Co)2
_symmetry_space_group_name_H-M   'P 1'
_cell_length_a   6.21116222
_cell_length_b   6.87204220
_cell_length_c   8.34505923
_cell_angle_alpha   96.43235674
_cell_angle_beta   111.72907484
_cell_angle_gamma   89.95901163
_symmetry_Int_Tables_number   1
_chemical_formula_structural   Er(Lu2Co)2
_chemical_formula_sum   'Er2 Lu8 Co4'
_cell_volume   328.48204017
_cell_formula_units_Z   2
loop_
 _symmetry_equiv_pos_site_id
 _symmetry_equiv_pos_as_xyz
  1  'x, y, z'
loop_
 _atom_site_type_symbol
 _atom_site_label
 _atom_site_symmetry_multiplicity
 _atom_site_fract_x
 _atom_site_fract_y
 _atom_site_fract_z
 _atom_site_occupancy
  Er  Er0  1  0.515008  0.085624  0.810607  1
  Er  Er1  1  0.484992  0.914376  0.189393  1
  Lu  Lu2  1  0.704661  0.411423  0.187255  1
  Lu  Lu3  1  0.295339  0.588577  0.812745  1
  Lu  Lu4  1  0.285209  0.317871  0.433384  1
  Lu  Lu5  1  0.714791  0.682129  0.566616  1
  Lu  Lu6  1  0.853744  0.185632  0.567284  1
  Lu  Lu7  1  0.146256  0.814368  0.432716  1
  Lu  Lu8  1  0.072587  0.251455  0.999944  1
  Lu  Lu9  1  0.927413  0.748545  0.000056  1
  Co  Co10  1  0.326679  0.573184  0.220312  1
  Co  Co11  1  0.673321  0.426816  0.779688  1
  Co  Co12  1  0.099379  0.926562  0.777545  1
  Co  Co13  1  0.900621  0.073438  0.222455  1
