# generated using pymatgen
data_Dy2Mg3Si12Ir19
_symmetry_space_group_name_H-M   'P 1'
_cell_length_a   12.73815400
_cell_length_b   12.73815403
_cell_length_c   3.98598800
_cell_angle_alpha   90.00000000
_cell_angle_beta   90.00000000
_cell_angle_gamma   119.99999991
_symmetry_Int_Tables_number   1
_chemical_formula_structural   Dy2Mg3Si12Ir19
_chemical_formula_sum   'Dy2 Mg3 Si12 Ir19'
_cell_volume   560.11810423
_cell_formula_units_Z   1
loop_
 _symmetry_equiv_pos_site_id
 _symmetry_equiv_pos_as_xyz
  1  'x, y, z'
loop_
 _atom_site_type_symbol
 _atom_site_label
 _atom_site_symmetry_multiplicity
 _atom_site_fract_x
 _atom_site_fract_y
 _atom_site_fract_z
 _atom_site_occupancy
  Dy  Dy0  1  0.333333  0.666667  0.500000  1
  Dy  Dy1  1  0.666667  0.333333  0.500000  1
  Mg  Mg2  1  0.000000  0.819753  0.000000  1
  Mg  Mg3  1  0.180247  0.180247  0.000000  1
  Mg  Mg4  1  0.819753  0.000000  0.000000  1
  Si  Si5  1  0.000000  0.633707  0.500000  1
  Si  Si6  1  0.366293  0.366293  0.500000  1
  Si  Si7  1  0.633707  0.000000  0.500000  1
  Si  Si8  1  0.522322  0.687979  0.000000  1
  Si  Si9  1  0.312021  0.834342  0.000000  1
  Si  Si10  1  0.165658  0.477678  0.000000  1
  Si  Si11  1  0.477678  0.165658  0.000000  1
  Si  Si12  1  0.687979  0.522322  0.000000  1
  Si  Si13  1  0.834342  0.312021  0.000000  1
  Si  Si14  1  0.000000  0.179085  0.500000  1
  Si  Si15  1  0.820915  0.820915  0.500000  1
  Si  Si16  1  0.179085  0.000000  0.500000  1
  Ir  Ir17  1  0.511982  0.872944  0.000000  1
  Ir  Ir18  1  0.127056  0.639038  0.000000  1
  Ir  Ir19  1  0.360962  0.488018  0.000000  1
  Ir  Ir20  1  0.488018  0.360962  0.000000  1
  Ir  Ir21  1  0.872944  0.511982  0.000000  1
  Ir  Ir22  1  0.639038  0.127056  0.000000  1
  Ir  Ir23  1  0.000000  0.448354  0.500000  1
  Ir  Ir24  1  0.551646  0.551646  0.500000  1
  Ir  Ir25  1  0.448354  0.000000  0.500000  1
  Ir  Ir26  1  0.000000  0.277829  0.000000  1
  Ir  Ir27  1  0.722171  0.722171  0.000000  1
  Ir  Ir28  1  0.277829  0.000000  0.000000  1
  Ir  Ir29  1  0.625793  0.809215  0.500000  1
  Ir  Ir30  1  0.190785  0.816578  0.500000  1
  Ir  Ir31  1  0.183422  0.374207  0.500000  1
  Ir  Ir32  1  0.374207  0.183422  0.500000  1
  Ir  Ir33  1  0.809215  0.625793  0.500000  1
  Ir  Ir34  1  0.816578  0.190785  0.500000  1
  Ir  Ir35  1  0.000000  0.000000  0.500000  1
