# generated using pymatgen
data_Tb6Ho2In3Fe
_symmetry_space_group_name_H-M   'P 1'
_cell_length_a   10.38927202
_cell_length_b   10.39834959
_cell_length_c   7.08050083
_cell_angle_alpha   89.95122044
_cell_angle_beta   89.99695314
_cell_angle_gamma   119.97030547
_symmetry_Int_Tables_number   1
_chemical_formula_structural   Tb6Ho2In3Fe
_chemical_formula_sum   'Tb12 Ho4 In6 Fe2'
_cell_volume   662.63411381
_cell_formula_units_Z   2
loop_
 _symmetry_equiv_pos_site_id
 _symmetry_equiv_pos_as_xyz
  1  'x, y, z'
loop_
 _atom_site_type_symbol
 _atom_site_label
 _atom_site_symmetry_multiplicity
 _atom_site_fract_x
 _atom_site_fract_y
 _atom_site_fract_z
 _atom_site_occupancy
  Tb  Tb0  1  0.643861  0.822002  0.992640  1
  Tb  Tb1  1  0.178175  0.821995  0.992605  1
  Tb  Tb2  1  0.666636  0.333323  0.179046  1
  Tb  Tb3  1  0.333046  0.666067  0.677676  1
  Tb  Tb4  1  0.536893  0.073753  0.787198  1
  Tb  Tb5  1  0.926318  0.463049  0.787150  1
  Tb  Tb6  1  0.536756  0.463049  0.787153  1
  Tb  Tb7  1  0.463637  0.927271  0.288466  1
  Tb  Tb8  1  0.073292  0.536175  0.287711  1
  Tb  Tb9  1  0.462882  0.536184  0.287705  1
  Tb  Tb10  1  0.000059  0.000188  0.775041  1
  Tb  Tb11  1  0.000154  0.000247  0.275550  1
  Ho  Ho12  1  0.821913  0.643841  0.492299  1
  Ho  Ho13  1  0.356286  0.178118  0.492436  1
  Ho  Ho14  1  0.821846  0.178130  0.492435  1
  Ho  Ho15  1  0.178251  0.356506  0.991982  1
  In  In16  1  0.836524  0.673034  0.037509  1
  In  In17  1  0.326036  0.163927  0.036830  1
  In  In18  1  0.837821  0.163913  0.037005  1
  In  In19  1  0.162781  0.325546  0.536770  1
  In  In20  1  0.674793  0.837361  0.535670  1
  In  In21  1  0.162513  0.837331  0.535670  1
  Fe  Fe22  1  0.666414  0.332777  0.559311  1
  Fe  Fe23  1  0.333112  0.666211  0.060215  1
