# generated using pymatgen
data_Hf8Cr2BiPb3
_symmetry_space_group_name_H-M   'P 1'
_cell_length_a   8.28577528
_cell_length_b   8.28577454
_cell_length_c   8.25277260
_cell_angle_alpha   96.24680289
_cell_angle_beta   96.24679736
_cell_angle_gamma   141.55857115
_symmetry_Int_Tables_number   1
_chemical_formula_structural   Hf8Cr2BiPb3
_chemical_formula_sum   'Hf8 Cr2 Bi1 Pb3'
_cell_volume   332.45720666
_cell_formula_units_Z   1
loop_
 _symmetry_equiv_pos_site_id
 _symmetry_equiv_pos_as_xyz
  1  'x, y, z'
loop_
 _atom_site_type_symbol
 _atom_site_label
 _atom_site_symmetry_multiplicity
 _atom_site_fract_x
 _atom_site_fract_y
 _atom_site_fract_z
 _atom_site_occupancy
  Hf  Hf0  1  0.079584  0.190614  0.270196  1
  Hf  Hf1  1  0.919979  0.808243  0.728223  1
  Hf  Hf2  1  0.809174  0.079824  0.888997  1
  Hf  Hf3  1  0.420176  0.690826  0.111003  1
  Hf  Hf4  1  0.189771  0.920755  0.110527  1
  Hf  Hf5  1  0.579245  0.310229  0.889473  1
  Hf  Hf6  1  0.691757  0.580021  0.271777  1
  Hf  Hf7  1  0.309386  0.420416  0.729804  1
  Cr  Cr8  1  0.249719  0.250281  0.000000  1
  Cr  Cr9  1  0.749719  0.750281  0.000000  1
  Bi  Bi10  1  0.636384  0.863616  0.500000  1
  Pb  Pb11  1  0.135850  0.636137  0.771986  1
  Pb  Pb12  1  0.863863  0.364150  0.228014  1
  Pb  Pb13  1  0.365393  0.134607  0.500000  1
