# generated using pymatgen
data_Ho5AlBi3
_symmetry_space_group_name_H-M   'P 1'
_cell_length_a   8.12636900
_cell_length_b   15.57365600
_cell_length_c   8.19012400
_cell_angle_alpha   90.00000000
_cell_angle_beta   90.00000000
_cell_angle_gamma   90.00000000
_symmetry_Int_Tables_number   1
_chemical_formula_structural   Ho5AlBi3
_chemical_formula_sum   'Ho20 Al4 Bi12'
_cell_volume   1036.51977810
_cell_formula_units_Z   4
loop_
 _symmetry_equiv_pos_site_id
 _symmetry_equiv_pos_as_xyz
  1  'x, y, z'
loop_
 _atom_site_type_symbol
 _atom_site_label
 _atom_site_symmetry_multiplicity
 _atom_site_fract_x
 _atom_site_fract_y
 _atom_site_fract_z
 _atom_site_occupancy
  Ho  Ho0  1  0.220649  0.250000  0.012384  1
  Ho  Ho1  1  0.105340  0.621585  0.149686  1
  Ho  Ho2  1  0.105340  0.878415  0.149686  1
  Ho  Ho3  1  0.558957  0.113847  0.184705  1
  Ho  Ho4  1  0.558957  0.386153  0.184705  1
  Ho  Ho5  1  0.058957  0.113847  0.315295  1
  Ho  Ho6  1  0.058957  0.386153  0.315295  1
  Ho  Ho7  1  0.605339  0.621585  0.350314  1
  Ho  Ho8  1  0.605339  0.878415  0.350314  1
  Ho  Ho9  1  0.720649  0.250000  0.487616  1
  Ho  Ho10  1  0.279351  0.750000  0.512384  1
  Ho  Ho11  1  0.394660  0.121585  0.649686  1
  Ho  Ho12  1  0.394660  0.378415  0.649686  1
  Ho  Ho13  1  0.941043  0.613847  0.684706  1
  Ho  Ho14  1  0.941043  0.886153  0.684706  1
  Ho  Ho15  1  0.441043  0.613847  0.815295  1
  Ho  Ho16  1  0.441043  0.886153  0.815295  1
  Ho  Ho17  1  0.894660  0.121585  0.850314  1
  Ho  Ho18  1  0.894660  0.378415  0.850314  1
  Ho  Ho19  1  0.779351  0.750000  0.987616  1
  Al  Al20  1  0.864975  0.250000  0.143587  1
  Al  Al21  1  0.364975  0.250000  0.356413  1
  Al  Al22  1  0.635024  0.750000  0.643587  1
  Al  Al23  1  0.135024  0.750000  0.856413  1
  Bi  Bi24  1  0.759456  0.544879  0.025195  1
  Bi  Bi25  1  0.759456  0.955121  0.025195  1
  Bi  Bi26  1  0.406697  0.750000  0.123050  1
  Bi  Bi27  1  0.906697  0.750000  0.376950  1
  Bi  Bi28  1  0.259456  0.544879  0.474805  1
  Bi  Bi29  1  0.259456  0.955121  0.474805  1
  Bi  Bi30  1  0.740544  0.044879  0.525195  1
  Bi  Bi31  1  0.740544  0.455121  0.525195  1
  Bi  Bi32  1  0.093303  0.250000  0.623050  1
  Bi  Bi33  1  0.593303  0.250000  0.876950  1
  Bi  Bi34  1  0.240543  0.044879  0.974805  1
  Bi  Bi35  1  0.240543  0.455121  0.974805  1
