# generated using pymatgen
data_Np2(TaN2)3
_symmetry_space_group_name_H-M   'P 1'
_cell_length_a   5.35882300
_cell_length_b   5.35882251
_cell_length_c   11.15308700
_cell_angle_alpha   90.00000000
_cell_angle_beta   90.00000000
_cell_angle_gamma   120.00000919
_symmetry_Int_Tables_number   1
_chemical_formula_structural   Np2(TaN2)3
_chemical_formula_sum   'Np4 Ta6 N12'
_cell_volume   277.37318105
_cell_formula_units_Z   2
loop_
 _symmetry_equiv_pos_site_id
 _symmetry_equiv_pos_as_xyz
  1  'x, y, z'
loop_
 _atom_site_type_symbol
 _atom_site_label
 _atom_site_symmetry_multiplicity
 _atom_site_fract_x
 _atom_site_fract_y
 _atom_site_fract_z
 _atom_site_occupancy
  Np  Np0  1  0.666667  0.333333  0.000000  1
  Np  Np1  1  0.333333  0.666667  0.000000  1
  Np  Np2  1  0.333333  0.666667  0.500000  1
  Np  Np3  1  0.666667  0.333333  0.500000  1
  Ta  Ta4  1  0.676865  0.676865  0.750000  1
  Ta  Ta5  1  0.323135  0.000000  0.750000  1
  Ta  Ta6  1  0.000000  0.323135  0.750000  1
  Ta  Ta7  1  0.323135  0.323135  0.250000  1
  Ta  Ta8  1  0.676865  0.000000  0.250000  1
  Ta  Ta9  1  0.000000  0.676865  0.250000  1
  N  N10  1  0.660407  0.660407  0.365296  1
  N  N11  1  0.339593  0.000000  0.365296  1
  N  N12  1  0.000000  0.339593  0.365296  1
  N  N13  1  0.339593  0.339593  0.634704  1
  N  N14  1  0.660407  0.000000  0.634704  1
  N  N15  1  0.000000  0.660407  0.634704  1
  N  N16  1  0.339593  0.339593  0.865296  1
  N  N17  1  0.660407  0.000000  0.865296  1
  N  N18  1  0.000000  0.660407  0.865296  1
  N  N19  1  0.660407  0.660407  0.134704  1
  N  N20  1  0.339593  0.000000  0.134704  1
  N  N21  1  0.000000  0.339593  0.134704  1
