# generated using pymatgen
data_Lu16Tl6PtRh
_symmetry_space_group_name_H-M   'P 1'
_cell_length_a   10.25594600
_cell_length_b   10.25594533
_cell_length_c   6.87156500
_cell_angle_alpha   90.00000000
_cell_angle_beta   90.00000000
_cell_angle_gamma   120.00000217
_symmetry_Int_Tables_number   1
_chemical_formula_structural   Lu16Tl6PtRh
_chemical_formula_sum   'Lu16 Tl6 Pt1 Rh1'
_cell_volume   625.94720386
_cell_formula_units_Z   1
loop_
 _symmetry_equiv_pos_site_id
 _symmetry_equiv_pos_as_xyz
  1  'x, y, z'
loop_
 _atom_site_type_symbol
 _atom_site_label
 _atom_site_symmetry_multiplicity
 _atom_site_fract_x
 _atom_site_fract_y
 _atom_site_fract_z
 _atom_site_occupancy
  Lu  Lu0  1  0.531334  0.062667  0.527190  1
  Lu  Lu1  1  0.937333  0.468666  0.527190  1
  Lu  Lu2  1  0.531334  0.468666  0.527190  1
  Lu  Lu3  1  0.466702  0.933404  0.025086  1
  Lu  Lu4  1  0.066596  0.533298  0.025086  1
  Lu  Lu5  1  0.466702  0.533298  0.025086  1
  Lu  Lu6  1  0.176891  0.353782  0.728797  1
  Lu  Lu7  1  0.646218  0.823109  0.728797  1
  Lu  Lu8  1  0.176891  0.823109  0.728797  1
  Lu  Lu9  1  0.824342  0.648687  0.229136  1
  Lu  Lu10  1  0.351313  0.175658  0.229136  1
  Lu  Lu11  1  0.824342  0.175658  0.229136  1
  Lu  Lu12  1  0.666667  0.333333  0.899631  1
  Lu  Lu13  1  0.333333  0.666667  0.403840  1
  Lu  Lu14  1  0.000000  0.000000  0.505645  1
  Lu  Lu15  1  0.000000  0.000000  0.006104  1
  Tl  Tl16  1  0.837610  0.675220  0.769641  1
  Tl  Tl17  1  0.324780  0.162390  0.769641  1
  Tl  Tl18  1  0.837610  0.162390  0.769641  1
  Tl  Tl19  1  0.162307  0.324614  0.269433  1
  Tl  Tl20  1  0.675386  0.837693  0.269433  1
  Tl  Tl21  1  0.162307  0.837693  0.269433  1
  Pt  Pt22  1  0.666667  0.333333  0.295713  1
  Rh  Rh23  1  0.333333  0.666667  0.796896  1
