# generated using pymatgen
data_Cr(CoSe4)3
_symmetry_space_group_name_H-M   'P 1'
_cell_length_a   10.32723600
_cell_length_b   7.66174958
_cell_length_c   10.31459131
_cell_angle_alpha   62.76995274
_cell_angle_beta   90.00000000
_cell_angle_gamma   90.00000000
_symmetry_Int_Tables_number   1
_chemical_formula_structural   Cr(CoSe4)3
_chemical_formula_sum   'Cr2 Co6 Se24'
_cell_volume   725.69156399
_cell_formula_units_Z   2
loop_
 _symmetry_equiv_pos_site_id
 _symmetry_equiv_pos_as_xyz
  1  'x, y, z'
loop_
 _atom_site_type_symbol
 _atom_site_label
 _atom_site_symmetry_multiplicity
 _atom_site_fract_x
 _atom_site_fract_y
 _atom_site_fract_z
 _atom_site_occupancy
  Cr  Cr0  1  0.283489  0.977480  0.507763  1
  Cr  Cr1  1  0.783489  0.022520  0.992237  1
  Co  Co2  1  0.999622  0.995161  0.321341  1
  Co  Co3  1  0.499622  0.004839  0.178659  1
  Co  Co4  1  0.999630  0.993496  0.682020  1
  Co  Co5  1  0.499630  0.006504  0.817980  1
  Co  Co6  1  0.711413  0.043087  0.485213  1
  Co  Co7  1  0.211413  0.956913  0.014787  1
  Se  Se8  1  0.087190  0.188173  0.436249  1
  Se  Se9  1  0.587190  0.811827  0.063751  1
  Se  Se10  1  0.897829  0.827683  0.558083  1
  Se  Se11  1  0.397829  0.172317  0.941917  1
  Se  Se12  1  0.672935  0.238759  0.757733  1
  Se  Se13  1  0.172935  0.761241  0.742267  1
  Se  Se14  1  0.328472  0.774448  0.233987  1
  Se  Se15  1  0.828472  0.225552  0.266013  1
  Se  Se16  1  0.829497  0.225021  0.580137  1
  Se  Se17  1  0.329497  0.774979  0.919863  1
  Se  Se18  1  0.171619  0.761310  0.420510  1
  Se  Se19  1  0.671619  0.238690  0.079490  1
  Se  Se20  1  0.389546  0.201826  0.599127  1
  Se  Se21  1  0.889546  0.798174  0.900873  1
  Se  Se22  1  0.614983  0.829598  0.397448  1
  Se  Se23  1  0.114983  0.170402  0.102552  1
  Se  Se24  1  0.553515  0.283274  0.403575  1
  Se  Se25  1  0.053515  0.716726  0.096425  1
  Se  Se26  1  0.455389  0.712769  0.598390  1
  Se  Se27  1  0.955389  0.287231  0.901610  1
  Se  Se28  1  0.389644  0.200945  0.264258  1
  Se  Se29  1  0.889644  0.799055  0.235742  1
  Se  Se30  1  0.615226  0.831512  0.717981  1
  Se  Se31  1  0.115226  0.168488  0.782019  1
