# generated using pymatgen
data_Nd3Ag(Ir2O7)2
_symmetry_space_group_name_H-M   'P 1'
_cell_length_a   7.46724350
_cell_length_b   7.26043950
_cell_length_c   7.46724400
_cell_angle_alpha   59.05321507
_cell_angle_beta   60.00000664
_cell_angle_gamma   59.05321011
_symmetry_Int_Tables_number   1
_chemical_formula_structural   Nd3Ag(Ir2O7)2
_chemical_formula_sum   'Nd3 Ag1 Ir4 O14'
_cell_volume   282.09993244
_cell_formula_units_Z   1
loop_
 _symmetry_equiv_pos_site_id
 _symmetry_equiv_pos_as_xyz
  1  'x, y, z'
loop_
 _atom_site_type_symbol
 _atom_site_label
 _atom_site_symmetry_multiplicity
 _atom_site_fract_x
 _atom_site_fract_y
 _atom_site_fract_z
 _atom_site_occupancy
  Nd  Nd0  1  0.625000  0.125000  0.125000  1
  Nd  Nd1  1  0.125000  0.125000  0.625000  1
  Nd  Nd2  1  0.125000  0.125000  0.125000  1
  Ag  Ag3  1  0.125000  0.625000  0.125000  1
  Ir  Ir4  1  0.125000  0.625000  0.625000  1
  Ir  Ir5  1  0.625000  0.125000  0.625000  1
  Ir  Ir6  1  0.625000  0.625000  0.125000  1
  Ir  Ir7  1  0.625000  0.625000  0.625000  1
  O  O8  1  0.691762  0.701369  0.303434  1
  O  O9  1  0.295050  0.288730  0.708110  1
  O  O10  1  0.708110  0.288730  0.708110  1
  O  O11  1  0.303434  0.701369  0.303434  1
  O  O12  1  0.303434  0.701369  0.691762  1
  O  O13  1  0.708110  0.288730  0.295050  1
  O  O14  1  0.558238  0.548631  0.946566  1
  O  O15  1  0.954950  0.961270  0.541890  1
  O  O16  1  0.541890  0.961270  0.541890  1
  O  O17  1  0.946566  0.548631  0.946566  1
  O  O18  1  0.946566  0.548631  0.558238  1
  O  O19  1  0.541890  0.961270  0.954950  1
  O  O20  1  0.247491  0.257526  0.247491  1
  O  O21  1  0.002509  0.992474  0.002509  1
