# generated using pymatgen
data_PrIn2Br5
_symmetry_space_group_name_H-M   'P 1'
_cell_length_a   8.73629000
_cell_length_b   9.17472600
_cell_length_c   13.70665900
_cell_angle_alpha   90.00000000
_cell_angle_beta   90.00000000
_cell_angle_gamma   90.00000000
_symmetry_Int_Tables_number   1
_chemical_formula_structural   PrIn2Br5
_chemical_formula_sum   'Pr4 In8 Br20'
_cell_volume   1098.63075726
_cell_formula_units_Z   4
loop_
 _symmetry_equiv_pos_site_id
 _symmetry_equiv_pos_as_xyz
  1  'x, y, z'
loop_
 _atom_site_type_symbol
 _atom_site_label
 _atom_site_symmetry_multiplicity
 _atom_site_fract_x
 _atom_site_fract_y
 _atom_site_fract_z
 _atom_site_occupancy
  Pr  Pr0  1  0.923931  0.750000  0.504815  1
  Pr  Pr1  1  0.076069  0.250000  0.495185  1
  Pr  Pr2  1  0.423931  0.250000  0.995185  1
  Pr  Pr3  1  0.576069  0.750000  0.004815  1
  In  In4  1  0.952076  0.004986  0.827240  1
  In  In5  1  0.047924  0.995014  0.172760  1
  In  In6  1  0.452076  0.995014  0.672760  1
  In  In7  1  0.047924  0.504986  0.172760  1
  In  In8  1  0.547924  0.004986  0.327240  1
  In  In9  1  0.952076  0.495014  0.827240  1
  In  In10  1  0.547924  0.495014  0.327240  1
  In  In11  1  0.452076  0.504986  0.672760  1
  Br  Br12  1  0.121543  0.750000  0.682225  1
  Br  Br13  1  0.878457  0.250000  0.317775  1
  Br  Br14  1  0.621543  0.250000  0.817775  1
  Br  Br15  1  0.378457  0.750000  0.182225  1
  Br  Br16  1  0.833789  0.044547  0.577355  1
  Br  Br17  1  0.166211  0.955453  0.422645  1
  Br  Br18  1  0.333789  0.955453  0.922645  1
  Br  Br19  1  0.166211  0.544547  0.422645  1
  Br  Br20  1  0.666211  0.044547  0.077355  1
  Br  Br21  1  0.833789  0.455453  0.577355  1
  Br  Br22  1  0.666211  0.455453  0.077355  1
  Br  Br23  1  0.333789  0.544547  0.922645  1
  Br  Br24  1  0.578051  0.750000  0.507932  1
  Br  Br25  1  0.421949  0.250000  0.492068  1
  Br  Br26  1  0.078051  0.250000  0.992068  1
  Br  Br27  1  0.921949  0.750000  0.007932  1
  Br  Br28  1  0.661560  0.750000  0.794838  1
  Br  Br29  1  0.338440  0.250000  0.205162  1
  Br  Br30  1  0.161560  0.250000  0.705162  1
  Br  Br31  1  0.838440  0.750000  0.294838  1
