# generated using pymatgen
data_Na(PAu)2
_symmetry_space_group_name_H-M   'P 1'
_cell_length_a   3.31486600
_cell_length_b   5.97745528
_cell_length_c   11.29170000
_cell_angle_alpha   90.00000000
_cell_angle_beta   90.00000000
_cell_angle_gamma   73.90202463
_symmetry_Int_Tables_number   1
_chemical_formula_structural   Na(PAu)2
_chemical_formula_sum   'Na2 P4 Au4'
_cell_volume   214.96593549
_cell_formula_units_Z   2
loop_
 _symmetry_equiv_pos_site_id
 _symmetry_equiv_pos_as_xyz
  1  'x, y, z'
loop_
 _atom_site_type_symbol
 _atom_site_label
 _atom_site_symmetry_multiplicity
 _atom_site_fract_x
 _atom_site_fract_y
 _atom_site_fract_z
 _atom_site_occupancy
  Na  Na0  1  0.518551  0.962897  0.250000  1
  Na  Na1  1  0.481448  0.037104  0.750000  1
  P  P2  1  0.799564  0.400869  0.042900  1
  P  P3  1  0.799564  0.400869  0.457100  1
  P  P4  1  0.200436  0.599132  0.542900  1
  P  P5  1  0.200436  0.599132  0.957100  1
  Au  Au6  1  0.000000  0.000000  0.000000  1
  Au  Au7  1  0.782312  0.435375  0.250000  1
  Au  Au8  1  0.000000  0.000000  0.500000  1
  Au  Au9  1  0.217688  0.564625  0.750000  1
