# generated using pymatgen
data_Dy3(GaIr)2
_symmetry_space_group_name_H-M   'P 1'
_cell_length_a   5.58603400
_cell_length_b   7.85347400
_cell_length_c   13.56866000
_cell_angle_alpha   90.00000000
_cell_angle_beta   90.00000000
_cell_angle_gamma   90.00000000
_symmetry_Int_Tables_number   1
_chemical_formula_structural   Dy3(GaIr)2
_chemical_formula_sum   'Dy12 Ga8 Ir8'
_cell_volume   595.25403116
_cell_formula_units_Z   4
loop_
 _symmetry_equiv_pos_site_id
 _symmetry_equiv_pos_as_xyz
  1  'x, y, z'
loop_
 _atom_site_type_symbol
 _atom_site_label
 _atom_site_symmetry_multiplicity
 _atom_site_fract_x
 _atom_site_fract_y
 _atom_site_fract_z
 _atom_site_occupancy
  Dy  Dy0  1  0.622539  0.266432  0.250000  1
  Dy  Dy1  1  0.377461  0.733568  0.750000  1
  Dy  Dy2  1  0.377461  0.766432  0.250000  1
  Dy  Dy3  1  0.622539  0.233568  0.750000  1
  Dy  Dy4  1  0.151980  0.399730  0.097314  1
  Dy  Dy5  1  0.848020  0.600270  0.902686  1
  Dy  Dy6  1  0.848020  0.600270  0.597314  1
  Dy  Dy7  1  0.848020  0.899730  0.402686  1
  Dy  Dy8  1  0.151980  0.399730  0.402686  1
  Dy  Dy9  1  0.151980  0.100270  0.597314  1
  Dy  Dy10  1  0.151980  0.100270  0.902686  1
  Dy  Dy11  1  0.848020  0.899730  0.097314  1
  Ga  Ga12  1  0.118231  0.110040  0.250000  1
  Ga  Ga13  1  0.881769  0.889960  0.750000  1
  Ga  Ga14  1  0.881769  0.610040  0.250000  1
  Ga  Ga15  1  0.118231  0.389960  0.750000  1
  Ga  Ga16  1  0.636485  0.250000  0.000000  1
  Ga  Ga17  1  0.363515  0.750000  0.000000  1
  Ga  Ga18  1  0.363515  0.750000  0.500000  1
  Ga  Ga19  1  0.636485  0.250000  0.500000  1
  Ir  Ir20  1  0.351628  0.036132  0.094608  1
  Ir  Ir21  1  0.648372  0.963868  0.905392  1
  Ir  Ir22  1  0.648372  0.963868  0.594608  1
  Ir  Ir23  1  0.648372  0.536132  0.405392  1
  Ir  Ir24  1  0.351628  0.036132  0.405392  1
  Ir  Ir25  1  0.351628  0.463868  0.594608  1
  Ir  Ir26  1  0.351628  0.463868  0.905392  1
  Ir  Ir27  1  0.648372  0.536132  0.094608  1
