# generated using pymatgen
data_Dy10S19
_symmetry_space_group_name_H-M   'P 1'
_cell_length_a   8.62727200
_cell_length_b   8.62727200
_cell_length_c   15.67421700
_cell_angle_alpha   90.00000000
_cell_angle_beta   90.00000000
_cell_angle_gamma   90.00000000
_symmetry_Int_Tables_number   1
_chemical_formula_structural   Dy10S19
_chemical_formula_sum   'Dy20 S38'
_cell_volume   1166.62918384
_cell_formula_units_Z   2
loop_
 _symmetry_equiv_pos_site_id
 _symmetry_equiv_pos_as_xyz
  1  'x, y, z'
loop_
 _atom_site_type_symbol
 _atom_site_label
 _atom_site_symmetry_multiplicity
 _atom_site_fract_x
 _atom_site_fract_y
 _atom_site_fract_z
 _atom_site_occupancy
  Dy  Dy0  1  0.804746  0.104256  0.853706  1
  Dy  Dy1  1  0.395744  0.304746  0.353706  1
  Dy  Dy2  1  0.604256  0.695254  0.353706  1
  Dy  Dy3  1  0.195254  0.895744  0.853706  1
  Dy  Dy4  1  0.695254  0.395744  0.646294  1
  Dy  Dy5  1  0.104256  0.195254  0.146294  1
  Dy  Dy6  1  0.895744  0.804746  0.146294  1
  Dy  Dy7  1  0.304746  0.604256  0.646294  1
  Dy  Dy8  1  0.790836  0.098043  0.371802  1
  Dy  Dy9  1  0.401957  0.290836  0.871802  1
  Dy  Dy10  1  0.598043  0.709164  0.871802  1
  Dy  Dy11  1  0.209164  0.901957  0.371802  1
  Dy  Dy12  1  0.709164  0.401957  0.128198  1
  Dy  Dy13  1  0.098043  0.209164  0.628198  1
  Dy  Dy14  1  0.901957  0.790836  0.628198  1
  Dy  Dy15  1  0.290836  0.598043  0.128198  1
  Dy  Dy16  1  0.500000  0.000000  0.134530  1
  Dy  Dy17  1  0.500000  0.000000  0.634530  1
  Dy  Dy18  1  0.000000  0.500000  0.365470  1
  Dy  Dy19  1  0.000000  0.500000  0.865470  1
  S  S20  1  0.500000  0.500000  0.000000  1
  S  S21  1  0.000000  0.000000  0.500000  1
  S  S22  1  0.558787  0.220850  0.500721  1
  S  S23  1  0.279150  0.058787  0.000721  1
  S  S24  1  0.720850  0.941213  0.000721  1
  S  S25  1  0.441213  0.779150  0.500721  1
  S  S26  1  0.941213  0.279150  0.999279  1
  S  S27  1  0.220850  0.441213  0.499279  1
  S  S28  1  0.779150  0.558787  0.499279  1
  S  S29  1  0.058787  0.720850  0.999279  1
  S  S30  1  0.636018  0.178567  0.999864  1
  S  S31  1  0.321433  0.136018  0.499864  1
  S  S32  1  0.678567  0.863982  0.499864  1
  S  S33  1  0.363982  0.821433  0.999864  1
  S  S34  1  0.863982  0.321433  0.500136  1
  S  S35  1  0.178567  0.363982  0.000136  1
  S  S36  1  0.821433  0.636018  0.000136  1
  S  S37  1  0.136018  0.678567  0.500136  1
  S  S38  1  0.000000  0.500000  0.185113  1
  S  S39  1  0.000000  0.500000  0.685113  1
  S  S40  1  0.303191  0.601520  0.311871  1
  S  S41  1  0.898480  0.803191  0.811871  1
  S  S42  1  0.101520  0.196809  0.811871  1
  S  S43  1  0.696809  0.398480  0.311871  1
  S  S44  1  0.196809  0.898480  0.188129  1
  S  S45  1  0.601520  0.696809  0.688129  1
  S  S46  1  0.398480  0.303191  0.688129  1
  S  S47  1  0.803191  0.101520  0.188129  1
  S  S48  1  0.298911  0.597975  0.822661  1
  S  S49  1  0.902025  0.798911  0.322661  1
  S  S50  1  0.097975  0.201089  0.322661  1
  S  S51  1  0.701089  0.402025  0.822661  1
  S  S52  1  0.201089  0.902025  0.677339  1
  S  S53  1  0.597975  0.701089  0.177339  1
  S  S54  1  0.402025  0.298911  0.177339  1
  S  S55  1  0.798911  0.097975  0.677339  1
  S  S56  1  0.500000  0.000000  0.814887  1
  S  S57  1  0.500000  0.000000  0.314887  1
