# generated using pymatgen
data_TmTi4Pt15
_symmetry_space_group_name_H-M   'P 1'
_cell_length_a   3.93896200
_cell_length_b   3.93896200
_cell_length_c   19.80007400
_cell_angle_alpha   90.00000000
_cell_angle_beta   90.00000000
_cell_angle_gamma   90.00000000
_symmetry_Int_Tables_number   1
_chemical_formula_structural   TmTi4Pt15
_chemical_formula_sum   'Tm1 Ti4 Pt15'
_cell_volume   307.20649656
_cell_formula_units_Z   1
loop_
 _symmetry_equiv_pos_site_id
 _symmetry_equiv_pos_as_xyz
  1  'x, y, z'
loop_
 _atom_site_type_symbol
 _atom_site_label
 _atom_site_symmetry_multiplicity
 _atom_site_fract_x
 _atom_site_fract_y
 _atom_site_fract_z
 _atom_site_occupancy
  Tm  Tm0  1  0.000000  0.000000  0.000000  1
  Ti  Ti1  1  0.000000  0.000000  0.201066  1
  Ti  Ti2  1  0.000000  0.000000  0.400462  1
  Ti  Ti3  1  0.000000  0.000000  0.599538  1
  Ti  Ti4  1  0.000000  0.000000  0.798934  1
  Pt  Pt5  1  0.500000  0.500000  0.000000  1
  Pt  Pt6  1  0.500000  0.500000  0.204697  1
  Pt  Pt7  1  0.500000  0.500000  0.401419  1
  Pt  Pt8  1  0.500000  0.500000  0.598581  1
  Pt  Pt9  1  0.500000  0.500000  0.795303  1
  Pt  Pt10  1  0.500000  0.000000  0.107221  1
  Pt  Pt11  1  0.500000  0.000000  0.302936  1
  Pt  Pt12  1  0.500000  0.000000  0.500000  1
  Pt  Pt13  1  0.500000  0.000000  0.697064  1
  Pt  Pt14  1  0.500000  0.000000  0.892779  1
  Pt  Pt15  1  0.000000  0.500000  0.107221  1
  Pt  Pt16  1  0.000000  0.500000  0.302936  1
  Pt  Pt17  1  0.000000  0.500000  0.500000  1
  Pt  Pt18  1  0.000000  0.500000  0.697064  1
  Pt  Pt19  1  0.000000  0.500000  0.892779  1
