# generated using pymatgen
data_CeEr2(SnIr)3
_symmetry_space_group_name_H-M   'P 1'
_cell_length_a   7.48752449
_cell_length_b   7.54529722
_cell_length_c   3.93897900
_cell_angle_alpha   90.00000000
_cell_angle_beta   90.00000000
_cell_angle_gamma   120.25555377
_symmetry_Int_Tables_number   1
_chemical_formula_structural   CeEr2(SnIr)3
_chemical_formula_sum   'Ce1 Er2 Sn3 Ir3'
_cell_volume   192.22274306
_cell_formula_units_Z   1
loop_
 _symmetry_equiv_pos_site_id
 _symmetry_equiv_pos_as_xyz
  1  'x, y, z'
loop_
 _atom_site_type_symbol
 _atom_site_label
 _atom_site_symmetry_multiplicity
 _atom_site_fract_x
 _atom_site_fract_y
 _atom_site_fract_z
 _atom_site_occupancy
  Ce  Ce0  1  0.000000  0.587457  0.000000  1
  Er  Er1  1  0.406182  0.405687  0.000000  1
  Er  Er2  1  0.593818  0.999505  0.000000  1
  Sn  Sn3  1  0.000000  0.252648  0.500000  1
  Sn  Sn4  1  0.734777  0.741726  0.500000  1
  Sn  Sn5  1  0.265223  0.006948  0.500000  1
  Ir  Ir6  1  0.000000  0.998396  0.000000  1
  Ir  Ir7  1  0.675964  0.341798  0.500000  1
  Ir  Ir8  1  0.324036  0.665835  0.500000  1
