# generated using pymatgen
data_HfTi7Fe16
_symmetry_space_group_name_H-M   'P 1'
_cell_length_a   4.79542400
_cell_length_b   4.79542263
_cell_length_c   15.63277100
_cell_angle_alpha   90.00000000
_cell_angle_beta   90.00000000
_cell_angle_gamma   119.99999566
_symmetry_Int_Tables_number   1
_chemical_formula_structural   HfTi7Fe16
_chemical_formula_sum   'Hf1 Ti7 Fe16'
_cell_volume   311.32967448
_cell_formula_units_Z   1
loop_
 _symmetry_equiv_pos_site_id
 _symmetry_equiv_pos_as_xyz
  1  'x, y, z'
loop_
 _atom_site_type_symbol
 _atom_site_label
 _atom_site_symmetry_multiplicity
 _atom_site_fract_x
 _atom_site_fract_y
 _atom_site_fract_z
 _atom_site_occupancy
  Hf  Hf0  1  0.333333  0.666667  0.843460  1
  Ti  Ti1  1  0.000000  0.000000  0.405748  1
  Ti  Ti2  1  0.000000  0.000000  0.592679  1
  Ti  Ti3  1  0.000000  0.000000  0.909898  1
  Ti  Ti4  1  0.000000  0.000000  0.095952  1
  Ti  Ti5  1  0.333333  0.666667  0.652072  1
  Ti  Ti6  1  0.666667  0.333333  0.344227  1
  Ti  Ti7  1  0.666667  0.333333  0.156904  1
  Fe  Fe8  1  0.333333  0.666667  0.374395  1
  Fe  Fe9  1  0.666667  0.333333  0.623771  1
  Fe  Fe10  1  0.666667  0.333333  0.875036  1
  Fe  Fe11  1  0.333333  0.666667  0.126881  1
  Fe  Fe12  1  0.500170  0.499830  0.499049  1
  Fe  Fe13  1  0.500170  0.000341  0.499049  1
  Fe  Fe14  1  0.999659  0.499830  0.499049  1
  Fe  Fe15  1  0.500552  0.499448  0.002376  1
  Fe  Fe16  1  0.500552  0.001104  0.002376  1
  Fe  Fe17  1  0.998896  0.499448  0.002376  1
  Fe  Fe18  1  0.163540  0.836460  0.250598  1
  Fe  Fe19  1  0.163540  0.327081  0.250598  1
  Fe  Fe20  1  0.672919  0.836460  0.250598  1
  Fe  Fe21  1  0.836327  0.163673  0.747635  1
  Fe  Fe22  1  0.836327  0.672653  0.747635  1
  Fe  Fe23  1  0.327347  0.163673  0.747635  1
