# generated using pymatgen
data_Ba3NaAuO6
_symmetry_space_group_name_H-M   'P 1'
_cell_length_a   7.19680202
_cell_length_b   7.19680223
_cell_length_c   7.19680183
_cell_angle_alpha   91.34905002
_cell_angle_beta   91.34905491
_cell_angle_gamma   91.34905439
_symmetry_Int_Tables_number   1
_chemical_formula_structural   Ba3NaAuO6
_chemical_formula_sum   'Ba6 Na2 Au2 O12'
_cell_volume   372.43596004
_cell_formula_units_Z   2
loop_
 _symmetry_equiv_pos_site_id
 _symmetry_equiv_pos_as_xyz
  1  'x, y, z'
loop_
 _atom_site_type_symbol
 _atom_site_label
 _atom_site_symmetry_multiplicity
 _atom_site_fract_x
 _atom_site_fract_y
 _atom_site_fract_z
 _atom_site_occupancy
  Ba  Ba0  1  0.750000  0.393994  0.106006  1
  Ba  Ba1  1  0.106006  0.750000  0.393994  1
  Ba  Ba2  1  0.393994  0.106006  0.750000  1
  Ba  Ba3  1  0.250000  0.606006  0.893994  1
  Ba  Ba4  1  0.893994  0.250000  0.606006  1
  Ba  Ba5  1  0.606006  0.893994  0.250000  1
  Na  Na6  1  0.250000  0.250000  0.250000  1
  Na  Na7  1  0.750000  0.750000  0.750000  1
  Au  Au8  1  0.000000  0.000000  0.000000  1
  Au  Au9  1  0.500000  0.500000  0.500000  1
  O  O10  1  0.447554  0.771942  0.583687  1
  O  O11  1  0.583687  0.447554  0.771942  1
  O  O12  1  0.771942  0.583687  0.447554  1
  O  O13  1  0.052446  0.916313  0.728058  1
  O  O14  1  0.728058  0.052446  0.916313  1
  O  O15  1  0.916313  0.728058  0.052446  1
  O  O16  1  0.552446  0.228058  0.416313  1
  O  O17  1  0.416313  0.552446  0.228058  1
  O  O18  1  0.228058  0.416313  0.552446  1
  O  O19  1  0.947554  0.083687  0.271942  1
  O  O20  1  0.083687  0.271942  0.947554  1
  O  O21  1  0.271942  0.947554  0.083687  1
