# generated using pymatgen
data_Dy5Ti3Si4(PIr2)8
_symmetry_space_group_name_H-M   'P 1'
_cell_length_a   12.84313320
_cell_length_b   12.84737843
_cell_length_c   3.94280400
_cell_angle_alpha   90.00000000
_cell_angle_beta   90.00000000
_cell_angle_gamma   120.12624147
_symmetry_Int_Tables_number   1
_chemical_formula_structural   Dy5Ti3Si4(PIr2)8
_chemical_formula_sum   'Dy5 Ti3 Si4 P8 Ir16'
_cell_volume   562.68774187
_cell_formula_units_Z   1
loop_
 _symmetry_equiv_pos_site_id
 _symmetry_equiv_pos_as_xyz
  1  'x, y, z'
loop_
 _atom_site_type_symbol
 _atom_site_label
 _atom_site_symmetry_multiplicity
 _atom_site_fract_x
 _atom_site_fract_y
 _atom_site_fract_z
 _atom_site_occupancy
  Dy  Dy0  1  0.332660  0.666810  0.500000  1
  Dy  Dy1  1  0.666795  0.333789  0.500000  1
  Dy  Dy2  1  0.001139  0.812202  0.000000  1
  Dy  Dy3  1  0.187042  0.186885  0.000000  1
  Dy  Dy4  1  0.811494  0.999881  0.000000  1
  Ti  Ti5  1  0.999718  0.438494  0.500000  1
  Ti  Ti6  1  0.561285  0.560203  0.500000  1
  Ti  Ti7  1  0.438697  0.001015  0.500000  1
  Si  Si8  1  0.000296  0.637304  0.500000  1
  Si  Si9  1  0.361706  0.362251  0.500000  1
  Si  Si10  1  0.635806  0.999293  0.500000  1
  Si  Si11  1  0.518245  0.687194  0.000000  1
  P  P12  1  0.314211  0.831551  0.000000  1
  P  P13  1  0.169451  0.481842  0.000000  1
  P  P14  1  0.482298  0.169401  0.000000  1
  P  P15  1  0.687196  0.518147  0.000000  1
  P  P16  1  0.831465  0.314008  0.000000  1
  P  P17  1  0.998743  0.177036  0.500000  1
  P  P18  1  0.821685  0.822045  0.500000  1
  P  P19  1  0.177034  0.999446  0.500000  1
  Ir  Ir20  1  0.512275  0.874850  0.000000  1
  Ir  Ir21  1  0.130356  0.640090  0.000000  1
  Ir  Ir22  1  0.358061  0.485371  0.000000  1
  Ir  Ir23  1  0.490268  0.359322  0.000000  1
  Ir  Ir24  1  0.871064  0.510898  0.000000  1
  Ir  Ir25  1  0.640978  0.132379  0.000000  1
  Ir  Ir26  1  0.999025  0.280487  0.000000  1
  Ir  Ir27  1  0.722620  0.719800  0.000000  1
  Ir  Ir28  1  0.280484  0.999846  0.000000  1
  Ir  Ir29  1  0.627082  0.805139  0.500000  1
  Ir  Ir30  1  0.195939  0.821780  0.500000  1
  Ir  Ir31  1  0.176512  0.372730  0.500000  1
  Ir  Ir32  1  0.372803  0.178048  0.500000  1
  Ir  Ir33  1  0.804670  0.625048  0.500000  1
  Ir  Ir34  1  0.821078  0.195108  0.500000  1
  Ir  Ir35  1  0.999821  0.000305  0.500000  1
