# generated using pymatgen
data_CaDyAl20Os3Rh
_symmetry_space_group_name_H-M   'P 1'
_cell_length_a   6.87048512
_cell_length_b   6.87341818
_cell_length_c   9.16277187
_cell_angle_alpha   90.33273976
_cell_angle_beta   90.15113065
_cell_angle_gamma   96.48698176
_symmetry_Int_Tables_number   1
_chemical_formula_structural   CaDyAl20Os3Rh
_chemical_formula_sum   'Ca1 Dy1 Al20 Os3 Rh1'
_cell_volume   429.92019587
_cell_formula_units_Z   1
loop_
 _symmetry_equiv_pos_site_id
 _symmetry_equiv_pos_as_xyz
  1  'x, y, z'
loop_
 _atom_site_type_symbol
 _atom_site_label
 _atom_site_symmetry_multiplicity
 _atom_site_fract_x
 _atom_site_fract_y
 _atom_site_fract_z
 _atom_site_occupancy
  Ca  Ca0  1  0.872394  0.124918  0.750186  1
  Dy  Dy1  1  0.129578  0.874259  0.249581  1
  Al  Al2  1  0.620281  0.376217  0.546507  1
  Al  Al3  1  0.379460  0.623625  0.445533  1
  Al  Al4  1  0.377247  0.623171  0.051713  1
  Al  Al5  1  0.623115  0.376033  0.955771  1
  Al  Al6  1  0.223828  0.225094  0.498941  1
  Al  Al7  1  0.775182  0.777128  0.499868  1
  Al  Al8  1  0.775591  0.777840  0.999110  1
  Al  Al9  1  0.222241  0.223182  0.002495  1
  Al  Al10  1  0.845013  0.155956  0.100429  1
  Al  Al11  1  0.158993  0.839572  0.899712  1
  Al  Al12  1  0.160855  0.839661  0.602416  1
  Al  Al13  1  0.842263  0.155805  0.396926  1
  Al  Al14  1  0.854569  0.585226  0.750389  1
  Al  Al15  1  0.143407  0.416499  0.249994  1
  Al  Al16  1  0.413315  0.143969  0.750512  1
  Al  Al17  1  0.586525  0.858106  0.249432  1
  Al  Al18  1  0.220830  0.479686  0.752860  1
  Al  Al19  1  0.779277  0.518883  0.247578  1
  Al  Al20  1  0.520284  0.782046  0.748875  1
  Al  Al21  1  0.481650  0.219315  0.250926  1
  Os  Os22  1  0.999812  0.502013  0.000877  1
  Os  Os23  1  0.497532  0.000078  0.000897  1
  Os  Os24  1  0.497557  0.999907  0.499099  1
  Rh  Rh25  1  0.999201  0.501811  0.499375  1
