# generated using pymatgen
data_Rb2NpCl5
_symmetry_space_group_name_H-M   'P 1'
_cell_length_a   8.39372800
_cell_length_b   8.94139900
_cell_length_c   13.67076900
_cell_angle_alpha   90.00000000
_cell_angle_beta   90.00000000
_cell_angle_gamma   90.00000000
_symmetry_Int_Tables_number   1
_chemical_formula_structural   Rb2NpCl5
_chemical_formula_sum   'Rb8 Np4 Cl20'
_cell_volume   1026.01405929
_cell_formula_units_Z   4
loop_
 _symmetry_equiv_pos_site_id
 _symmetry_equiv_pos_as_xyz
  1  'x, y, z'
loop_
 _atom_site_type_symbol
 _atom_site_label
 _atom_site_symmetry_multiplicity
 _atom_site_fract_x
 _atom_site_fract_y
 _atom_site_fract_z
 _atom_site_occupancy
  Rb  Rb0  1  0.537266  0.499300  0.827395  1
  Rb  Rb1  1  0.462734  0.500700  0.172605  1
  Rb  Rb2  1  0.037266  0.500700  0.672605  1
  Rb  Rb3  1  0.462734  0.999300  0.172605  1
  Rb  Rb4  1  0.962734  0.499300  0.327395  1
  Rb  Rb5  1  0.537266  0.000700  0.827395  1
  Rb  Rb6  1  0.962734  0.000700  0.327395  1
  Rb  Rb7  1  0.037266  0.999300  0.672605  1
  Np  Np8  1  0.566348  0.750000  0.501563  1
  Np  Np9  1  0.433652  0.250000  0.498437  1
  Np  Np10  1  0.066348  0.250000  0.998437  1
  Np  Np11  1  0.933652  0.750000  0.001563  1
  Cl  Cl12  1  0.836785  0.750000  0.806112  1
  Cl  Cl13  1  0.163215  0.250000  0.193888  1
  Cl  Cl14  1  0.336785  0.250000  0.693888  1
  Cl  Cl15  1  0.663215  0.750000  0.306112  1
  Cl  Cl16  1  0.367078  0.750000  0.664937  1
  Cl  Cl17  1  0.632922  0.250000  0.335063  1
  Cl  Cl18  1  0.867078  0.250000  0.835063  1
  Cl  Cl19  1  0.132922  0.750000  0.164937  1
  Cl  Cl20  1  0.900885  0.750000  0.512833  1
  Cl  Cl21  1  0.099115  0.250000  0.487167  1
  Cl  Cl22  1  0.400885  0.250000  0.987167  1
  Cl  Cl23  1  0.599115  0.750000  0.012833  1
  Cl  Cl24  1  0.652088  0.037768  0.577931  1
  Cl  Cl25  1  0.347912  0.962232  0.422069  1
  Cl  Cl26  1  0.152088  0.962232  0.922069  1
  Cl  Cl27  1  0.347912  0.537768  0.422069  1
  Cl  Cl28  1  0.847912  0.037768  0.077931  1
  Cl  Cl29  1  0.652088  0.462232  0.577931  1
  Cl  Cl30  1  0.847912  0.462232  0.077931  1
  Cl  Cl31  1  0.152088  0.537768  0.922069  1
