# generated using pymatgen
data_Tb2Dy2LuRu2
_symmetry_space_group_name_H-M   'P 1'
_cell_length_a   6.34724815
_cell_length_b   7.23954032
_cell_length_c   8.46109319
_cell_angle_alpha   96.67383167
_cell_angle_beta   112.02952262
_cell_angle_gamma   90.00000365
_symmetry_Int_Tables_number   1
_chemical_formula_structural   Tb2Dy2LuRu2
_chemical_formula_sum   'Tb4 Dy4 Lu2 Ru4'
_cell_volume   357.56760157
_cell_formula_units_Z   2
loop_
 _symmetry_equiv_pos_site_id
 _symmetry_equiv_pos_as_xyz
  1  'x, y, z'
loop_
 _atom_site_type_symbol
 _atom_site_label
 _atom_site_symmetry_multiplicity
 _atom_site_fract_x
 _atom_site_fract_y
 _atom_site_fract_z
 _atom_site_occupancy
  Tb  Tb0  1  0.523201  0.083281  0.813930  1
  Tb  Tb1  1  0.476799  0.916719  0.186070  1
  Tb  Tb2  1  0.709272  0.416719  0.186070  1
  Tb  Tb3  1  0.290728  0.583281  0.813930  1
  Dy  Dy4  1  0.296814  0.312614  0.431890  1
  Dy  Dy5  1  0.703186  0.687386  0.568110  1
  Dy  Dy6  1  0.864925  0.187386  0.568110  1
  Dy  Dy7  1  0.135075  0.812614  0.431890  1
  Lu  Lu8  1  0.076872  0.250000  0.000000  1
  Lu  Lu9  1  0.923128  0.750000  0.000000  1
  Ru  Ru10  1  0.319167  0.575159  0.217959  1
  Ru  Ru11  1  0.680833  0.424841  0.782041  1
  Ru  Ru12  1  0.101209  0.924841  0.782041  1
  Ru  Ru13  1  0.898791  0.075159  0.217959  1
