# generated using pymatgen
data_Lu2U(GaRh)3
_symmetry_space_group_name_H-M   'P 1'
_cell_length_a   7.20176493
_cell_length_b   7.30727990
_cell_length_c   3.68505000
_cell_angle_alpha   90.00000000
_cell_angle_beta   90.00000000
_cell_angle_gamma   120.48585883
_symmetry_Int_Tables_number   1
_chemical_formula_structural   Lu2U(GaRh)3
_chemical_formula_sum   'Lu2 U1 Ga3 Rh3'
_cell_volume   167.11736487
_cell_formula_units_Z   1
loop_
 _symmetry_equiv_pos_site_id
 _symmetry_equiv_pos_as_xyz
  1  'x, y, z'
loop_
 _atom_site_type_symbol
 _atom_site_label
 _atom_site_symmetry_multiplicity
 _atom_site_fract_x
 _atom_site_fract_y
 _atom_site_fract_z
 _atom_site_occupancy
  Lu  Lu0  1  0.402425  0.407030  0.500000  1
  Lu  Lu1  1  0.597575  0.004605  0.500000  1
  U  U2  1  0.000000  0.587024  0.500000  1
  Ga  Ga3  1  0.727600  0.743312  0.000000  1
  Ga  Ga4  1  0.272400  0.015712  0.000000  1
  Ga  Ga5  1  0.000000  0.238458  0.000000  1
  Rh  Rh6  1  0.696613  0.359099  0.000000  1
  Rh  Rh7  1  0.303387  0.662487  0.000000  1
  Rh  Rh8  1  0.000000  0.982271  0.500000  1
