# generated using pymatgen
data_LaEr11In20
_symmetry_space_group_name_H-M   'P 1'
_cell_length_a   6.52428176
_cell_length_b   10.39260196
_cell_length_c   12.22349448
_cell_angle_alpha   89.41591798
_cell_angle_beta   89.89060328
_cell_angle_gamma   89.87847935
_symmetry_Int_Tables_number   1
_chemical_formula_structural   LaEr11In20
_chemical_formula_sum   'La1 Er11 In20'
_cell_volume   828.75863304
_cell_formula_units_Z   1
loop_
 _symmetry_equiv_pos_site_id
 _symmetry_equiv_pos_as_xyz
  1  'x, y, z'
loop_
 _atom_site_type_symbol
 _atom_site_label
 _atom_site_symmetry_multiplicity
 _atom_site_fract_x
 _atom_site_fract_y
 _atom_site_fract_z
 _atom_site_occupancy
  La  La0  1  0.611362  0.492498  0.643647  1
  Er  Er1  1  0.349175  0.750432  0.053725  1
  Er  Er2  1  0.146052  0.745736  0.553327  1
  Er  Er3  1  0.650062  0.252635  0.946752  1
  Er  Er4  1  0.848903  0.249227  0.445725  1
  Er  Er5  1  0.891103  0.491017  0.141463  1
  Er  Er6  1  0.609000  0.006778  0.638699  1
  Er  Er7  1  0.110460  0.991752  0.862446  1
  Er  Er8  1  0.389270  0.508440  0.356518  1
  Er  Er9  1  0.111741  0.509301  0.858808  1
  Er  Er10  1  0.389369  0.991745  0.358608  1
  Er  Er11  1  0.891297  0.010611  0.139820  1
  In  In12  1  0.611312  0.754308  0.499494  1
  In  In13  1  0.885626  0.752357  0.007968  1
  In  In14  1  0.381053  0.247495  0.492399  1
  In  In15  1  0.114809  0.250354  0.994728  1
  In  In16  1  0.652535  0.751874  0.241403  1
  In  In17  1  0.852230  0.755436  0.746239  1
  In  In18  1  0.347636  0.245025  0.758183  1
  In  In19  1  0.151742  0.249453  0.256756  1
  In  In20  1  0.126245  0.751337  0.281767  1
  In  In21  1  0.374855  0.753042  0.782050  1
  In  In22  1  0.879884  0.241699  0.719833  1
  In  In23  1  0.625045  0.249167  0.218001  1
  In  In24  1  0.873901  0.543997  0.398430  1
  In  In25  1  0.624604  0.958859  0.899327  1
  In  In26  1  0.125372  0.038790  0.600638  1
  In  In27  1  0.373161  0.456461  0.100291  1
  In  In28  1  0.121452  0.451958  0.598360  1
  In  In29  1  0.375792  0.043118  0.100395  1
  In  In30  1  0.876720  0.957970  0.397813  1
  In  In31  1  0.628231  0.547131  0.906383  1
