# generated using pymatgen
data_TmU3Ga6Ru7
_symmetry_space_group_name_H-M   'P 1'
_cell_length_a   7.21947157
_cell_length_b   7.21947030
_cell_length_c   7.11194800
_cell_angle_alpha   109.16979985
_cell_angle_beta   109.16979635
_cell_angle_gamma   109.77095532
_symmetry_Int_Tables_number   1
_chemical_formula_structural   TmU3Ga6Ru7
_chemical_formula_sum   'Tm1 U3 Ga6 Ru7'
_cell_volume   286.40425849
_cell_formula_units_Z   1
loop_
 _symmetry_equiv_pos_site_id
 _symmetry_equiv_pos_as_xyz
  1  'x, y, z'
loop_
 _atom_site_type_symbol
 _atom_site_label
 _atom_site_symmetry_multiplicity
 _atom_site_fract_x
 _atom_site_fract_y
 _atom_site_fract_z
 _atom_site_occupancy
  Tm  Tm0  1  0.000000  0.000000  0.500000  1
  U  U1  1  0.500000  0.000000  0.000000  1
  U  U2  1  0.000000  0.500000  0.000000  1
  U  U3  1  0.500000  0.500000  0.500000  1
  Ga  Ga4  1  0.304490  0.000000  0.308811  1
  Ga  Ga5  1  0.000000  0.304490  0.308811  1
  Ga  Ga6  1  0.000000  0.695510  0.691189  1
  Ga  Ga7  1  0.304490  0.304490  0.995679  1
  Ga  Ga8  1  0.695510  0.695510  0.004321  1
  Ga  Ga9  1  0.695510  0.000000  0.691189  1
  Ru  Ru10  1  0.744466  0.488933  0.244466  1
  Ru  Ru11  1  0.488933  0.744466  0.244466  1
  Ru  Ru12  1  0.511067  0.255534  0.755534  1
  Ru  Ru13  1  0.744466  0.255534  0.500000  1
  Ru  Ru14  1  0.255534  0.744466  0.500000  1
  Ru  Ru15  1  0.255534  0.511067  0.755534  1
  Ru  Ru16  1  0.000000  0.000000  0.000000  1
