# generated using pymatgen
data_K6LuInAs4
_symmetry_space_group_name_H-M   'P 1'
_cell_length_a   9.34440558
_cell_length_b   9.34440570
_cell_length_c   9.34440440
_cell_angle_alpha   129.53234699
_cell_angle_beta   68.26908206
_cell_angle_gamma   137.20038232
_symmetry_Int_Tables_number   1
_chemical_formula_structural   K6LuInAs4
_chemical_formula_sum   'K6 Lu1 In1 As4'
_cell_volume   420.21458007
_cell_formula_units_Z   1
loop_
 _symmetry_equiv_pos_site_id
 _symmetry_equiv_pos_as_xyz
  1  'x, y, z'
loop_
 _atom_site_type_symbol
 _atom_site_label
 _atom_site_symmetry_multiplicity
 _atom_site_fract_x
 _atom_site_fract_y
 _atom_site_fract_z
 _atom_site_occupancy
  K  K0  1  0.817169  0.201092  0.006972  1
  K  K1  1  0.682831  0.689805  0.383925  1
  K  K2  1  0.750000  0.250000  0.500000  1
  K  K3  1  0.250000  0.750000  0.500001  1
  K  K4  1  0.305881  0.298907  0.616076  1
  K  K5  1  0.194119  0.810195  0.993027  1
  Lu  Lu6  1  0.750000  0.750000  0.000000  1
  In  In7  1  0.250000  0.250000  0.000000  1
  As  As8  1  0.396972  0.691429  0.093080  1
  As  As9  1  0.103028  0.196109  0.294457  1
  As  As10  1  0.901650  0.808571  0.705543  1
  As  As11  1  0.598349  0.303892  0.906920  1
