# generated using pymatgen
data_Cu7Ag2PtO10
_symmetry_space_group_name_H-M   'P 1'
_cell_length_a   2.90527700
_cell_length_b   6.06420614
_cell_length_c   14.22972949
_cell_angle_alpha   79.16256859
_cell_angle_beta   90.00000000
_cell_angle_gamma   90.00000000
_symmetry_Int_Tables_number   1
_chemical_formula_structural   Cu7Ag2PtO10
_chemical_formula_sum   'Cu7 Ag2 Pt1 O10'
_cell_volume   246.23083273
_cell_formula_units_Z   1
loop_
 _symmetry_equiv_pos_site_id
 _symmetry_equiv_pos_as_xyz
  1  'x, y, z'
loop_
 _atom_site_type_symbol
 _atom_site_label
 _atom_site_symmetry_multiplicity
 _atom_site_fract_x
 _atom_site_fract_y
 _atom_site_fract_z
 _atom_site_occupancy
  Cu  Cu0  1  0.500000  0.701297  0.707376  1
  Cu  Cu1  1  0.500000  0.092030  0.086517  1
  Cu  Cu2  1  0.500000  0.298703  0.292624  1
  Cu  Cu3  1  0.500000  0.907970  0.913483  1
  Cu  Cu4  1  0.500000  0.500000  0.500000  1
  Cu  Cu5  1  0.000000  0.591971  0.091711  1
  Cu  Cu6  1  0.000000  0.408029  0.908289  1
  Ag  Ag7  1  0.000000  0.204244  0.710059  1
  Ag  Ag8  1  0.000000  0.795756  0.289941  1
  Pt  Pt9  1  0.000000  0.000000  0.500000  1
  O  O10  1  0.000000  0.867054  0.640827  1
  O  O11  1  0.000000  0.132946  0.359173  1
  O  O12  1  0.000000  0.539821  0.775725  1
  O  O13  1  0.000000  0.702149  0.457768  1
  O  O14  1  0.000000  0.887458  0.123524  1
  O  O15  1  0.000000  0.112542  0.876476  1
  O  O16  1  0.000000  0.297851  0.542232  1
  O  O17  1  0.000000  0.460179  0.224275  1
  O  O18  1  0.000000  0.695817  0.952093  1
  O  O19  1  0.000000  0.304183  0.047907  1
