# generated using pymatgen
data_CsH3Cl4
_symmetry_space_group_name_H-M   'P 1'
_cell_length_a   7.62946462
_cell_length_b   7.62946431
_cell_length_c   7.62946430
_cell_angle_alpha   96.20498381
_cell_angle_beta   83.79499162
_cell_angle_gamma   96.20500464
_symmetry_Int_Tables_number   1
_chemical_formula_structural   CsH3Cl4
_chemical_formula_sum   'Cs2 H6 Cl8'
_cell_volume   436.82010916
_cell_formula_units_Z   2
loop_
 _symmetry_equiv_pos_site_id
 _symmetry_equiv_pos_as_xyz
  1  'x, y, z'
loop_
 _atom_site_type_symbol
 _atom_site_label
 _atom_site_symmetry_multiplicity
 _atom_site_fract_x
 _atom_site_fract_y
 _atom_site_fract_z
 _atom_site_occupancy
  Cs  Cs0  1  0.000000  0.000000  0.000000  1
  Cs  Cs1  1  0.500000  0.500000  0.500001  1
  H  H2  1  0.445276  0.750002  0.054726  1
  H  H3  1  0.054727  0.554727  0.250001  1
  H  H4  1  0.250000  0.945276  0.445277  1
  H  H5  1  0.750000  0.054725  0.554727  1
  H  H6  1  0.945276  0.445276  0.750001  1
  H  H7  1  0.554727  0.250001  0.945275  1
  Cl  Cl8  1  0.422459  0.250000  0.077540  1
  Cl  Cl9  1  0.250000  0.750000  0.250001  1
  Cl  Cl10  1  0.922461  0.422462  0.250001  1
  Cl  Cl11  1  0.749999  0.922460  0.422460  1
  Cl  Cl12  1  0.250000  0.077541  0.577541  1
  Cl  Cl13  1  0.077540  0.577540  0.749999  1
  Cl  Cl14  1  0.750000  0.250000  0.750001  1
  Cl  Cl15  1  0.577540  0.749999  0.922459  1
