# generated using pymatgen
data_Tb14Er2In4Pd3Rh
_symmetry_space_group_name_H-M   'P 1'
_cell_length_a   9.74247252
_cell_length_b   9.74182855
_cell_length_c   9.74182786
_cell_angle_alpha   60.08669185
_cell_angle_beta   60.04464227
_cell_angle_gamma   60.04463897
_symmetry_Int_Tables_number   1
_chemical_formula_structural   Tb14Er2In4Pd3Rh
_chemical_formula_sum   'Tb14 Er2 In4 Pd3 Rh1'
_cell_volume   654.65418310
_cell_formula_units_Z   1
loop_
 _symmetry_equiv_pos_site_id
 _symmetry_equiv_pos_as_xyz
  1  'x, y, z'
loop_
 _atom_site_type_symbol
 _atom_site_label
 _atom_site_symmetry_multiplicity
 _atom_site_fract_x
 _atom_site_fract_y
 _atom_site_fract_z
 _atom_site_occupancy
  Tb  Tb0  1  0.193664  0.185452  0.809620  1
  Tb  Tb1  1  0.645213  0.054443  0.650398  1
  Tb  Tb2  1  0.061791  0.063900  0.436811  1
  Tb  Tb3  1  0.435130  0.437070  0.064374  1
  Tb  Tb4  1  0.645745  0.651418  0.651418  1
  Tb  Tb5  1  0.808699  0.189857  0.189857  1
  Tb  Tb6  1  0.192259  0.810887  0.810887  1
  Tb  Tb7  1  0.059238  0.647696  0.647696  1
  Tb  Tb8  1  0.435640  0.063048  0.063048  1
  Tb  Tb9  1  0.435130  0.064374  0.437070  1
  Tb  Tb10  1  0.061791  0.436811  0.063900  1
  Tb  Tb11  1  0.645213  0.650398  0.054443  1
  Tb  Tb12  1  0.193664  0.809620  0.185452  1
  Tb  Tb13  1  0.062544  0.436673  0.436673  1
  Er  Er14  1  0.809885  0.810625  0.189237  1
  Er  Er15  1  0.809885  0.189237  0.810625  1
  In  In16  1  0.417654  0.416325  0.416325  1
  In  In17  1  0.417848  0.417155  0.748167  1
  In  In18  1  0.417848  0.748167  0.417155  1
  In  In19  1  0.747762  0.417660  0.417660  1
  Pd  Pd20  1  0.858225  0.429840  0.855500  1
  Pd  Pd21  1  0.856410  0.856678  0.856678  1
  Pd  Pd22  1  0.858225  0.855500  0.429840  1
  Rh  Rh23  1  0.430543  0.857163  0.857163  1
