# generated using pymatgen
data_V12SiPt3
_symmetry_space_group_name_H-M   'P 1'
_cell_length_a   4.79751200
_cell_length_b   4.78686700
_cell_length_c   9.59739600
_cell_angle_alpha   90.00000000
_cell_angle_beta   90.00000000
_cell_angle_gamma   90.00000000
_symmetry_Int_Tables_number   1
_chemical_formula_structural   V12SiPt3
_chemical_formula_sum   'V12 Si1 Pt3'
_cell_volume   220.40469700
_cell_formula_units_Z   1
loop_
 _symmetry_equiv_pos_site_id
 _symmetry_equiv_pos_as_xyz
  1  'x, y, z'
loop_
 _atom_site_type_symbol
 _atom_site_label
 _atom_site_symmetry_multiplicity
 _atom_site_fract_x
 _atom_site_fract_y
 _atom_site_fract_z
 _atom_site_occupancy
  V  V0  1  0.000000  0.500000  0.123961  1
  V  V1  1  0.000000  0.500000  0.627040  1
  V  V2  1  0.500000  0.249594  0.750379  1
  V  V3  1  0.500000  0.245858  0.250085  1
  V  V4  1  0.750268  0.000000  0.006931  1
  V  V5  1  0.750205  0.000000  0.493168  1
  V  V6  1  0.000000  0.500000  0.872512  1
  V  V7  1  0.000000  0.500000  0.375588  1
  V  V8  1  0.500000  0.750406  0.750379  1
  V  V9  1  0.500000  0.754142  0.250085  1
  V  V10  1  0.249732  0.000000  0.006931  1
  V  V11  1  0.249795  0.000000  0.493168  1
  Si  Si12  1  0.000000  0.000000  0.249876  1
  Pt  Pt13  1  0.500000  0.500000  0.998818  1
  Pt  Pt14  1  0.500000  0.500000  0.501500  1
  Pt  Pt15  1  0.000000  0.000000  0.749581  1
