# generated using pymatgen
data_Cs14Ta2Tl(InP2)5
_symmetry_space_group_name_H-M   'P 1'
_cell_length_a   8.88015604
_cell_length_b   9.73838003
_cell_length_c   14.82448018
_cell_angle_alpha   85.74029655
_cell_angle_beta   84.43849950
_cell_angle_gamma   85.06461304
_symmetry_Int_Tables_number   1
_chemical_formula_structural   Cs14Ta2Tl(InP2)5
_chemical_formula_sum   'Cs14 Ta2 Tl1 In5 P10'
_cell_volume   1268.41705075
_cell_formula_units_Z   1
loop_
 _symmetry_equiv_pos_site_id
 _symmetry_equiv_pos_as_xyz
  1  'x, y, z'
loop_
 _atom_site_type_symbol
 _atom_site_label
 _atom_site_symmetry_multiplicity
 _atom_site_fract_x
 _atom_site_fract_y
 _atom_site_fract_z
 _atom_site_occupancy
  Cs  Cs0  1  0.844021  0.360331  0.650499  1
  Cs  Cs1  1  0.817595  0.805180  0.137893  1
  Cs  Cs2  1  0.235532  0.007139  0.467953  1
  Cs  Cs3  1  0.274227  0.254274  0.251432  1
  Cs  Cs4  1  0.742296  0.495677  0.972189  1
  Cs  Cs5  1  0.261247  0.498984  0.026720  1
  Cs  Cs6  1  0.673945  0.083916  0.883857  1
  Cs  Cs7  1  0.763666  0.993986  0.532393  1
  Cs  Cs8  1  0.726758  0.744266  0.746486  1
  Cs  Cs9  1  0.335123  0.341585  0.597821  1
  Cs  Cs10  1  0.158555  0.637044  0.350039  1
  Cs  Cs11  1  0.179711  0.195264  0.862919  1
  Cs  Cs12  1  0.324987  0.917740  0.113555  1
  Cs  Cs13  1  0.662881  0.656752  0.404753  1
  Ta  Ta14  1  0.348644  0.608123  0.773977  1
  Ta  Ta15  1  0.651024  0.392213  0.226423  1
  Tl  Tl16  1  0.051970  0.817855  0.874521  1
  In  In17  1  0.940747  0.184981  0.131807  1
  In  In18  1  0.356445  0.945192  0.704495  1
  In  In19  1  0.097007  0.721101  0.626583  1
  In  In20  1  0.904396  0.280501  0.372966  1
  In  In21  1  0.643475  0.055358  0.296481  1
  P  P22  1  0.914474  0.443381  0.211011  1
  P  P23  1  0.630790  0.203434  0.128915  1
  P  P24  1  0.086344  0.553998  0.786389  1
  P  P25  1  0.593919  0.299615  0.382469  1
  P  P26  1  0.406813  0.701336  0.618094  1
  P  P27  1  0.039332  0.985998  0.700754  1
  P  P28  1  0.507020  0.409160  0.807447  1
  P  P29  1  0.493056  0.590989  0.192211  1
  P  P30  1  0.373027  0.795913  0.871539  1
  P  P31  1  0.960974  0.018713  0.295410  1
