# generated using pymatgen
data_Li4MnNi3P4
_symmetry_space_group_name_H-M   'P 1'
_cell_length_a   3.69914200
_cell_length_b   6.29412218
_cell_length_c   6.48731343
_cell_angle_alpha   90.11103009
_cell_angle_beta   90.00000000
_cell_angle_gamma   90.00000000
_symmetry_Int_Tables_number   1
_chemical_formula_structural   Li4MnNi3P4
_chemical_formula_sum   'Li4 Mn1 Ni3 P4'
_cell_volume   151.04287309
_cell_formula_units_Z   1
loop_
 _symmetry_equiv_pos_site_id
 _symmetry_equiv_pos_as_xyz
  1  'x, y, z'
loop_
 _atom_site_type_symbol
 _atom_site_label
 _atom_site_symmetry_multiplicity
 _atom_site_fract_x
 _atom_site_fract_y
 _atom_site_fract_z
 _atom_site_occupancy
  Li  Li0  1  0.750000  0.491339  0.163438  1
  Li  Li1  1  0.750000  0.983025  0.331733  1
  Li  Li2  1  0.250000  0.516174  0.838652  1
  Li  Li3  1  0.250000  0.007795  0.669505  1
  Mn  Mn4  1  0.750000  0.362590  0.558408  1
  Ni  Ni5  1  0.750000  0.861124  0.945734  1
  Ni  Ni6  1  0.250000  0.641210  0.443163  1
  Ni  Ni7  1  0.250000  0.140621  0.053622  1
  P  P8  1  0.750000  0.213248  0.865664  1
  P  P9  1  0.750000  0.707573  0.627108  1
  P  P10  1  0.250000  0.790032  0.128902  1
  P  P11  1  0.250000  0.285266  0.374073  1
