# generated using pymatgen
data_Er6Si5GeRu4
_symmetry_space_group_name_H-M   'P 1'
_cell_length_a   5.71593996
_cell_length_b   5.71594053
_cell_length_c   13.75269800
_cell_angle_alpha   90.00000000
_cell_angle_beta   90.00000000
_cell_angle_gamma   137.34899090
_symmetry_Int_Tables_number   1
_chemical_formula_structural   Er6Si5GeRu4
_chemical_formula_sum   'Er6 Si5 Ge1 Ru4'
_cell_volume   304.43351202
_cell_formula_units_Z   1
loop_
 _symmetry_equiv_pos_site_id
 _symmetry_equiv_pos_as_xyz
  1  'x, y, z'
loop_
 _atom_site_type_symbol
 _atom_site_label
 _atom_site_symmetry_multiplicity
 _atom_site_fract_x
 _atom_site_fract_y
 _atom_site_fract_z
 _atom_site_occupancy
  Er  Er0  1  0.924211  0.075789  0.385029  1
  Er  Er1  1  0.075337  0.924663  0.612002  1
  Er  Er2  1  0.924211  0.075789  0.114971  1
  Er  Er3  1  0.075337  0.924663  0.887998  1
  Er  Er4  1  0.643129  0.356871  0.250000  1
  Er  Er5  1  0.355532  0.644468  0.750000  1
  Si  Si6  1  0.617576  0.382424  0.460646  1
  Si  Si7  1  0.384159  0.615841  0.537709  1
  Si  Si8  1  0.617576  0.382424  0.039354  1
  Si  Si9  1  0.384159  0.615841  0.962291  1
  Si  Si10  1  0.330683  0.669317  0.250000  1
  Ge  Ge11  1  0.662849  0.337151  0.750000  1
  Ru  Ru12  1  0.788859  0.211141  0.921023  1
  Ru  Ru13  1  0.213762  0.786238  0.082375  1
  Ru  Ru14  1  0.788859  0.211141  0.578977  1
  Ru  Ru15  1  0.213762  0.786238  0.417625  1
