# generated using pymatgen
data_PrNd5YIrBr12
_symmetry_space_group_name_H-M   'P 1'
_cell_length_a   9.61508861
_cell_length_b   9.64380717
_cell_length_c   9.63307382
_cell_angle_alpha   107.11711244
_cell_angle_beta   106.95552306
_cell_angle_gamma   107.22256711
_symmetry_Int_Tables_number   1
_chemical_formula_structural   PrNd5YIrBr12
_chemical_formula_sum   'Pr1 Nd5 Y1 Ir1 Br12'
_cell_volume   741.88728083
_cell_formula_units_Z   1
loop_
 _symmetry_equiv_pos_site_id
 _symmetry_equiv_pos_as_xyz
  1  'x, y, z'
loop_
 _atom_site_type_symbol
 _atom_site_label
 _atom_site_symmetry_multiplicity
 _atom_site_fract_x
 _atom_site_fract_y
 _atom_site_fract_z
 _atom_site_occupancy
  Pr  Pr0  1  0.896246  0.686112  0.978494  1
  Nd  Nd1  1  0.103759  0.310999  0.022115  1
  Nd  Nd2  1  0.312279  0.022597  0.103653  1
  Nd  Nd3  1  0.021940  0.104013  0.311830  1
  Nd  Nd4  1  0.978358  0.897144  0.688974  1
  Nd  Nd5  1  0.687706  0.976204  0.896467  1
  Y  Y6  1  0.499922  0.500559  0.499628  1
  Ir  Ir7  1  0.000079  0.999624  0.000424  1
  Br  Br8  1  0.223245  0.683605  0.073530  1
  Br  Br9  1  0.462144  0.386109  0.178367  1
  Br  Br10  1  0.682273  0.072171  0.218605  1
  Br  Br11  1  0.928791  0.784178  0.321436  1
  Br  Br12  1  0.178203  0.461983  0.385323  1
  Br  Br13  1  0.385890  0.179453  0.461733  1
  Br  Br14  1  0.614240  0.821824  0.538332  1
  Br  Br15  1  0.820804  0.537923  0.610624  1
  Br  Br16  1  0.072293  0.219237  0.682845  1
  Br  Br17  1  0.317682  0.928026  0.781488  1
  Br  Br18  1  0.533874  0.613749  0.819088  1
  Br  Br19  1  0.780275  0.314490  0.927049  1
