# generated using pymatgen
data_Ho3UIn2Ru3
_symmetry_space_group_name_H-M   'P 1'
_cell_length_a   7.55040781
_cell_length_b   7.44638436
_cell_length_c   3.99129500
_cell_angle_alpha   90.00000000
_cell_angle_beta   90.00000000
_cell_angle_gamma   119.54528256
_symmetry_Int_Tables_number   1
_chemical_formula_structural   Ho3UIn2Ru3
_chemical_formula_sum   'Ho3 U1 In2 Ru3'
_cell_volume   195.22349808
_cell_formula_units_Z   1
loop_
 _symmetry_equiv_pos_site_id
 _symmetry_equiv_pos_as_xyz
  1  'x, y, z'
loop_
 _atom_site_type_symbol
 _atom_site_label
 _atom_site_symmetry_multiplicity
 _atom_site_fract_x
 _atom_site_fract_y
 _atom_site_fract_z
 _atom_site_occupancy
  Ho  Ho0  1  0.567220  0.595825  0.000000  1
  Ho  Ho1  1  0.432780  0.028604  0.000000  1
  Ho  Ho2  1  0.000000  0.366816  0.000000  1
  U  U3  1  0.000000  0.725236  0.500000  1
  In  In4  1  0.261160  0.252550  0.500000  1
  In  In5  1  0.738840  0.991390  0.500000  1
  Ru  Ru6  1  0.000000  0.967353  0.000000  1
  Ru  Ru7  1  0.708814  0.390518  0.500000  1
  Ru  Ru8  1  0.291186  0.681706  0.500000  1
