# generated using pymatgen
data_Ca2Ni(PO4)2
_symmetry_space_group_name_H-M   'P 1'
_cell_length_a   4.84944500
_cell_length_b   6.61850787
_cell_length_c   11.09184354
_cell_angle_alpha   91.28331820
_cell_angle_beta   90.00000000
_cell_angle_gamma   90.00000000
_symmetry_Int_Tables_number   1
_chemical_formula_structural   Ca2Ni(PO4)2
_chemical_formula_sum   'Ca4 Ni2 P4 O16'
_cell_volume   355.91551150
_cell_formula_units_Z   2
loop_
 _symmetry_equiv_pos_site_id
 _symmetry_equiv_pos_as_xyz
  1  'x, y, z'
loop_
 _atom_site_type_symbol
 _atom_site_label
 _atom_site_symmetry_multiplicity
 _atom_site_fract_x
 _atom_site_fract_y
 _atom_site_fract_z
 _atom_site_occupancy
  Ca  Ca0  1  0.529225  0.762706  0.783981  1
  Ca  Ca1  1  0.029225  0.237294  0.716019  1
  Ca  Ca2  1  0.470775  0.237294  0.216019  1
  Ca  Ca3  1  0.970775  0.762706  0.283981  1
  Ni  Ni4  1  0.500000  0.500000  0.500000  1
  Ni  Ni5  1  0.000000  0.500000  0.000000  1
  P  P6  1  0.083632  0.726398  0.593372  1
  P  P7  1  0.583632  0.273602  0.906628  1
  P  P8  1  0.916368  0.273602  0.406628  1
  P  P9  1  0.416368  0.726398  0.093372  1
  O  O10  1  0.239853  0.539958  0.651160  1
  O  O11  1  0.739853  0.460042  0.848840  1
  O  O12  1  0.760147  0.460042  0.348840  1
  O  O13  1  0.260147  0.539958  0.151160  1
  O  O14  1  0.161167  0.910209  0.674688  1
  O  O15  1  0.661167  0.089791  0.825312  1
  O  O16  1  0.838833  0.089791  0.325312  1
  O  O17  1  0.338833  0.910209  0.174688  1
  O  O18  1  0.291245  0.734928  0.964696  1
  O  O19  1  0.791245  0.265072  0.535304  1
  O  O20  1  0.732266  0.698317  0.093856  1
  O  O21  1  0.232266  0.301683  0.406144  1
  O  O22  1  0.267734  0.301683  0.906144  1
  O  O23  1  0.767734  0.698317  0.593856  1
  O  O24  1  0.208755  0.734928  0.464696  1
  O  O25  1  0.708755  0.265072  0.035304  1
