# generated using pymatgen
data_Er4Tm2NbCo17P12
_symmetry_space_group_name_H-M   'P 1'
_cell_length_a   3.68198100
_cell_length_b   10.52650700
_cell_length_c   12.20590900
_cell_angle_alpha   90.00000000
_cell_angle_beta   90.00000000
_cell_angle_gamma   90.00000000
_symmetry_Int_Tables_number   1
_chemical_formula_structural   Er4Tm2NbCo17P12
_chemical_formula_sum   'Er4 Tm2 Nb1 Co17 P12'
_cell_volume   473.08148838
_cell_formula_units_Z   1
loop_
 _symmetry_equiv_pos_site_id
 _symmetry_equiv_pos_as_xyz
  1  'x, y, z'
loop_
 _atom_site_type_symbol
 _atom_site_label
 _atom_site_symmetry_multiplicity
 _atom_site_fract_x
 _atom_site_fract_y
 _atom_site_fract_z
 _atom_site_occupancy
  Er  Er0  1  0.000000  0.500000  0.527477  1
  Er  Er1  1  0.500000  0.000000  0.477067  1
  Er  Er2  1  0.500000  0.819975  0.207198  1
  Er  Er3  1  0.500000  0.180025  0.207198  1
  Tm  Tm4  1  0.000000  0.682661  0.795955  1
  Tm  Tm5  1  0.000000  0.317339  0.795955  1
  Nb  Nb6  1  0.500000  0.500000  0.155409  1
  Co  Co7  1  0.000000  0.000000  0.837716  1
  Co  Co8  1  0.500000  0.500000  0.701902  1
  Co  Co9  1  0.000000  0.000000  0.296894  1
  Co  Co10  1  0.000000  0.500000  0.983976  1
  Co  Co11  1  0.500000  0.000000  0.014409  1
  Co  Co12  1  0.500000  0.329605  0.988740  1
  Co  Co13  1  0.500000  0.670395  0.988740  1
  Co  Co14  1  0.000000  0.163631  0.003867  1
  Co  Co15  1  0.000000  0.836369  0.003867  1
  Co  Co16  1  0.500000  0.295077  0.433494  1
  Co  Co17  1  0.500000  0.704923  0.433494  1
  Co  Co18  1  0.000000  0.202099  0.569801  1
  Co  Co19  1  0.000000  0.797901  0.569801  1
  Co  Co20  1  0.500000  0.879060  0.707822  1
  Co  Co21  1  0.500000  0.120940  0.707822  1
  Co  Co22  1  0.000000  0.623555  0.295069  1
  Co  Co23  1  0.000000  0.376445  0.295069  1
  P  P24  1  0.500000  0.500000  0.879992  1
  P  P25  1  0.000000  0.000000  0.117648  1
  P  P26  1  0.500000  0.500000  0.357191  1
  P  P27  1  0.000000  0.000000  0.654339  1
  P  P28  1  0.500000  0.310463  0.617899  1
  P  P29  1  0.500000  0.689537  0.617899  1
  P  P30  1  0.000000  0.187430  0.385635  1
  P  P31  1  0.000000  0.812570  0.385635  1
  P  P32  1  0.500000  0.851029  0.889199  1
  P  P33  1  0.500000  0.148971  0.889199  1
  P  P34  1  0.000000  0.661498  0.103312  1
  P  P35  1  0.000000  0.338502  0.103312  1
