# generated using pymatgen
data_Sc2U(GaIr)3
_symmetry_space_group_name_H-M   'P 1'
_cell_length_a   7.11713477
_cell_length_b   7.23350960
_cell_length_c   3.63627900
_cell_angle_alpha   90.00000000
_cell_angle_beta   90.00000000
_cell_angle_gamma   120.54239805
_symmetry_Int_Tables_number   1
_chemical_formula_structural   Sc2U(GaIr)3
_chemical_formula_sum   'Sc2 U1 Ga3 Ir3'
_cell_volume   161.22870879
_cell_formula_units_Z   1
loop_
 _symmetry_equiv_pos_site_id
 _symmetry_equiv_pos_as_xyz
  1  'x, y, z'
loop_
 _atom_site_type_symbol
 _atom_site_label
 _atom_site_symmetry_multiplicity
 _atom_site_fract_x
 _atom_site_fract_y
 _atom_site_fract_z
 _atom_site_occupancy
  Sc  Sc0  1  0.398688  0.401293  0.500000  1
  Sc  Sc1  1  0.601312  0.002605  0.500000  1
  U  U2  1  0.000000  0.587329  0.500000  1
  Ga  Ga3  1  0.722233  0.740013  0.000000  1
  Ga  Ga4  1  0.277767  0.017781  0.000000  1
  Ga  Ga5  1  0.000000  0.241973  0.000000  1
  Ir  Ir6  1  0.688277  0.353970  0.000000  1
  Ir  Ir7  1  0.311723  0.665695  0.000000  1
  Ir  Ir8  1  0.000000  0.989343  0.500000  1
