# generated using pymatgen
data_TbTmZn4Ru
_symmetry_space_group_name_H-M   'P 1'
_cell_length_a   6.96137000
_cell_length_b   6.96137000
_cell_length_c   5.24942600
_cell_angle_alpha   90.00000000
_cell_angle_beta   90.00000000
_cell_angle_gamma   90.00000000
_symmetry_Int_Tables_number   1
_chemical_formula_structural   TbTmZn4Ru
_chemical_formula_sum   'Tb2 Tm2 Zn8 Ru2'
_cell_volume   254.39071303
_cell_formula_units_Z   2
loop_
 _symmetry_equiv_pos_site_id
 _symmetry_equiv_pos_as_xyz
  1  'x, y, z'
loop_
 _atom_site_type_symbol
 _atom_site_label
 _atom_site_symmetry_multiplicity
 _atom_site_fract_x
 _atom_site_fract_y
 _atom_site_fract_z
 _atom_site_occupancy
  Tb  Tb0  1  0.000000  0.500000  0.765094  1
  Tb  Tb1  1  0.500000  0.000000  0.234906  1
  Tm  Tm2  1  0.000000  0.000000  0.000000  1
  Tm  Tm3  1  0.500000  0.500000  0.000000  1
  Zn  Zn4  1  0.188211  0.688211  0.287444  1
  Zn  Zn5  1  0.811789  0.688211  0.287444  1
  Zn  Zn6  1  0.811789  0.311789  0.287444  1
  Zn  Zn7  1  0.311789  0.188211  0.712556  1
  Zn  Zn8  1  0.188211  0.311789  0.287444  1
  Zn  Zn9  1  0.688211  0.188211  0.712556  1
  Zn  Zn10  1  0.688211  0.811789  0.712556  1
  Zn  Zn11  1  0.311789  0.811789  0.712556  1
  Ru  Ru12  1  0.500000  0.500000  0.500000  1
  Ru  Ru13  1  0.000000  0.000000  0.500000  1
