# generated using pymatgen
data_Dy2Al2ZnCu7
_symmetry_space_group_name_H-M   'P 1'
_cell_length_a   4.18150000
_cell_length_b   5.07731425
_cell_length_c   8.82707226
_cell_angle_alpha   90.77212957
_cell_angle_beta   90.00000000
_cell_angle_gamma   90.00000000
_symmetry_Int_Tables_number   1
_chemical_formula_structural   Dy2Al2ZnCu7
_chemical_formula_sum   'Dy2 Al2 Zn1 Cu7'
_cell_volume   187.38869649
_cell_formula_units_Z   1
loop_
 _symmetry_equiv_pos_site_id
 _symmetry_equiv_pos_as_xyz
  1  'x, y, z'
loop_
 _atom_site_type_symbol
 _atom_site_label
 _atom_site_symmetry_multiplicity
 _atom_site_fract_x
 _atom_site_fract_y
 _atom_site_fract_z
 _atom_site_occupancy
  Dy  Dy0  1  0.000000  0.002586  0.998641  1
  Dy  Dy1  1  0.000000  0.497378  0.501353  1
  Al  Al2  1  0.500000  0.511889  0.996491  1
  Al  Al3  1  0.500000  0.988086  0.503512  1
  Zn  Zn4  1  0.500000  0.249952  0.249991  1
  Cu  Cu5  1  0.000000  0.994936  0.335475  1
  Cu  Cu6  1  0.000000  0.499271  0.832534  1
  Cu  Cu7  1  0.000000  0.505014  0.164519  1
  Cu  Cu8  1  0.000000  0.000719  0.667463  1
  Cu  Cu9  1  0.500000  0.750010  0.750008  1
  Cu  Cu10  1  0.500000  0.749949  0.250017  1
  Cu  Cu11  1  0.500000  0.250009  0.749993  1
