# generated using pymatgen
data_Ca2AgPt2
_symmetry_space_group_name_H-M   'P 1'
_cell_length_a   5.59883229
_cell_length_b   5.59883119
_cell_length_c   5.59883223
_cell_angle_alpha   132.31150436
_cell_angle_beta   117.68986410
_cell_angle_gamma   82.07674650
_symmetry_Int_Tables_number   1
_chemical_formula_structural   Ca2AgPt2
_chemical_formula_sum   'Ca2 Ag1 Pt2'
_cell_volume   110.74410058
_cell_formula_units_Z   1
loop_
 _symmetry_equiv_pos_site_id
 _symmetry_equiv_pos_as_xyz
  1  'x, y, z'
loop_
 _atom_site_type_symbol
 _atom_site_label
 _atom_site_symmetry_multiplicity
 _atom_site_fract_x
 _atom_site_fract_y
 _atom_site_fract_z
 _atom_site_occupancy
  Ca  Ca0  1  0.702365  0.202365  0.500000  1
  Ca  Ca1  1  0.297635  0.797634  0.500000  1
  Ag  Ag2  1  0.000000  0.000000  0.000000  1
  Pt  Pt3  1  0.727848  0.500000  0.227848  1
  Pt  Pt4  1  0.272152  0.500000  0.772151  1
