# generated using pymatgen
data_Rb3NaTbUTe6
_symmetry_space_group_name_H-M   'P 1'
_cell_length_a   7.97078975
_cell_length_b   7.97078940
_cell_length_c   8.91293304
_cell_angle_alpha   81.44591503
_cell_angle_beta   81.44591989
_cell_angle_gamma   120.06809559
_symmetry_Int_Tables_number   1
_chemical_formula_structural   Rb3NaTbUTe6
_chemical_formula_sum   'Rb3 Na1 Tb1 U1 Te6'
_cell_volume   467.83308897
_cell_formula_units_Z   1
loop_
 _symmetry_equiv_pos_site_id
 _symmetry_equiv_pos_as_xyz
  1  'x, y, z'
loop_
 _atom_site_type_symbol
 _atom_site_label
 _atom_site_symmetry_multiplicity
 _atom_site_fract_x
 _atom_site_fract_y
 _atom_site_fract_z
 _atom_site_occupancy
  Rb  Rb0  1  0.656891  0.343109  0.500000  1
  Rb  Rb1  1  0.343243  0.656757  0.500000  1
  Rb  Rb2  1  0.999925  0.000075  0.500000  1
  Na  Na3  1  0.500016  0.499984  0.000000  1
  Tb  Tb4  1  0.832249  0.167751  0.000000  1
  U  U5  1  0.167744  0.832256  0.000000  1
  Te  Te6  1  0.794135  0.784750  0.195187  1
  Te  Te7  1  0.215250  0.205865  0.804813  1
  Te  Te8  1  0.422717  0.069663  0.200748  1
  Te  Te9  1  0.558036  0.920544  0.799150  1
  Te  Te10  1  0.930337  0.577283  0.799252  1
  Te  Te11  1  0.079456  0.441964  0.200850  1
