# generated using pymatgen
data_Na4NdP12Ir19
_symmetry_space_group_name_H-M   'P 1'
_cell_length_a   3.97075700
_cell_length_b   12.65958877
_cell_length_c   12.64651200
_cell_angle_alpha   119.96660449
_cell_angle_beta   90.00000000
_cell_angle_gamma   90.00000000
_symmetry_Int_Tables_number   1
_chemical_formula_structural   Na4NdP12Ir19
_chemical_formula_sum   'Na4 Nd1 P12 Ir19'
_cell_volume   550.73204740
_cell_formula_units_Z   1
loop_
 _symmetry_equiv_pos_site_id
 _symmetry_equiv_pos_as_xyz
  1  'x, y, z'
loop_
 _atom_site_type_symbol
 _atom_site_label
 _atom_site_symmetry_multiplicity
 _atom_site_fract_x
 _atom_site_fract_y
 _atom_site_fract_z
 _atom_site_occupancy
  Na  Na0  1  0.500000  0.181537  0.998621  1
  Na  Na1  1  0.500000  0.818448  0.817061  1
  Na  Na2  1  0.000000  0.331991  0.666481  1
  Na  Na3  1  0.000000  0.668020  0.334508  1
  Nd  Nd4  1  0.500000  0.999996  0.177995  1
  P  P5  1  0.000000  0.999998  0.818799  1
  P  P6  1  0.000000  0.814382  0.992549  1
  P  P7  1  0.000000  0.185609  0.178166  1
  P  P8  1  0.500000  0.310927  0.487765  1
  P  P9  1  0.500000  0.176754  0.690680  1
  P  P10  1  0.500000  0.511097  0.822747  1
  P  P11  1  0.500000  0.823246  0.513928  1
  P  P12  1  0.500000  0.488896  0.311644  1
  P  P13  1  0.500000  0.689060  0.176831  1
  P  P14  1  0.000000  0.999998  0.362442  1
  P  P15  1  0.000000  0.360350  0.000240  1
  P  P16  1  0.000000  0.639649  0.639888  1
  Ir  Ir17  1  0.000000  0.999990  0.542523  1
  Ir  Ir18  1  0.000000  0.542800  0.002866  1
  Ir  Ir19  1  0.000000  0.457198  0.460069  1
  Ir  Ir20  1  0.500000  0.999999  0.708165  1
  Ir  Ir21  1  0.500000  0.707117  0.999834  1
  Ir  Ir22  1  0.500000  0.292878  0.292714  1
  Ir  Ir23  1  0.000000  0.197321  0.377046  1
  Ir  Ir24  1  0.000000  0.182295  0.803589  1
  Ir  Ir25  1  0.000000  0.618534  0.816456  1
  Ir  Ir26  1  0.000000  0.817705  0.621298  1
  Ir  Ir27  1  0.000000  0.381461  0.197921  1
  Ir  Ir28  1  0.000000  0.802673  0.179718  1
  Ir  Ir29  1  0.500000  0.129413  0.491130  1
  Ir  Ir30  1  0.500000  0.361834  0.873024  1
  Ir  Ir31  1  0.500000  0.508281  0.638587  1
  Ir  Ir32  1  0.500000  0.638161  0.511188  1
  Ir  Ir33  1  0.500000  0.491708  0.130301  1
  Ir  Ir34  1  0.500000  0.870576  0.361711  1
  Ir  Ir35  1  0.000000  0.999998  0.001515  1
