# generated using pymatgen
data_Th3Zn2IrAu3
_symmetry_space_group_name_H-M   'P 1'
_cell_length_a   3.85917400
_cell_length_b   7.93239445
_cell_length_c   7.67780904
_cell_angle_alpha   120.79079687
_cell_angle_beta   90.00000000
_cell_angle_gamma   90.00000000
_symmetry_Int_Tables_number   1
_chemical_formula_structural   Th3Zn2IrAu3
_chemical_formula_sum   'Th3 Zn2 Ir1 Au3'
_cell_volume   201.90656189
_cell_formula_units_Z   1
loop_
 _symmetry_equiv_pos_site_id
 _symmetry_equiv_pos_as_xyz
  1  'x, y, z'
loop_
 _atom_site_type_symbol
 _atom_site_label
 _atom_site_symmetry_multiplicity
 _atom_site_fract_x
 _atom_site_fract_y
 _atom_site_fract_z
 _atom_site_occupancy
  Th  Th0  1  0.000000  0.419492  0.016916  1
  Th  Th1  1  0.000000  0.607976  0.599360  1
  Th  Th2  1  0.000000  0.973266  0.386292  1
  Zn  Zn3  1  0.500000  0.267244  0.262933  1
  Zn  Zn4  1  0.500000  0.003025  0.738426  1
  Ir  Ir5  1  0.500000  0.661908  0.349372  1
  Au  Au6  1  0.500000  0.312742  0.649830  1
  Au  Au7  1  0.000000  0.026598  0.003239  1
  Au  Au8  1  0.500000  0.727849  0.993632  1
