# generated using pymatgen
data_MnNb2SnRu4
_symmetry_space_group_name_H-M   'P 1'
_cell_length_a   6.26142600
_cell_length_b   4.42514600
_cell_length_c   8.83488700
_cell_angle_alpha   90.00000000
_cell_angle_beta   89.99984444
_cell_angle_gamma   90.00000000
_symmetry_Int_Tables_number   1
_chemical_formula_structural   MnNb2SnRu4
_chemical_formula_sum   'Mn2 Nb4 Sn2 Ru8'
_cell_volume   244.79461249
_cell_formula_units_Z   2
loop_
 _symmetry_equiv_pos_site_id
 _symmetry_equiv_pos_as_xyz
  1  'x, y, z'
loop_
 _atom_site_type_symbol
 _atom_site_label
 _atom_site_symmetry_multiplicity
 _atom_site_fract_x
 _atom_site_fract_y
 _atom_site_fract_z
 _atom_site_occupancy
  Mn  Mn0  1  0.750039  0.250001  0.626584  1
  Mn  Mn1  1  0.250000  0.750001  0.873571  1
  Nb  Nb2  1  0.250002  0.250001  0.116488  1
  Nb  Nb3  1  0.749993  0.750001  0.383527  1
  Nb  Nb4  1  0.249990  0.250001  0.631660  1
  Nb  Nb5  1  0.750003  0.750001  0.868317  1
  Sn  Sn6  1  0.750000  0.250001  0.124512  1
  Sn  Sn7  1  0.249991  0.750001  0.375453  1
  Ru  Ru8  1  0.497677  0.750001  0.121914  1
  Ru  Ru9  1  0.002323  0.750001  0.121900  1
  Ru  Ru10  1  0.502324  0.250001  0.378080  1
  Ru  Ru11  1  0.997656  0.250001  0.378081  1
  Ru  Ru12  1  0.997382  0.750001  0.627696  1
  Ru  Ru13  1  0.502613  0.750001  0.627694  1
  Ru  Ru14  1  0.002704  0.250001  0.872260  1
  Ru  Ru15  1  0.497305  0.250001  0.872261  1
