# generated using pymatgen
data_LaPr7Zn8PdRh7
_symmetry_space_group_name_H-M   'P 1'
_cell_length_a   4.05075800
_cell_length_b   7.38783291
_cell_length_c   16.71149585
_cell_angle_alpha   90.04657994
_cell_angle_beta   90.00000000
_cell_angle_gamma   90.00000000
_symmetry_Int_Tables_number   1
_chemical_formula_structural   LaPr7Zn8PdRh7
_chemical_formula_sum   'La1 Pr7 Zn8 Pd1 Rh7'
_cell_volume   500.11346190
_cell_formula_units_Z   1
loop_
 _symmetry_equiv_pos_site_id
 _symmetry_equiv_pos_as_xyz
  1  'x, y, z'
loop_
 _atom_site_type_symbol
 _atom_site_label
 _atom_site_symmetry_multiplicity
 _atom_site_fract_x
 _atom_site_fract_y
 _atom_site_fract_z
 _atom_site_occupancy
  La  La0  1  0.750000  0.452778  0.215077  1
  Pr  Pr1  1  0.750000  0.951468  0.283240  1
  Pr  Pr2  1  0.750000  0.830719  0.060052  1
  Pr  Pr3  1  0.250000  0.043936  0.720298  1
  Pr  Pr4  1  0.250000  0.169283  0.940031  1
  Pr  Pr5  1  0.250000  0.548443  0.784215  1
  Pr  Pr6  1  0.750000  0.332982  0.435606  1
  Pr  Pr7  1  0.250000  0.672310  0.560221  1
  Zn  Zn8  1  0.250000  0.996547  0.437203  1
  Zn  Zn9  1  0.750000  0.500720  0.940163  1
  Zn  Zn10  1  0.750000  0.999349  0.560160  1
  Zn  Zn11  1  0.250000  0.626081  0.349797  1
  Zn  Zn12  1  0.750000  0.377695  0.653995  1
  Zn  Zn13  1  0.750000  0.874496  0.850957  1
  Zn  Zn14  1  0.250000  0.499565  0.058082  1
  Zn  Zn15  1  0.250000  0.122424  0.150261  1
  Pd  Pd16  1  0.250000  0.243125  0.566672  1
  Rh  Rh17  1  0.750000  0.257835  0.066767  1
  Rh  Rh18  1  0.250000  0.245924  0.313504  1
  Rh  Rh19  1  0.750000  0.254266  0.812773  1
  Rh  Rh20  1  0.250000  0.745157  0.934045  1
  Rh  Rh21  1  0.750000  0.755212  0.685454  1
  Rh  Rh22  1  0.750000  0.757166  0.435153  1
  Rh  Rh23  1  0.250000  0.742519  0.186273  1
