# generated using pymatgen
data_Rb4Na2DyYSb4
_symmetry_space_group_name_H-M   'P 1'
_cell_length_a   11.37220430
_cell_length_b   11.37220431
_cell_length_c   7.50315000
_cell_angle_alpha   90.00000000
_cell_angle_beta   90.00000000
_cell_angle_gamma   98.32659040
_symmetry_Int_Tables_number   1
_chemical_formula_structural   Rb4Na2DyYSb4
_chemical_formula_sum   'Rb8 Na4 Dy2 Y2 Sb8'
_cell_volume   960.13124207
_cell_formula_units_Z   2
loop_
 _symmetry_equiv_pos_site_id
 _symmetry_equiv_pos_as_xyz
  1  'x, y, z'
loop_
 _atom_site_type_symbol
 _atom_site_label
 _atom_site_symmetry_multiplicity
 _atom_site_fract_x
 _atom_site_fract_y
 _atom_site_fract_z
 _atom_site_occupancy
  Rb  Rb0  1  0.070627  0.429373  0.250000  1
  Rb  Rb1  1  0.429373  0.070627  0.750000  1
  Rb  Rb2  1  0.929310  0.570690  0.750000  1
  Rb  Rb3  1  0.570690  0.929310  0.250000  1
  Rb  Rb4  1  0.676456  0.323575  0.215511  1
  Rb  Rb5  1  0.823544  0.176425  0.715511  1
  Rb  Rb6  1  0.323575  0.676456  0.784489  1
  Rb  Rb7  1  0.176425  0.823544  0.284489  1
  Na  Na8  1  0.382231  0.382231  0.000000  1
  Na  Na9  1  0.117769  0.117769  0.500000  1
  Na  Na10  1  0.617807  0.617807  0.000000  1
  Na  Na11  1  0.882193  0.882193  0.500000  1
  Dy  Dy12  1  0.868961  0.868961  0.000000  1
  Dy  Dy13  1  0.631039  0.631039  0.500000  1
  Y  Y14  1  0.131084  0.131084  0.000000  1
  Y  Y15  1  0.368916  0.368916  0.500000  1
  Sb  Sb16  1  0.846883  0.653116  0.250000  1
  Sb  Sb17  1  0.653116  0.846883  0.750000  1
  Sb  Sb18  1  0.152953  0.347046  0.750000  1
  Sb  Sb19  1  0.347046  0.152953  0.250000  1
  Sb  Sb20  1  0.899420  0.100122  0.211965  1
  Sb  Sb21  1  0.600580  0.399878  0.711965  1
  Sb  Sb22  1  0.100122  0.899420  0.788035  1
  Sb  Sb23  1  0.399878  0.600580  0.288035  1
