# generated using pymatgen
data_Ho16In6FeCu
_symmetry_space_group_name_H-M   'P 1'
_cell_length_a   10.39460700
_cell_length_b   10.39460749
_cell_length_c   6.93865500
_cell_angle_alpha   90.00000000
_cell_angle_beta   90.00000000
_cell_angle_gamma   120.00000163
_symmetry_Int_Tables_number   1
_chemical_formula_structural   Ho16In6FeCu
_chemical_formula_sum   'Ho16 In6 Fe1 Cu1'
_cell_volume   649.26514294
_cell_formula_units_Z   1
loop_
 _symmetry_equiv_pos_site_id
 _symmetry_equiv_pos_as_xyz
  1  'x, y, z'
loop_
 _atom_site_type_symbol
 _atom_site_label
 _atom_site_symmetry_multiplicity
 _atom_site_fract_x
 _atom_site_fract_y
 _atom_site_fract_z
 _atom_site_occupancy
  Ho  Ho0  1  0.527269  0.054538  0.508706  1
  Ho  Ho1  1  0.945462  0.472731  0.508706  1
  Ho  Ho2  1  0.527269  0.472731  0.508706  1
  Ho  Ho3  1  0.464925  0.929850  0.006280  1
  Ho  Ho4  1  0.070150  0.535075  0.006280  1
  Ho  Ho5  1  0.464925  0.535075  0.006280  1
  Ho  Ho6  1  0.177956  0.355912  0.718276  1
  Ho  Ho7  1  0.644088  0.822044  0.718276  1
  Ho  Ho8  1  0.177956  0.822044  0.718276  1
  Ho  Ho9  1  0.824475  0.648951  0.213637  1
  Ho  Ho10  1  0.351049  0.175525  0.213637  1
  Ho  Ho11  1  0.824475  0.175525  0.213637  1
  Ho  Ho12  1  0.666667  0.333333  0.877643  1
  Ho  Ho13  1  0.333333  0.666667  0.396026  1
  Ho  Ho14  1  0.000000  0.000000  0.491100  1
  Ho  Ho15  1  0.000000  0.000000  0.993303  1
  In  In16  1  0.836479  0.672958  0.746582  1
  In  In17  1  0.327042  0.163521  0.746582  1
  In  In18  1  0.836479  0.163521  0.746582  1
  In  In19  1  0.162864  0.325727  0.252578  1
  In  In20  1  0.674273  0.837136  0.252578  1
  In  In21  1  0.162864  0.837136  0.252578  1
  Fe  Fe22  1  0.333333  0.666667  0.782075  1
  Cu  Cu23  1  0.666667  0.333333  0.279717  1
