# generated using pymatgen
data_Tb10Dy10CoBi8Ru3
_symmetry_space_group_name_H-M   'P 1'
_cell_length_a   8.01561961
_cell_length_b   9.00595300
_cell_length_c   12.49429702
_cell_angle_alpha   90.00000000
_cell_angle_beta   90.24369507
_cell_angle_gamma   90.00000000
_symmetry_Int_Tables_number   1
_chemical_formula_structural   Tb10Dy10CoBi8Ru3
_chemical_formula_sum   'Tb10 Dy10 Co1 Bi8 Ru3'
_cell_volume   901.93382182
_cell_formula_units_Z   1
loop_
 _symmetry_equiv_pos_site_id
 _symmetry_equiv_pos_as_xyz
  1  'x, y, z'
loop_
 _atom_site_type_symbol
 _atom_site_label
 _atom_site_symmetry_multiplicity
 _atom_site_fract_x
 _atom_site_fract_y
 _atom_site_fract_z
 _atom_site_occupancy
  Tb  Tb0  1  0.845944  0.750000  0.799652  1
  Tb  Tb1  1  0.654329  0.750000  0.294898  1
  Tb  Tb2  1  0.377255  0.750000  0.694035  1
  Tb  Tb3  1  0.621418  0.250000  0.306637  1
  Tb  Tb4  1  0.877552  0.250000  0.807677  1
  Tb  Tb5  1  0.119943  0.750000  0.188779  1
  Tb  Tb6  1  0.946076  0.750000  0.504744  1
  Tb  Tb7  1  0.054027  0.250000  0.495898  1
  Tb  Tb8  1  0.448936  0.250000  0.996468  1
  Tb  Tb9  1  0.550641  0.750000  0.003601  1
  Dy  Dy10  1  0.155210  0.250000  0.205027  1
  Dy  Dy11  1  0.344573  0.250000  0.706145  1
  Dy  Dy12  1  0.675521  0.041376  0.564200  1
  Dy  Dy13  1  0.323791  0.958206  0.435904  1
  Dy  Dy14  1  0.176249  0.958097  0.935910  1
  Dy  Dy15  1  0.323791  0.541794  0.435904  1
  Dy  Dy16  1  0.825154  0.036397  0.062857  1
  Dy  Dy17  1  0.675521  0.458624  0.564200  1
  Dy  Dy18  1  0.825154  0.463603  0.062857  1
  Dy  Dy19  1  0.176249  0.541903  0.935910  1
  Co  Co20  1  0.932781  0.750000  0.009424  1
  Bi  Bi21  1  0.571707  0.492228  0.827415  1
  Bi  Bi22  1  0.428680  0.507483  0.172351  1
  Bi  Bi23  1  0.070492  0.507416  0.673416  1
  Bi  Bi24  1  0.428680  0.992517  0.172351  1
  Bi  Bi25  1  0.929357  0.492624  0.326314  1
  Bi  Bi26  1  0.571707  0.007772  0.827415  1
  Bi  Bi27  1  0.929357  0.007376  0.326314  1
  Bi  Bi28  1  0.070492  0.992584  0.673416  1
  Ru  Ru29  1  0.572361  0.750000  0.511552  1
  Ru  Ru30  1  0.426028  0.250000  0.488992  1
  Ru  Ru31  1  0.071025  0.250000  0.989734  1
