# generated using pymatgen
data_Th10BiRu2Pb5
_symmetry_space_group_name_H-M   'P 1'
_cell_length_a   9.72627105
_cell_length_b   9.72642418
_cell_length_c   6.53459300
_cell_angle_alpha   90.00000000
_cell_angle_beta   90.00000000
_cell_angle_gamma   120.00357495
_symmetry_Int_Tables_number   1
_chemical_formula_structural   Th10BiRu2Pb5
_chemical_formula_sum   'Th10 Bi1 Ru2 Pb5'
_cell_volume   535.34420170
_cell_formula_units_Z   1
loop_
 _symmetry_equiv_pos_site_id
 _symmetry_equiv_pos_as_xyz
  1  'x, y, z'
loop_
 _atom_site_type_symbol
 _atom_site_label
 _atom_site_symmetry_multiplicity
 _atom_site_fract_x
 _atom_site_fract_y
 _atom_site_fract_z
 _atom_site_occupancy
  Th  Th0  1  0.757176  0.757177  0.750000  1
  Th  Th1  1  0.241879  0.998857  0.750000  1
  Th  Th2  1  0.998875  0.241876  0.750000  1
  Th  Th3  1  0.242617  0.242635  0.250000  1
  Th  Th4  1  0.757069  0.000717  0.250000  1
  Th  Th5  1  0.000730  0.757084  0.250000  1
  Th  Th6  1  0.667790  0.333900  0.000911  1
  Th  Th7  1  0.333899  0.667795  0.000916  1
  Th  Th8  1  0.333899  0.667795  0.499084  1
  Th  Th9  1  0.667790  0.333900  0.499089  1
  Bi  Bi10  1  0.396022  0.396031  0.750000  1
  Ru  Ru11  1  0.999564  0.999554  0.000914  1
  Ru  Ru12  1  0.999564  0.999554  0.499086  1
  Pb  Pb13  1  0.602037  0.999512  0.750000  1
  Pb  Pb14  1  0.999553  0.602043  0.750000  1
  Pb  Pb15  1  0.603493  0.603516  0.250000  1
  Pb  Pb16  1  0.397390  0.000641  0.250000  1
  Pb  Pb17  1  0.000657  0.397414  0.250000  1
