# generated using pymatgen
data_La2Tm4CoI10
_symmetry_space_group_name_H-M   'P 1'
_cell_length_a   7.76948832
_cell_length_b   9.77716071
_cell_length_c   9.75155014
_cell_angle_alpha   106.80810703
_cell_angle_beta   95.64572730
_cell_angle_gamma   105.71778409
_symmetry_Int_Tables_number   1
_chemical_formula_structural   La2Tm4CoI10
_chemical_formula_sum   'La2 Tm4 Co1 I10'
_cell_volume   669.93131027
_cell_formula_units_Z   1
loop_
 _symmetry_equiv_pos_site_id
 _symmetry_equiv_pos_as_xyz
  1  'x, y, z'
loop_
 _atom_site_type_symbol
 _atom_site_label
 _atom_site_symmetry_multiplicity
 _atom_site_fract_x
 _atom_site_fract_y
 _atom_site_fract_z
 _atom_site_occupancy
  La  La0  1  0.885293  0.957082  0.230956  1
  La  La1  1  0.114707  0.042918  0.769044  1
  Tm  Tm2  1  0.026930  0.721074  0.915351  1
  Tm  Tm3  1  0.973070  0.278926  0.084649  1
  Tm  Tm4  1  0.661063  0.877202  0.841563  1
  Tm  Tm5  1  0.338937  0.122798  0.158437  1
  Co  Co6  1  0.000000  0.000000  0.000000  1
  I  I7  1  0.652471  0.554178  0.731467  1
  I  I8  1  0.347529  0.445822  0.268533  1
  I  I9  1  0.726280  0.909460  0.543752  1
  I  I10  1  0.273720  0.090540  0.456248  1
  I  I11  1  0.080610  0.381552  0.826675  1
  I  I12  1  0.919390  0.618448  0.173325  1
  I  I13  1  0.443008  0.817553  0.087479  1
  I  I14  1  0.556992  0.182447  0.912521  1
  I  I15  1  0.229977  0.735982  0.661621  1
  I  I16  1  0.770023  0.264018  0.338379  1
