# generated using pymatgen
data_LiHo3In3NiHg
_symmetry_space_group_name_H-M   'P 1'
_cell_length_a   7.89298900
_cell_length_b   7.89298840
_cell_length_c   3.70704100
_cell_angle_alpha   90.00000000
_cell_angle_beta   90.00000000
_cell_angle_gamma   120.00000672
_symmetry_Int_Tables_number   1
_chemical_formula_structural   LiHo3In3NiHg
_chemical_formula_sum   'Li1 Ho3 In3 Ni1 Hg1'
_cell_volume   200.00504635
_cell_formula_units_Z   1
loop_
 _symmetry_equiv_pos_site_id
 _symmetry_equiv_pos_as_xyz
  1  'x, y, z'
loop_
 _atom_site_type_symbol
 _atom_site_label
 _atom_site_symmetry_multiplicity
 _atom_site_fract_x
 _atom_site_fract_y
 _atom_site_fract_z
 _atom_site_occupancy
  Li  Li0  1  0.000000  0.000000  0.500000  1
  Ho  Ho1  1  0.966697  0.574426  0.500000  1
  Ho  Ho2  1  0.425574  0.392271  0.500000  1
  Ho  Ho3  1  0.607729  0.033303  0.500000  1
  In  In4  1  0.257045  0.001432  0.000000  1
  In  In5  1  0.744386  0.742955  0.000000  1
  In  In6  1  0.998568  0.255614  0.000000  1
  Ni  Ni7  1  0.666667  0.333333  0.000000  1
  Hg  Hg8  1  0.333333  0.666667  0.000000  1
