# generated using pymatgen
data_Yb8DyPt6
_symmetry_space_group_name_H-M   'P 1'
_cell_length_a   7.50530054
_cell_length_b   7.50549859
_cell_length_c   7.54453901
_cell_angle_alpha   70.23197142
_cell_angle_beta   70.11923905
_cell_angle_gamma   70.29029438
_symmetry_Int_Tables_number   1
_chemical_formula_structural   Yb8DyPt6
_chemical_formula_sum   'Yb8 Dy1 Pt6'
_cell_volume   364.05831090
_cell_formula_units_Z   1
loop_
 _symmetry_equiv_pos_site_id
 _symmetry_equiv_pos_as_xyz
  1  'x, y, z'
loop_
 _atom_site_type_symbol
 _atom_site_label
 _atom_site_symmetry_multiplicity
 _atom_site_fract_x
 _atom_site_fract_y
 _atom_site_fract_z
 _atom_site_occupancy
  Yb  Yb0  1  0.003658  0.996051  0.001491  1
  Yb  Yb1  1  0.401976  0.668942  0.151308  1
  Yb  Yb2  1  0.193892  0.195332  0.199141  1
  Yb  Yb3  1  0.850264  0.597770  0.331950  1
  Yb  Yb4  1  0.668438  0.149932  0.401083  1
  Yb  Yb5  1  0.331707  0.849351  0.597770  1
  Yb  Yb6  1  0.148328  0.403284  0.669471  1
  Yb  Yb7  1  0.802114  0.802939  0.802251  1
  Dy  Dy8  1  0.599132  0.327244  0.854998  1
  Pt  Pt9  1  0.828827  0.411123  0.042421  1
  Pt  Pt10  1  0.591626  0.958448  0.161484  1
  Pt  Pt11  1  0.048175  0.834056  0.411224  1
  Pt  Pt12  1  0.942930  0.170476  0.593391  1
  Pt  Pt13  1  0.411307  0.052754  0.831527  1
  Pt  Pt14  1  0.177626  0.582301  0.950492  1
