# generated using pymatgen
data_Y3LuZr4F28
_symmetry_space_group_name_H-M   'P 1'
_cell_length_a   5.74586511
_cell_length_b   9.08925382
_cell_length_c   12.21743607
_cell_angle_alpha   62.45664304
_cell_angle_beta   90.01732226
_cell_angle_gamma   90.01586006
_symmetry_Int_Tables_number   1
_chemical_formula_structural   Y3LuZr4F28
_chemical_formula_sum   'Y3 Lu1 Zr4 F28'
_cell_volume   565.74587310
_cell_formula_units_Z   1
loop_
 _symmetry_equiv_pos_site_id
 _symmetry_equiv_pos_as_xyz
  1  'x, y, z'
loop_
 _atom_site_type_symbol
 _atom_site_label
 _atom_site_symmetry_multiplicity
 _atom_site_fract_x
 _atom_site_fract_y
 _atom_site_fract_z
 _atom_site_occupancy
  Y  Y0  1  0.743380  0.814539  0.266369  1
  Y  Y1  1  0.243427  0.183786  0.233556  1
  Y  Y2  1  0.255868  0.181553  0.733978  1
  Lu  Lu3  1  0.756650  0.815648  0.766007  1
  Zr  Zr4  1  0.744934  0.271535  0.456230  1
  Zr  Zr5  1  0.244413  0.725790  0.042270  1
  Zr  Zr6  1  0.256444  0.725932  0.548427  1
  Zr  Zr7  1  0.755903  0.277367  0.953128  1
  F  F8  1  0.470589  0.712058  0.919012  1
  F  F9  1  0.967391  0.288407  0.579366  1
  F  F10  1  0.533488  0.290946  0.077806  1
  F  F11  1  0.033389  0.711380  0.424138  1
  F  F12  1  0.452813  0.278787  0.550369  1
  F  F13  1  0.951973  0.722421  0.945611  1
  F  F14  1  0.546445  0.720070  0.452050  1
  F  F15  1  0.048290  0.281797  0.048159  1
  F  F16  1  0.766667  0.530148  0.856237  1
  F  F17  1  0.267756  0.474309  0.644248  1
  F  F18  1  0.229791  0.474364  0.140284  1
  F  F19  1  0.731865  0.524108  0.359734  1
  F  F20  1  0.759528  0.026047  0.056932  1
  F  F21  1  0.259724  0.976912  0.443807  1
  F  F22  1  0.241006  0.977385  0.941304  1
  F  F23  1  0.741562  0.020441  0.560920  1
  F  F24  1  0.986754  0.735913  0.654438  1
  F  F25  1  0.487073  0.265987  0.848300  1
  F  F26  1  0.016431  0.265627  0.350835  1
  F  F27  1  0.514569  0.733897  0.148122  1
  F  F28  1  0.031988  0.746934  0.170265  1
  F  F29  1  0.534237  0.252051  0.327410  1
  F  F30  1  0.966084  0.255177  0.825460  1
  F  F31  1  0.472269  0.748878  0.675116  1
  F  F32  1  0.428069  0.972110  0.234582  1
  F  F33  1  0.928167  0.026673  0.265427  1
  F  F34  1  0.569843  0.019617  0.764323  1
  F  F35  1  0.061217  0.971409  0.735781  1
