# generated using pymatgen
data_Pr3YHf3PtF28
_symmetry_space_group_name_H-M   'P 1'
_cell_length_a   5.77416832
_cell_length_b   9.25496508
_cell_length_c   12.42399952
_cell_angle_alpha   62.15157572
_cell_angle_beta   90.00142469
_cell_angle_gamma   89.92247141
_symmetry_Int_Tables_number   1
_chemical_formula_structural   Pr3YHf3PtF28
_chemical_formula_sum   'Pr3 Y1 Hf3 Pt1 F28'
_cell_volume   587.04177213
_cell_formula_units_Z   1
loop_
 _symmetry_equiv_pos_site_id
 _symmetry_equiv_pos_as_xyz
  1  'x, y, z'
loop_
 _atom_site_type_symbol
 _atom_site_label
 _atom_site_symmetry_multiplicity
 _atom_site_fract_x
 _atom_site_fract_y
 _atom_site_fract_z
 _atom_site_occupancy
  Pr  Pr0  1  0.257037  0.183354  0.732299  1
  Pr  Pr1  1  0.240442  0.186737  0.238884  1
  Pr  Pr2  1  0.742956  0.809102  0.266493  1
  Y  Y3  1  0.758857  0.811826  0.765033  1
  Hf  Hf4  1  0.754705  0.278259  0.955142  1
  Hf  Hf5  1  0.256489  0.725391  0.548343  1
  Hf  Hf6  1  0.245487  0.725769  0.039125  1
  Pt  Pt7  1  0.742905  0.271031  0.458343  1
  F  F8  1  0.459550  0.712721  0.916685  1
  F  F9  1  0.931380  0.291823  0.582742  1
  F  F10  1  0.544304  0.290624  0.078796  1
  F  F11  1  0.049895  0.712639  0.423681  1
  F  F12  1  0.454368  0.281596  0.539504  1
  F  F13  1  0.956597  0.721594  0.947555  1
  F  F14  1  0.541495  0.716321  0.458077  1
  F  F15  1  0.040689  0.283499  0.046251  1
  F  F16  1  0.767633  0.523901  0.859450  1
  F  F17  1  0.266379  0.480951  0.640502  1
  F  F18  1  0.226586  0.482766  0.137609  1
  F  F19  1  0.735628  0.511191  0.361781  1
  F  F20  1  0.760605  0.034206  0.054431  1
  F  F21  1  0.262917  0.968651  0.448680  1
  F  F22  1  0.239488  0.970051  0.942491  1
  F  F23  1  0.741529  0.030227  0.550790  1
  F  F24  1  0.981332  0.733485  0.645317  1
  F  F25  1  0.483699  0.268510  0.857543  1
  F  F26  1  0.026716  0.270342  0.371043  1
  F  F27  1  0.518973  0.730922  0.136660  1
  F  F28  1  0.047348  0.745834  0.165172  1
  F  F29  1  0.558977  0.258302  0.329434  1
  F  F30  1  0.957800  0.257763  0.830793  1
  F  F31  1  0.465502  0.747332  0.671343  1
  F  F32  1  0.409349  0.966012  0.232326  1
  F  F33  1  0.908349  0.032768  0.270442  1
  F  F34  1  0.589195  0.022345  0.766231  1
  F  F35  1  0.074839  0.962155  0.731015  1
