# generated using pymatgen
data_Tb2LuTh(Al3Ir)6
_symmetry_space_group_name_H-M   'P 1'
_cell_length_a   7.57809645
_cell_length_b   7.58090737
_cell_length_c   9.46611400
_cell_angle_alpha   90.00000000
_cell_angle_beta   90.00000000
_cell_angle_gamma   119.47622772
_symmetry_Int_Tables_number   1
_chemical_formula_structural   Tb2LuTh(Al3Ir)6
_chemical_formula_sum   'Tb2 Lu1 Th1 Al18 Ir6'
_cell_volume   473.42558289
_cell_formula_units_Z   1
loop_
 _symmetry_equiv_pos_site_id
 _symmetry_equiv_pos_as_xyz
  1  'x, y, z'
loop_
 _atom_site_type_symbol
 _atom_site_label
 _atom_site_symmetry_multiplicity
 _atom_site_fract_x
 _atom_site_fract_y
 _atom_site_fract_z
 _atom_site_occupancy
  Tb  Tb0  1  0.672298  0.994944  0.250000  1
  Tb  Tb1  1  0.327973  0.004657  0.750000  1
  Lu  Lu2  1  0.003894  0.328504  0.750000  1
  Th  Th3  1  0.994894  0.671036  0.250000  1
  Al  Al4  1  0.131588  0.133627  0.250000  1
  Al  Al5  1  0.871712  0.874703  0.750000  1
  Al  Al6  1  0.001529  0.331383  0.070869  1
  Al  Al7  1  0.998889  0.662747  0.918060  1
  Al  Al8  1  0.998889  0.662747  0.581940  1
  Al  Al9  1  0.339921  0.005326  0.427469  1
  Al  Al10  1  0.001529  0.331383  0.429131  1
  Al  Al11  1  0.666221  0.001342  0.576600  1
  Al  Al12  1  0.666221  0.001342  0.923400  1
  Al  Al13  1  0.339921  0.005326  0.072531  1
  Al  Al14  1  0.331430  0.332700  0.555662  1
  Al  Al15  1  0.662769  0.666166  0.454471  1
  Al  Al16  1  0.662769  0.666166  0.045529  1
  Al  Al17  1  0.331430  0.332700  0.944338  1
  Al  Al18  1  0.343572  0.547824  0.250000  1
  Al  Al19  1  0.659383  0.449438  0.750000  1
  Al  Al20  1  0.544392  0.337558  0.250000  1
  Al  Al21  1  0.448610  0.659040  0.750000  1
  Ir  Ir22  1  0.673358  0.329471  0.000001  1
  Ir  Ir23  1  0.326270  0.671247  0.999992  1
  Ir  Ir24  1  0.326270  0.671247  0.500008  1
  Ir  Ir25  1  0.673358  0.329471  0.499999  1
  Ir  Ir26  1  0.000453  0.998953  0.000218  1
  Ir  Ir27  1  0.000453  0.998953  0.499782  1
