# generated using pymatgen
data_Dy2TmTh11Ru6
_symmetry_space_group_name_H-M   'P 1'
_cell_length_a   9.82110203
_cell_length_b   9.88964946
_cell_length_c   6.40017680
_cell_angle_alpha   90.21829564
_cell_angle_beta   89.88299634
_cell_angle_gamma   120.38902202
_symmetry_Int_Tables_number   1
_chemical_formula_structural   Dy2TmTh11Ru6
_chemical_formula_sum   'Dy2 Tm1 Th11 Ru6'
_cell_volume   536.22212802
_cell_formula_units_Z   1
loop_
 _symmetry_equiv_pos_site_id
 _symmetry_equiv_pos_as_xyz
  1  'x, y, z'
loop_
 _atom_site_type_symbol
 _atom_site_label
 _atom_site_symmetry_multiplicity
 _atom_site_fract_x
 _atom_site_fract_y
 _atom_site_fract_z
 _atom_site_occupancy
  Dy  Dy0  1  0.074348  0.535763  0.300641  1
  Dy  Dy1  1  0.926097  0.462786  0.799706  1
  Tm  Tm2  1  0.460257  0.536860  0.297299  1
  Th  Th3  1  0.249469  0.126556  0.510375  1
  Th  Th4  1  0.542263  0.083040  0.796025  1
  Th  Th5  1  0.747410  0.873554  0.013003  1
  Th  Th6  1  0.666128  0.333345  0.278557  1
  Th  Th7  1  0.125228  0.870657  0.009303  1
  Th  Th8  1  0.459170  0.916320  0.295632  1
  Th  Th9  1  0.539112  0.464061  0.799015  1
  Th  Th10  1  0.876434  0.128781  0.511222  1
  Th  Th11  1  0.124333  0.252426  0.014267  1
  Th  Th12  1  0.874044  0.748378  0.508733  1
  Th  Th13  1  0.334065  0.665924  0.774525  1
  Ru  Ru14  1  0.811181  0.630752  0.048135  1
  Ru  Ru15  1  0.814639  0.181933  0.045573  1
  Ru  Ru16  1  0.631316  0.814402  0.544551  1
  Ru  Ru17  1  0.370469  0.188419  0.042298  1
  Ru  Ru18  1  0.185574  0.366605  0.551485  1
  Ru  Ru19  1  0.188465  0.819437  0.543653  1
