# generated using pymatgen
data_Er2LuTh(Ga3Rh)6
_symmetry_space_group_name_H-M   'P 1'
_cell_length_a   7.60074100
_cell_length_b   7.60588558
_cell_length_c   9.50420600
_cell_angle_alpha   89.99948498
_cell_angle_beta   90.00125263
_cell_angle_gamma   119.76258144
_symmetry_Int_Tables_number   1
_chemical_formula_structural   Er2LuTh(Ga3Rh)6
_chemical_formula_sum   'Er2 Lu1 Th1 Ga18 Rh6'
_cell_volume   476.96469251
_cell_formula_units_Z   1
loop_
 _symmetry_equiv_pos_site_id
 _symmetry_equiv_pos_as_xyz
  1  'x, y, z'
loop_
 _atom_site_type_symbol
 _atom_site_label
 _atom_site_symmetry_multiplicity
 _atom_site_fract_x
 _atom_site_fract_y
 _atom_site_fract_z
 _atom_site_occupancy
  Er  Er0  1  0.002646  0.330282  0.750003  1
  Er  Er1  1  0.671268  0.996779  0.249998  1
  Lu  Lu2  1  0.329227  0.002643  0.750003  1
  Th  Th3  1  0.996662  0.669160  0.250003  1
  Ga  Ga4  1  0.342657  0.547835  0.249999  1
  Ga  Ga5  1  0.659867  0.449882  0.749999  1
  Ga  Ga6  1  0.542923  0.335807  0.249998  1
  Ga  Ga7  1  0.450327  0.662606  0.750000  1
  Ga  Ga8  1  0.999353  0.328155  0.075994  1
  Ga  Ga9  1  0.001146  0.665062  0.912967  1
  Ga  Ga10  1  0.001146  0.665061  0.587032  1
  Ga  Ga11  1  0.341957  0.005364  0.423739  1
  Ga  Ga12  1  0.999350  0.328155  0.424007  1
  Ga  Ga13  1  0.665235  0.002163  0.580558  1
  Ga  Ga14  1  0.665235  0.002165  0.919440  1
  Ga  Ga15  1  0.341957  0.005363  0.076262  1
  Ga  Ga16  1  0.330888  0.330917  0.569862  1
  Ga  Ga17  1  0.661792  0.667626  0.439828  1
  Ga  Ga18  1  0.661792  0.667626  0.060173  1
  Ga  Ga19  1  0.330887  0.330919  0.930136  1
  Ga  Ga20  1  0.130001  0.132560  0.249999  1
  Ga  Ga21  1  0.872319  0.875336  0.750000  1
  Rh  Rh22  1  0.673770  0.330937  0.999793  1
  Rh  Rh23  1  0.325872  0.670833  0.000001  1
  Rh  Rh24  1  0.325873  0.670833  0.499995  1
  Rh  Rh25  1  0.673779  0.330938  0.500212  1
  Rh  Rh26  1  0.001032  0.997497  0.999885  1
  Rh  Rh27  1  0.001038  0.997499  0.500115  1
