# generated using pymatgen
data_Eu2Ag6Rh
_symmetry_space_group_name_H-M   'P 1'
_cell_length_a   5.59572819
_cell_length_b   5.59572976
_cell_length_c   14.23776200
_cell_angle_alpha   90.00000000
_cell_angle_beta   90.00000000
_cell_angle_gamma   120.84271715
_symmetry_Int_Tables_number   1
_chemical_formula_structural   Eu2Ag6Rh
_chemical_formula_sum   'Eu4 Ag12 Rh2'
_cell_volume   382.76725634
_cell_formula_units_Z   2
loop_
 _symmetry_equiv_pos_site_id
 _symmetry_equiv_pos_as_xyz
  1  'x, y, z'
loop_
 _atom_site_type_symbol
 _atom_site_label
 _atom_site_symmetry_multiplicity
 _atom_site_fract_x
 _atom_site_fract_y
 _atom_site_fract_z
 _atom_site_occupancy
  Eu  Eu0  1  0.320289  0.320289  0.122025  1
  Eu  Eu1  1  0.679711  0.679711  0.622025  1
  Eu  Eu2  1  0.320289  0.320289  0.377975  1
  Eu  Eu3  1  0.679711  0.679711  0.877975  1
  Ag  Ag4  1  0.826386  0.327967  0.250000  1
  Ag  Ag5  1  0.173614  0.672033  0.750000  1
  Ag  Ag6  1  0.327967  0.826386  0.250000  1
  Ag  Ag7  1  0.672033  0.173614  0.750000  1
  Ag  Ag8  1  0.987232  0.662658  0.077454  1
  Ag  Ag9  1  0.012768  0.337342  0.577454  1
  Ag  Ag10  1  0.662658  0.987232  0.422546  1
  Ag  Ag11  1  0.337342  0.012768  0.922546  1
  Ag  Ag12  1  0.012768  0.337342  0.922546  1
  Ag  Ag13  1  0.987232  0.662658  0.422546  1
  Ag  Ag14  1  0.337342  0.012768  0.577454  1
  Ag  Ag15  1  0.662658  0.987232  0.077454  1
  Rh  Rh16  1  0.828496  0.828496  0.250000  1
  Rh  Rh17  1  0.171504  0.171504  0.750000  1
