# generated using pymatgen
data_Yb5Co14Si12Ir5
_symmetry_space_group_name_H-M   'P 1'
_cell_length_a   12.32193906
_cell_length_b   12.29363724
_cell_length_c   3.80938000
_cell_angle_alpha   90.00000000
_cell_angle_beta   90.00000000
_cell_angle_gamma   120.06447092
_symmetry_Int_Tables_number   1
_chemical_formula_structural   Yb5Co14Si12Ir5
_chemical_formula_sum   'Yb5 Co14 Si12 Ir5'
_cell_volume   499.41533397
_cell_formula_units_Z   1
loop_
 _symmetry_equiv_pos_site_id
 _symmetry_equiv_pos_as_xyz
  1  'x, y, z'
loop_
 _atom_site_type_symbol
 _atom_site_label
 _atom_site_symmetry_multiplicity
 _atom_site_fract_x
 _atom_site_fract_y
 _atom_site_fract_z
 _atom_site_occupancy
  Yb  Yb0  1  0.333548  0.666783  0.000000  1
  Yb  Yb1  1  0.663881  0.330861  0.000000  1
  Yb  Yb2  1  0.184605  0.184612  0.500000  1
  Yb  Yb3  1  0.814947  0.000436  0.500000  1
  Yb  Yb4  1  0.000721  0.817749  0.500000  1
  Co  Co5  1  0.197856  0.818207  0.000000  1
  Co  Co6  1  0.184298  0.378909  0.000000  1
  Co  Co7  1  0.619803  0.803965  0.000000  1
  Co  Co8  1  0.816895  0.194995  0.000000  1
  Co  Co9  1  0.379448  0.183116  0.000000  1
  Co  Co10  1  0.802650  0.623391  0.000000  1
  Co  Co11  1  0.716195  0.718495  0.500000  1
  Co  Co12  1  0.283096  0.000054  0.500000  1
  Co  Co13  1  0.000669  0.282621  0.500000  1
  Co  Co14  1  0.128100  0.645899  0.500000  1
  Co  Co15  1  0.356280  0.479143  0.500000  1
  Co  Co16  1  0.520686  0.876593  0.500000  1
  Co  Co17  1  0.642340  0.121116  0.500000  1
  Co  Co18  1  0.476648  0.354686  0.500000  1
  Si  Si19  1  0.807851  0.810146  0.000000  1
  Si  Si20  1  0.192051  0.000597  0.000000  1
  Si  Si21  1  0.000673  0.191663  0.000000  1
  Si  Si22  1  0.316557  0.838596  0.500000  1
  Si  Si23  1  0.164208  0.477212  0.500000  1
  Si  Si24  1  0.521769  0.685357  0.500000  1
  Si  Si25  1  0.834792  0.308031  0.500000  1
  Si  Si26  1  0.477054  0.162257  0.500000  1
  Si  Si27  1  0.678317  0.522130  0.500000  1
  Si  Si28  1  0.366582  0.366605  0.000000  1
  Si  Si29  1  0.632281  0.999333  0.000000  1
  Si  Si30  1  0.005673  0.636023  0.000000  1
  Ir  Ir31  1  0.873941  0.519150  0.500000  1
  Ir  Ir32  1  0.556856  0.557985  0.000000  1
  Ir  Ir33  1  0.442348  0.999975  0.000000  1
  Ir  Ir34  1  0.005863  0.443024  0.000000  1
  Ir  Ir35  1  0.000520  0.000286  0.000000  1
