# generated using pymatgen
data_Pr2Pd14Se
_symmetry_space_group_name_H-M   'P 1'
_cell_length_a   9.02852500
_cell_length_b   9.02852500
_cell_length_c   7.25043700
_cell_angle_alpha   90.00000000
_cell_angle_beta   90.00000000
_cell_angle_gamma   90.00000000
_symmetry_Int_Tables_number   1
_chemical_formula_structural   Pr2Pd14Se
_chemical_formula_sum   'Pr4 Pd28 Se2'
_cell_volume   591.01403338
_cell_formula_units_Z   2
loop_
 _symmetry_equiv_pos_site_id
 _symmetry_equiv_pos_as_xyz
  1  'x, y, z'
loop_
 _atom_site_type_symbol
 _atom_site_label
 _atom_site_symmetry_multiplicity
 _atom_site_fract_x
 _atom_site_fract_y
 _atom_site_fract_z
 _atom_site_occupancy
  Pr  Pr0  1  0.500000  0.000000  0.933716  1
  Pr  Pr1  1  0.000000  0.500000  0.066284  1
  Pr  Pr2  1  0.000000  0.000000  0.500000  1
  Pr  Pr3  1  0.500000  0.500000  0.500000  1
  Pd  Pd4  1  0.328802  0.828802  0.625460  1
  Pd  Pd5  1  0.328802  0.171198  0.625460  1
  Pd  Pd6  1  0.671198  0.828802  0.625460  1
  Pd  Pd7  1  0.671198  0.171198  0.625460  1
  Pd  Pd8  1  0.171198  0.671198  0.374540  1
  Pd  Pd9  1  0.171198  0.328802  0.374540  1
  Pd  Pd10  1  0.828802  0.671198  0.374540  1
  Pd  Pd11  1  0.828802  0.328802  0.374540  1
  Pd  Pd12  1  0.500000  0.763894  0.251500  1
  Pd  Pd13  1  0.500000  0.236106  0.251500  1
  Pd  Pd14  1  0.263894  0.000000  0.251500  1
  Pd  Pd15  1  0.736106  0.000000  0.251500  1
  Pd  Pd16  1  0.000000  0.736106  0.748500  1
  Pd  Pd17  1  0.000000  0.263894  0.748500  1
  Pd  Pd18  1  0.236106  0.500000  0.748500  1
  Pd  Pd19  1  0.763894  0.500000  0.748500  1
  Pd  Pd20  1  0.500000  0.348175  0.860043  1
  Pd  Pd21  1  0.500000  0.651825  0.860043  1
  Pd  Pd22  1  0.848175  0.000000  0.860043  1
  Pd  Pd23  1  0.151825  0.000000  0.860043  1
  Pd  Pd24  1  0.000000  0.151825  0.139957  1
  Pd  Pd25  1  0.000000  0.848175  0.139957  1
  Pd  Pd26  1  0.651825  0.500000  0.139957  1
  Pd  Pd27  1  0.348175  0.500000  0.139957  1
  Pd  Pd28  1  0.250000  0.750000  0.000000  1
  Pd  Pd29  1  0.250000  0.250000  0.000000  1
  Pd  Pd30  1  0.750000  0.750000  0.000000  1
  Pd  Pd31  1  0.750000  0.250000  0.000000  1
  Se  Se32  1  0.500000  0.000000  0.450946  1
  Se  Se33  1  0.000000  0.500000  0.549054  1
