# generated using pymatgen
data_PrNd2Ag(Pt2O7)2
_symmetry_space_group_name_H-M   'P 1'
_cell_length_a   7.32306205
_cell_length_b   7.32398157
_cell_length_c   7.32398017
_cell_angle_alpha   61.36761963
_cell_angle_beta   61.37618347
_cell_angle_gamma   61.37617903
_symmetry_Int_Tables_number   1
_chemical_formula_structural   PrNd2Ag(Pt2O7)2
_chemical_formula_sum   'Pr1 Nd2 Ag1 Pt4 O14'
_cell_volume   286.33185515
_cell_formula_units_Z   1
loop_
 _symmetry_equiv_pos_site_id
 _symmetry_equiv_pos_as_xyz
  1  'x, y, z'
loop_
 _atom_site_type_symbol
 _atom_site_label
 _atom_site_symmetry_multiplicity
 _atom_site_fract_x
 _atom_site_fract_y
 _atom_site_fract_z
 _atom_site_occupancy
  Pr  Pr0  1  0.125000  0.625000  0.625000  1
  Nd  Nd1  1  0.625000  0.625000  0.125000  1
  Nd  Nd2  1  0.625000  0.125000  0.625000  1
  Ag  Ag3  1  0.625000  0.625000  0.625000  1
  Pt  Pt4  1  0.125000  0.125000  0.625000  1
  Pt  Pt5  1  0.125000  0.625000  0.125000  1
  Pt  Pt6  1  0.625000  0.125000  0.125000  1
  Pt  Pt7  1  0.125000  0.125000  0.125000  1
  O  O8  1  0.510370  0.507341  0.507341  1
  O  O9  1  0.739630  0.742659  0.742659  1
  O  O10  1  0.452034  0.056511  0.452074  1
  O  O11  1  0.213633  0.790019  0.211917  1
  O  O12  1  0.452034  0.452074  0.056511  1
  O  O13  1  0.056052  0.451589  0.451589  1
  O  O14  1  0.460319  0.036916  0.036916  1
  O  O15  1  0.036367  0.038083  0.459981  1
  O  O16  1  0.036367  0.459981  0.038083  1
  O  O17  1  0.789681  0.213084  0.213084  1
  O  O18  1  0.193948  0.798411  0.798411  1
  O  O19  1  0.797966  0.193489  0.797926  1
  O  O20  1  0.213633  0.211917  0.790019  1
  O  O21  1  0.797966  0.797926  0.193489  1
