# generated using pymatgen
data_Sm3Al(SiRh3)2
_symmetry_space_group_name_H-M   'P 1'
_cell_length_a   5.65293904
_cell_length_b   5.65350056
_cell_length_c   15.20774000
_cell_angle_alpha   90.00000000
_cell_angle_beta   90.00000000
_cell_angle_gamma   119.98245684
_symmetry_Int_Tables_number   1
_chemical_formula_structural   Sm3Al(SiRh3)2
_chemical_formula_sum   'Sm6 Al2 Si4 Rh12'
_cell_volume   420.98226317
_cell_formula_units_Z   2
loop_
 _symmetry_equiv_pos_site_id
 _symmetry_equiv_pos_as_xyz
  1  'x, y, z'
loop_
 _atom_site_type_symbol
 _atom_site_label
 _atom_site_symmetry_multiplicity
 _atom_site_fract_x
 _atom_site_fract_y
 _atom_site_fract_z
 _atom_site_occupancy
  Sm  Sm0  1  0.333334  0.666661  0.538369  1
  Sm  Sm1  1  0.666666  0.333339  0.461631  1
  Sm  Sm2  1  0.666666  0.333339  0.038369  1
  Sm  Sm3  1  0.333334  0.666661  0.961631  1
  Sm  Sm4  1  0.333333  0.666670  0.750000  1
  Sm  Sm5  1  0.666667  0.333330  0.250000  1
  Al  Al6  1  0.000000  0.000000  0.000000  1
  Al  Al7  1  0.000000  0.000000  0.500000  1
  Si  Si8  1  0.000002  0.999985  0.250000  1
  Si  Si9  1  0.999998  0.000015  0.750000  1
  Si  Si10  1  0.333331  0.666673  0.250000  1
  Si  Si11  1  0.666669  0.333327  0.750000  1
  Rh  Rh12  1  0.167219  0.334433  0.134268  1
  Rh  Rh13  1  0.832781  0.665567  0.865732  1
  Rh  Rh14  1  0.665565  0.832779  0.134269  1
  Rh  Rh15  1  0.832781  0.665567  0.634268  1
  Rh  Rh16  1  0.334435  0.167221  0.865731  1
  Rh  Rh17  1  0.167219  0.334433  0.365732  1
  Rh  Rh18  1  0.167219  0.832779  0.134278  1
  Rh  Rh19  1  0.334435  0.167221  0.634269  1
  Rh  Rh20  1  0.832781  0.167221  0.865722  1
  Rh  Rh21  1  0.665565  0.832779  0.365731  1
  Rh  Rh22  1  0.832781  0.167221  0.634278  1
  Rh  Rh23  1  0.167219  0.832779  0.365722  1
