# generated using pymatgen
data_Tm3In3CuPtRh
_symmetry_space_group_name_H-M   'P 1'
_cell_length_a   7.70325000
_cell_length_b   7.70324933
_cell_length_c   3.65280200
_cell_angle_alpha   90.00000000
_cell_angle_beta   90.00000000
_cell_angle_gamma   119.99999427
_symmetry_Int_Tables_number   1
_chemical_formula_structural   Tm3In3CuPtRh
_chemical_formula_sum   'Tm3 In3 Cu1 Pt1 Rh1'
_cell_volume   187.71748905
_cell_formula_units_Z   1
loop_
 _symmetry_equiv_pos_site_id
 _symmetry_equiv_pos_as_xyz
  1  'x, y, z'
loop_
 _atom_site_type_symbol
 _atom_site_label
 _atom_site_symmetry_multiplicity
 _atom_site_fract_x
 _atom_site_fract_y
 _atom_site_fract_z
 _atom_site_occupancy
  Tm  Tm0  1  0.411532  0.406811  0.500000  1
  Tm  Tm1  1  0.593189  0.004720  0.500000  1
  Tm  Tm2  1  0.995280  0.588468  0.500000  1
  In  In3  1  0.996880  0.256816  0.000000  1
  In  In4  1  0.743184  0.740064  0.000000  1
  In  In5  1  0.259936  0.003120  0.000000  1
  Cu  Cu6  1  0.000000  0.000000  0.500000  1
  Pt  Pt7  1  0.333333  0.666667  0.000000  1
  Rh  Rh8  1  0.666667  0.333333  0.000000  1
