# generated using pymatgen
data_La2Dy4RuI10
_symmetry_space_group_name_H-M   'P 1'
_cell_length_a   7.89330851
_cell_length_b   9.92394748
_cell_length_c   9.85708079
_cell_angle_alpha   106.92966383
_cell_angle_beta   95.77465523
_cell_angle_gamma   105.76379524
_symmetry_Int_Tables_number   1
_chemical_formula_structural   La2Dy4RuI10
_chemical_formula_sum   'La2 Dy4 Ru1 I10'
_cell_volume   697.21261486
_cell_formula_units_Z   1
loop_
 _symmetry_equiv_pos_site_id
 _symmetry_equiv_pos_as_xyz
  1  'x, y, z'
loop_
 _atom_site_type_symbol
 _atom_site_label
 _atom_site_symmetry_multiplicity
 _atom_site_fract_x
 _atom_site_fract_y
 _atom_site_fract_z
 _atom_site_occupancy
  La  La0  1  0.386052  0.957543  0.728775  1
  La  La1  1  0.613948  0.042457  0.271225  1
  Dy  Dy2  1  0.472990  0.289882  0.588682  1
  Dy  Dy3  1  0.527010  0.710118  0.411318  1
  Dy  Dy4  1  0.852602  0.129825  0.668191  1
  Dy  Dy5  1  0.147398  0.870175  0.331809  1
  Ru  Ru6  1  0.500000  0.000000  0.500000  1
  I  I7  1  0.417700  0.621626  0.674050  1
  I  I8  1  0.582300  0.378374  0.325950  1
  I  I9  1  0.280855  0.265637  0.843816  1
  I  I10  1  0.719145  0.734363  0.156184  1
  I  I11  1  0.852135  0.450677  0.768949  1
  I  I12  1  0.147865  0.549323  0.231051  1
  I  I13  1  0.052939  0.180316  0.413708  1
  I  I14  1  0.228984  0.910154  0.044316  1
  I  I15  1  0.771016  0.089846  0.955684  1
  I  I16  1  0.947061  0.819684  0.586292  1
