# generated using pymatgen
data_Li3Tb2Dy3(P3Ir4)4
_symmetry_space_group_name_H-M   'P 1'
_cell_length_a   12.70155400
_cell_length_b   12.70157131
_cell_length_c   3.97847000
_cell_angle_alpha   90.00000000
_cell_angle_beta   90.00000000
_cell_angle_gamma   119.99994970
_symmetry_Int_Tables_number   1
_chemical_formula_structural   Li3Tb2Dy3(P3Ir4)4
_chemical_formula_sum   'Li3 Tb2 Dy3 P12 Ir16'
_cell_volume   555.85465783
_cell_formula_units_Z   1
loop_
 _symmetry_equiv_pos_site_id
 _symmetry_equiv_pos_as_xyz
  1  'x, y, z'
loop_
 _atom_site_type_symbol
 _atom_site_label
 _atom_site_symmetry_multiplicity
 _atom_site_fract_x
 _atom_site_fract_y
 _atom_site_fract_z
 _atom_site_occupancy
  Li  Li0  1  0.999997  0.441843  0.500000  1
  Li  Li1  1  0.558155  0.558157  0.500000  1
  Li  Li2  1  0.441916  0.000000  0.500000  1
  Tb  Tb3  1  0.999994  0.809015  0.000000  1
  Tb  Tb4  1  0.190978  0.190985  0.000000  1
  Dy  Dy5  1  0.333339  0.666659  0.500000  1
  Dy  Dy6  1  0.666681  0.333341  0.500000  1
  Dy  Dy7  1  0.808879  0.000000  0.000000  1
  P  P8  1  0.000021  0.629660  0.500000  1
  P  P9  1  0.370361  0.370340  0.500000  1
  P  P10  1  0.629867  0.000000  0.500000  1
  P  P11  1  0.516366  0.687436  0.000000  1
  P  P12  1  0.312616  0.828955  0.000000  1
  P  P13  1  0.171002  0.483564  0.000000  1
  P  P14  1  0.483662  0.171045  0.000000  1
  P  P15  1  0.687438  0.516436  0.000000  1
  P  P16  1  0.828930  0.312564  0.000000  1
  P  P17  1  0.999862  0.179696  0.500000  1
  P  P18  1  0.820167  0.820304  0.500000  1
  P  P19  1  0.179755  0.000000  0.500000  1
  Ir  Ir20  1  0.509643  0.868445  0.000000  1
  Ir  Ir21  1  0.131595  0.641133  0.000000  1
  Ir  Ir22  1  0.358881  0.490448  0.000000  1
  Ir  Ir23  1  0.490463  0.358867  0.000000  1
  Ir  Ir24  1  0.868434  0.509552  0.000000  1
  Ir  Ir25  1  0.641200  0.131555  0.000000  1
  Ir  Ir26  1  0.999829  0.280356  0.000000  1
  Ir  Ir27  1  0.719473  0.719644  0.000000  1
  Ir  Ir28  1  0.280560  0.000000  0.000000  1
  Ir  Ir29  1  0.626915  0.807294  0.500000  1
  Ir  Ir30  1  0.193186  0.819728  0.500000  1
  Ir  Ir31  1  0.180226  0.373430  0.500000  1
  Ir  Ir32  1  0.373458  0.180272  0.500000  1
  Ir  Ir33  1  0.806796  0.626570  0.500000  1
  Ir  Ir34  1  0.819622  0.192706  0.500000  1
  Ir  Ir35  1  0.999733  0.000000  0.500000  1
