# generated using pymatgen
data_Ce6CuBi8Pt5
_symmetry_space_group_name_H-M   'P 1'
_cell_length_a   8.71119129
_cell_length_b   8.71119059
_cell_length_c   8.71119041
_cell_angle_alpha   109.30357119
_cell_angle_beta   109.30357048
_cell_angle_gamma   109.80704517
_symmetry_Int_Tables_number   1
_chemical_formula_structural   Ce6CuBi8Pt5
_chemical_formula_sum   'Ce6 Cu1 Bi8 Pt5'
_cell_volume   508.86135902
_cell_formula_units_Z   1
loop_
 _symmetry_equiv_pos_site_id
 _symmetry_equiv_pos_as_xyz
  1  'x, y, z'
loop_
 _atom_site_type_symbol
 _atom_site_label
 _atom_site_symmetry_multiplicity
 _atom_site_fract_x
 _atom_site_fract_y
 _atom_site_fract_z
 _atom_site_occupancy
  Ce  Ce0  1  0.625000  0.375000  0.250000  1
  Ce  Ce1  1  0.875000  0.125000  0.750000  1
  Ce  Ce2  1  0.379196  0.256079  0.632205  1
  Ce  Ce3  1  0.123874  0.746991  0.867795  1
  Ce  Ce4  1  0.253009  0.620804  0.376884  1
  Ce  Ce5  1  0.743921  0.876126  0.123116  1
  Cu  Cu6  1  0.125000  0.875000  0.250000  1
  Bi  Bi7  1  0.171310  0.166389  0.175736  1
  Bi  Bi8  1  0.323214  0.500267  0.000842  1
  Bi  Bi9  1  0.999426  0.322373  0.499158  1
  Bi  Bi10  1  0.677627  0.676786  0.677053  1
  Bi  Bi11  1  0.490653  0.995574  0.324264  1
  Bi  Bi12  1  0.833611  0.509347  0.004921  1
  Bi  Bi13  1  0.499733  0.000574  0.822947  1
  Bi  Bi14  1  0.004426  0.828690  0.495079  1
  Pt  Pt15  1  0.375000  0.625000  0.750000  1
  Pt  Pt16  1  0.874152  0.250709  0.124866  1
  Pt  Pt17  1  0.625843  0.749286  0.375134  1
  Pt  Pt18  1  0.250714  0.125848  0.876557  1
  Pt  Pt19  1  0.749291  0.374157  0.623443  1
