# generated using pymatgen
data_Hf11Zr8Si16Mo
_symmetry_space_group_name_H-M   'P 1'
_cell_length_a   7.07731592
_cell_length_b   7.07731502
_cell_length_c   12.89976750
_cell_angle_alpha   89.92125314
_cell_angle_beta   90.07874401
_cell_angle_gamma   90.06372784
_symmetry_Int_Tables_number   1
_chemical_formula_structural   Hf11Zr8Si16Mo
_chemical_formula_sum   'Hf11 Zr8 Si16 Mo1'
_cell_volume   646.12702079
_cell_formula_units_Z   1
loop_
 _symmetry_equiv_pos_site_id
 _symmetry_equiv_pos_as_xyz
  1  'x, y, z'
loop_
 _atom_site_type_symbol
 _atom_site_label
 _atom_site_symmetry_multiplicity
 _atom_site_fract_x
 _atom_site_fract_y
 _atom_site_fract_z
 _atom_site_occupancy
  Hf  Hf0  1  0.824493  0.824493  0.500000  1
  Hf  Hf1  1  0.324500  0.675782  0.248655  1
  Hf  Hf2  1  0.675782  0.324500  0.751345  1
  Hf  Hf3  1  0.146252  0.999309  0.374676  1
  Hf  Hf4  1  0.855343  0.002958  0.878497  1
  Hf  Hf5  1  0.501621  0.647566  0.626884  1
  Hf  Hf6  1  0.351994  0.497232  0.874778  1
  Hf  Hf7  1  0.497232  0.351994  0.125222  1
  Hf  Hf8  1  0.647566  0.501621  0.373116  1
  Hf  Hf9  1  0.999309  0.146252  0.625324  1
  Hf  Hf10  1  0.002958  0.855343  0.121503  1
  Zr  Zr11  1  0.998513  0.346346  0.215585  1
  Zr  Zr12  1  0.002564  0.653083  0.717927  1
  Zr  Zr13  1  0.153189  0.498566  0.465954  1
  Zr  Zr14  1  0.500598  0.845709  0.033060  1
  Zr  Zr15  1  0.845709  0.500598  0.966940  1
  Zr  Zr16  1  0.498566  0.153189  0.534046  1
  Zr  Zr17  1  0.346346  0.998513  0.784415  1
  Zr  Zr18  1  0.653083  0.002564  0.282073  1
  Si  Si19  1  0.355425  0.295408  0.321790  1
  Si  Si20  1  0.645647  0.704338  0.822606  1
  Si  Si21  1  0.205049  0.855613  0.571759  1
  Si  Si22  1  0.145495  0.796514  0.927386  1
  Si  Si23  1  0.796514  0.145495  0.072614  1
  Si  Si24  1  0.855613  0.205049  0.428241  1
  Si  Si25  1  0.295408  0.355425  0.678210  1
  Si  Si26  1  0.704338  0.645647  0.177394  1
  Si  Si27  1  0.298277  0.051867  0.183693  1
  Si  Si28  1  0.699278  0.950714  0.687207  1
  Si  Si29  1  0.450552  0.801067  0.436116  1
  Si  Si30  1  0.198188  0.544753  0.063380  1
  Si  Si31  1  0.544753  0.198188  0.936620  1
  Si  Si32  1  0.801067  0.450552  0.563884  1
  Si  Si33  1  0.051867  0.298277  0.816307  1
  Si  Si34  1  0.950714  0.699278  0.312793  1
  Mo  Mo35  1  0.176200  0.176200  0.000000  1
