# generated using pymatgen
data_Dy15Er(AlRh)4
_symmetry_space_group_name_H-M   'P 1'
_cell_length_a   9.53592896
_cell_length_b   9.54167230
_cell_length_c   9.54167392
_cell_angle_alpha   59.98415364
_cell_angle_beta   60.01991041
_cell_angle_gamma   60.01991272
_symmetry_Int_Tables_number   1
_chemical_formula_structural   Dy15Er(AlRh)4
_chemical_formula_sum   'Dy15 Er1 Al4 Rh4'
_cell_volume   614.01028930
_cell_formula_units_Z   1
loop_
 _symmetry_equiv_pos_site_id
 _symmetry_equiv_pos_as_xyz
  1  'x, y, z'
loop_
 _atom_site_type_symbol
 _atom_site_label
 _atom_site_symmetry_multiplicity
 _atom_site_fract_x
 _atom_site_fract_y
 _atom_site_fract_z
 _atom_site_occupancy
  Dy  Dy0  1  0.691717  0.692057  0.308177  1
  Dy  Dy1  1  0.308049  0.692057  0.308177  1
  Dy  Dy2  1  0.936895  0.936918  0.562779  1
  Dy  Dy3  1  0.147346  0.146239  0.559070  1
  Dy  Dy4  1  0.563408  0.936918  0.562779  1
  Dy  Dy5  1  0.148041  0.147288  0.147288  1
  Dy  Dy6  1  0.308049  0.308177  0.692057  1
  Dy  Dy7  1  0.936853  0.563147  0.563147  1
  Dy  Dy8  1  0.563408  0.562779  0.936918  1
  Dy  Dy9  1  0.563204  0.936796  0.936796  1
  Dy  Dy10  1  0.936895  0.562779  0.936918  1
  Dy  Dy11  1  0.147346  0.559070  0.146239  1
  Dy  Dy12  1  0.308059  0.691941  0.691941  1
  Dy  Dy13  1  0.691717  0.308177  0.692057  1
  Dy  Dy14  1  0.557383  0.147288  0.147288  1
  Er  Er15  1  0.692450  0.307550  0.307550  1
  Al  Al16  1  0.922427  0.923009  0.232137  1
  Al  Al17  1  0.232319  0.922700  0.922700  1
  Al  Al18  1  0.922427  0.232137  0.923009  1
  Al  Al19  1  0.922280  0.922700  0.922700  1
  Rh  Rh20  1  0.357364  0.357021  0.357021  1
  Rh  Rh21  1  0.928595  0.357021  0.357021  1
  Rh  Rh22  1  0.356884  0.357365  0.928869  1
  Rh  Rh23  1  0.356884  0.928869  0.357365  1
