# generated using pymatgen
data_Sr7CaTa4O18
_symmetry_space_group_name_H-M   'P 1'
_cell_length_a   5.92368678
_cell_length_b   5.92376389
_cell_length_c   15.44721025
_cell_angle_alpha   89.96729057
_cell_angle_beta   89.97555959
_cell_angle_gamma   60.00940974
_symmetry_Int_Tables_number   1
_chemical_formula_structural   Sr7CaTa4O18
_chemical_formula_sum   'Sr7 Ca1 Ta4 O18'
_cell_volume   469.47407074
_cell_formula_units_Z   1
loop_
 _symmetry_equiv_pos_site_id
 _symmetry_equiv_pos_as_xyz
  1  'x, y, z'
loop_
 _atom_site_type_symbol
 _atom_site_label
 _atom_site_symmetry_multiplicity
 _atom_site_fract_x
 _atom_site_fract_y
 _atom_site_fract_z
 _atom_site_occupancy
  Sr  Sr0  1  0.000042  0.999779  0.243229  1
  Sr  Sr1  1  0.000000  0.000000  0.500000  1
  Sr  Sr2  1  0.666616  0.667503  0.355773  1
  Sr  Sr3  1  0.667262  0.664438  0.120438  1
  Sr  Sr4  1  0.332738  0.335562  0.879562  1
  Sr  Sr5  1  0.333384  0.332497  0.644227  1
  Sr  Sr6  1  0.999958  0.000221  0.756771  1
  Ca  Ca7  1  0.000000  0.000000  0.000000  1
  Ta  Ta8  1  0.665662  0.668575  0.853146  1
  Ta  Ta9  1  0.667055  0.665939  0.658670  1
  Ta  Ta10  1  0.332945  0.334061  0.341330  1
  Ta  Ta11  1  0.334338  0.331425  0.146854  1
  O  O12  1  0.590519  0.961410  0.756609  1
  O  O13  1  0.919780  0.727740  0.604798  1
  O  O14  1  0.911677  0.742554  0.907093  1
  O  O15  1  0.351050  0.918290  0.605325  1
  O  O16  1  0.347170  0.915128  0.907627  1
  O  O17  1  0.960586  0.448567  0.757299  1
  O  O18  1  0.448113  0.590706  0.757565  1
  O  O19  1  0.261984  0.647977  0.090747  1
  O  O20  1  0.270031  0.650734  0.394057  1
  O  O21  1  0.729969  0.349266  0.605943  1
  O  O22  1  0.738016  0.352023  0.909253  1
  O  O23  1  0.551887  0.409294  0.242435  1
  O  O24  1  0.039414  0.551433  0.242701  1
  O  O25  1  0.652830  0.084872  0.092373  1
  O  O26  1  0.648950  0.081710  0.394675  1
  O  O27  1  0.088323  0.257446  0.092907  1
  O  O28  1  0.080220  0.272260  0.395202  1
  O  O29  1  0.409481  0.038590  0.243391  1
