# generated using pymatgen
data_ZrSc3Si6Ir7
_symmetry_space_group_name_H-M   'P 1'
_cell_length_a   7.00713107
_cell_length_b   7.00713116
_cell_length_c   7.00713080
_cell_angle_alpha   109.57162490
_cell_angle_beta   109.57162409
_cell_angle_gamma   109.57162854
_symmetry_Int_Tables_number   1
_chemical_formula_structural   ZrSc3Si6Ir7
_chemical_formula_sum   'Zr1 Sc3 Si6 Ir7'
_cell_volume   263.86015137
_cell_formula_units_Z   1
loop_
 _symmetry_equiv_pos_site_id
 _symmetry_equiv_pos_as_xyz
  1  'x, y, z'
loop_
 _atom_site_type_symbol
 _atom_site_label
 _atom_site_symmetry_multiplicity
 _atom_site_fract_x
 _atom_site_fract_y
 _atom_site_fract_z
 _atom_site_occupancy
  Zr  Zr0  1  0.500000  0.500000  0.500000  1
  Sc  Sc1  1  0.000000  0.000000  0.500000  1
  Sc  Sc2  1  0.000000  0.500000  0.000000  1
  Sc  Sc3  1  0.500000  0.000000  0.000000  1
  Si  Si4  1  0.683904  0.683904  0.003438  1
  Si  Si5  1  0.316096  0.996562  0.316096  1
  Si  Si6  1  0.996562  0.316096  0.316096  1
  Si  Si7  1  0.316096  0.316096  0.996562  1
  Si  Si8  1  0.683904  0.003438  0.683904  1
  Si  Si9  1  0.003438  0.683904  0.683904  1
  Ir  Ir10  1  0.750029  0.249971  0.500000  1
  Ir  Ir11  1  0.750029  0.500000  0.249971  1
  Ir  Ir12  1  0.500000  0.249971  0.750029  1
  Ir  Ir13  1  0.249971  0.500000  0.750029  1
  Ir  Ir14  1  0.249971  0.750029  0.500000  1
  Ir  Ir15  1  0.500000  0.750029  0.249971  1
  Ir  Ir16  1  0.000000  0.000000  0.000000  1
