# generated using pymatgen
data_LiEr2BRh5
_symmetry_space_group_name_H-M   'P 1'
_cell_length_a   5.86742379
_cell_length_b   5.77509881
_cell_length_c   5.77509807
_cell_angle_alpha   61.06051601
_cell_angle_beta   59.46973663
_cell_angle_gamma   59.46974012
_symmetry_Int_Tables_number   1
_chemical_formula_structural   LiEr2BRh5
_chemical_formula_sum   'Li1 Er2 B1 Rh5'
_cell_volume   138.30107323
_cell_formula_units_Z   1
loop_
 _symmetry_equiv_pos_site_id
 _symmetry_equiv_pos_as_xyz
  1  'x, y, z'
loop_
 _atom_site_type_symbol
 _atom_site_label
 _atom_site_symmetry_multiplicity
 _atom_site_fract_x
 _atom_site_fract_y
 _atom_site_fract_z
 _atom_site_occupancy
  Li  Li0  1  0.770652  0.229347  0.229347  1
  Er  Er1  1  0.251172  0.248828  0.248828  1
  Er  Er2  1  0.751172  0.748828  0.748828  1
  B  B3  1  0.488873  0.511125  0.511125  1
  Rh  Rh4  1  0.248238  0.751761  0.245565  1
  Rh  Rh5  1  0.754434  0.751761  0.245565  1
  Rh  Rh6  1  0.248238  0.245565  0.751761  1
  Rh  Rh7  1  0.754434  0.245565  0.751761  1
  Rh  Rh8  1  0.232784  0.767215  0.767215  1
