# generated using pymatgen
data_Ho10Tl5In3Pd3Rh
_symmetry_space_group_name_H-M   'P 1'
_cell_length_a   3.61769200
_cell_length_b   8.18450532
_cell_length_c   18.34767507
_cell_angle_alpha   89.94584655
_cell_angle_beta   90.00000000
_cell_angle_gamma   90.00000000
_symmetry_Int_Tables_number   1
_chemical_formula_structural   Ho10Tl5In3Pd3Rh
_chemical_formula_sum   'Ho10 Tl5 In3 Pd3 Rh1'
_cell_volume   543.25642471
_cell_formula_units_Z   1
loop_
 _symmetry_equiv_pos_site_id
 _symmetry_equiv_pos_as_xyz
  1  'x, y, z'
loop_
 _atom_site_type_symbol
 _atom_site_label
 _atom_site_symmetry_multiplicity
 _atom_site_fract_x
 _atom_site_fract_y
 _atom_site_fract_z
 _atom_site_occupancy
  Ho  Ho0  1  0.000000  0.499117  0.498972  1
  Ho  Ho1  1  0.000000  0.999844  0.000508  1
  Ho  Ho2  1  0.000000  0.732195  0.279082  1
  Ho  Ho3  1  0.000000  0.260212  0.718468  1
  Ho  Ho4  1  0.000000  0.759377  0.781639  1
  Ho  Ho5  1  0.000000  0.254307  0.218923  1
  Ho  Ho6  1  0.000000  0.614241  0.088946  1
  Ho  Ho7  1  0.000000  0.382381  0.915205  1
  Ho  Ho8  1  0.000000  0.884440  0.585533  1
  Ho  Ho9  1  0.000000  0.115216  0.412943  1
  Tl  Tl10  1  0.500000  0.708188  0.934748  1
  Tl  Tl11  1  0.500000  0.290840  0.067368  1
  Tl  Tl12  1  0.500000  0.790953  0.433000  1
  Tl  Tl13  1  0.500000  0.206269  0.564563  1
  Tl  Tl14  1  0.500000  0.583253  0.649369  1
  In  In15  1  0.500000  0.418387  0.349422  1
  In  In16  1  0.500000  0.917903  0.151222  1
  In  In17  1  0.500000  0.083404  0.849533  1
  Pd  Pd18  1  0.500000  0.470529  0.804313  1
  Pd  Pd19  1  0.500000  0.974820  0.697826  1
  Pd  Pd20  1  0.500000  0.026709  0.301351  1
  Rh  Rh21  1  0.500000  0.527414  0.197066  1
