# generated using pymatgen
data_LiNd4Co18P12Ru
_symmetry_space_group_name_H-M   'P 1'
_cell_length_a   3.71447900
_cell_length_b   10.43412622
_cell_length_c   11.90466852
_cell_angle_alpha   90.10903766
_cell_angle_beta   90.00000000
_cell_angle_gamma   90.00000000
_symmetry_Int_Tables_number   1
_chemical_formula_structural   LiNd4Co18P12Ru
_chemical_formula_sum   'Li1 Nd4 Co18 P12 Ru1'
_cell_volume   461.39248248
_cell_formula_units_Z   1
loop_
 _symmetry_equiv_pos_site_id
 _symmetry_equiv_pos_as_xyz
  1  'x, y, z'
loop_
 _atom_site_type_symbol
 _atom_site_label
 _atom_site_symmetry_multiplicity
 _atom_site_fract_x
 _atom_site_fract_y
 _atom_site_fract_z
 _atom_site_occupancy
  Li  Li0  1  0.750000  0.298497  0.008307  1
  Nd  Nd1  1  0.250000  0.583999  0.702189  1
  Nd  Nd2  1  0.250000  0.918604  0.202001  1
  Nd  Nd3  1  0.750000  0.416668  0.299637  1
  Nd  Nd4  1  0.750000  0.083980  0.795989  1
  Co  Co5  1  0.250000  0.786096  0.491826  1
  Co  Co6  1  0.750000  0.213143  0.509198  1
  Co  Co7  1  0.250000  0.405563  0.489049  1
  Co  Co8  1  0.250000  0.090197  0.989336  1
  Co  Co9  1  0.750000  0.595126  0.510118  1
  Co  Co10  1  0.750000  0.903905  0.009224  1
  Co  Co11  1  0.250000  0.218687  0.178717  1
  Co  Co12  1  0.250000  0.279785  0.671123  1
  Co  Co13  1  0.750000  0.778565  0.824271  1
  Co  Co14  1  0.750000  0.721623  0.325432  1
  Co  Co15  1  0.250000  0.882747  0.697710  1
  Co  Co16  1  0.250000  0.616711  0.201022  1
  Co  Co17  1  0.750000  0.115370  0.304752  1
  Co  Co18  1  0.750000  0.382397  0.799509  1
  Co  Co19  1  0.250000  0.464297  0.933985  1
  Co  Co20  1  0.250000  0.030419  0.433974  1
  Co  Co21  1  0.750000  0.533856  0.068196  1
  Co  Co22  1  0.750000  0.968073  0.567598  1
  P  P23  1  0.250000  0.419320  0.113653  1
  P  P24  1  0.250000  0.081540  0.609561  1
  P  P25  1  0.750000  0.577376  0.888938  1
  P  P26  1  0.750000  0.918690  0.390669  1
  P  P27  1  0.250000  0.275437  0.861138  1
  P  P28  1  0.250000  0.223272  0.369601  1
  P  P29  1  0.750000  0.725744  0.134335  1
  P  P30  1  0.750000  0.775358  0.630532  1
  P  P31  1  0.250000  0.605184  0.394975  1
  P  P32  1  0.250000  0.899335  0.891644  1
  P  P33  1  0.750000  0.395710  0.604571  1
  P  P34  1  0.750000  0.105898  0.107459  1
  Ru  Ru35  1  0.250000  0.708824  0.989761  1
