# generated using pymatgen
data_Sc6Al2CO
_symmetry_space_group_name_H-M   'P 1'
_cell_length_a   6.39442073
_cell_length_b   6.39441993
_cell_length_c   6.39442000
_cell_angle_alpha   59.99999964
_cell_angle_beta   60.00000375
_cell_angle_gamma   60.00000137
_symmetry_Int_Tables_number   1
_chemical_formula_structural   Sc6Al2CO
_chemical_formula_sum   'Sc6 Al2 C1 O1'
_cell_volume   184.87940605
_cell_formula_units_Z   1
loop_
 _symmetry_equiv_pos_site_id
 _symmetry_equiv_pos_as_xyz
  1  'x, y, z'
loop_
 _atom_site_type_symbol
 _atom_site_label
 _atom_site_symmetry_multiplicity
 _atom_site_fract_x
 _atom_site_fract_y
 _atom_site_fract_z
 _atom_site_occupancy
  Sc  Sc0  1  0.748420  0.251580  0.251580  1
  Sc  Sc1  1  0.748420  0.251580  0.748420  1
  Sc  Sc2  1  0.251580  0.748420  0.251580  1
  Sc  Sc3  1  0.251580  0.251580  0.748420  1
  Sc  Sc4  1  0.748420  0.748420  0.251580  1
  Sc  Sc5  1  0.251580  0.748420  0.748420  1
  Al  Al6  1  0.750000  0.750000  0.750000  1
  Al  Al7  1  0.250000  0.250000  0.250000  1
  C  C8  1  0.500000  0.500000  0.500000  1
  O  O9  1  0.000000  0.000000  0.000000  1
