# generated using pymatgen
data_Sr2Nd2Ir3RhO14
_symmetry_space_group_name_H-M   'P 1'
_cell_length_a   7.43247974
_cell_length_b   7.45570493
_cell_length_c   7.43090611
_cell_angle_alpha   59.88954485
_cell_angle_beta   59.50659391
_cell_angle_gamma   59.89658372
_symmetry_Int_Tables_number   1
_chemical_formula_structural   Sr2Nd2Ir3RhO14
_chemical_formula_sum   'Sr2 Nd2 Ir3 Rh1 O14'
_cell_volume   289.60423600
_cell_formula_units_Z   1
loop_
 _symmetry_equiv_pos_site_id
 _symmetry_equiv_pos_as_xyz
  1  'x, y, z'
loop_
 _atom_site_type_symbol
 _atom_site_label
 _atom_site_symmetry_multiplicity
 _atom_site_fract_x
 _atom_site_fract_y
 _atom_site_fract_z
 _atom_site_occupancy
  Sr  Sr0  1  0.625000  0.125000  0.125000  1
  Sr  Sr1  1  0.125000  0.125000  0.625000  1
  Nd  Nd2  1  0.125000  0.625000  0.125000  1
  Nd  Nd3  1  0.125000  0.125000  0.125000  1
  Ir  Ir4  1  0.625000  0.125000  0.625000  1
  Ir  Ir5  1  0.625000  0.625000  0.125000  1
  Ir  Ir6  1  0.625000  0.625000  0.625000  1
  Rh  Rh7  1  0.125000  0.625000  0.625000  1
  O  O8  1  0.701151  0.695171  0.300859  1
  O  O9  1  0.302206  0.295640  0.707467  1
  O  O10  1  0.691505  0.305563  0.697369  1
  O  O11  1  0.299442  0.703838  0.292881  1
  O  O12  1  0.302206  0.694686  0.707467  1
  O  O13  1  0.701151  0.302819  0.300859  1
  O  O14  1  0.548849  0.554829  0.949141  1
  O  O15  1  0.947794  0.954360  0.542533  1
  O  O16  1  0.558495  0.944437  0.552631  1
  O  O17  1  0.950558  0.546162  0.957119  1
  O  O18  1  0.947794  0.555314  0.542533  1
  O  O19  1  0.548849  0.947181  0.949141  1
  O  O20  1  0.242725  0.258388  0.240499  1
  O  O21  1  0.007275  0.991612  0.009501  1
