# generated using pymatgen
data_CeY5OsO12
_symmetry_space_group_name_H-M   'P 1'
_cell_length_a   6.48477586
_cell_length_b   6.51250413
_cell_length_c   6.50688699
_cell_angle_alpha   98.86743565
_cell_angle_beta   98.73811473
_cell_angle_gamma   98.91668845
_symmetry_Int_Tables_number   1
_chemical_formula_structural   CeY5OsO12
_chemical_formula_sum   'Ce1 Y5 Os1 O12'
_cell_volume   263.84706502
_cell_formula_units_Z   1
loop_
 _symmetry_equiv_pos_site_id
 _symmetry_equiv_pos_as_xyz
  1  'x, y, z'
loop_
 _atom_site_type_symbol
 _atom_site_label
 _atom_site_symmetry_multiplicity
 _atom_site_fract_x
 _atom_site_fract_y
 _atom_site_fract_z
 _atom_site_occupancy
  Ce  Ce0  1  0.859859  0.394196  0.693618  1
  Y  Y1  1  0.606131  0.306355  0.141614  1
  Y  Y2  1  0.305120  0.134795  0.608202  1
  Y  Y3  1  0.690946  0.857042  0.387956  1
  Y  Y4  1  0.391682  0.700264  0.861991  1
  Y  Y5  1  0.143699  0.612191  0.305536  1
  Os  Os6  1  0.999271  0.002219  0.001336  1
  O  O7  1  0.930516  0.039000  0.699325  1
  O  O8  1  0.957732  0.300695  0.070488  1
  O  O9  1  0.592627  0.177615  0.435726  1
  O  O10  1  0.823364  0.564606  0.412069  1
  O  O11  1  0.301426  0.070400  0.958333  1
  O  O12  1  0.570066  0.409816  0.818816  1
  O  O13  1  0.434972  0.588177  0.174419  1
  O  O14  1  0.698850  0.930342  0.040717  1
  O  O15  1  0.172941  0.432059  0.593891  1
  O  O16  1  0.408459  0.820105  0.564278  1
  O  O17  1  0.042102  0.700554  0.931597  1
  O  O18  1  0.070237  0.959569  0.300089  1
