# generated using pymatgen
data_Nd7Ho(OsI4)2
_symmetry_space_group_name_H-M   'P 1'
_cell_length_a   11.30943480
_cell_length_b   11.35738775
_cell_length_c   6.39148952
_cell_angle_alpha   89.47918605
_cell_angle_beta   89.57881333
_cell_angle_gamma   88.43127626
_symmetry_Int_Tables_number   1
_chemical_formula_structural   Nd7Ho(OsI4)2
_chemical_formula_sum   'Nd7 Ho1 Os2 I8'
_cell_volume   820.59663149
_cell_formula_units_Z   1
loop_
 _symmetry_equiv_pos_site_id
 _symmetry_equiv_pos_as_xyz
  1  'x, y, z'
loop_
 _atom_site_type_symbol
 _atom_site_label
 _atom_site_symmetry_multiplicity
 _atom_site_fract_x
 _atom_site_fract_y
 _atom_site_fract_z
 _atom_site_occupancy
  Nd  Nd0  1  0.208486  0.914645  0.998416  1
  Nd  Nd1  1  0.791216  0.086078  0.002315  1
  Nd  Nd2  1  0.085220  0.790709  0.502918  1
  Nd  Nd3  1  0.913093  0.207461  0.497754  1
  Nd  Nd4  1  0.793683  0.917893  0.505071  1
  Nd  Nd5  1  0.207279  0.078357  0.495515  1
  Nd  Nd6  1  0.080146  0.206437  0.995087  1
  Ho  Ho7  1  0.924167  0.807953  0.005954  1
  Os  Os8  1  0.000075  0.000363  0.249969  1
  Os  Os9  1  0.000040  0.000225  0.750623  1
  I  I10  1  0.365822  0.837951  0.502709  1
  I  I11  1  0.633462  0.157987  0.497851  1
  I  I12  1  0.148317  0.637948  0.998312  1
  I  I13  1  0.839024  0.364106  0.002319  1
  I  I14  1  0.361325  0.149922  0.000518  1
  I  I15  1  0.647977  0.843726  0.000444  1
  I  I16  1  0.849913  0.639726  0.494097  1
  I  I17  1  0.150755  0.358514  0.500126  1
