# generated using pymatgen
data_HoErZn(PRh2)6
_symmetry_space_group_name_H-M   'P 1'
_cell_length_a   9.65588200
_cell_length_b   9.65588104
_cell_length_c   3.88847900
_cell_angle_alpha   90.00000000
_cell_angle_beta   90.00000000
_cell_angle_gamma   120.00000329
_symmetry_Int_Tables_number   1
_chemical_formula_structural   HoErZn(PRh2)6
_chemical_formula_sum   'Ho1 Er1 Zn1 P6 Rh12'
_cell_volume   313.97439455
_cell_formula_units_Z   1
loop_
 _symmetry_equiv_pos_site_id
 _symmetry_equiv_pos_as_xyz
  1  'x, y, z'
loop_
 _atom_site_type_symbol
 _atom_site_label
 _atom_site_symmetry_multiplicity
 _atom_site_fract_x
 _atom_site_fract_y
 _atom_site_fract_z
 _atom_site_occupancy
  Ho  Ho0  1  0.333333  0.666667  0.751960  1
  Er  Er1  1  0.666667  0.333333  0.248052  1
  Zn  Zn2  1  0.000000  0.000000  0.499998  1
  P  P3  1  0.402318  0.284695  0.748210  1
  P  P4  1  0.715305  0.117625  0.748210  1
  P  P5  1  0.882375  0.597682  0.748210  1
  P  P6  1  0.597748  0.715333  0.251793  1
  P  P7  1  0.284667  0.882415  0.251793  1
  P  P8  1  0.117585  0.402252  0.251793  1
  Rh  Rh9  1  0.452749  0.066442  0.748778  1
  Rh  Rh10  1  0.933558  0.386307  0.748778  1
  Rh  Rh11  1  0.613693  0.547251  0.748778  1
  Rh  Rh12  1  0.547373  0.933698  0.251211  1
  Rh  Rh13  1  0.066302  0.613675  0.251211  1
  Rh  Rh14  1  0.386325  0.452627  0.251211  1
  Rh  Rh15  1  0.158953  0.284035  0.754127  1
  Rh  Rh16  1  0.715965  0.874918  0.754127  1
  Rh  Rh17  1  0.125082  0.841047  0.754127  1
  Rh  Rh18  1  0.841046  0.715933  0.245877  1
  Rh  Rh19  1  0.284067  0.125113  0.245877  1
  Rh  Rh20  1  0.874887  0.158954  0.245877  1
