# generated using pymatgen
data_Tb7Ho3(Bi2Rh)2
_symmetry_space_group_name_H-M   'P 1'
_cell_length_a   8.02284613
_cell_length_b   9.01351952
_cell_length_c   12.53826332
_cell_angle_alpha   90.01692223
_cell_angle_beta   89.95023029
_cell_angle_gamma   90.03509252
_symmetry_Int_Tables_number   1
_chemical_formula_structural   Tb7Ho3(Bi2Rh)2
_chemical_formula_sum   'Tb14 Ho6 Bi8 Rh4'
_cell_volume   906.69242806
_cell_formula_units_Z   2
loop_
 _symmetry_equiv_pos_site_id
 _symmetry_equiv_pos_as_xyz
  1  'x, y, z'
loop_
 _atom_site_type_symbol
 _atom_site_label
 _atom_site_symmetry_multiplicity
 _atom_site_fract_x
 _atom_site_fract_y
 _atom_site_fract_z
 _atom_site_occupancy
  Tb  Tb0  1  0.840285  0.749942  0.793976  1
  Tb  Tb1  1  0.159715  0.250058  0.206024  1
  Tb  Tb2  1  0.340044  0.250100  0.706221  1
  Tb  Tb3  1  0.659956  0.749900  0.293779  1
  Tb  Tb4  1  0.374410  0.749813  0.690909  1
  Tb  Tb5  1  0.625590  0.250187  0.309091  1
  Tb  Tb6  1  0.874557  0.250015  0.809351  1
  Tb  Tb7  1  0.125443  0.749985  0.190649  1
  Tb  Tb8  1  0.953334  0.749811  0.501714  1
  Tb  Tb9  1  0.046666  0.250189  0.498286  1
  Tb  Tb10  1  0.453187  0.250005  0.998261  1
  Tb  Tb11  1  0.546813  0.749995  0.001739  1
  Tb  Tb12  1  0.678105  0.041951  0.566652  1
  Tb  Tb13  1  0.321895  0.958049  0.433348  1
  Ho  Ho14  1  0.176984  0.958032  0.933590  1
  Ho  Ho15  1  0.322891  0.541993  0.433548  1
  Ho  Ho16  1  0.823016  0.041968  0.066410  1
  Ho  Ho17  1  0.677109  0.458007  0.566452  1
  Ho  Ho18  1  0.822998  0.458012  0.066432  1
  Ho  Ho19  1  0.177002  0.541988  0.933568  1
  Bi  Bi20  1  0.566757  0.492114  0.825866  1
  Bi  Bi21  1  0.433243  0.507886  0.174134  1
  Bi  Bi22  1  0.066754  0.507887  0.674151  1
  Bi  Bi23  1  0.433337  0.992128  0.174039  1
  Bi  Bi24  1  0.933246  0.492113  0.325849  1
  Bi  Bi25  1  0.566663  0.007872  0.825961  1
  Bi  Bi26  1  0.932893  0.007898  0.325749  1
  Bi  Bi27  1  0.067107  0.992102  0.674251  1
  Rh  Rh28  1  0.571892  0.749305  0.509066  1
  Rh  Rh29  1  0.428108  0.250695  0.490934  1
  Rh  Rh30  1  0.071678  0.249988  0.991069  1
  Rh  Rh31  1  0.928322  0.750012  0.008931  1
