# generated using pymatgen
data_Lu8Sc11Si16Os
_symmetry_space_group_name_H-M   'P 1'
_cell_length_a   6.93352048
_cell_length_b   7.29601219
_cell_length_c   13.72456200
_cell_angle_alpha   90.00000000
_cell_angle_beta   90.00000000
_cell_angle_gamma   90.11221766
_symmetry_Int_Tables_number   1
_chemical_formula_structural   Lu8Sc11Si16Os
_chemical_formula_sum   'Lu8 Sc11 Si16 Os1'
_cell_volume   694.28377125
_cell_formula_units_Z   1
loop_
 _symmetry_equiv_pos_site_id
 _symmetry_equiv_pos_as_xyz
  1  'x, y, z'
loop_
 _atom_site_type_symbol
 _atom_site_label
 _atom_site_symmetry_multiplicity
 _atom_site_fract_x
 _atom_site_fract_y
 _atom_site_fract_z
 _atom_site_occupancy
  Lu  Lu0  1  0.012998  0.180337  0.091850  1
  Lu  Lu1  1  0.991403  0.817819  0.902115  1
  Lu  Lu2  1  0.489832  0.674352  0.904195  1
  Lu  Lu3  1  0.991403  0.817819  0.597885  1
  Lu  Lu4  1  0.512345  0.321597  0.093773  1
  Lu  Lu5  1  0.012998  0.180337  0.408150  1
  Lu  Lu6  1  0.512345  0.321597  0.406227  1
  Lu  Lu7  1  0.489832  0.674352  0.595805  1
  Sc  Sc8  1  0.843905  0.495180  0.250000  1
  Sc  Sc9  1  0.345432  0.004606  0.250000  1
  Sc  Sc10  1  0.653015  0.992968  0.750000  1
  Sc  Sc11  1  0.322664  0.175183  0.627608  1
  Sc  Sc12  1  0.673841  0.825475  0.374068  1
  Sc  Sc13  1  0.174782  0.672907  0.377234  1
  Sc  Sc14  1  0.673841  0.825475  0.125932  1
  Sc  Sc15  1  0.823909  0.330844  0.629453  1
  Sc  Sc16  1  0.322664  0.175183  0.872392  1
  Sc  Sc17  1  0.823909  0.330844  0.870547  1
  Sc  Sc18  1  0.174782  0.672907  0.122766  1
  Si  Si19  1  0.023507  0.106470  0.750000  1
  Si  Si20  1  0.976999  0.889374  0.250000  1
  Si  Si21  1  0.472288  0.611187  0.250000  1
  Si  Si22  1  0.510651  0.399961  0.750000  1
  Si  Si23  1  0.282404  0.852215  0.750000  1
  Si  Si24  1  0.720246  0.133979  0.250000  1
  Si  Si25  1  0.216843  0.367028  0.250000  1
  Si  Si26  1  0.794209  0.634157  0.750000  1
  Si  Si27  1  0.157197  0.468191  0.550423  1
  Si  Si28  1  0.841513  0.535633  0.464396  1
  Si  Si29  1  0.344113  0.965879  0.462694  1
  Si  Si30  1  0.841513  0.535633  0.035604  1
  Si  Si31  1  0.660028  0.034266  0.540000  1
  Si  Si32  1  0.157197  0.468191  0.949577  1
  Si  Si33  1  0.660028  0.034266  0.960000  1
  Si  Si34  1  0.344113  0.965879  0.037306  1
  Os  Os35  1  0.151250  0.507911  0.750000  1
