# generated using pymatgen
data_KRb(BiPb)2
_symmetry_space_group_name_H-M   'P 1'
_cell_length_a   6.80975966
_cell_length_b   6.80975980
_cell_length_c   6.80975973
_cell_angle_alpha   121.74850197
_cell_angle_beta   117.79048395
_cell_angle_gamma   90.43365320
_symmetry_Int_Tables_number   1
_chemical_formula_structural   KRb(BiPb)2
_chemical_formula_sum   'K1 Rb1 Bi2 Pb2'
_cell_volume   223.73559118
_cell_formula_units_Z   1
loop_
 _symmetry_equiv_pos_site_id
 _symmetry_equiv_pos_as_xyz
  1  'x, y, z'
loop_
 _atom_site_type_symbol
 _atom_site_label
 _atom_site_symmetry_multiplicity
 _atom_site_fract_x
 _atom_site_fract_y
 _atom_site_fract_z
 _atom_site_occupancy
  K  K0  1  0.252380  0.752380  0.500000  1
  Rb  Rb1  1  0.000819  0.000819  0.000000  1
  Bi  Bi2  1  0.629849  0.372752  0.257098  1
  Bi  Bi3  1  0.115655  0.372752  0.742902  1
  Pb  Pb4  1  0.625648  0.371336  0.745688  1
  Pb  Pb5  1  0.625648  0.879961  0.254312  1
