# generated using pymatgen
data_Y13Tm3(ScBi3)4
_symmetry_space_group_name_H-M   'P 1'
_cell_length_a   8.13532845
_cell_length_b   9.41591200
_cell_length_c   11.99591666
_cell_angle_alpha   90.00059611
_cell_angle_beta   90.03807980
_cell_angle_gamma   89.99693914
_symmetry_Int_Tables_number   1
_chemical_formula_structural   Y13Tm3(ScBi3)4
_chemical_formula_sum   'Y13 Tm3 Sc4 Bi12'
_cell_volume   918.90544766
_cell_formula_units_Z   1
loop_
 _symmetry_equiv_pos_site_id
 _symmetry_equiv_pos_as_xyz
  1  'x, y, z'
loop_
 _atom_site_type_symbol
 _atom_site_label
 _atom_site_symmetry_multiplicity
 _atom_site_fract_x
 _atom_site_fract_y
 _atom_site_fract_z
 _atom_site_occupancy
  Y  Y0  1  0.185124  0.750088  0.720757  1
  Y  Y1  1  0.685283  0.750367  0.779648  1
  Y  Y2  1  0.814945  0.249698  0.279427  1
  Y  Y3  1  0.314790  0.250242  0.220406  1
  Y  Y4  1  0.195914  0.563499  0.441081  1
  Y  Y5  1  0.696278  0.563347  0.058736  1
  Y  Y6  1  0.196389  0.936730  0.441050  1
  Y  Y7  1  0.303637  0.063341  0.941182  1
  Y  Y8  1  0.803715  0.436478  0.558932  1
  Y  Y9  1  0.355467  0.750906  0.214848  1
  Y  Y10  1  0.854188  0.750452  0.284516  1
  Y  Y11  1  0.645341  0.250284  0.784727  1
  Y  Y12  1  0.145428  0.250098  0.715270  1
  Tm  Tm13  1  0.303399  0.434047  0.941235  1
  Tm  Tm14  1  0.802927  0.065848  0.558999  1
  Tm  Tm15  1  0.696602  0.934218  0.058656  1
  Sc  Sc16  1  0.025379  0.750469  0.988065  1
  Sc  Sc17  1  0.526367  0.750143  0.511984  1
  Sc  Sc18  1  0.974519  0.250526  0.011921  1
  Sc  Sc19  1  0.474852  0.249659  0.488067  1
  Bi  Bi20  1  0.434764  0.003834  0.668216  1
  Bi  Bi21  1  0.934544  0.496346  0.832002  1
  Bi  Bi22  1  0.566126  0.503975  0.331571  1
  Bi  Bi23  1  0.065288  0.996461  0.168040  1
  Bi  Bi24  1  0.566487  0.996215  0.331997  1
  Bi  Bi25  1  0.066238  0.504228  0.167707  1
  Bi  Bi26  1  0.433809  0.496200  0.668381  1
  Bi  Bi27  1  0.933492  0.004272  0.832151  1
  Bi  Bi28  1  0.403862  0.748116  0.957410  1
  Bi  Bi29  1  0.903664  0.752323  0.542634  1
  Bi  Bi30  1  0.596139  0.248157  0.042384  1
  Bi  Bi31  1  0.095045  0.249430  0.458002  1
