# generated using pymatgen
data_Na4ErAuO6
_symmetry_space_group_name_H-M   'P 1'
_cell_length_a   5.69603834
_cell_length_b   5.69603921
_cell_length_c   5.85035947
_cell_angle_alpha   99.30203648
_cell_angle_beta   99.30203905
_cell_angle_gamma   120.00490883
_symmetry_Int_Tables_number   1
_chemical_formula_structural   Na4ErAuO6
_chemical_formula_sum   'Na4 Er1 Au1 O6'
_cell_volume   155.54803572
_cell_formula_units_Z   1
loop_
 _symmetry_equiv_pos_site_id
 _symmetry_equiv_pos_as_xyz
  1  'x, y, z'
loop_
 _atom_site_type_symbol
 _atom_site_label
 _atom_site_symmetry_multiplicity
 _atom_site_fract_x
 _atom_site_fract_y
 _atom_site_fract_z
 _atom_site_occupancy
  Na  Na0  1  0.501478  0.498521  0.000000  1
  Na  Na1  1  0.982076  0.017922  0.499998  1
  Na  Na2  1  0.665217  0.334783  0.500000  1
  Na  Na3  1  0.343482  0.656517  0.500000  1
  Er  Er4  1  0.167170  0.832828  0.000000  1
  Au  Au5  1  0.834063  0.165936  0.000000  1
  O  O6  1  0.923826  0.545865  0.217667  1
  O  O7  1  0.198651  0.219820  0.218361  1
  O  O8  1  0.593343  0.943625  0.211557  1
  O  O9  1  0.056375  0.406656  0.788443  1
  O  O10  1  0.780183  0.801351  0.781641  1
  O  O11  1  0.454136  0.076176  0.782333  1
