# generated using pymatgen
data_Dy8Lu4InCo4Au
_symmetry_space_group_name_H-M   'P 1'
_cell_length_a   8.28279496
_cell_length_b   8.28279371
_cell_length_c   8.28279549
_cell_angle_alpha   111.33568110
_cell_angle_beta   110.36391199
_cell_angle_gamma   106.74944677
_symmetry_Int_Tables_number   1
_chemical_formula_structural   Dy8Lu4InCo4Au
_chemical_formula_sum   'Dy8 Lu4 In1 Co4 Au1'
_cell_volume   436.66128016
_cell_formula_units_Z   1
loop_
 _symmetry_equiv_pos_site_id
 _symmetry_equiv_pos_as_xyz
  1  'x, y, z'
loop_
 _atom_site_type_symbol
 _atom_site_label
 _atom_site_symmetry_multiplicity
 _atom_site_fract_x
 _atom_site_fract_y
 _atom_site_fract_z
 _atom_site_occupancy
  Dy  Dy0  1  0.427804  0.223753  0.204051  1
  Dy  Dy1  1  0.572196  0.776247  0.795949  1
  Dy  Dy2  1  0.019702  0.223753  0.795949  1
  Dy  Dy3  1  0.980298  0.776247  0.204051  1
  Dy  Dy4  1  0.186382  0.289239  0.475622  1
  Dy  Dy5  1  0.813618  0.710761  0.524378  1
  Dy  Dy6  1  0.186382  0.710761  0.897144  1
  Dy  Dy7  1  0.813618  0.289239  0.102856  1
  Lu  Lu8  1  0.317994  0.624828  0.306832  1
  Lu  Lu9  1  0.682006  0.375172  0.693168  1
  Lu  Lu10  1  0.317994  0.011161  0.693168  1
  Lu  Lu11  1  0.682006  0.988839  0.306832  1
  In  In12  1  0.500000  0.500000  0.000000  1
  Co  Co13  1  0.377312  0.000000  0.377312  1
  Co  Co14  1  0.622688  0.000000  0.622688  1
  Co  Co15  1  0.113482  0.613482  0.500000  1
  Co  Co16  1  0.886518  0.386518  0.500000  1
  Au  Au17  1  0.000000  0.000000  0.000000  1
