# generated using pymatgen
data_Hf8In4FeCu6Pt
_symmetry_space_group_name_H-M   'P 1'
_cell_length_a   7.24998924
_cell_length_b   7.23487285
_cell_length_c   6.79334491
_cell_angle_alpha   89.89338134
_cell_angle_beta   90.12551056
_cell_angle_gamma   89.73165951
_symmetry_Int_Tables_number   1
_chemical_formula_structural   Hf8In4FeCu6Pt
_chemical_formula_sum   'Hf8 In4 Fe1 Cu6 Pt1'
_cell_volume   356.32423757
_cell_formula_units_Z   1
loop_
 _symmetry_equiv_pos_site_id
 _symmetry_equiv_pos_as_xyz
  1  'x, y, z'
loop_
 _atom_site_type_symbol
 _atom_site_label
 _atom_site_symmetry_multiplicity
 _atom_site_fract_x
 _atom_site_fract_y
 _atom_site_fract_z
 _atom_site_occupancy
  Hf  Hf0  1  0.140120  0.154953  0.988926  1
  Hf  Hf1  1  0.846082  0.861506  0.985990  1
  Hf  Hf2  1  0.660608  0.337189  0.507345  1
  Hf  Hf3  1  0.353277  0.643048  0.493704  1
  Hf  Hf4  1  0.695654  0.303430  0.994664  1
  Hf  Hf5  1  0.308819  0.689065  0.001702  1
  Hf  Hf6  1  0.811874  0.825124  0.508723  1
  Hf  Hf7  1  0.176777  0.189415  0.506277  1
  In  In8  1  0.497855  0.994097  0.251446  1
  In  In9  1  0.497021  0.998914  0.745826  1
  In  In10  1  0.992829  0.506605  0.250494  1
  In  In11  1  0.999068  0.502475  0.746562  1
  Fe  Fe12  1  0.877342  0.120419  0.727970  1
  Cu  Cu13  1  0.622624  0.622515  0.791617  1
  Cu  Cu14  1  0.633925  0.630108  0.204447  1
  Cu  Cu15  1  0.877141  0.122583  0.292839  1
  Cu  Cu16  1  0.377331  0.377257  0.793732  1
  Cu  Cu17  1  0.123650  0.876000  0.290810  1
  Cu  Cu18  1  0.130757  0.870416  0.702860  1
  Pt  Pt19  1  0.377245  0.374881  0.214065  1
