# generated using pymatgen
data_Th3IrAu5
_symmetry_space_group_name_H-M   'P 1'
_cell_length_a   7.91512400
_cell_length_b   7.91512360
_cell_length_c   3.81582700
_cell_angle_alpha   90.00000000
_cell_angle_beta   90.00000000
_cell_angle_gamma   120.00000890
_symmetry_Int_Tables_number   1
_chemical_formula_structural   Th3IrAu5
_chemical_formula_sum   'Th3 Ir1 Au5'
_cell_volume   207.03067288
_cell_formula_units_Z   1
loop_
 _symmetry_equiv_pos_site_id
 _symmetry_equiv_pos_as_xyz
  1  'x, y, z'
loop_
 _atom_site_type_symbol
 _atom_site_label
 _atom_site_symmetry_multiplicity
 _atom_site_fract_x
 _atom_site_fract_y
 _atom_site_fract_z
 _atom_site_occupancy
  Th  Th0  1  0.406459  0.021507  0.500000  1
  Th  Th1  1  0.978493  0.384952  0.500000  1
  Th  Th2  1  0.615048  0.593541  0.500000  1
  Ir  Ir3  1  0.666667  0.333333  0.000000  1
  Au  Au4  1  0.721926  0.994033  0.000000  1
  Au  Au5  1  0.005967  0.727893  0.000000  1
  Au  Au6  1  0.272107  0.278074  0.000000  1
  Au  Au7  1  0.333333  0.666667  0.000000  1
  Au  Au8  1  0.000000  0.000000  0.500000  1
