# generated using pymatgen
data_CaLa3PrCdPd4
_symmetry_space_group_name_H-M   'P 1'
_cell_length_a   8.12255179
_cell_length_b   8.10688885
_cell_length_c   3.97969000
_cell_angle_alpha   90.00000000
_cell_angle_beta   90.00000000
_cell_angle_gamma   89.69991870
_symmetry_Int_Tables_number   1
_chemical_formula_structural   CaLa3PrCdPd4
_chemical_formula_sum   'Ca1 La3 Pr1 Cd1 Pd4'
_cell_volume   262.05351868
_cell_formula_units_Z   1
loop_
 _symmetry_equiv_pos_site_id
 _symmetry_equiv_pos_as_xyz
  1  'x, y, z'
loop_
 _atom_site_type_symbol
 _atom_site_label
 _atom_site_symmetry_multiplicity
 _atom_site_fract_x
 _atom_site_fract_y
 _atom_site_fract_z
 _atom_site_occupancy
  Ca  Ca0  1  0.999167  0.000484  0.000000  1
  La  La1  1  0.353927  0.815286  0.500000  1
  La  La2  1  0.814431  0.646134  0.500000  1
  La  La3  1  0.185721  0.353319  0.500000  1
  Pr  Pr4  1  0.646589  0.185505  0.500000  1
  Cd  Cd5  1  0.500427  0.499145  0.000000  1
  Pd  Pd6  1  0.362301  0.122653  0.000000  1
  Pd  Pd7  1  0.877372  0.363080  0.000000  1
  Pd  Pd8  1  0.122992  0.637286  0.000000  1
  Pd  Pd9  1  0.637072  0.877108  0.000000  1
