# generated using pymatgen
data_Ho2HfVF14
_symmetry_space_group_name_H-M   'P 1'
_cell_length_a   5.59112500
_cell_length_b   8.90242874
_cell_length_c   11.94361656
_cell_angle_alpha   63.37020554
_cell_angle_beta   90.00000000
_cell_angle_gamma   90.00000000
_symmetry_Int_Tables_number   1
_chemical_formula_structural   Ho2HfVF14
_chemical_formula_sum   'Ho4 Hf2 V2 F28'
_cell_volume   531.42604370
_cell_formula_units_Z   2
loop_
 _symmetry_equiv_pos_site_id
 _symmetry_equiv_pos_as_xyz
  1  'x, y, z'
loop_
 _atom_site_type_symbol
 _atom_site_label
 _atom_site_symmetry_multiplicity
 _atom_site_fract_x
 _atom_site_fract_y
 _atom_site_fract_z
 _atom_site_occupancy
  Ho  Ho0  1  0.756285  0.812240  0.762208  1
  Ho  Ho1  1  0.256285  0.187760  0.737792  1
  Ho  Ho2  1  0.242212  0.191428  0.223420  1
  Ho  Ho3  1  0.742212  0.808572  0.276580  1
  Hf  Hf4  1  0.245445  0.730028  0.042722  1
  Hf  Hf5  1  0.745445  0.269972  0.457278  1
  V  V6  1  0.754228  0.276561  0.952418  1
  V  V7  1  0.254228  0.723439  0.547582  1
  F  F8  1  0.457508  0.708488  0.916272  1
  F  F9  1  0.957508  0.291512  0.583728  1
  F  F10  1  0.543895  0.292992  0.072059  1
  F  F11  1  0.043895  0.707008  0.427941  1
  F  F12  1  0.447269  0.279012  0.549187  1
  F  F13  1  0.947269  0.720988  0.950813  1
  F  F14  1  0.531963  0.716186  0.454558  1
  F  F15  1  0.031963  0.283814  0.045442  1
  F  F16  1  0.769522  0.507538  0.863945  1
  F  F17  1  0.269522  0.492462  0.636055  1
  F  F18  1  0.231698  0.479473  0.142237  1
  F  F19  1  0.731698  0.520527  0.357763  1
  F  F20  1  0.755661  0.049137  0.042381  1
  F  F21  1  0.255661  0.950863  0.457619  1
  F  F22  1  0.242730  0.980139  0.944116  1
  F  F23  1  0.742730  0.019861  0.555884  1
  F  F24  1  0.989552  0.724653  0.647000  1
  F  F25  1  0.489552  0.275347  0.853000  1
  F  F26  1  0.029578  0.260689  0.357374  1
  F  F27  1  0.529578  0.739311  0.142626  1
  F  F28  1  0.038514  0.755398  0.172263  1
  F  F29  1  0.538514  0.244602  0.327737  1
  F  F30  1  0.960230  0.259856  0.830248  1
  F  F31  1  0.460230  0.740144  0.669752  1
  F  F32  1  0.428704  0.973710  0.232718  1
  F  F33  1  0.928704  0.026290  0.267282  1
  F  F34  1  0.575008  0.026566  0.765481  1
  F  F35  1  0.075008  0.973434  0.734519  1
