# generated using pymatgen
data_Tm20(RuRh3)3
_symmetry_space_group_name_H-M   'P 1'
_cell_length_a   10.72301300
_cell_length_b   10.72301300
_cell_length_c   6.31971700
_cell_angle_alpha   90.00000000
_cell_angle_beta   90.00000000
_cell_angle_gamma   90.00000000
_symmetry_Int_Tables_number   1
_chemical_formula_structural   Tm20(RuRh3)3
_chemical_formula_sum   'Tm20 Ru3 Rh9'
_cell_volume   726.66006909
_cell_formula_units_Z   1
loop_
 _symmetry_equiv_pos_site_id
 _symmetry_equiv_pos_as_xyz
  1  'x, y, z'
loop_
 _atom_site_type_symbol
 _atom_site_label
 _atom_site_symmetry_multiplicity
 _atom_site_fract_x
 _atom_site_fract_y
 _atom_site_fract_z
 _atom_site_occupancy
  Tm  Tm0  1  0.294405  0.086285  0.376296  1
  Tm  Tm1  1  0.294427  0.913902  0.876359  1
  Tm  Tm2  1  0.705573  0.086098  0.876359  1
  Tm  Tm3  1  0.705595  0.913715  0.376296  1
  Tm  Tm4  1  0.586098  0.794427  0.876359  1
  Tm  Tm5  1  0.586285  0.205595  0.376296  1
  Tm  Tm6  1  0.413715  0.794405  0.376296  1
  Tm  Tm7  1  0.413902  0.205573  0.876359  1
  Tm  Tm8  1  0.207878  0.412821  0.625911  1
  Tm  Tm9  1  0.207576  0.587174  0.120736  1
  Tm  Tm10  1  0.792424  0.412826  0.120736  1
  Tm  Tm11  1  0.792122  0.587179  0.625911  1
  Tm  Tm12  1  0.912826  0.707576  0.120736  1
  Tm  Tm13  1  0.912821  0.292122  0.625911  1
  Tm  Tm14  1  0.087179  0.707878  0.625911  1
  Tm  Tm15  1  0.087174  0.292424  0.120736  1
  Tm  Tm16  1  0.000000  0.000000  0.499502  1
  Tm  Tm17  1  0.000000  0.000000  0.999796  1
  Tm  Tm18  1  0.500000  0.500000  0.999796  1
  Tm  Tm19  1  0.500000  0.500000  0.499502  1
  Ru  Ru20  1  0.500000  0.000000  0.123336  1
  Ru  Ru21  1  0.500000  0.000000  0.623302  1
  Ru  Ru22  1  0.000000  0.500000  0.877280  1
  Rh  Rh23  1  0.847925  0.153372  0.250645  1
  Rh  Rh24  1  0.847550  0.846730  0.749872  1
  Rh  Rh25  1  0.152450  0.153270  0.749872  1
  Rh  Rh26  1  0.152075  0.846628  0.250645  1
  Rh  Rh27  1  0.653270  0.347550  0.749872  1
  Rh  Rh28  1  0.653372  0.652075  0.250645  1
  Rh  Rh29  1  0.346628  0.347925  0.250645  1
  Rh  Rh30  1  0.346730  0.652450  0.749872  1
  Rh  Rh31  1  0.000000  0.500000  0.378205  1
