# generated using pymatgen
data_Er9Sc(GaSb)3
_symmetry_space_group_name_H-M   'P 1'
_cell_length_a   8.66290181
_cell_length_b   8.67437358
_cell_length_c   6.35496782
_cell_angle_alpha   89.90987649
_cell_angle_beta   89.99329062
_cell_angle_gamma   120.00529815
_symmetry_Int_Tables_number   1
_chemical_formula_structural   Er9Sc(GaSb)3
_chemical_formula_sum   'Er9 Sc1 Ga3 Sb3'
_cell_volume   413.54382329
_cell_formula_units_Z   1
loop_
 _symmetry_equiv_pos_site_id
 _symmetry_equiv_pos_as_xyz
  1  'x, y, z'
loop_
 _atom_site_type_symbol
 _atom_site_label
 _atom_site_symmetry_multiplicity
 _atom_site_fract_x
 _atom_site_fract_y
 _atom_site_fract_z
 _atom_site_occupancy
  Er  Er0  1  0.326811  0.666870  0.004393  1
  Er  Er1  1  0.660344  0.333195  0.496869  1
  Er  Er2  1  0.659762  0.333029  0.003260  1
  Er  Er3  1  0.234435  0.999027  0.251566  1
  Er  Er4  1  0.242124  0.230402  0.749147  1
  Er  Er5  1  0.012314  0.769459  0.748167  1
  Er  Er6  1  0.013414  0.248822  0.251338  1
  Er  Er7  1  0.764457  0.751904  0.250600  1
  Er  Er8  1  0.755101  0.000144  0.749179  1
  Sc  Sc9  1  0.326937  0.666575  0.496639  1
  Ga  Ga10  1  0.000924  0.603071  0.253585  1
  Ga  Ga11  1  0.395807  0.399408  0.252443  1
  Ga  Ga12  1  0.398161  0.998057  0.747591  1
  Sb  Sb13  1  0.606686  0.996373  0.255175  1
  Sb  Sb14  1  0.601274  0.607700  0.745447  1
  Sb  Sb15  1  0.001446  0.395963  0.744600  1
