# generated using pymatgen
data_TbYb(DyOs4)2
_symmetry_space_group_name_H-M   'P 1'
_cell_length_a   5.33450400
_cell_length_b   5.33450265
_cell_length_c   8.78723300
_cell_angle_alpha   90.00000000
_cell_angle_beta   90.00000000
_cell_angle_gamma   119.99999596
_symmetry_Int_Tables_number   1
_chemical_formula_structural   TbYb(DyOs4)2
_chemical_formula_sum   'Tb1 Yb1 Dy2 Os8'
_cell_volume   216.55627472
_cell_formula_units_Z   1
loop_
 _symmetry_equiv_pos_site_id
 _symmetry_equiv_pos_as_xyz
  1  'x, y, z'
loop_
 _atom_site_type_symbol
 _atom_site_label
 _atom_site_symmetry_multiplicity
 _atom_site_fract_x
 _atom_site_fract_y
 _atom_site_fract_z
 _atom_site_occupancy
  Tb  Tb0  1  0.666667  0.333333  0.939731  1
  Yb  Yb1  1  0.333333  0.666667  0.062248  1
  Dy  Dy2  1  0.333333  0.666667  0.429168  1
  Dy  Dy3  1  0.666667  0.333333  0.566406  1
  Os  Os4  1  0.000000  0.000000  0.500830  1
  Os  Os5  1  0.000000  0.000000  0.000891  1
  Os  Os6  1  0.828089  0.171911  0.250597  1
  Os  Os7  1  0.828089  0.656178  0.250597  1
  Os  Os8  1  0.343822  0.171911  0.250597  1
  Os  Os9  1  0.172854  0.827146  0.749645  1
  Os  Os10  1  0.172854  0.345708  0.749645  1
  Os  Os11  1  0.654292  0.827146  0.749645  1
