# generated using pymatgen
data_Li6Sc12TcPt5
_symmetry_space_group_name_H-M   'P 1'
_cell_length_a   4.69358300
_cell_length_b   6.69140200
_cell_length_c   13.80074400
_cell_angle_alpha   89.99969226
_cell_angle_beta   90.00081800
_cell_angle_gamma   89.99994990
_symmetry_Int_Tables_number   1
_chemical_formula_structural   Li6Sc12TcPt5
_chemical_formula_sum   'Li6 Sc12 Tc1 Pt5'
_cell_volume   433.43514582
_cell_formula_units_Z   1
loop_
 _symmetry_equiv_pos_site_id
 _symmetry_equiv_pos_as_xyz
  1  'x, y, z'
loop_
 _atom_site_type_symbol
 _atom_site_label
 _atom_site_symmetry_multiplicity
 _atom_site_fract_x
 _atom_site_fract_y
 _atom_site_fract_z
 _atom_site_occupancy
  Li  Li0  1  0.000012  0.500010  0.001160  1
  Li  Li1  1  0.499904  0.999997  0.166114  1
  Li  Li2  1  0.999893  0.499993  0.333319  1
  Li  Li3  1  0.500000  0.000000  0.500574  1
  Li  Li4  1  0.000103  0.500007  0.665515  1
  Li  Li5  1  0.500102  0.999977  0.833365  1
  Sc  Sc6  1  0.500003  0.255050  0.997715  1
  Sc  Sc7  1  0.500003  0.744943  0.997707  1
  Sc  Sc8  1  0.999875  0.248213  0.166649  1
  Sc  Sc9  1  0.999871  0.751784  0.166638  1
  Sc  Sc10  1  0.499888  0.252107  0.333257  1
  Sc  Sc11  1  0.499886  0.747887  0.333256  1
  Sc  Sc12  1  0.999999  0.248278  0.499896  1
  Sc  Sc13  1  0.999996  0.751718  0.499906  1
  Sc  Sc14  1  0.500122  0.255043  0.669004  1
  Sc  Sc15  1  0.500117  0.744954  0.669019  1
  Sc  Sc16  1  0.000133  0.255355  0.833394  1
  Sc  Sc17  1  0.000135  0.744633  0.833393  1
  Tc  Tc18  1  0.500205  0.500048  0.833370  1
  Pt  Pt19  1  0.999992  0.000008  0.002549  1
  Pt  Pt20  1  0.499828  0.499996  0.168336  1
  Pt  Pt21  1  0.999846  0.999993  0.333347  1
  Pt  Pt22  1  0.499994  0.500007  0.498366  1
  Pt  Pt23  1  0.000094  0.000002  0.664149  1
