# generated using pymatgen
data_MnAlNi4(BO5)2
_symmetry_space_group_name_H-M   'P 1'
_cell_length_a   2.95891500
_cell_length_b   9.26597590
_cell_length_c   12.37632516
_cell_angle_alpha   90.88548580
_cell_angle_beta   90.00000000
_cell_angle_gamma   90.00000000
_symmetry_Int_Tables_number   1
_chemical_formula_structural   MnAlNi4(BO5)2
_chemical_formula_sum   'Mn2 Al2 Ni8 B4 O20'
_cell_volume   339.28409395
_cell_formula_units_Z   2
loop_
 _symmetry_equiv_pos_site_id
 _symmetry_equiv_pos_as_xyz
  1  'x, y, z'
loop_
 _atom_site_type_symbol
 _atom_site_label
 _atom_site_symmetry_multiplicity
 _atom_site_fract_x
 _atom_site_fract_y
 _atom_site_fract_z
 _atom_site_occupancy
  Mn  Mn0  1  0.000000  0.240431  0.384121  1
  Mn  Mn1  1  0.000000  0.759569  0.615879  1
  Al  Al2  1  0.000000  0.260520  0.886627  1
  Al  Al3  1  0.000000  0.739480  0.113373  1
  Ni  Ni4  1  0.500000  0.000000  0.500000  1
  Ni  Ni5  1  0.500000  0.500000  0.000000  1
  Ni  Ni6  1  0.500000  0.998361  0.215593  1
  Ni  Ni7  1  0.500000  0.001639  0.784407  1
  Ni  Ni8  1  0.500000  0.496741  0.723944  1
  Ni  Ni9  1  0.500000  0.503259  0.276056  1
  Ni  Ni10  1  0.000000  0.000000  0.000000  1
  Ni  Ni11  1  0.000000  0.500000  0.500000  1
  B  B12  1  0.000000  0.274213  0.134919  1
  B  B13  1  0.000000  0.725787  0.865081  1
  B  B14  1  0.000000  0.226637  0.643606  1
  B  B15  1  0.000000  0.773363  0.356394  1
  O  O16  1  0.500000  0.108285  0.355964  1
  O  O17  1  0.500000  0.891715  0.644036  1
  O  O18  1  0.500000  0.381876  0.858628  1
  O  O19  1  0.500000  0.618124  0.141372  1
  O  O20  1  0.000000  0.124735  0.140045  1
  O  O21  1  0.000000  0.875265  0.859955  1
  O  O22  1  0.000000  0.376249  0.640400  1
  O  O23  1  0.000000  0.623751  0.359600  1
  O  O24  1  0.500000  0.381242  0.419865  1
  O  O25  1  0.500000  0.618758  0.580135  1
  O  O26  1  0.500000  0.123933  0.922135  1
  O  O27  1  0.500000  0.876067  0.077865  1
  O  O28  1  0.000000  0.355536  0.229163  1
  O  O29  1  0.000000  0.644464  0.770837  1
  O  O30  1  0.000000  0.159463  0.744236  1
  O  O31  1  0.000000  0.840537  0.255764  1
  O  O32  1  0.000000  0.342870  0.035102  1
  O  O33  1  0.000000  0.657130  0.964898  1
  O  O34  1  0.000000  0.145290  0.549232  1
  O  O35  1  0.000000  0.854710  0.450768  1
