# generated using pymatgen
data_Tb8YLu(SiB4)4
_symmetry_space_group_name_H-M   'P 1'
_cell_length_a   7.24057000
_cell_length_b   7.24057000
_cell_length_c   8.10649500
_cell_angle_alpha   90.00000000
_cell_angle_beta   90.00000000
_cell_angle_gamma   90.00000000
_symmetry_Int_Tables_number   1
_chemical_formula_structural   Tb8YLu(SiB4)4
_chemical_formula_sum   'Tb8 Y1 Lu1 Si4 B16'
_cell_volume   424.98992271
_cell_formula_units_Z   1
loop_
 _symmetry_equiv_pos_site_id
 _symmetry_equiv_pos_as_xyz
  1  'x, y, z'
loop_
 _atom_site_type_symbol
 _atom_site_label
 _atom_site_symmetry_multiplicity
 _atom_site_fract_x
 _atom_site_fract_y
 _atom_site_fract_z
 _atom_site_occupancy
  Tb  Tb0  1  0.680598  0.179922  0.224942  1
  Tb  Tb1  1  0.319402  0.820078  0.775058  1
  Tb  Tb2  1  0.319402  0.820078  0.224942  1
  Tb  Tb3  1  0.820078  0.680598  0.224942  1
  Tb  Tb4  1  0.820078  0.680598  0.775058  1
  Tb  Tb5  1  0.680598  0.179922  0.775058  1
  Tb  Tb6  1  0.179922  0.319402  0.775058  1
  Tb  Tb7  1  0.179922  0.319402  0.224942  1
  Y  Y8  1  0.500000  0.500000  0.500000  1
  Lu  Lu9  1  0.000000  0.000000  0.500000  1
  Si  Si10  1  0.113213  0.617310  0.500000  1
  Si  Si11  1  0.886787  0.382690  0.500000  1
  Si  Si12  1  0.382690  0.113213  0.500000  1
  Si  Si13  1  0.617310  0.886787  0.500000  1
  B  B14  1  0.172323  0.039104  0.000000  1
  B  B15  1  0.827677  0.960896  0.000000  1
  B  B16  1  0.960896  0.172323  0.000000  1
  B  B17  1  0.327695  0.539143  0.000000  1
  B  B18  1  0.039104  0.827677  0.000000  1
  B  B19  1  0.672305  0.460857  0.000000  1
  B  B20  1  0.539143  0.672305  0.000000  1
  B  B21  1  0.460857  0.327695  0.000000  1
  B  B22  1  0.089958  0.589854  0.000000  1
  B  B23  1  0.910042  0.410146  0.000000  1
  B  B24  1  0.410146  0.089958  0.000000  1
  B  B25  1  0.589854  0.910042  0.000000  1
  B  B26  1  0.000000  0.000000  0.162287  1
  B  B27  1  0.000000  0.000000  0.837713  1
  B  B28  1  0.500000  0.500000  0.838521  1
  B  B29  1  0.500000  0.500000  0.161479  1
