# generated using pymatgen
data_SmGdV2F14
_symmetry_space_group_name_H-M   'P 1'
_cell_length_a   5.56769748
_cell_length_b   8.93451778
_cell_length_c   11.92251500
_cell_angle_alpha   63.13402923
_cell_angle_beta   89.95815781
_cell_angle_gamma   89.99462243
_symmetry_Int_Tables_number   1
_chemical_formula_structural   SmGdV2F14
_chemical_formula_sum   'Sm2 Gd2 V4 F28'
_cell_volume   529.06803300
_cell_formula_units_Z   2
loop_
 _symmetry_equiv_pos_site_id
 _symmetry_equiv_pos_as_xyz
  1  'x, y, z'
loop_
 _atom_site_type_symbol
 _atom_site_label
 _atom_site_symmetry_multiplicity
 _atom_site_fract_x
 _atom_site_fract_y
 _atom_site_fract_z
 _atom_site_occupancy
  Sm  Sm0  1  0.257898  0.806748  0.269643  1
  Sm  Sm1  1  0.742102  0.193252  0.730357  1
  Gd  Gd2  1  0.758567  0.193658  0.230237  1
  Gd  Gd3  1  0.241433  0.806342  0.769763  1
  V  V4  1  0.753765  0.725847  0.043863  1
  V  V5  1  0.246235  0.274153  0.956137  1
  V  V6  1  0.254162  0.273058  0.454699  1
  V  V7  1  0.745838  0.726942  0.545301  1
  F  F8  1  0.948688  0.705576  0.425951  1
  F  F9  1  0.051312  0.294424  0.574049  1
  F  F10  1  0.447997  0.294203  0.075957  1
  F  F11  1  0.552003  0.705797  0.924043  1
  F  F12  1  0.481620  0.731385  0.137488  1
  F  F13  1  0.518380  0.268615  0.862512  1
  F  F14  1  0.981966  0.268470  0.360799  1
  F  F15  1  0.018034  0.731530  0.639201  1
  F  F16  1  0.953779  0.745222  0.166739  1
  F  F17  1  0.046221  0.254778  0.833261  1
  F  F18  1  0.454754  0.252700  0.332368  1
  F  F19  1  0.545246  0.747300  0.667632  1
  F  F20  1  0.764947  0.495955  0.136815  1
  F  F21  1  0.235053  0.504045  0.863185  1
  F  F22  1  0.264126  0.503614  0.362304  1
  F  F23  1  0.735874  0.496386  0.637696  1
  F  F24  1  0.966328  0.286673  0.044216  1
  F  F25  1  0.033672  0.713327  0.955784  1
  F  F26  1  0.466661  0.713562  0.457056  1
  F  F27  1  0.533339  0.286438  0.542944  1
  F  F28  1  0.741097  0.954904  0.455730  1
  F  F29  1  0.258903  0.045096  0.544270  1
  F  F30  1  0.242075  0.045605  0.046868  1
  F  F31  1  0.757925  0.954395  0.953132  1
  F  F32  1  0.584427  0.972684  0.230406  1
  F  F33  1  0.415573  0.027316  0.769594  1
  F  F34  1  0.081163  0.029470  0.270062  1
  F  F35  1  0.918837  0.970530  0.729938  1
