# generated using pymatgen
data_MgTa7(ReOs)4
_symmetry_space_group_name_H-M   'P 1'
_cell_length_a   6.37166900
_cell_length_b   4.50821400
_cell_length_c   9.03885700
_cell_angle_alpha   90.00000000
_cell_angle_beta   89.99938101
_cell_angle_gamma   90.00000000
_symmetry_Int_Tables_number   1
_chemical_formula_structural   MgTa7(ReOs)4
_chemical_formula_sum   'Mg1 Ta7 Re4 Os4'
_cell_volume   259.63978789
_cell_formula_units_Z   1
loop_
 _symmetry_equiv_pos_site_id
 _symmetry_equiv_pos_as_xyz
  1  'x, y, z'
loop_
 _atom_site_type_symbol
 _atom_site_label
 _atom_site_symmetry_multiplicity
 _atom_site_fract_x
 _atom_site_fract_y
 _atom_site_fract_z
 _atom_site_occupancy
  Mg  Mg0  1  0.999771  0.750001  0.124992  1
  Ta  Ta1  1  0.500031  0.750001  0.125010  1
  Ta  Ta2  1  0.000343  0.250000  0.368871  1
  Ta  Ta3  1  0.500085  0.250000  0.372959  1
  Ta  Ta4  1  0.500879  0.750001  0.625003  1
  Ta  Ta5  1  0.001132  0.750001  0.624996  1
  Ta  Ta6  1  0.500046  0.250000  0.877045  1
  Ta  Ta7  1  0.000285  0.250000  0.881099  1
  Re  Re8  1  0.745711  0.250000  0.125009  1
  Re  Re9  1  0.251660  0.750001  0.378267  1
  Re  Re10  1  0.750570  0.250000  0.625005  1
  Re  Re11  1  0.251633  0.750001  0.871725  1
  Os  Os12  1  0.250381  0.250000  0.124995  1
  Os  Os13  1  0.749313  0.750001  0.377906  1
  Os  Os14  1  0.248926  0.250000  0.624998  1
  Os  Os15  1  0.749236  0.750001  0.872118  1
