# generated using pymatgen
data_PrPRhN
_symmetry_space_group_name_H-M   'P 1'
_cell_length_a   3.92958600
_cell_length_b   3.92958600
_cell_length_c   8.19209000
_cell_angle_alpha   90.00000000
_cell_angle_beta   90.00000000
_cell_angle_gamma   90.00000000
_symmetry_Int_Tables_number   1
_chemical_formula_structural   PrPRhN
_chemical_formula_sum   'Pr2 P2 Rh2 N2'
_cell_volume   126.49935486
_cell_formula_units_Z   2
loop_
 _symmetry_equiv_pos_site_id
 _symmetry_equiv_pos_as_xyz
  1  'x, y, z'
loop_
 _atom_site_type_symbol
 _atom_site_label
 _atom_site_symmetry_multiplicity
 _atom_site_fract_x
 _atom_site_fract_y
 _atom_site_fract_z
 _atom_site_occupancy
  Pr  Pr0  1  0.500001  0.000000  0.163304  1
  Pr  Pr1  1  0.000000  0.500001  0.836696  1
  P  P2  1  0.000000  0.500001  0.339594  1
  P  P3  1  0.500001  0.000000  0.660405  1
  Rh  Rh4  1  0.000000  0.000000  0.500001  1
  Rh  Rh5  1  0.500001  0.500001  0.500001  1
  N  N6  1  0.000000  0.500001  0.133770  1
  N  N7  1  0.500001  0.000000  0.866229  1
