# generated using pymatgen
data_Th4Al4FeRu3
_symmetry_space_group_name_H-M   'P 1'
_cell_length_a   4.15844400
_cell_length_b   6.96377751
_cell_length_c   8.31022274
_cell_angle_alpha   89.64346234
_cell_angle_beta   90.00000000
_cell_angle_gamma   90.00000000
_symmetry_Int_Tables_number   1
_chemical_formula_structural   Th4Al4FeRu3
_chemical_formula_sum   'Th4 Al4 Fe1 Ru3'
_cell_volume   240.64674976
_cell_formula_units_Z   1
loop_
 _symmetry_equiv_pos_site_id
 _symmetry_equiv_pos_as_xyz
  1  'x, y, z'
loop_
 _atom_site_type_symbol
 _atom_site_label
 _atom_site_symmetry_multiplicity
 _atom_site_fract_x
 _atom_site_fract_y
 _atom_site_fract_z
 _atom_site_occupancy
  Th  Th0  1  0.250000  0.042073  0.310675  1
  Th  Th1  1  0.250000  0.530958  0.181958  1
  Th  Th2  1  0.750000  0.960981  0.679962  1
  Th  Th3  1  0.750000  0.457728  0.823159  1
  Al  Al4  1  0.250000  0.131891  0.947893  1
  Al  Al5  1  0.250000  0.627379  0.556211  1
  Al  Al6  1  0.750000  0.878171  0.055663  1
  Al  Al7  1  0.750000  0.370423  0.441633  1
  Fe  Fe8  1  0.750000  0.244078  0.128286  1
  Ru  Ru9  1  0.250000  0.255119  0.624635  1
  Ru  Ru10  1  0.250000  0.756241  0.874658  1
  Ru  Ru11  1  0.750000  0.744960  0.375266  1
