# generated using pymatgen
data_Pr3Nd9(PBr3)4
_symmetry_space_group_name_H-M   'P 1'
_cell_length_a   10.31611058
_cell_length_b   10.31731603
_cell_length_c   10.31937215
_cell_angle_alpha   109.46955983
_cell_angle_beta   109.46452989
_cell_angle_gamma   109.46907829
_symmetry_Int_Tables_number   1
_chemical_formula_structural   Pr3Nd9(PBr3)4
_chemical_formula_sum   'Pr3 Nd9 P4 Br12'
_cell_volume   845.61044256
_cell_formula_units_Z   1
loop_
 _symmetry_equiv_pos_site_id
 _symmetry_equiv_pos_as_xyz
  1  'x, y, z'
loop_
 _atom_site_type_symbol
 _atom_site_label
 _atom_site_symmetry_multiplicity
 _atom_site_fract_x
 _atom_site_fract_y
 _atom_site_fract_z
 _atom_site_occupancy
  Pr  Pr0  1  0.014013  0.486108  0.750176  1
  Pr  Pr1  1  0.263953  0.013954  0.027906  1
  Pr  Pr2  1  0.236165  0.264067  0.750176  1
  Nd  Nd3  1  0.471352  0.485375  0.236112  1
  Nd  Nd4  1  0.749249  0.235224  0.263942  1
  Nd  Nd5  1  0.750803  0.014791  0.486126  1
  Nd  Nd6  1  0.235322  0.471337  0.486128  1
  Nd  Nd7  1  0.264760  0.750740  0.236112  1
  Nd  Nd8  1  0.029219  0.264663  0.014652  1
  Nd  Nd9  1  0.014689  0.028713  0.263937  1
  Nd  Nd10  1  0.485428  0.749989  0.014651  1
  Nd  Nd11  1  0.485380  0.235377  0.470756  1
  P  P12  1  0.250118  0.250925  0.250946  1
  P  P13  1  0.500827  0.000020  0.250946  1
  P  P14  1  0.999240  0.249239  0.498478  1
  P  P15  1  0.250807  0.500807  0.001618  1
  Br  Br16  1  0.252320  0.755335  0.743651  1
  Br  Br17  1  0.511550  0.506902  0.754738  1
  Br  Br18  1  0.988340  0.744755  0.997073  1
  Br  Br19  1  0.743185  0.247834  0.754739  1
  Br  Br20  1  0.991334  0.988320  0.743652  1
  Br  Br21  1  0.249766  0.993393  0.503146  1
  Br  Br22  1  0.753381  0.509755  0.503145  1
  Br  Br23  1  0.508735  0.252319  0.997073  1
  Br  Br24  1  0.754771  0.745232  0.250043  1
  Br  Br25  1  0.745257  0.995259  0.990515  1
  Br  Br26  1  0.995274  0.504806  0.250042  1
  Br  Br27  1  0.504761  0.754761  0.509522  1
