# generated using pymatgen
data_TiBi2OsO8
_symmetry_space_group_name_H-M   'P 1'
_cell_length_a   5.47653638
_cell_length_b   7.84658354
_cell_length_c   7.65129129
_cell_angle_alpha   103.65899662
_cell_angle_beta   90.03092226
_cell_angle_gamma   90.09041775
_symmetry_Int_Tables_number   1
_chemical_formula_structural   TiBi2OsO8
_chemical_formula_sum   'Ti2 Bi4 Os2 O16'
_cell_volume   319.49273988
_cell_formula_units_Z   2
loop_
 _symmetry_equiv_pos_site_id
 _symmetry_equiv_pos_as_xyz
  1  'x, y, z'
loop_
 _atom_site_type_symbol
 _atom_site_label
 _atom_site_symmetry_multiplicity
 _atom_site_fract_x
 _atom_site_fract_y
 _atom_site_fract_z
 _atom_site_occupancy
  Ti  Ti0  1  0.751955  0.853369  0.706442  1
  Ti  Ti1  1  0.252536  0.146701  0.793135  1
  Bi  Bi2  1  0.298860  0.616282  0.416878  1
  Bi  Bi3  1  0.219677  0.669328  0.887021  1
  Bi  Bi4  1  0.720296  0.331423  0.613952  1
  Bi  Bi5  1  0.799848  0.383874  0.084420  1
  Os  Os6  1  0.746261  0.833147  0.206523  1
  Os  Os7  1  0.247427  0.166855  0.293073  1
  O  O8  1  0.479031  0.985870  0.212578  1
  O  O9  1  0.520309  0.588171  0.667868  1
  O  O10  1  0.044066  0.368475  0.376122  1
  O  O11  1  0.664867  0.819752  0.449649  1
  O  O12  1  0.327243  0.168737  0.543631  1
  O  O13  1  0.825521  0.831110  0.956036  1
  O  O14  1  0.022237  0.411601  0.833047  1
  O  O15  1  0.522615  0.308552  0.862303  1
  O  O16  1  0.420948  0.942793  0.779587  1
  O  O17  1  0.921324  0.057044  0.719133  1
  O  O18  1  0.504319  0.340343  0.307967  1
  O  O19  1  0.165073  0.180361  0.050006  1
  O  O20  1  0.003177  0.660110  0.192344  1
  O  O21  1  0.979013  0.014186  0.286648  1
  O  O22  1  0.020711  0.690639  0.637904  1
  O  O23  1  0.542686  0.631279  0.123734  1
