# generated using pymatgen
data_Ce7Th5(TcGe)8
_symmetry_space_group_name_H-M   'P 1'
_cell_length_a   5.76167442
_cell_length_b   8.09675809
_cell_length_c   13.31209934
_cell_angle_alpha   89.91202133
_cell_angle_beta   89.92132303
_cell_angle_gamma   90.12188424
_symmetry_Int_Tables_number   1
_chemical_formula_structural   Ce7Th5(TcGe)8
_chemical_formula_sum   'Ce7 Th5 Tc8 Ge8'
_cell_volume   621.01847651
_cell_formula_units_Z   1
loop_
 _symmetry_equiv_pos_site_id
 _symmetry_equiv_pos_as_xyz
  1  'x, y, z'
loop_
 _atom_site_type_symbol
 _atom_site_label
 _atom_site_symmetry_multiplicity
 _atom_site_fract_x
 _atom_site_fract_y
 _atom_site_fract_z
 _atom_site_occupancy
  Ce  Ce0  1  0.165111  0.095335  0.592111  1
  Ce  Ce1  1  0.837128  0.905089  0.089188  1
  Ce  Ce2  1  0.836794  0.594486  0.909668  1
  Ce  Ce3  1  0.836855  0.591771  0.593615  1
  Ce  Ce4  1  0.837696  0.905231  0.410032  1
  Ce  Ce5  1  0.162826  0.093252  0.909004  1
  Ce  Ce6  1  0.163425  0.406429  0.091469  1
  Th  Th7  1  0.383665  0.729002  0.750939  1
  Th  Th8  1  0.382598  0.771567  0.249234  1
  Th  Th9  1  0.615100  0.229640  0.750365  1
  Th  Th10  1  0.615789  0.268172  0.248130  1
  Th  Th11  1  0.162993  0.408872  0.402069  1
  Tc  Tc12  1  0.342227  0.037908  0.412826  1
  Tc  Tc13  1  0.351678  0.464200  0.594456  1
  Tc  Tc14  1  0.659611  0.537580  0.085210  1
  Tc  Tc15  1  0.658575  0.962742  0.913385  1
  Tc  Tc16  1  0.341681  0.037305  0.085868  1
  Tc  Tc17  1  0.339422  0.461585  0.915303  1
  Tc  Tc18  1  0.657806  0.536771  0.411910  1
  Tc  Tc19  1  0.658858  0.964102  0.585771  1
  Ge  Ge20  1  0.627555  0.251044  0.500416  1
  Ge  Ge21  1  0.369810  0.750224  0.999901  1
  Ge  Ge22  1  0.371687  0.749319  0.500734  1
  Ge  Ge23  1  0.629433  0.249417  0.999564  1
  Ge  Ge24  1  0.884574  0.881513  0.749699  1
  Ge  Ge25  1  0.880570  0.622466  0.248042  1
  Ge  Ge26  1  0.113892  0.380612  0.752562  1
  Ge  Ge27  1  0.112641  0.114363  0.248532  1
