# generated using pymatgen
data_Tm10Sn3Bi3S2
_symmetry_space_group_name_H-M   'P 1'
_cell_length_a   8.94350600
_cell_length_b   8.94350566
_cell_length_c   6.45533900
_cell_angle_alpha   90.00000000
_cell_angle_beta   90.00000000
_cell_angle_gamma   120.00000126
_symmetry_Int_Tables_number   1
_chemical_formula_structural   Tm10Sn3Bi3S2
_chemical_formula_sum   'Tm10 Sn3 Bi3 S2'
_cell_volume   447.16239025
_cell_formula_units_Z   1
loop_
 _symmetry_equiv_pos_site_id
 _symmetry_equiv_pos_as_xyz
  1  'x, y, z'
loop_
 _atom_site_type_symbol
 _atom_site_label
 _atom_site_symmetry_multiplicity
 _atom_site_fract_x
 _atom_site_fract_y
 _atom_site_fract_z
 _atom_site_occupancy
  Tm  Tm0  1  0.666667  0.333333  0.005751  1
  Tm  Tm1  1  0.333333  0.666667  0.005751  1
  Tm  Tm2  1  0.333333  0.666667  0.494249  1
  Tm  Tm3  1  0.666667  0.333333  0.494249  1
  Tm  Tm4  1  0.754740  0.754740  0.750000  1
  Tm  Tm5  1  0.245260  0.000000  0.750000  1
  Tm  Tm6  1  0.000000  0.245260  0.750000  1
  Tm  Tm7  1  0.246070  0.246070  0.250000  1
  Tm  Tm8  1  0.753930  0.000000  0.250000  1
  Tm  Tm9  1  0.000000  0.753930  0.250000  1
  Sn  Sn10  1  0.604113  0.604113  0.250000  1
  Sn  Sn11  1  0.395887  0.000000  0.250000  1
  Sn  Sn12  1  0.000000  0.395887  0.250000  1
  Bi  Bi13  1  0.397720  0.397720  0.750000  1
  Bi  Bi14  1  0.602280  0.000000  0.750000  1
  Bi  Bi15  1  0.000000  0.602280  0.750000  1
  S  S16  1  0.000000  0.000000  0.999011  1
  S  S17  1  0.000000  0.000000  0.500989  1
