# generated using pymatgen
data_Hf16PdPt7N4
_symmetry_space_group_name_H-M   'P 1'
_cell_length_a   8.78709036
_cell_length_b   8.78709042
_cell_length_c   8.78709042
_cell_angle_alpha   59.88689470
_cell_angle_beta   59.88689428
_cell_angle_gamma   59.88689217
_symmetry_Int_Tables_number   1
_chemical_formula_structural   Hf16PdPt7N4
_chemical_formula_sum   'Hf16 Pd1 Pt7 N4'
_cell_volume   478.52469720
_cell_formula_units_Z   1
loop_
 _symmetry_equiv_pos_site_id
 _symmetry_equiv_pos_as_xyz
  1  'x, y, z'
loop_
 _atom_site_type_symbol
 _atom_site_label
 _atom_site_symmetry_multiplicity
 _atom_site_fract_x
 _atom_site_fract_y
 _atom_site_fract_z
 _atom_site_occupancy
  Hf  Hf0  1  0.125766  0.624963  0.624963  1
  Hf  Hf1  1  0.624963  0.125766  0.624963  1
  Hf  Hf2  1  0.624963  0.624963  0.125766  1
  Hf  Hf3  1  0.625098  0.625098  0.625098  1
  Hf  Hf4  1  0.817585  0.817585  0.183122  1
  Hf  Hf5  1  0.182777  0.182777  0.817491  1
  Hf  Hf6  1  0.817585  0.183122  0.817585  1
  Hf  Hf7  1  0.182777  0.817491  0.182777  1
  Hf  Hf8  1  0.183122  0.817585  0.817585  1
  Hf  Hf9  1  0.817491  0.182777  0.182777  1
  Hf  Hf10  1  0.432901  0.432901  0.067441  1
  Hf  Hf11  1  0.068105  0.068105  0.431866  1
  Hf  Hf12  1  0.432901  0.067441  0.432901  1
  Hf  Hf13  1  0.068105  0.431866  0.068105  1
  Hf  Hf14  1  0.067441  0.432901  0.432901  1
  Hf  Hf15  1  0.431866  0.068105  0.068105  1
  Pd  Pd16  1  0.842216  0.842216  0.842216  1
  Pt  Pt17  1  0.782616  0.405672  0.405672  1
  Pt  Pt18  1  0.405672  0.782616  0.405672  1
  Pt  Pt19  1  0.405672  0.405672  0.782616  1
  Pt  Pt20  1  0.405567  0.405567  0.405567  1
  Pt  Pt21  1  0.467771  0.843949  0.843949  1
  Pt  Pt22  1  0.843949  0.467771  0.843949  1
  Pt  Pt23  1  0.843949  0.843949  0.467771  1
  N  N24  1  0.624796  0.124893  0.124893  1
  N  N25  1  0.124893  0.624796  0.124893  1
  N  N26  1  0.124893  0.124893  0.624796  1
  N  N27  1  0.124561  0.124561  0.124561  1
