# generated using pymatgen
data_TbGd4ThH18
_symmetry_space_group_name_H-M   'P 1'
_cell_length_a   6.49562908
_cell_length_b   6.49597395
_cell_length_c   6.68882311
_cell_angle_alpha   90.14117244
_cell_angle_beta   89.98892287
_cell_angle_gamma   119.98441893
_symmetry_Int_Tables_number   1
_chemical_formula_structural   TbGd4ThH18
_chemical_formula_sum   'Tb1 Gd4 Th1 H18'
_cell_volume   244.46256768
_cell_formula_units_Z   1
loop_
 _symmetry_equiv_pos_site_id
 _symmetry_equiv_pos_as_xyz
  1  'x, y, z'
loop_
 _atom_site_type_symbol
 _atom_site_label
 _atom_site_symmetry_multiplicity
 _atom_site_fract_x
 _atom_site_fract_y
 _atom_site_fract_z
 _atom_site_occupancy
  Tb  Tb0  1  0.999756  0.334083  0.249979  1
  Gd  Gd1  1  0.665579  0.665785  0.250016  1
  Gd  Gd2  1  0.669392  0.000377  0.749971  1
  Gd  Gd3  1  0.996048  0.661202  0.750527  1
  Gd  Gd4  1  0.334171  0.338511  0.749478  1
  Th  Th5  1  0.333171  0.999963  0.250009  1
  H  H6  1  0.992856  0.001639  0.249955  1
  H  H7  1  0.003210  0.999797  0.749993  1
  H  H8  1  0.331313  0.658769  0.205954  1
  H  H9  1  0.674282  0.339403  0.294122  1
  H  H10  1  0.663384  0.330546  0.801310  1
  H  H11  1  0.333366  0.669752  0.698683  1
  H  H12  1  0.342164  0.325782  0.092004  1
  H  H13  1  0.672354  0.018593  0.095268  1
  H  H14  1  0.991294  0.665965  0.097375  1
  H  H15  1  0.016716  0.673565  0.407737  1
  H  H16  1  0.654044  0.982816  0.405211  1
  H  H17  1  0.323876  0.333618  0.402387  1
  H  H18  1  0.655835  0.675221  0.908248  1
  H  H19  1  0.324774  0.976159  0.904861  1
  H  H20  1  0.018774  0.344786  0.909451  1
  H  H21  1  0.981067  0.324904  0.590546  1
  H  H22  1  0.348525  0.023882  0.595152  1
  H  H23  1  0.674050  0.654880  0.591763  1
