# generated using pymatgen
data_Tb18InHgIr12
_symmetry_space_group_name_H-M   'P 1'
_cell_length_a   10.88178200
_cell_length_b   10.88178200
_cell_length_c   6.31524800
_cell_angle_alpha   90.00000000
_cell_angle_beta   90.00000000
_cell_angle_gamma   90.00000000
_symmetry_Int_Tables_number   1
_chemical_formula_structural   Tb18InHgIr12
_chemical_formula_sum   'Tb18 In1 Hg1 Ir12'
_cell_volume   747.80859498
_cell_formula_units_Z   1
loop_
 _symmetry_equiv_pos_site_id
 _symmetry_equiv_pos_as_xyz
  1  'x, y, z'
loop_
 _atom_site_type_symbol
 _atom_site_label
 _atom_site_symmetry_multiplicity
 _atom_site_fract_x
 _atom_site_fract_y
 _atom_site_fract_z
 _atom_site_occupancy
  Tb  Tb0  1  0.284032  0.086070  0.381952  1
  Tb  Tb1  1  0.292611  0.913121  0.878414  1
  Tb  Tb2  1  0.707389  0.086879  0.878414  1
  Tb  Tb3  1  0.715968  0.913930  0.381952  1
  Tb  Tb4  1  0.583986  0.780467  0.881770  1
  Tb  Tb5  1  0.588743  0.206588  0.378074  1
  Tb  Tb6  1  0.411257  0.793412  0.378074  1
  Tb  Tb7  1  0.416014  0.219533  0.881770  1
  Tb  Tb8  1  0.206588  0.411257  0.621926  1
  Tb  Tb9  1  0.219533  0.583986  0.118230  1
  Tb  Tb10  1  0.780467  0.416014  0.118230  1
  Tb  Tb11  1  0.793412  0.588743  0.621926  1
  Tb  Tb12  1  0.913121  0.707389  0.121586  1
  Tb  Tb13  1  0.913930  0.284032  0.618048  1
  Tb  Tb14  1  0.086070  0.715968  0.618048  1
  Tb  Tb15  1  0.086879  0.292611  0.121586  1
  Tb  Tb16  1  0.000000  0.000000  0.000000  1
  Tb  Tb17  1  0.500000  0.500000  0.500000  1
  In  In18  1  0.000000  0.000000  0.500000  1
  Hg  Hg19  1  0.500000  0.500000  0.000000  1
  Ir  Ir20  1  0.846978  0.158600  0.239433  1
  Ir  Ir21  1  0.841400  0.846978  0.760567  1
  Ir  Ir22  1  0.158600  0.153022  0.760567  1
  Ir  Ir23  1  0.153022  0.841400  0.239433  1
  Ir  Ir24  1  0.661442  0.343611  0.734356  1
  Ir  Ir25  1  0.656389  0.661442  0.265644  1
  Ir  Ir26  1  0.343611  0.338558  0.265644  1
  Ir  Ir27  1  0.338558  0.656389  0.734356  1
  Ir  Ir28  1  0.500000  0.000000  0.119929  1
  Ir  Ir29  1  0.500000  0.000000  0.622316  1
  Ir  Ir30  1  0.000000  0.500000  0.880071  1
  Ir  Ir31  1  0.000000  0.500000  0.377684  1
