# generated using pymatgen
data_TbTm3TcRu7
_symmetry_space_group_name_H-M   'P 1'
_cell_length_a   5.19417619
_cell_length_b   5.36206889
_cell_length_c   8.95970100
_cell_angle_alpha   90.00000093
_cell_angle_beta   90.00303614
_cell_angle_gamma   121.07513940
_symmetry_Int_Tables_number   1
_chemical_formula_structural   TbTm3TcRu7
_chemical_formula_sum   'Tb1 Tm3 Tc1 Ru7'
_cell_volume   213.72998279
_cell_formula_units_Z   1
loop_
 _symmetry_equiv_pos_site_id
 _symmetry_equiv_pos_as_xyz
  1  'x, y, z'
loop_
 _atom_site_type_symbol
 _atom_site_label
 _atom_site_symmetry_multiplicity
 _atom_site_fract_x
 _atom_site_fract_y
 _atom_site_fract_z
 _atom_site_occupancy
  Tb  Tb0  1  0.327834  0.663917  0.433396  1
  Tm  Tm1  1  0.656217  0.328108  0.566963  1
  Tm  Tm2  1  0.656448  0.328224  0.934147  1
  Tm  Tm3  1  0.328750  0.664375  0.066540  1
  Tc  Tc4  1  0.683176  0.841588  0.750963  1
  Ru  Ru5  1  0.983026  0.991513  0.499732  1
  Ru  Ru6  1  0.981632  0.990816  0.000513  1
  Ru  Ru7  1  0.834424  0.167963  0.248443  1
  Ru  Ru8  1  0.834424  0.666461  0.248443  1
  Ru  Ru9  1  0.353802  0.176901  0.248586  1
  Ru  Ru10  1  0.180132  0.827334  0.751136  1
  Ru  Ru11  1  0.180132  0.352799  0.751136  1
