# generated using pymatgen
data_Nd10OsRuRh2
_symmetry_space_group_name_H-M   'P 1'
_cell_length_a   8.98548916
_cell_length_b   9.00107190
_cell_length_c   7.37358487
_cell_angle_alpha   83.57857186
_cell_angle_beta   83.57431777
_cell_angle_gamma   43.14261249
_symmetry_Int_Tables_number   1
_chemical_formula_structural   Nd10OsRuRh2
_chemical_formula_sum   'Nd10 Os1 Ru1 Rh2'
_cell_volume   404.84480860
_cell_formula_units_Z   1
loop_
 _symmetry_equiv_pos_site_id
 _symmetry_equiv_pos_as_xyz
  1  'x, y, z'
loop_
 _atom_site_type_symbol
 _atom_site_label
 _atom_site_symmetry_multiplicity
 _atom_site_fract_x
 _atom_site_fract_y
 _atom_site_fract_z
 _atom_site_occupancy
  Nd  Nd0  1  0.009834  0.801881  0.917270  1
  Nd  Nd1  1  0.200156  0.988459  0.581696  1
  Nd  Nd2  1  0.982354  0.202797  0.084223  1
  Nd  Nd3  1  0.797583  0.020310  0.413017  1
  Nd  Nd4  1  0.363216  0.206485  0.816078  1
  Nd  Nd5  1  0.793352  0.638705  0.685093  1
  Nd  Nd6  1  0.646956  0.788054  0.188945  1
  Nd  Nd7  1  0.207850  0.354227  0.313353  1
  Nd  Nd8  1  0.569558  0.430698  0.749352  1
  Nd  Nd9  1  0.426872  0.572982  0.250848  1
  Os  Os10  1  0.818257  0.402008  0.426287  1
  Ru  Ru11  1  0.601093  0.177840  0.073015  1
  Rh  Rh12  1  0.177567  0.595269  0.576321  1
  Rh  Rh13  1  0.405350  0.820286  0.924501  1
