# generated using pymatgen
data_Er16Tm4Sn3Pb13
_symmetry_space_group_name_H-M   'P 1'
_cell_length_a   8.13445602
_cell_length_b   8.17884221
_cell_length_c   15.48730900
_cell_angle_alpha   90.00000000
_cell_angle_beta   90.00000000
_cell_angle_gamma   89.81770652
_symmetry_Int_Tables_number   1
_chemical_formula_structural   Er16Tm4Sn3Pb13
_chemical_formula_sum   'Er16 Tm4 Sn3 Pb13'
_cell_volume   1030.37214743
_cell_formula_units_Z   1
loop_
 _symmetry_equiv_pos_site_id
 _symmetry_equiv_pos_as_xyz
  1  'x, y, z'
loop_
 _atom_site_type_symbol
 _atom_site_label
 _atom_site_symmetry_multiplicity
 _atom_site_fract_x
 _atom_site_fract_y
 _atom_site_fract_z
 _atom_site_occupancy
  Er  Er0  1  0.379502  0.838916  0.876588  1
  Er  Er1  1  0.878824  0.661698  0.623351  1
  Er  Er2  1  0.618621  0.161788  0.377707  1
  Er  Er3  1  0.123407  0.340777  0.121220  1
  Er  Er4  1  0.618621  0.161788  0.122293  1
  Er  Er5  1  0.123407  0.340777  0.378780  1
  Er  Er6  1  0.379502  0.838916  0.623412  1
  Er  Er7  1  0.878824  0.661698  0.876649  1
  Er  Er8  1  0.538212  0.327419  0.898288  1
  Er  Er9  1  0.037709  0.172171  0.601736  1
  Er  Er10  1  0.462319  0.672174  0.399555  1
  Er  Er11  1  0.962172  0.824228  0.099878  1
  Er  Er12  1  0.462319  0.672174  0.100445  1
  Er  Er13  1  0.962172  0.824228  0.400122  1
  Er  Er14  1  0.538212  0.327419  0.601712  1
  Er  Er15  1  0.037709  0.172171  0.898264  1
  Tm  Tm16  1  0.211254  0.507632  0.750000  1
  Tm  Tm17  1  0.711458  0.992647  0.750000  1
  Tm  Tm18  1  0.787600  0.494410  0.250000  1
  Tm  Tm19  1  0.290785  0.006642  0.250000  1
  Sn  Sn20  1  0.574667  0.624147  0.750000  1
  Sn  Sn21  1  0.074351  0.875838  0.750000  1
  Sn  Sn22  1  0.425120  0.375864  0.250000  1
  Pb  Pb23  1  0.281428  0.031801  0.041631  1
  Pb  Pb24  1  0.781884  0.467164  0.458542  1
  Pb  Pb25  1  0.717812  0.967944  0.541905  1
  Pb  Pb26  1  0.217997  0.532946  0.957338  1
  Pb  Pb27  1  0.717812  0.967944  0.958095  1
  Pb  Pb28  1  0.217997  0.532946  0.542662  1
  Pb  Pb29  1  0.281428  0.031801  0.458369  1
  Pb  Pb30  1  0.781884  0.467164  0.041458  1
  Pb  Pb31  1  0.926889  0.125323  0.250000  1
  Pb  Pb32  1  0.349206  0.153640  0.750000  1
  Pb  Pb33  1  0.848317  0.346809  0.750000  1
  Pb  Pb34  1  0.650005  0.845413  0.250000  1
  Pb  Pb35  1  0.150571  0.653582  0.250000  1
