# generated using pymatgen
data_Sr6YFe(BO3)6
_symmetry_space_group_name_H-M   'P 1'
_cell_length_a   7.77779144
_cell_length_b   7.77779212
_cell_length_c   7.77779210
_cell_angle_alpha   105.29870582
_cell_angle_beta   105.29870525
_cell_angle_gamma   105.29870727
_symmetry_Int_Tables_number   1
_chemical_formula_structural   Sr6YFe(BO3)6
_chemical_formula_sum   'Sr6 Y1 Fe1 B6 O18'
_cell_volume   408.66997477
_cell_formula_units_Z   1
loop_
 _symmetry_equiv_pos_site_id
 _symmetry_equiv_pos_as_xyz
  1  'x, y, z'
loop_
 _atom_site_type_symbol
 _atom_site_label
 _atom_site_symmetry_multiplicity
 _atom_site_fract_x
 _atom_site_fract_y
 _atom_site_fract_z
 _atom_site_occupancy
  Sr  Sr0  1  0.648597  0.266229  0.162983  1
  Sr  Sr1  1  0.162983  0.648597  0.266228  1
  Sr  Sr2  1  0.733771  0.837017  0.351403  1
  Sr  Sr3  1  0.266229  0.162983  0.648597  1
  Sr  Sr4  1  0.837017  0.351403  0.733771  1
  Sr  Sr5  1  0.351403  0.733771  0.837017  1
  Y  Y6  1  0.000000  0.000000  0.000000  1
  Fe  Fe7  1  0.500000  0.500000  0.500000  1
  B  B8  1  0.296617  0.378488  0.046818  1
  B  B9  1  0.378488  0.046819  0.296617  1
  B  B10  1  0.046819  0.296617  0.378488  1
  B  B11  1  0.953181  0.703383  0.621512  1
  B  B12  1  0.621512  0.953181  0.703383  1
  B  B13  1  0.703383  0.621512  0.953181  1
  O  O14  1  0.725683  0.814421  0.015805  1
  O  O15  1  0.803877  0.547436  0.068226  1
  O  O16  1  0.984195  0.274317  0.185579  1
  O  O17  1  0.452563  0.931773  0.196123  1
  O  O18  1  0.432260  0.498738  0.227063  1
  O  O19  1  0.185579  0.984195  0.274317  1
  O  O20  1  0.498738  0.227063  0.432259  1
  O  O21  1  0.931773  0.196124  0.452563  1
  O  O22  1  0.227063  0.432260  0.498738  1
  O  O23  1  0.772937  0.567740  0.501262  1
  O  O24  1  0.068227  0.803876  0.547437  1
  O  O25  1  0.501262  0.772937  0.567741  1
  O  O26  1  0.814421  0.015805  0.725683  1
  O  O27  1  0.567740  0.501262  0.772937  1
  O  O28  1  0.547437  0.068227  0.803877  1
  O  O29  1  0.015805  0.725683  0.814421  1
  O  O30  1  0.196123  0.452564  0.931774  1
  O  O31  1  0.274317  0.185579  0.984195  1
