# generated using pymatgen
data_Nd2HoSi5PPd20
_symmetry_space_group_name_H-M   'P 1'
_cell_length_a   8.74188793
_cell_length_b   8.74543880
_cell_length_c   8.74543872
_cell_angle_alpha   59.97314299
_cell_angle_beta   60.01342557
_cell_angle_gamma   60.01342404
_symmetry_Int_Tables_number   1
_chemical_formula_structural   Nd2HoSi5PPd20
_chemical_formula_sum   'Nd2 Ho1 Si5 P1 Pd20'
_cell_volume   472.77366283
_cell_formula_units_Z   1
loop_
 _symmetry_equiv_pos_site_id
 _symmetry_equiv_pos_as_xyz
  1  'x, y, z'
loop_
 _atom_site_type_symbol
 _atom_site_label
 _atom_site_symmetry_multiplicity
 _atom_site_fract_x
 _atom_site_fract_y
 _atom_site_fract_z
 _atom_site_occupancy
  Nd  Nd0  1  0.249591  0.250409  0.250409  1
  Nd  Nd1  1  0.749591  0.750409  0.750409  1
  Ho  Ho2  1  0.000358  0.999642  0.999642  1
  Si  Si3  1  0.266652  0.733348  0.733348  1
  Si  Si4  1  0.265443  0.734557  0.266697  1
  Si  Si5  1  0.733303  0.266697  0.734557  1
  Si  Si6  1  0.265443  0.266697  0.734557  1
  Si  Si7  1  0.733303  0.734557  0.266697  1
  P  P8  1  0.735092  0.264908  0.264908  1
  Pd  Pd9  1  0.386421  0.384958  0.384958  1
  Pd  Pd10  1  0.614991  0.614800  0.614800  1
  Pd  Pd11  1  0.385200  0.385009  0.844593  1
  Pd  Pd12  1  0.385200  0.844593  0.385009  1
  Pd  Pd13  1  0.615042  0.613579  0.156336  1
  Pd  Pd14  1  0.615042  0.156336  0.613579  1
  Pd  Pd15  1  0.843664  0.384958  0.384958  1
  Pd  Pd16  1  0.155407  0.614800  0.614800  1
  Pd  Pd17  1  0.346102  0.999438  0.999438  1
  Pd  Pd18  1  0.655022  0.999438  0.999438  1
  Pd  Pd19  1  0.000562  0.344978  0.653898  1
  Pd  Pd20  1  0.000562  0.653898  0.344978  1
  Pd  Pd21  1  0.998708  0.345034  0.001292  1
  Pd  Pd22  1  0.654966  0.001292  0.345034  1
  Pd  Pd23  1  0.000123  0.654791  0.999877  1
  Pd  Pd24  1  0.345209  0.999877  0.654791  1
  Pd  Pd25  1  0.998708  0.001292  0.345034  1
  Pd  Pd26  1  0.000123  0.999877  0.654791  1
  Pd  Pd27  1  0.654966  0.345034  0.001292  1
  Pd  Pd28  1  0.345209  0.654791  0.999877  1
