# generated using pymatgen
data_Ho2Co2P7Ru10
_symmetry_space_group_name_H-M   'P 1'
_cell_length_a   9.31795107
_cell_length_b   9.37986093
_cell_length_c   3.86244300
_cell_angle_alpha   90.00000000
_cell_angle_beta   90.00000000
_cell_angle_gamma   119.98399649
_symmetry_Int_Tables_number   1
_chemical_formula_structural   Ho2Co2P7Ru10
_chemical_formula_sum   'Ho2 Co2 P7 Ru10'
_cell_volume   292.40147062
_cell_formula_units_Z   1
loop_
 _symmetry_equiv_pos_site_id
 _symmetry_equiv_pos_as_xyz
  1  'x, y, z'
loop_
 _atom_site_type_symbol
 _atom_site_label
 _atom_site_symmetry_multiplicity
 _atom_site_fract_x
 _atom_site_fract_y
 _atom_site_fract_z
 _atom_site_occupancy
  Ho  Ho0  1  0.999254  0.000445  0.000000  1
  Ho  Ho1  1  0.332111  0.664804  0.500000  1
  Co  Co2  1  0.395921  0.223245  0.000000  1
  Co  Co3  1  0.828260  0.604297  0.000000  1
  P  P4  1  0.552291  0.910516  0.000000  1
  P  P5  1  0.363926  0.442825  0.000000  1
  P  P6  1  0.082233  0.638499  0.000000  1
  P  P7  1  0.952545  0.217494  0.500000  1
  P  P8  1  0.265109  0.048969  0.500000  1
  P  P9  1  0.782178  0.732521  0.500000  1
  P  P10  1  0.664486  0.339843  0.000000  1
  Ru  Ru11  1  0.304364  0.909580  0.000000  1
  Ru  Ru12  1  0.603992  0.691414  0.000000  1
  Ru  Ru13  1  0.097307  0.400580  0.000000  1
  Ru  Ru14  1  0.776513  0.174965  0.000000  1
  Ru  Ru15  1  0.716253  0.942304  0.500000  1
  Ru  Ru16  1  0.229311  0.279448  0.500000  1
  Ru  Ru17  1  0.051254  0.771378  0.500000  1
  Ru  Ru18  1  0.544096  0.130184  0.500000  1
  Ru  Ru19  1  0.581455  0.452694  0.500000  1
  Ru  Ru20  1  0.877141  0.423995  0.500000  1
