# generated using pymatgen
data_Sc8BAsBr12
_symmetry_space_group_name_H-M   'P 1'
_cell_length_a   3.78252700
_cell_length_b   12.67277887
_cell_length_c   13.13503196
_cell_angle_alpha   89.33557066
_cell_angle_beta   90.00000000
_cell_angle_gamma   90.00000000
_symmetry_Int_Tables_number   1
_chemical_formula_structural   Sc8BAsBr12
_chemical_formula_sum   'Sc8 B1 As1 Br12'
_cell_volume   629.58710609
_cell_formula_units_Z   1
loop_
 _symmetry_equiv_pos_site_id
 _symmetry_equiv_pos_as_xyz
  1  'x, y, z'
loop_
 _atom_site_type_symbol
 _atom_site_label
 _atom_site_symmetry_multiplicity
 _atom_site_fract_x
 _atom_site_fract_y
 _atom_site_fract_z
 _atom_site_occupancy
  Sc  Sc0  1  0.000000  0.111927  0.089103  1
  Sc  Sc1  1  0.000000  0.888073  0.910897  1
  Sc  Sc2  1  0.000000  0.596077  0.423333  1
  Sc  Sc3  1  0.000000  0.403923  0.576667  1
  Sc  Sc4  1  0.500000  0.132308  0.844955  1
  Sc  Sc5  1  0.500000  0.867692  0.155045  1
  Sc  Sc6  1  0.500000  0.616028  0.636153  1
  Sc  Sc7  1  0.500000  0.383972  0.363847  1
  B  B8  1  0.500000  0.500000  0.500000  1
  As  As9  1  0.500000  0.000000  0.000000  1
  Br  Br10  1  0.500000  0.271373  0.678946  1
  Br  Br11  1  0.500000  0.728627  0.321054  1
  Br  Br12  1  0.500000  0.765387  0.816730  1
  Br  Br13  1  0.500000  0.234613  0.183270  1
  Br  Br14  1  0.000000  0.260384  0.930380  1
  Br  Br15  1  0.000000  0.739616  0.069620  1
  Br  Br16  1  0.000000  0.481150  0.245214  1
  Br  Br17  1  0.000000  0.518850  0.754786  1
  Br  Br18  1  0.000000  0.979276  0.260071  1
  Br  Br19  1  0.000000  0.020724  0.739929  1
  Br  Br20  1  0.000000  0.245021  0.433395  1
  Br  Br21  1  0.000000  0.754979  0.566605  1
