# generated using pymatgen
data_Dy15Er5Ir7Ru5
_symmetry_space_group_name_H-M   'P 1'
_cell_length_a   10.80985555
_cell_length_b   10.80849699
_cell_length_c   6.39515605
_cell_angle_alpha   89.98171620
_cell_angle_beta   89.97205379
_cell_angle_gamma   90.04753058
_symmetry_Int_Tables_number   1
_chemical_formula_structural   Dy15Er5Ir7Ru5
_chemical_formula_sum   'Dy15 Er5 Ir7 Ru5'
_cell_volume   747.19872100
_cell_formula_units_Z   1
loop_
 _symmetry_equiv_pos_site_id
 _symmetry_equiv_pos_as_xyz
  1  'x, y, z'
loop_
 _atom_site_type_symbol
 _atom_site_label
 _atom_site_symmetry_multiplicity
 _atom_site_fract_x
 _atom_site_fract_y
 _atom_site_fract_z
 _atom_site_occupancy
  Dy  Dy0  1  0.292949  0.086253  0.377341  1
  Dy  Dy1  1  0.292476  0.913627  0.877609  1
  Dy  Dy2  1  0.707643  0.086479  0.877799  1
  Dy  Dy3  1  0.707466  0.913892  0.376331  1
  Dy  Dy4  1  0.586234  0.793140  0.877431  1
  Dy  Dy5  1  0.586998  0.206978  0.377787  1
  Dy  Dy6  1  0.413575  0.792969  0.377448  1
  Dy  Dy7  1  0.413378  0.206747  0.876624  1
  Dy  Dy8  1  0.206755  0.413594  0.622553  1
  Dy  Dy9  1  0.206902  0.586200  0.122589  1
  Dy  Dy10  1  0.793291  0.412872  0.122277  1
  Dy  Dy11  1  0.793272  0.586536  0.623452  1
  Dy  Dy12  1  0.913858  0.706894  0.122544  1
  Dy  Dy13  1  0.913651  0.292383  0.622137  1
  Dy  Dy14  1  0.086398  0.707557  0.622345  1
  Er  Er15  1  0.086065  0.292849  0.123304  1
  Er  Er16  1  0.999597  0.001089  0.499596  1
  Er  Er17  1  0.999116  0.000561  0.000353  1
  Er  Er18  1  0.500108  0.500087  0.000421  1
  Er  Er19  1  0.499817  0.499821  0.499615  1
  Ir  Ir20  1  0.847378  0.847102  0.749844  1
  Ir  Ir21  1  0.152780  0.152896  0.750850  1
  Ir  Ir22  1  0.152545  0.847492  0.249996  1
  Ir  Ir23  1  0.651403  0.348602  0.750015  1
  Ir  Ir24  1  0.652469  0.652144  0.249835  1
  Ir  Ir25  1  0.347515  0.347429  0.249995  1
  Ir  Ir26  1  0.348000  0.651975  0.750027  1
  Ru  Ru27  1  0.848316  0.152021  0.249884  1
  Ru  Ru28  1  0.500236  0.000271  0.122000  1
  Ru  Ru29  1  0.499907  0.000091  0.621959  1
  Ru  Ru30  1  0.000075  0.499871  0.878357  1
  Ru  Ru31  1  0.999827  0.499575  0.377678  1
