# generated using pymatgen
data_Dy2Lu4Bi2Ru
_symmetry_space_group_name_H-M   'P 1'
_cell_length_a   8.22712405
_cell_length_b   8.22712570
_cell_length_c   4.18088700
_cell_angle_alpha   90.00000000
_cell_angle_beta   90.00000000
_cell_angle_gamma   120.22066237
_symmetry_Int_Tables_number   1
_chemical_formula_structural   Dy2Lu4Bi2Ru
_chemical_formula_sum   'Dy2 Lu4 Bi2 Ru1'
_cell_volume   244.52612620
_cell_formula_units_Z   1
loop_
 _symmetry_equiv_pos_site_id
 _symmetry_equiv_pos_as_xyz
  1  'x, y, z'
loop_
 _atom_site_type_symbol
 _atom_site_label
 _atom_site_symmetry_multiplicity
 _atom_site_fract_x
 _atom_site_fract_y
 _atom_site_fract_z
 _atom_site_occupancy
  Dy  Dy0  1  0.612406  0.999439  0.000000  1
  Dy  Dy1  1  0.999439  0.612406  0.000000  1
  Lu  Lu2  1  0.232177  0.000849  0.500000  1
  Lu  Lu3  1  0.000849  0.232177  0.500000  1
  Lu  Lu4  1  0.769245  0.769245  0.500000  1
  Lu  Lu5  1  0.384196  0.384196  0.000000  1
  Bi  Bi6  1  0.333087  0.664657  0.500000  1
  Bi  Bi7  1  0.664657  0.333087  0.500000  1
  Ru  Ru8  1  0.003944  0.003944  0.000000  1
