# generated using pymatgen
data_Nd2CBr3
_symmetry_space_group_name_H-M   'P 1'
_cell_length_a   13.47101400
_cell_length_b   8.29785295
_cell_length_c   16.41872100
_cell_angle_alpha   59.77007216
_cell_angle_beta   90.00000000
_cell_angle_gamma   90.00000000
_symmetry_Int_Tables_number   1
_chemical_formula_structural   Nd2CBr3
_chemical_formula_sum   'Nd16 C8 Br24'
_cell_volume   1585.71482834
_cell_formula_units_Z   8
loop_
 _symmetry_equiv_pos_site_id
 _symmetry_equiv_pos_as_xyz
  1  'x, y, z'
loop_
 _atom_site_type_symbol
 _atom_site_label
 _atom_site_symmetry_multiplicity
 _atom_site_fract_x
 _atom_site_fract_y
 _atom_site_fract_z
 _atom_site_occupancy
  Nd  Nd0  1  0.608593  0.132055  0.581629  1
  Nd  Nd1  1  0.402248  0.301913  0.427110  1
  Nd  Nd2  1  0.108593  0.867945  0.918371  1
  Nd  Nd3  1  0.902248  0.698087  0.072890  1
  Nd  Nd4  1  0.391407  0.867945  0.418371  1
  Nd  Nd5  1  0.597752  0.698087  0.572890  1
  Nd  Nd6  1  0.891407  0.132055  0.081629  1
  Nd  Nd7  1  0.097752  0.301913  0.927110  1
  Nd  Nd8  1  0.613542  0.634793  0.363767  1
  Nd  Nd9  1  0.386458  0.365207  0.636233  1
  Nd  Nd10  1  0.113542  0.365207  0.136233  1
  Nd  Nd11  1  0.886458  0.634793  0.863767  1
  Nd  Nd12  1  0.361891  0.834168  0.665966  1
  Nd  Nd13  1  0.638109  0.165832  0.334034  1
  Nd  Nd14  1  0.861891  0.165832  0.834034  1
  Nd  Nd15  1  0.138109  0.834168  0.165966  1
  C  C16  1  0.467920  0.961758  0.538329  1
  C  C17  1  0.532080  0.038242  0.461671  1
  C  C18  1  0.967920  0.038242  0.961671  1
  C  C19  1  0.032080  0.961758  0.038329  1
  C  C20  1  0.522464  0.414511  0.516753  1
  C  C21  1  0.022464  0.585489  0.983247  1
  C  C22  1  0.477536  0.585489  0.483247  1
  C  C23  1  0.977536  0.414511  0.016753  1
  Br  Br24  1  0.762637  0.326437  0.425144  1
  Br  Br25  1  0.240024  0.183113  0.574413  1
  Br  Br26  1  0.262637  0.673563  0.074856  1
  Br  Br27  1  0.740024  0.816887  0.925587  1
  Br  Br28  1  0.237363  0.673563  0.574856  1
  Br  Br29  1  0.759976  0.816887  0.425587  1
  Br  Br30  1  0.737363  0.326437  0.925144  1
  Br  Br31  1  0.259976  0.183113  0.074413  1
  Br  Br32  1  0.728177  0.338461  0.663798  1
  Br  Br33  1  0.271823  0.661539  0.336202  1
  Br  Br34  1  0.228177  0.661539  0.836202  1
  Br  Br35  1  0.771823  0.338461  0.163798  1
  Br  Br36  1  0.483262  0.993346  0.760046  1
  Br  Br37  1  0.513924  0.512406  0.243595  1
  Br  Br38  1  0.983262  0.006654  0.739954  1
  Br  Br39  1  0.013924  0.487594  0.256405  1
  Br  Br40  1  0.516738  0.006654  0.239954  1
  Br  Br41  1  0.486076  0.487594  0.756405  1
  Br  Br42  1  0.016738  0.993346  0.260046  1
  Br  Br43  1  0.986076  0.512406  0.743595  1
  Br  Br44  1  0.745433  0.800197  0.682054  1
  Br  Br45  1  0.254567  0.199803  0.317946  1
  Br  Br46  1  0.245433  0.199803  0.817946  1
  Br  Br47  1  0.754567  0.800197  0.182054  1
