# generated using pymatgen
data_Hf4Fe2CoSi4Ir
_symmetry_space_group_name_H-M   'P 1'
_cell_length_a   3.92380600
_cell_length_b   6.40015344
_cell_length_c   7.15795265
_cell_angle_alpha   89.14948804
_cell_angle_beta   90.00000000
_cell_angle_gamma   90.00000000
_symmetry_Int_Tables_number   1
_chemical_formula_structural   Hf4Fe2CoSi4Ir
_chemical_formula_sum   'Hf4 Fe2 Co1 Si4 Ir1'
_cell_volume   179.73757747
_cell_formula_units_Z   1
loop_
 _symmetry_equiv_pos_site_id
 _symmetry_equiv_pos_as_xyz
  1  'x, y, z'
loop_
 _atom_site_type_symbol
 _atom_site_label
 _atom_site_symmetry_multiplicity
 _atom_site_fract_x
 _atom_site_fract_y
 _atom_site_fract_z
 _atom_site_occupancy
  Hf  Hf0  1  0.250000  0.002160  0.312044  1
  Hf  Hf1  1  0.250000  0.509116  0.198826  1
  Hf  Hf2  1  0.750000  0.991416  0.685789  1
  Hf  Hf3  1  0.750000  0.491937  0.802137  1
  Fe  Fe4  1  0.250000  0.655750  0.565416  1
  Fe  Fe5  1  0.750000  0.347876  0.431887  1
  Co  Co6  1  0.750000  0.847523  0.067624  1
  Si  Si7  1  0.250000  0.290092  0.598809  1
  Si  Si8  1  0.250000  0.777496  0.887849  1
  Si  Si9  1  0.750000  0.713172  0.393043  1
  Si  Si10  1  0.750000  0.217674  0.124368  1
  Ir  Ir11  1  0.250000  0.155788  0.932204  1
