# generated using pymatgen
data_Yb2Cd(AsO4)2
_symmetry_space_group_name_H-M   'P 1'
_cell_length_a   5.57977791
_cell_length_b   5.45475913
_cell_length_c   7.13667661
_cell_angle_alpha   64.15702436
_cell_angle_beta   80.53998949
_cell_angle_gamma   69.52993393
_symmetry_Int_Tables_number   1
_chemical_formula_structural   Yb2Cd(AsO4)2
_chemical_formula_sum   'Yb2 Cd1 As2 O8'
_cell_volume   183.12861606
_cell_formula_units_Z   1
loop_
 _symmetry_equiv_pos_site_id
 _symmetry_equiv_pos_as_xyz
  1  'x, y, z'
loop_
 _atom_site_type_symbol
 _atom_site_label
 _atom_site_symmetry_multiplicity
 _atom_site_fract_x
 _atom_site_fract_y
 _atom_site_fract_z
 _atom_site_occupancy
  Yb  Yb0  1  0.251682  0.330173  0.145530  1
  Yb  Yb1  1  0.748317  0.669827  0.854470  1
  Cd  Cd2  1  0.500000  0.500000  0.500000  1
  As  As3  1  0.872337  0.893366  0.271344  1
  As  As4  1  0.127663  0.106634  0.728657  1
  O  O5  1  0.868122  0.687079  0.146002  1
  O  O6  1  0.684214  0.243870  0.144942  1
  O  O7  1  0.175392  0.890087  0.297617  1
  O  O8  1  0.265717  0.254925  0.487775  1
  O  O9  1  0.734283  0.745075  0.512225  1
  O  O10  1  0.824608  0.109913  0.702384  1
  O  O11  1  0.315786  0.756130  0.855058  1
  O  O12  1  0.131879  0.312921  0.853999  1
