# generated using pymatgen
data_YbCrF4
_symmetry_space_group_name_H-M   'P 1'
_cell_length_a   6.54616903
_cell_length_b   6.54616962
_cell_length_c   6.54616946
_cell_angle_alpha   131.36564039
_cell_angle_beta   131.36563922
_cell_angle_gamma   71.23278800
_symmetry_Int_Tables_number   1
_chemical_formula_structural   YbCrF4
_chemical_formula_sum   'Yb2 Cr2 F8'
_cell_volume   154.67625930
_cell_formula_units_Z   2
loop_
 _symmetry_equiv_pos_site_id
 _symmetry_equiv_pos_as_xyz
  1  'x, y, z'
loop_
 _atom_site_type_symbol
 _atom_site_label
 _atom_site_symmetry_multiplicity
 _atom_site_fract_x
 _atom_site_fract_y
 _atom_site_fract_z
 _atom_site_occupancy
  Yb  Yb0  1  0.750000  0.750000  0.000000  1
  Yb  Yb1  1  0.250000  0.250000  0.000000  1
  Cr  Cr2  1  0.000000  0.500000  0.500000  1
  Cr  Cr3  1  0.500000  0.000000  0.500000  1
  F  F4  1  0.939082  0.439082  0.115590  1
  F  F5  1  0.676508  0.176508  0.115590  1
  F  F6  1  0.060918  0.560918  0.884410  1
  F  F7  1  0.560918  0.676508  0.500000  1
  F  F8  1  0.323492  0.823492  0.884410  1
  F  F9  1  0.823492  0.939082  0.500000  1
  F  F10  1  0.439082  0.323492  0.500000  1
  F  F11  1  0.176508  0.060918  0.500000  1
