# generated using pymatgen
data_CaNdGaO4
_symmetry_space_group_name_H-M   'P 1'
_cell_length_a   11.71754800
_cell_length_b   5.38547500
_cell_length_c   6.81479200
_cell_angle_alpha   89.99993103
_cell_angle_beta   89.99996672
_cell_angle_gamma   89.99991489
_symmetry_Int_Tables_number   1
_chemical_formula_structural   CaNdGaO4
_chemical_formula_sum   'Ca4 Nd4 Ga4 O16'
_cell_volume   430.04446302
_cell_formula_units_Z   4
loop_
 _symmetry_equiv_pos_site_id
 _symmetry_equiv_pos_as_xyz
  1  'x, y, z'
loop_
 _atom_site_type_symbol
 _atom_site_label
 _atom_site_symmetry_multiplicity
 _atom_site_fract_x
 _atom_site_fract_y
 _atom_site_fract_z
 _atom_site_occupancy
  Ca  Ca0  1  0.499962  0.499954  0.487213  1
  Ca  Ca1  1  0.500036  0.500044  0.987218  1
  Ca  Ca2  1  0.000038  0.999962  0.987188  1
  Ca  Ca3  1  0.999962  0.000040  0.487209  1
  Nd  Nd4  1  0.220973  0.511908  0.237110  1
  Nd  Nd5  1  0.779026  0.488092  0.737109  1
  Nd  Nd6  1  0.279027  0.011910  0.737108  1
  Nd  Nd7  1  0.720973  0.988090  0.237106  1
  Ga  Ga8  1  0.408513  0.066902  0.237097  1
  Ga  Ga9  1  0.591488  0.933100  0.737096  1
  Ga  Ga10  1  0.091489  0.566900  0.737096  1
  Ga  Ga11  1  0.908512  0.433099  0.237095  1
  O  O12  1  0.406928  0.727306  0.237219  1
  O  O13  1  0.593073  0.272693  0.737216  1
  O  O14  1  0.093074  0.227304  0.737211  1
  O  O15  1  0.906927  0.772697  0.237209  1
  O  O16  1  0.164842  0.732066  0.524237  1
  O  O17  1  0.835161  0.267936  0.024240  1
  O  O18  1  0.335159  0.232064  0.024238  1
  O  O19  1  0.664839  0.767936  0.524240  1
  O  O20  1  0.335088  0.232022  0.449922  1
  O  O21  1  0.664911  0.767980  0.949922  1
  O  O22  1  0.164913  0.732021  0.949921  1
  O  O23  1  0.835087  0.267980  0.449922  1
  O  O24  1  0.553432  0.222303  0.237216  1
  O  O25  1  0.446570  0.777692  0.737218  1
  O  O26  1  0.946569  0.722301  0.737215  1
  O  O27  1  0.053430  0.277695  0.237216  1
