# generated using pymatgen
data_ScNb2(Tc2W)3
_symmetry_space_group_name_H-M   'P 1'
_cell_length_a   4.48246800
_cell_length_b   6.31926000
_cell_length_c   13.44755700
_cell_angle_alpha   90.00000000
_cell_angle_beta   90.00000000
_cell_angle_gamma   90.00000000
_symmetry_Int_Tables_number   1
_chemical_formula_structural   ScNb2(Tc2W)3
_chemical_formula_sum   'Sc2 Nb4 Tc12 W6'
_cell_volume   380.91389574
_cell_formula_units_Z   2
loop_
 _symmetry_equiv_pos_site_id
 _symmetry_equiv_pos_as_xyz
  1  'x, y, z'
loop_
 _atom_site_type_symbol
 _atom_site_label
 _atom_site_symmetry_multiplicity
 _atom_site_fract_x
 _atom_site_fract_y
 _atom_site_fract_z
 _atom_site_occupancy
  Sc  Sc0  1  0.000000  0.500000  0.667279  1
  Sc  Sc1  1  0.499996  0.000000  0.832753  1
  Nb  Nb2  1  0.000000  0.500000  0.000539  1
  Nb  Nb3  1  0.500005  0.000000  0.167935  1
  Nb  Nb4  1  0.000000  0.500000  0.332045  1
  Nb  Nb5  1  0.500000  0.000000  0.499472  1
  Tc  Tc6  1  0.500000  0.250648  0.001561  1
  Tc  Tc7  1  0.500000  0.749353  0.001561  1
  Tc  Tc8  1  0.000000  0.250375  0.166419  1
  Tc  Tc9  1  0.000000  0.749625  0.166419  1
  Tc  Tc10  1  0.500005  0.249619  0.333572  1
  Tc  Tc11  1  0.500005  0.750380  0.333572  1
  Tc  Tc12  1  0.000000  0.249354  0.498429  1
  Tc  Tc13  1  0.000000  0.750646  0.498429  1
  Tc  Tc14  1  0.499996  0.249480  0.664894  1
  Tc  Tc15  1  0.499996  0.750519  0.664894  1
  Tc  Tc16  1  0.000000  0.250523  0.835118  1
  Tc  Tc17  1  0.000000  0.749477  0.835118  1
  W  W18  1  0.000000  0.000000  0.998577  1
  W  W19  1  0.500005  0.500000  0.165950  1
  W  W20  1  0.000000  0.000000  0.334038  1
  W  W21  1  0.500000  0.500000  0.501425  1
  W  W22  1  0.000000  0.000000  0.667205  1
  W  W23  1  0.499996  0.500000  0.832800  1
