# generated using pymatgen
data_Ho8MgCdIrPt
_symmetry_space_group_name_H-M   'P 1'
_cell_length_a   9.65492683
_cell_length_b   9.65492692
_cell_length_c   9.68584700
_cell_angle_alpha   59.89400831
_cell_angle_beta   59.89400801
_cell_angle_gamma   59.88170971
_symmetry_Int_Tables_number   1
_chemical_formula_structural   Ho8MgCdIrPt
_chemical_formula_sum   'Ho16 Mg2 Cd2 Ir2 Pt2'
_cell_volume   636.84603145
_cell_formula_units_Z   2
loop_
 _symmetry_equiv_pos_site_id
 _symmetry_equiv_pos_as_xyz
  1  'x, y, z'
loop_
 _atom_site_type_symbol
 _atom_site_label
 _atom_site_symmetry_multiplicity
 _atom_site_fract_x
 _atom_site_fract_y
 _atom_site_fract_z
 _atom_site_occupancy
  Ho  Ho0  1  0.600129  0.600129  0.595840  1
  Ho  Ho1  1  0.600129  0.600129  0.203903  1
  Ho  Ho2  1  0.602277  0.203001  0.597362  1
  Ho  Ho3  1  0.203001  0.602277  0.597362  1
  Ho  Ho4  1  0.057609  0.438727  0.440226  1
  Ho  Ho5  1  0.438727  0.057609  0.063439  1
  Ho  Ho6  1  0.438727  0.057609  0.440226  1
  Ho  Ho7  1  0.057609  0.438727  0.063439  1
  Ho  Ho8  1  0.442060  0.442060  0.057940  1
  Ho  Ho9  1  0.062431  0.062431  0.437569  1
  Ho  Ho10  1  0.187959  0.815245  0.812927  1
  Ho  Ho11  1  0.815245  0.187959  0.183870  1
  Ho  Ho12  1  0.815245  0.187959  0.812927  1
  Ho  Ho13  1  0.187959  0.815245  0.183870  1
  Ho  Ho14  1  0.814746  0.814746  0.185254  1
  Ho  Ho15  1  0.185919  0.185919  0.814081  1
  Mg  Mg16  1  0.826155  0.826155  0.830454  1
  Mg  Mg17  1  0.826155  0.826155  0.517237  1
  Cd  Cd18  1  0.831918  0.504131  0.831975  1
  Cd  Cd19  1  0.504131  0.831918  0.831975  1
  Ir  Ir20  1  0.392730  0.824208  0.391531  1
  Ir  Ir21  1  0.824208  0.392730  0.391531  1
  Pt  Pt22  1  0.392467  0.392467  0.391646  1
  Pt  Pt23  1  0.392467  0.392467  0.823419  1
