# generated using pymatgen
data_Lu9ScRh6
_symmetry_space_group_name_H-M   'P 1'
_cell_length_a   6.19836900
_cell_length_b   10.63476800
_cell_length_c   10.63476800
_cell_angle_alpha   90.00000000
_cell_angle_beta   90.00000000
_cell_angle_gamma   90.00000000
_symmetry_Int_Tables_number   1
_chemical_formula_structural   Lu9ScRh6
_chemical_formula_sum   'Lu18 Sc2 Rh12'
_cell_volume   701.02493725
_cell_formula_units_Z   2
loop_
 _symmetry_equiv_pos_site_id
 _symmetry_equiv_pos_as_xyz
  1  'x, y, z'
loop_
 _atom_site_type_symbol
 _atom_site_label
 _atom_site_symmetry_multiplicity
 _atom_site_fract_x
 _atom_site_fract_y
 _atom_site_fract_z
 _atom_site_occupancy
  Lu  Lu0  1  0.372643  0.836653  0.541797  1
  Lu  Lu1  1  0.872643  0.663347  0.541797  1
  Lu  Lu2  1  0.872643  0.836653  0.958203  1
  Lu  Lu3  1  0.372643  0.663347  0.958203  1
  Lu  Lu4  1  0.874062  0.537772  0.835349  1
  Lu  Lu5  1  0.374062  0.962228  0.835349  1
  Lu  Lu6  1  0.374062  0.537772  0.664651  1
  Lu  Lu7  1  0.874062  0.962228  0.664651  1
  Lu  Lu8  1  0.625938  0.164651  0.462229  1
  Lu  Lu9  1  0.125938  0.335349  0.462229  1
  Lu  Lu10  1  0.125938  0.164651  0.037772  1
  Lu  Lu11  1  0.625938  0.335349  0.037772  1
  Lu  Lu12  1  0.127357  0.458204  0.163347  1
  Lu  Lu13  1  0.627357  0.041797  0.163347  1
  Lu  Lu14  1  0.627357  0.458204  0.336653  1
  Lu  Lu15  1  0.127357  0.041797  0.336653  1
  Lu  Lu16  1  0.500000  0.750000  0.250000  1
  Lu  Lu17  1  0.000000  0.750000  0.250000  1
  Sc  Sc18  1  0.000000  0.250000  0.750000  1
  Sc  Sc19  1  0.500000  0.250000  0.750000  1
  Rh  Rh20  1  0.250000  0.904904  0.095096  1
  Rh  Rh21  1  0.750000  0.595096  0.095096  1
  Rh  Rh22  1  0.750000  0.904904  0.404904  1
  Rh  Rh23  1  0.250000  0.595096  0.404904  1
  Rh  Rh24  1  0.750000  0.100307  0.899693  1
  Rh  Rh25  1  0.250000  0.399693  0.899693  1
  Rh  Rh26  1  0.250000  0.100307  0.600307  1
  Rh  Rh27  1  0.750000  0.399693  0.600307  1
  Rh  Rh28  1  0.117514  0.750000  0.750000  1
  Rh  Rh29  1  0.617514  0.750000  0.750000  1
  Rh  Rh30  1  0.882486  0.250000  0.250000  1
  Rh  Rh31  1  0.382486  0.250000  0.250000  1
