# generated using pymatgen
data_La3Yb3(HoSn2)4
_symmetry_space_group_name_H-M   'P 1'
_cell_length_a   7.99652600
_cell_length_b   8.44910788
_cell_length_c   15.91100646
_cell_angle_alpha   90.11041368
_cell_angle_beta   90.00000000
_cell_angle_gamma   90.00000000
_symmetry_Int_Tables_number   1
_chemical_formula_structural   La3Yb3(HoSn2)4
_chemical_formula_sum   'La6 Yb6 Ho8 Sn16'
_cell_volume   1075.00146172
_cell_formula_units_Z   2
loop_
 _symmetry_equiv_pos_site_id
 _symmetry_equiv_pos_as_xyz
  1  'x, y, z'
loop_
 _atom_site_type_symbol
 _atom_site_label
 _atom_site_symmetry_multiplicity
 _atom_site_fract_x
 _atom_site_fract_y
 _atom_site_fract_z
 _atom_site_occupancy
  La  La0  1  0.503110  0.682550  0.593829  1
  La  La1  1  0.003110  0.817450  0.906171  1
  La  La2  1  0.497581  0.317371  0.095383  1
  La  La3  1  0.997581  0.182629  0.404617  1
  La  La4  1  0.496670  0.318768  0.404509  1
  La  La5  1  0.996670  0.181232  0.095491  1
  Yb  Yb6  1  0.500843  0.685008  0.905880  1
  Yb  Yb7  1  0.000843  0.814992  0.594120  1
  Yb  Yb8  1  0.828584  0.508257  0.750347  1
  Yb  Yb9  1  0.328584  0.991743  0.749653  1
  Yb  Yb10  1  0.171799  0.494440  0.250032  1
  Yb  Yb11  1  0.671799  0.005560  0.249968  1
  Ho  Ho12  1  0.666898  0.169550  0.623766  1
  Ho  Ho13  1  0.166898  0.330450  0.876234  1
  Ho  Ho14  1  0.335220  0.829817  0.123105  1
  Ho  Ho15  1  0.835220  0.670183  0.376895  1
  Ho  Ho16  1  0.333579  0.829372  0.376613  1
  Ho  Ho17  1  0.833579  0.670628  0.123387  1
  Ho  Ho18  1  0.665182  0.168731  0.875806  1
  Ho  Ho19  1  0.165182  0.331269  0.624194  1
  Sn  Sn20  1  0.673844  0.962601  0.460960  1
  Sn  Sn21  1  0.173844  0.537399  0.039040  1
  Sn  Sn22  1  0.325213  0.038552  0.961125  1
  Sn  Sn23  1  0.825213  0.461448  0.538875  1
  Sn  Sn24  1  0.324564  0.036847  0.539591  1
  Sn  Sn25  1  0.824564  0.463153  0.960409  1
  Sn  Sn26  1  0.674838  0.961859  0.039208  1
  Sn  Sn27  1  0.174838  0.538141  0.460792  1
  Sn  Sn28  1  0.464495  0.376146  0.749985  1
  Sn  Sn29  1  0.964495  0.123854  0.750015  1
  Sn  Sn30  1  0.535358  0.625002  0.249521  1
  Sn  Sn31  1  0.035358  0.874998  0.250479  1
  Sn  Sn32  1  0.707586  0.870940  0.750149  1
  Sn  Sn33  1  0.207586  0.629060  0.749851  1
  Sn  Sn34  1  0.294636  0.130227  0.249557  1
  Sn  Sn35  1  0.794636  0.369773  0.250443  1
