# generated using pymatgen
data_CeDy2Cd3RuAu2
_symmetry_space_group_name_H-M   'P 1'
_cell_length_a   7.90350718
_cell_length_b   8.03365941
_cell_length_c   3.82487300
_cell_angle_alpha   90.00000000
_cell_angle_beta   90.00000000
_cell_angle_gamma   122.40644667
_symmetry_Int_Tables_number   1
_chemical_formula_structural   CeDy2Cd3RuAu2
_chemical_formula_sum   'Ce1 Dy2 Cd3 Ru1 Au2'
_cell_volume   205.03614443
_cell_formula_units_Z   1
loop_
 _symmetry_equiv_pos_site_id
 _symmetry_equiv_pos_as_xyz
  1  'x, y, z'
loop_
 _atom_site_type_symbol
 _atom_site_label
 _atom_site_symmetry_multiplicity
 _atom_site_fract_x
 _atom_site_fract_y
 _atom_site_fract_z
 _atom_site_occupancy
  Ce  Ce0  1  0.041457  0.434622  0.000000  1
  Dy  Dy1  1  0.589780  0.606974  0.000000  1
  Dy  Dy2  1  0.396430  0.984756  0.000000  1
  Cd  Cd3  1  0.000531  0.741979  0.500000  1
  Cd  Cd4  1  0.274389  0.264443  0.500000  1
  Cd  Cd5  1  0.727388  0.998060  0.500000  1
  Ru  Ru6  1  0.301826  0.639013  0.500000  1
  Au  Au7  1  0.997460  0.998910  0.000000  1
  Au  Au8  1  0.670740  0.331243  0.500000  1
