# generated using pymatgen
data_Dy2Ho18Bi7Sb5
_symmetry_space_group_name_H-M   'P 1'
_cell_length_a   8.15602793
_cell_length_b   9.42006657
_cell_length_c   11.93744401
_cell_angle_alpha   90.04485354
_cell_angle_beta   89.93659936
_cell_angle_gamma   89.99035501
_symmetry_Int_Tables_number   1
_chemical_formula_structural   Dy2Ho18Bi7Sb5
_chemical_formula_sum   'Dy2 Ho18 Bi7 Sb5'
_cell_volume   917.15686097
_cell_formula_units_Z   1
loop_
 _symmetry_equiv_pos_site_id
 _symmetry_equiv_pos_as_xyz
  1  'x, y, z'
loop_
 _atom_site_type_symbol
 _atom_site_label
 _atom_site_symmetry_multiplicity
 _atom_site_fract_x
 _atom_site_fract_y
 _atom_site_fract_z
 _atom_site_occupancy
  Dy  Dy0  1  0.684486  0.750065  0.781856  1
  Dy  Dy1  1  0.184415  0.749941  0.717960  1
  Ho  Ho2  1  0.355946  0.753033  0.214237  1
  Ho  Ho3  1  0.850144  0.752472  0.287314  1
  Ho  Ho4  1  0.647054  0.250217  0.786687  1
  Ho  Ho5  1  0.147065  0.249961  0.713074  1
  Ho  Ho6  1  0.689322  0.563228  0.057779  1
  Ho  Ho7  1  0.191475  0.937710  0.441532  1
  Ho  Ho8  1  0.310600  0.062882  0.942319  1
  Ho  Ho9  1  0.810256  0.436867  0.557331  1
  Ho  Ho10  1  0.310923  0.436992  0.942482  1
  Ho  Ho11  1  0.809450  0.062319  0.555963  1
  Ho  Ho12  1  0.688035  0.937368  0.059968  1
  Ho  Ho13  1  0.189834  0.563003  0.442028  1
  Ho  Ho14  1  0.472735  0.247779  0.486445  1
  Ho  Ho15  1  0.971953  0.250022  0.012521  1
  Ho  Ho16  1  0.528642  0.752189  0.510471  1
  Ho  Ho17  1  0.027689  0.750139  0.987941  1
  Ho  Ho18  1  0.317339  0.247736  0.218759  1
  Ho  Ho19  1  0.812607  0.246642  0.282559  1
  Bi  Bi20  1  0.065070  0.504314  0.175314  1
  Bi  Bi21  1  0.435304  0.495571  0.674140  1
  Bi  Bi22  1  0.934886  0.004463  0.825035  1
  Bi  Bi23  1  0.435012  0.004510  0.675053  1
  Bi  Bi24  1  0.935027  0.495463  0.825114  1
  Bi  Bi25  1  0.564947  0.504100  0.325029  1
  Bi  Bi26  1  0.065197  0.995751  0.174775  1
  Sb  Sb27  1  0.407602  0.750032  0.958346  1
  Sb  Sb28  1  0.908379  0.749872  0.541839  1
  Sb  Sb29  1  0.592260  0.250059  0.041971  1
  Sb  Sb30  1  0.091932  0.249998  0.457660  1
  Sb  Sb31  1  0.564411  0.995302  0.326498  1
