# generated using pymatgen
data_RbSc2(H6Ir)2
_symmetry_space_group_name_H-M   'P 1'
_cell_length_a   4.76189000
_cell_length_b   4.76189112
_cell_length_c   9.10818400
_cell_angle_alpha   90.00000000
_cell_angle_beta   90.00000000
_cell_angle_gamma   119.99999224
_symmetry_Int_Tables_number   1
_chemical_formula_structural   RbSc2(H6Ir)2
_chemical_formula_sum   'Rb1 Sc2 H12 Ir2'
_cell_volume   178.86331720
_cell_formula_units_Z   1
loop_
 _symmetry_equiv_pos_site_id
 _symmetry_equiv_pos_as_xyz
  1  'x, y, z'
loop_
 _atom_site_type_symbol
 _atom_site_label
 _atom_site_symmetry_multiplicity
 _atom_site_fract_x
 _atom_site_fract_y
 _atom_site_fract_z
 _atom_site_occupancy
  Rb  Rb0  1  0.000000  0.000000  0.000000  1
  Sc  Sc1  1  0.666667  0.333333  0.377734  1
  Sc  Sc2  1  0.333333  0.666667  0.622266  1
  H  H3  1  0.160274  0.839726  0.399178  1
  H  H4  1  0.679453  0.839726  0.399178  1
  H  H5  1  0.160274  0.320547  0.399178  1
  H  H6  1  0.839726  0.160274  0.600822  1
  H  H7  1  0.320547  0.160274  0.600822  1
  H  H8  1  0.839726  0.679453  0.600822  1
  H  H9  1  0.501130  0.002259  0.808783  1
  H  H10  1  0.501130  0.498870  0.808783  1
  H  H11  1  0.997741  0.498870  0.808783  1
  H  H12  1  0.498870  0.997741  0.191217  1
  H  H13  1  0.498870  0.501130  0.191217  1
  H  H14  1  0.002259  0.501130  0.191217  1
  Ir  Ir15  1  0.666667  0.333333  0.699553  1
  Ir  Ir16  1  0.333333  0.666667  0.300447  1
