# generated using pymatgen
data_Tm8TlCd3Au8
_symmetry_space_group_name_H-M   'P 1'
_cell_length_a   7.93903200
_cell_length_b   7.93903200
_cell_length_c   7.29511000
_cell_angle_alpha   90.00000000
_cell_angle_beta   90.00000000
_cell_angle_gamma   90.00000000
_symmetry_Int_Tables_number   1
_chemical_formula_structural   Tm8TlCd3Au8
_chemical_formula_sum   'Tm8 Tl1 Cd3 Au8'
_cell_volume   459.79786437
_cell_formula_units_Z   1
loop_
 _symmetry_equiv_pos_site_id
 _symmetry_equiv_pos_as_xyz
  1  'x, y, z'
loop_
 _atom_site_type_symbol
 _atom_site_label
 _atom_site_symmetry_multiplicity
 _atom_site_fract_x
 _atom_site_fract_y
 _atom_site_fract_z
 _atom_site_occupancy
  Tm  Tm0  1  0.677671  0.322082  0.500267  1
  Tm  Tm1  1  0.322329  0.677918  0.500267  1
  Tm  Tm2  1  0.177918  0.177671  0.999733  1
  Tm  Tm3  1  0.822082  0.822329  0.999733  1
  Tm  Tm4  1  0.838445  0.838956  0.500505  1
  Tm  Tm5  1  0.161555  0.161044  0.500505  1
  Tm  Tm6  1  0.338956  0.661555  0.999495  1
  Tm  Tm7  1  0.661044  0.338445  0.999495  1
  Tl  Tl8  1  0.000000  0.500000  0.250000  1
  Cd  Cd9  1  0.500000  0.000000  0.250000  1
  Cd  Cd10  1  0.000000  0.500000  0.750000  1
  Cd  Cd11  1  0.500000  0.000000  0.750000  1
  Au  Au12  1  0.867649  0.125408  0.233428  1
  Au  Au13  1  0.132351  0.874592  0.233428  1
  Au  Au14  1  0.370494  0.370405  0.733863  1
  Au  Au15  1  0.629506  0.629595  0.733863  1
  Au  Au16  1  0.129595  0.870494  0.766137  1
  Au  Au17  1  0.870405  0.129506  0.766137  1
  Au  Au18  1  0.625408  0.632351  0.266572  1
  Au  Au19  1  0.374592  0.367649  0.266572  1
