# generated using pymatgen
data_Mg3Al3Pt10
_symmetry_space_group_name_H-M   'P 1'
_cell_length_a   4.06977200
_cell_length_b   5.52217928
_cell_length_c   10.86861206
_cell_angle_alpha   89.45715797
_cell_angle_beta   90.00000000
_cell_angle_gamma   90.00000000
_symmetry_Int_Tables_number   1
_chemical_formula_structural   Mg3Al3Pt10
_chemical_formula_sum   'Mg3 Al3 Pt10'
_cell_volume   244.25033988
_cell_formula_units_Z   1
loop_
 _symmetry_equiv_pos_site_id
 _symmetry_equiv_pos_as_xyz
  1  'x, y, z'
loop_
 _atom_site_type_symbol
 _atom_site_label
 _atom_site_symmetry_multiplicity
 _atom_site_fract_x
 _atom_site_fract_y
 _atom_site_fract_z
 _atom_site_occupancy
  Mg  Mg0  1  0.500000  0.191991  0.639016  1
  Mg  Mg1  1  0.500000  0.815061  0.362520  1
  Mg  Mg2  1  0.500000  0.685904  0.860510  1
  Al  Al3  1  0.500000  0.319092  0.141463  1
  Al  Al4  1  0.000000  0.499903  0.500589  1
  Al  Al5  1  0.000000  0.985350  0.996798  1
  Pt  Pt6  1  0.500000  0.303537  0.387814  1
  Pt  Pt7  1  0.500000  0.699602  0.607715  1
  Pt  Pt8  1  0.500000  0.795700  0.107767  1
  Pt  Pt9  1  0.500000  0.194023  0.898320  1
  Pt  Pt10  1  0.000000  0.444289  0.742500  1
  Pt  Pt11  1  0.000000  0.566200  0.260828  1
  Pt  Pt12  1  0.000000  0.945006  0.758777  1
  Pt  Pt13  1  0.000000  0.070172  0.231005  1
  Pt  Pt14  1  0.000000  0.482040  0.006411  1
  Pt  Pt15  1  0.000000  0.002128  0.497966  1
