# generated using pymatgen
data_TbTm12Lu7(CoSb2)4
_symmetry_space_group_name_H-M   'P 1'
_cell_length_a   7.71509769
_cell_length_b   8.72865613
_cell_length_c   12.02611334
_cell_angle_alpha   89.98706593
_cell_angle_beta   90.05922809
_cell_angle_gamma   90.01447977
_symmetry_Int_Tables_number   1
_chemical_formula_structural   TbTm12Lu7(CoSb2)4
_chemical_formula_sum   'Tb1 Tm12 Lu7 Co4 Sb8'
_cell_volume   809.86727329
_cell_formula_units_Z   1
loop_
 _symmetry_equiv_pos_site_id
 _symmetry_equiv_pos_as_xyz
  1  'x, y, z'
loop_
 _atom_site_type_symbol
 _atom_site_label
 _atom_site_symmetry_multiplicity
 _atom_site_fract_x
 _atom_site_fract_y
 _atom_site_fract_z
 _atom_site_occupancy
  Tb  Tb0  1  0.877276  0.749876  0.806651  1
  Tm  Tm1  1  0.155409  0.749911  0.203914  1
  Tm  Tm2  1  0.655162  0.250035  0.296270  1
  Tm  Tm3  1  0.844658  0.250027  0.795894  1
  Tm  Tm4  1  0.345454  0.749983  0.703633  1
  Tm  Tm5  1  0.447822  0.749913  0.997637  1
  Tm  Tm6  1  0.948319  0.249990  0.501846  1
  Tm  Tm7  1  0.550906  0.250117  0.002585  1
  Tm  Tm8  1  0.052304  0.749977  0.497772  1
  Tm  Tm9  1  0.620689  0.750027  0.309075  1
  Tm  Tm10  1  0.121211  0.250076  0.191550  1
  Tm  Tm11  1  0.379305  0.250001  0.690768  1
  Tm  Tm12  1  0.823727  0.963933  0.066174  1
  Lu  Lu13  1  0.324398  0.037034  0.434864  1
  Lu  Lu14  1  0.176254  0.460965  0.935663  1
  Lu  Lu15  1  0.675661  0.537021  0.564777  1
  Lu  Lu16  1  0.176489  0.039015  0.935587  1
  Lu  Lu17  1  0.675643  0.962971  0.564750  1
  Lu  Lu18  1  0.824468  0.536082  0.066087  1
  Lu  Lu19  1  0.324433  0.462940  0.434869  1
  Co  Co20  1  0.432266  0.749995  0.490811  1
  Co  Co21  1  0.932266  0.250232  0.009451  1
  Co  Co22  1  0.567740  0.250004  0.508733  1
  Co  Co23  1  0.068344  0.749749  0.991304  1
  Sb  Sb24  1  0.930891  0.991464  0.328117  1
  Sb  Sb25  1  0.430533  0.008375  0.172237  1
  Sb  Sb26  1  0.071234  0.490227  0.671348  1
  Sb  Sb27  1  0.567119  0.507238  0.828057  1
  Sb  Sb28  1  0.071224  0.009802  0.671366  1
  Sb  Sb29  1  0.567185  0.992781  0.828058  1
  Sb  Sb30  1  0.930836  0.508555  0.328014  1
  Sb  Sb31  1  0.430770  0.491683  0.172136  1
