# generated using pymatgen
data_HfScZn2PtRh
_symmetry_space_group_name_H-M   'P 1'
_cell_length_a   5.05398749
_cell_length_b   5.05398723
_cell_length_c   5.26213400
_cell_angle_alpha   90.00000000
_cell_angle_beta   90.00000000
_cell_angle_gamma   129.95201018
_symmetry_Int_Tables_number   1
_chemical_formula_structural   HfScZn2PtRh
_chemical_formula_sum   'Hf1 Sc1 Zn2 Pt1 Rh1'
_cell_volume   103.03603569
_cell_formula_units_Z   1
loop_
 _symmetry_equiv_pos_site_id
 _symmetry_equiv_pos_as_xyz
  1  'x, y, z'
loop_
 _atom_site_type_symbol
 _atom_site_label
 _atom_site_symmetry_multiplicity
 _atom_site_fract_x
 _atom_site_fract_y
 _atom_site_fract_z
 _atom_site_occupancy
  Hf  Hf0  1  0.710354  0.289646  0.250000  1
  Sc  Sc1  1  0.291442  0.708558  0.750000  1
  Zn  Zn2  1  0.002147  0.997853  0.496291  1
  Zn  Zn3  1  0.002147  0.997853  0.003709  1
  Pt  Pt4  1  0.599424  0.400576  0.750000  1
  Rh  Rh5  1  0.394485  0.605515  0.250000  1
