# generated using pymatgen
data_La8SiSBr12
_symmetry_space_group_name_H-M   'P 1'
_cell_length_a   4.24173900
_cell_length_b   13.82613759
_cell_length_c   14.63570700
_cell_angle_alpha   89.98330789
_cell_angle_beta   90.00000000
_cell_angle_gamma   90.00000000
_symmetry_Int_Tables_number   1
_chemical_formula_structural   La8SiSBr12
_chemical_formula_sum   'La8 Si1 S1 Br12'
_cell_volume   858.33832576
_cell_formula_units_Z   1
loop_
 _symmetry_equiv_pos_site_id
 _symmetry_equiv_pos_as_xyz
  1  'x, y, z'
loop_
 _atom_site_type_symbol
 _atom_site_label
 _atom_site_symmetry_multiplicity
 _atom_site_fract_x
 _atom_site_fract_y
 _atom_site_fract_z
 _atom_site_occupancy
  La  La0  1  0.500000  0.116241  0.344280  1
  La  La1  1  0.500000  0.883759  0.655720  1
  La  La2  1  0.500000  0.621109  0.162318  1
  La  La3  1  0.500000  0.378891  0.837682  1
  La  La4  1  0.000000  0.112982  0.575202  1
  La  La5  1  0.000000  0.887018  0.424798  1
  La  La6  1  0.000000  0.622017  0.918481  1
  La  La7  1  0.000000  0.377983  0.081519  1
  Si  Si8  1  0.500000  0.500000  0.000000  1
  S  S9  1  0.500000  0.000000  0.500000  1
  Br  Br10  1  0.500000  0.240899  0.166749  1
  Br  Br11  1  0.500000  0.759101  0.833251  1
  Br  Br12  1  0.500000  0.750549  0.339887  1
  Br  Br13  1  0.500000  0.249451  0.660113  1
  Br  Br14  1  0.000000  0.254728  0.413835  1
  Br  Br15  1  0.000000  0.745272  0.586165  1
  Br  Br16  1  0.000000  0.757560  0.088565  1
  Br  Br17  1  0.000000  0.242440  0.911435  1
  Br  Br18  1  0.000000  0.000063  0.244502  1
  Br  Br19  1  0.000000  0.999937  0.755498  1
  Br  Br20  1  0.000000  0.502157  0.259776  1
  Br  Br21  1  0.000000  0.497843  0.740224  1
