# generated using pymatgen
data_DyYB6IrRh8
_symmetry_space_group_name_H-M   'P 1'
_cell_length_a   5.62054802
_cell_length_b   5.60758403
_cell_length_c   8.59425100
_cell_angle_alpha   90.00000000
_cell_angle_beta   90.00000000
_cell_angle_gamma   119.92372674
_symmetry_Int_Tables_number   1
_chemical_formula_structural   DyYB6IrRh8
_chemical_formula_sum   'Dy1 Y1 B6 Ir1 Rh8'
_cell_volume   234.76124027
_cell_formula_units_Z   1
loop_
 _symmetry_equiv_pos_site_id
 _symmetry_equiv_pos_as_xyz
  1  'x, y, z'
loop_
 _atom_site_type_symbol
 _atom_site_label
 _atom_site_symmetry_multiplicity
 _atom_site_fract_x
 _atom_site_fract_y
 _atom_site_fract_z
 _atom_site_occupancy
  Dy  Dy0  1  0.000000  0.000000  0.705725  1
  Y  Y1  1  0.000000  0.000000  0.294318  1
  B  B2  1  0.666852  0.333426  0.000015  1
  B  B3  1  0.333148  0.666574  0.000015  1
  B  B4  1  0.667746  0.333873  0.667851  1
  B  B5  1  0.332254  0.666127  0.667851  1
  B  B6  1  0.332255  0.666128  0.332151  1
  B  B7  1  0.667745  0.333872  0.332151  1
  Ir  Ir8  1  0.000000  0.500000  0.500013  1
  Rh  Rh9  1  0.500000  0.500000  0.835778  1
  Rh  Rh10  1  0.500000  0.000000  0.835778  1
  Rh  Rh11  1  0.000000  0.500000  0.836306  1
  Rh  Rh12  1  0.500000  0.500000  0.164185  1
  Rh  Rh13  1  0.500000  0.000000  0.164185  1
  Rh  Rh14  1  0.000000  0.500000  0.163655  1
  Rh  Rh15  1  0.500000  0.500000  0.500012  1
  Rh  Rh16  1  0.500000  0.000000  0.500012  1
