# generated using pymatgen
data_La20Sn5Ge4Sb3
_symmetry_space_group_name_H-M   'P 1'
_cell_length_a   8.32582841
_cell_length_b   9.57938819
_cell_length_c   12.85927900
_cell_angle_alpha   89.87836121
_cell_angle_beta   89.95637696
_cell_angle_gamma   89.91876707
_symmetry_Int_Tables_number   1
_chemical_formula_structural   La20Sn5Ge4Sb3
_chemical_formula_sum   'La20 Sn5 Ge4 Sb3'
_cell_volume   1025.60542200
_cell_formula_units_Z   1
loop_
 _symmetry_equiv_pos_site_id
 _symmetry_equiv_pos_as_xyz
  1  'x, y, z'
loop_
 _atom_site_type_symbol
 _atom_site_label
 _atom_site_symmetry_multiplicity
 _atom_site_fract_x
 _atom_site_fract_y
 _atom_site_fract_z
 _atom_site_occupancy
  La  La0  1  0.042039  0.745281  0.501244  1
  La  La1  1  0.957583  0.254416  0.498693  1
  La  La2  1  0.541061  0.252108  0.999028  1
  La  La3  1  0.451804  0.748039  0.001452  1
  La  La4  1  0.860692  0.749509  0.791210  1
  La  La5  1  0.140984  0.248929  0.208807  1
  La  La6  1  0.361485  0.250950  0.709034  1
  La  La7  1  0.638811  0.749162  0.291137  1
  La  La8  1  0.694533  0.544266  0.567241  1
  La  La9  1  0.305752  0.456669  0.433550  1
  La  La10  1  0.193856  0.455575  0.933296  1
  La  La11  1  0.305267  0.045160  0.435431  1
  La  La12  1  0.806020  0.542917  0.066309  1
  La  La13  1  0.695424  0.955455  0.563796  1
  La  La14  1  0.803538  0.957435  0.064171  1
  La  La15  1  0.194601  0.045590  0.934697  1
  La  La16  1  0.340942  0.750768  0.715327  1
  La  La17  1  0.660489  0.249083  0.284599  1
  La  La18  1  0.840682  0.249816  0.784737  1
  La  La19  1  0.160650  0.750136  0.215863  1
  Sn  Sn20  1  0.574281  0.507879  0.827960  1
  Sn  Sn21  1  0.427611  0.491919  0.172272  1
  Sn  Sn22  1  0.073621  0.492077  0.672815  1
  Sn  Sn23  1  0.427486  0.007452  0.171661  1
  Sn  Sn24  1  0.926956  0.507542  0.327309  1
  Ge  Ge25  1  0.070686  0.751200  0.979869  1
  Ge  Ge26  1  0.928161  0.248851  0.019965  1
  Ge  Ge27  1  0.573141  0.249391  0.520450  1
  Ge  Ge28  1  0.427293  0.751512  0.480194  1
  Sb  Sb29  1  0.574461  0.991781  0.827689  1
  Sb  Sb30  1  0.926254  0.991299  0.329164  1
  Sb  Sb31  1  0.073835  0.007836  0.671028  1
