# generated using pymatgen
data_ScPa3Co2(NiGe2)2
_symmetry_space_group_name_H-M   'P 1'
_cell_length_a   4.21126200
_cell_length_b   6.83748915
_cell_length_c   7.21511658
_cell_angle_alpha   89.73274822
_cell_angle_beta   90.00000000
_cell_angle_gamma   90.00000000
_symmetry_Int_Tables_number   1
_chemical_formula_structural   ScPa3Co2(NiGe2)2
_chemical_formula_sum   'Sc1 Pa3 Co2 Ni2 Ge4'
_cell_volume   207.75311312
_cell_formula_units_Z   1
loop_
 _symmetry_equiv_pos_site_id
 _symmetry_equiv_pos_as_xyz
  1  'x, y, z'
loop_
 _atom_site_type_symbol
 _atom_site_label
 _atom_site_symmetry_multiplicity
 _atom_site_fract_x
 _atom_site_fract_y
 _atom_site_fract_z
 _atom_site_occupancy
  Sc  Sc0  1  0.750000  0.510956  0.787033  1
  Pa  Pa1  1  0.250000  0.991839  0.300427  1
  Pa  Pa2  1  0.250000  0.486661  0.211476  1
  Pa  Pa3  1  0.750000  0.006917  0.704102  1
  Co  Co4  1  0.250000  0.729964  0.572133  1
  Co  Co5  1  0.750000  0.284461  0.413796  1
  Ni  Ni6  1  0.250000  0.213738  0.920315  1
  Ni  Ni7  1  0.750000  0.794263  0.085365  1
  Ge  Ge8  1  0.250000  0.310646  0.596939  1
  Ge  Ge9  1  0.250000  0.788950  0.906944  1
  Ge  Ge10  1  0.750000  0.683959  0.419503  1
  Ge  Ge11  1  0.750000  0.197645  0.081967  1
