# generated using pymatgen
data_Nb3Fe2GeN
_symmetry_space_group_name_H-M   'P 1'
_cell_length_a   8.06220732
_cell_length_b   8.07089810
_cell_length_c   8.05888452
_cell_angle_alpha   59.99313141
_cell_angle_beta   59.96203844
_cell_angle_gamma   59.96988278
_symmetry_Int_Tables_number   1
_chemical_formula_structural   Nb3Fe2GeN
_chemical_formula_sum   'Nb12 Fe8 Ge4 N4'
_cell_volume   370.58649786
_cell_formula_units_Z   4
loop_
 _symmetry_equiv_pos_site_id
 _symmetry_equiv_pos_as_xyz
  1  'x, y, z'
loop_
 _atom_site_type_symbol
 _atom_site_label
 _atom_site_symmetry_multiplicity
 _atom_site_fract_x
 _atom_site_fract_y
 _atom_site_fract_z
 _atom_site_occupancy
  Nb  Nb0  1  0.801688  0.802025  0.198178  1
  Nb  Nb1  1  0.198087  0.198222  0.801879  1
  Nb  Nb2  1  0.801776  0.198059  0.802042  1
  Nb  Nb3  1  0.198184  0.801791  0.198345  1
  Nb  Nb4  1  0.198099  0.801858  0.801796  1
  Nb  Nb5  1  0.801679  0.198179  0.198250  1
  Nb  Nb6  1  0.448312  0.447975  0.051822  1
  Nb  Nb7  1  0.051913  0.051778  0.448121  1
  Nb  Nb8  1  0.448224  0.051941  0.447958  1
  Nb  Nb9  1  0.051816  0.448209  0.051655  1
  Nb  Nb10  1  0.051901  0.448142  0.448204  1
  Nb  Nb11  1  0.448321  0.051821  0.051750  1
  Fe  Fe12  1  0.741229  0.419891  0.419282  1
  Fe  Fe13  1  0.420240  0.740477  0.419365  1
  Fe  Fe14  1  0.419689  0.419664  0.740393  1
  Fe  Fe15  1  0.419541  0.419924  0.419546  1
  Fe  Fe16  1  0.508771  0.830109  0.830718  1
  Fe  Fe17  1  0.829760  0.509523  0.830635  1
  Fe  Fe18  1  0.830311  0.830336  0.509607  1
  Fe  Fe19  1  0.830459  0.830076  0.830454  1
  Ge  Ge20  1  0.125000  0.625000  0.625000  1
  Ge  Ge21  1  0.625000  0.125000  0.625000  1
  Ge  Ge22  1  0.625000  0.625000  0.125000  1
  Ge  Ge23  1  0.625000  0.625000  0.625000  1
  N  N24  1  0.625000  0.125000  0.125000  1
  N  N25  1  0.125000  0.625000  0.125000  1
  N  N26  1  0.125000  0.125000  0.625000  1
  N  N27  1  0.125000  0.125000  0.125000  1
