# generated using pymatgen
data_Pr16Sm4Si15Rh
_symmetry_space_group_name_H-M   'P 1'
_cell_length_a   7.90536072
_cell_length_b   7.89386562
_cell_length_c   15.23768403
_cell_angle_alpha   90.08519491
_cell_angle_beta   89.81545214
_cell_angle_gamma   90.19588533
_symmetry_Int_Tables_number   1
_chemical_formula_structural   Pr16Sm4Si15Rh
_chemical_formula_sum   'Pr16 Sm4 Si15 Rh1'
_cell_volume   950.87870155
_cell_formula_units_Z   1
loop_
 _symmetry_equiv_pos_site_id
 _symmetry_equiv_pos_as_xyz
  1  'x, y, z'
loop_
 _atom_site_type_symbol
 _atom_site_label
 _atom_site_symmetry_multiplicity
 _atom_site_fract_x
 _atom_site_fract_y
 _atom_site_fract_z
 _atom_site_occupancy
  Pr  Pr0  1  0.373685  0.010583  0.448492  1
  Pr  Pr1  1  0.489990  0.874683  0.698427  1
  Pr  Pr2  1  0.510421  0.124026  0.197568  1
  Pr  Pr3  1  0.875183  0.487976  0.300202  1
  Pr  Pr4  1  0.124408  0.507867  0.799327  1
  Pr  Pr5  1  0.627089  0.988479  0.948853  1
  Pr  Pr6  1  0.004203  0.376128  0.552076  1
  Pr  Pr7  1  0.988171  0.625464  0.051517  1
  Pr  Pr8  1  0.134857  0.986116  0.873433  1
  Pr  Pr9  1  0.517398  0.630871  0.125863  1
  Pr  Pr10  1  0.473347  0.361561  0.629205  1
  Pr  Pr11  1  0.627985  0.516907  0.873550  1
  Pr  Pr12  1  0.372772  0.482522  0.373490  1
  Pr  Pr13  1  0.873210  0.020918  0.377261  1
  Pr  Pr14  1  0.981763  0.126546  0.123954  1
  Pr  Pr15  1  0.026153  0.881132  0.625110  1
  Sm  Sm16  1  0.305769  0.306917  0.998466  1
  Sm  Sm17  1  0.189835  0.808724  0.249934  1
  Sm  Sm18  1  0.817221  0.188025  0.750404  1
  Sm  Sm19  1  0.691902  0.687854  0.500712  1
  Si  Si20  1  0.331634  0.693496  0.951281  1
  Si  Si21  1  0.665193  0.305634  0.453295  1
  Si  Si22  1  0.696030  0.334341  0.048931  1
  Si  Si23  1  0.306318  0.668610  0.547415  1
  Si  Si24  1  0.806829  0.831913  0.203918  1
  Si  Si25  1  0.168836  0.195410  0.297033  1
  Si  Si26  1  0.833718  0.804791  0.797979  1
  Si  Si27  1  0.287834  0.923028  0.059740  1
  Si  Si28  1  0.578574  0.786673  0.311293  1
  Si  Si29  1  0.429402  0.207484  0.813320  1
  Si  Si30  1  0.783065  0.580849  0.688821  1
  Si  Si31  1  0.212997  0.423268  0.189014  1
  Si  Si32  1  0.706076  0.073242  0.559990  1
  Si  Si33  1  0.920894  0.287627  0.940346  1
  Si  Si34  1  0.078756  0.715660  0.440298  1
  Rh  Rh35  1  0.188480  0.174679  0.699481  1
