# generated using pymatgen
data_V12GaSi2Os
_symmetry_space_group_name_H-M   'P 1'
_cell_length_a   4.74114600
_cell_length_b   4.74548000
_cell_length_c   9.49018900
_cell_angle_alpha   90.00000000
_cell_angle_beta   90.00000000
_cell_angle_gamma   90.00000000
_symmetry_Int_Tables_number   1
_chemical_formula_structural   V12GaSi2Os
_chemical_formula_sum   'V12 Ga1 Si2 Os1'
_cell_volume   213.51989062
_cell_formula_units_Z   1
loop_
 _symmetry_equiv_pos_site_id
 _symmetry_equiv_pos_as_xyz
  1  'x, y, z'
loop_
 _atom_site_type_symbol
 _atom_site_label
 _atom_site_symmetry_multiplicity
 _atom_site_fract_x
 _atom_site_fract_y
 _atom_site_fract_z
 _atom_site_occupancy
  V  V0  1  0.000000  0.500000  0.123356  1
  V  V1  1  0.000000  0.500000  0.626819  1
  V  V2  1  0.500000  0.248920  0.744594  1
  V  V3  1  0.500000  0.248505  0.254519  1
  V  V4  1  0.756150  0.000000  0.002111  1
  V  V5  1  0.750333  0.000000  0.498786  1
  V  V6  1  0.000000  0.500000  0.870752  1
  V  V7  1  0.000000  0.500000  0.378350  1
  V  V8  1  0.500000  0.751080  0.744594  1
  V  V9  1  0.500000  0.751495  0.254519  1
  V  V10  1  0.243850  0.000000  0.002111  1
  V  V11  1  0.249667  0.000000  0.498786  1
  Ga  Ga12  1  0.500000  0.500000  0.001599  1
  Si  Si13  1  0.500000  0.500000  0.497576  1
  Si  Si14  1  0.000000  0.000000  0.250747  1
  Os  Os15  1  0.000000  0.000000  0.750783  1
