# generated using pymatgen
data_GaAgPbF6
_symmetry_space_group_name_H-M   'P 1'
_cell_length_a   5.49370800
_cell_length_b   9.64365800
_cell_length_c   10.81290700
_cell_angle_alpha   90.00000000
_cell_angle_beta   90.00000000
_cell_angle_gamma   90.00000000
_symmetry_Int_Tables_number   1
_chemical_formula_structural   GaAgPbF6
_chemical_formula_sum   'Ga4 Ag4 Pb4 F24'
_cell_volume   572.86176957
_cell_formula_units_Z   4
loop_
 _symmetry_equiv_pos_site_id
 _symmetry_equiv_pos_as_xyz
  1  'x, y, z'
loop_
 _atom_site_type_symbol
 _atom_site_label
 _atom_site_symmetry_multiplicity
 _atom_site_fract_x
 _atom_site_fract_y
 _atom_site_fract_z
 _atom_site_occupancy
  Ga  Ga0  1  0.041070  0.009836  0.133533  1
  Ga  Ga1  1  0.458930  0.990164  0.633533  1
  Ga  Ga2  1  0.958930  0.509836  0.366467  1
  Ga  Ga3  1  0.541070  0.490164  0.866467  1
  Ag  Ag4  1  0.043890  0.655265  0.073188  1
  Ag  Ag5  1  0.456110  0.344735  0.573188  1
  Ag  Ag6  1  0.956110  0.155265  0.426812  1
  Ag  Ag7  1  0.543890  0.844735  0.926812  1
  Pb  Pb8  1  0.510903  0.323911  0.170261  1
  Pb  Pb9  1  0.989097  0.676089  0.670261  1
  Pb  Pb10  1  0.489097  0.823911  0.329739  1
  Pb  Pb11  1  0.010903  0.176089  0.829739  1
  F  F12  1  0.213933  0.131059  0.600185  1
  F  F13  1  0.286067  0.868941  0.100185  1
  F  F14  1  0.786067  0.631059  0.899815  1
  F  F15  1  0.713933  0.368941  0.399815  1
  F  F16  1  0.197965  0.635100  0.305477  1
  F  F17  1  0.302035  0.364900  0.805477  1
  F  F18  1  0.802035  0.135100  0.194523  1
  F  F19  1  0.697965  0.864900  0.694523  1
  F  F20  1  0.224439  0.157155  0.054462  1
  F  F21  1  0.275561  0.842845  0.554462  1
  F  F22  1  0.775561  0.657155  0.445538  1
  F  F23  1  0.724439  0.342845  0.945538  1
  F  F24  1  0.159263  0.359825  0.307028  1
  F  F25  1  0.340737  0.640175  0.807028  1
  F  F26  1  0.840737  0.859825  0.192972  1
  F  F27  1  0.659263  0.140175  0.692972  1
  F  F28  1  0.386113  0.508110  0.025848  1
  F  F29  1  0.113887  0.491890  0.525848  1
  F  F30  1  0.613887  0.008110  0.474152  1
  F  F31  1  0.886113  0.991890  0.974152  1
  F  F32  1  0.219926  0.030237  0.285847  1
  F  F33  1  0.280074  0.969763  0.785847  1
  F  F34  1  0.780074  0.530237  0.214153  1
  F  F35  1  0.719926  0.469763  0.714153  1
