# generated using pymatgen
data_Ac2(AlPd2)3
_symmetry_space_group_name_H-M   'P 1'
_cell_length_a   8.68018844
_cell_length_b   8.68018859
_cell_length_c   8.68018932
_cell_angle_alpha   57.69828110
_cell_angle_beta   57.69827963
_cell_angle_gamma   57.69828102
_symmetry_Int_Tables_number   1
_chemical_formula_structural   Ac2(AlPd2)3
_chemical_formula_sum   'Ac4 Al6 Pd12'
_cell_volume   438.00174977
_cell_formula_units_Z   2
loop_
 _symmetry_equiv_pos_site_id
 _symmetry_equiv_pos_as_xyz
  1  'x, y, z'
loop_
 _atom_site_type_symbol
 _atom_site_label
 _atom_site_symmetry_multiplicity
 _atom_site_fract_x
 _atom_site_fract_y
 _atom_site_fract_z
 _atom_site_occupancy
  Ac  Ac0  1  0.906536  0.906536  0.906536  1
  Ac  Ac1  1  0.406536  0.406536  0.406536  1
  Ac  Ac2  1  0.093464  0.093464  0.093464  1
  Ac  Ac3  1  0.593464  0.593464  0.593464  1
  Al  Al4  1  0.550406  0.750000  0.949594  1
  Al  Al5  1  0.949594  0.550406  0.750000  1
  Al  Al6  1  0.750000  0.949594  0.550406  1
  Al  Al7  1  0.449594  0.250000  0.050406  1
  Al  Al8  1  0.050406  0.449594  0.250000  1
  Al  Al9  1  0.250000  0.050406  0.449594  1
  Pd  Pd10  1  0.469983  0.875646  0.203724  1
  Pd  Pd11  1  0.203724  0.469983  0.875646  1
  Pd  Pd12  1  0.875646  0.203724  0.469983  1
  Pd  Pd13  1  0.703724  0.375646  0.969983  1
  Pd  Pd14  1  0.969983  0.703724  0.375646  1
  Pd  Pd15  1  0.375646  0.969983  0.703724  1
  Pd  Pd16  1  0.530017  0.124354  0.796276  1
  Pd  Pd17  1  0.796276  0.530017  0.124354  1
  Pd  Pd18  1  0.124354  0.796276  0.530017  1
  Pd  Pd19  1  0.296276  0.624354  0.030017  1
  Pd  Pd20  1  0.030017  0.296276  0.624354  1
  Pd  Pd21  1  0.624354  0.030017  0.296276  1
