# generated using pymatgen
data_Er12Fe4BiOs
_symmetry_space_group_name_H-M   'P 1'
_cell_length_a   8.27500006
_cell_length_b   8.27482057
_cell_length_c   8.27500054
_cell_angle_alpha   110.96553506
_cell_angle_beta   111.27817488
_cell_angle_gamma   106.21909672
_symmetry_Int_Tables_number   1
_chemical_formula_structural   Er12Fe4BiOs
_chemical_formula_sum   'Er12 Fe4 Bi1 Os1'
_cell_volume   435.13257535
_cell_formula_units_Z   1
loop_
 _symmetry_equiv_pos_site_id
 _symmetry_equiv_pos_as_xyz
  1  'x, y, z'
loop_
 _atom_site_type_symbol
 _atom_site_label
 _atom_site_symmetry_multiplicity
 _atom_site_fract_x
 _atom_site_fract_y
 _atom_site_fract_z
 _atom_site_occupancy
  Er  Er0  1  0.273501  0.181662  0.455139  1
  Er  Er1  1  0.726499  0.818338  0.544861  1
  Er  Er2  1  0.273477  0.818338  0.091838  1
  Er  Er3  1  0.726523  0.181662  0.908162  1
  Er  Er4  1  0.616746  0.310197  0.306649  1
  Er  Er5  1  0.383254  0.689803  0.693351  1
  Er  Er6  1  0.003548  0.310197  0.693450  1
  Er  Er7  1  0.996452  0.689803  0.306550  1
  Er  Er8  1  0.217950  0.415702  0.197752  1
  Er  Er9  1  0.782050  0.584298  0.802248  1
  Er  Er10  1  0.218138  0.020503  0.802366  1
  Er  Er11  1  0.781862  0.979497  0.197634  1
  Fe  Fe12  1  0.999763  0.382724  0.382962  1
  Fe  Fe13  1  0.000237  0.617276  0.617038  1
  Fe  Fe14  1  0.394322  0.894385  0.500063  1
  Fe  Fe15  1  0.605678  0.105615  0.499937  1
  Bi  Bi16  1  0.500000  0.500000  0.000000  1
  Os  Os17  1  0.000000  0.000000  0.000000  1
