# generated using pymatgen
data_Lu5B4Pt7Rh8
_symmetry_space_group_name_H-M   'P 1'
_cell_length_a   4.20642000
_cell_length_b   4.20642000
_cell_length_c   20.66536300
_cell_angle_alpha   90.00000000
_cell_angle_beta   90.00000000
_cell_angle_gamma   90.00000000
_symmetry_Int_Tables_number   1
_chemical_formula_structural   Lu5B4Pt7Rh8
_chemical_formula_sum   'Lu5 B4 Pt7 Rh8'
_cell_volume   365.65229677
_cell_formula_units_Z   1
loop_
 _symmetry_equiv_pos_site_id
 _symmetry_equiv_pos_as_xyz
  1  'x, y, z'
loop_
 _atom_site_type_symbol
 _atom_site_label
 _atom_site_symmetry_multiplicity
 _atom_site_fract_x
 _atom_site_fract_y
 _atom_site_fract_z
 _atom_site_occupancy
  Lu  Lu0  1  0.000000  0.000000  0.901956  1
  Lu  Lu1  1  0.000000  0.000000  0.098044  1
  Lu  Lu2  1  0.000000  0.000000  0.298462  1
  Lu  Lu3  1  0.000000  0.000000  0.500000  1
  Lu  Lu4  1  0.000000  0.000000  0.701538  1
  B  B5  1  0.500000  0.500000  0.190556  1
  B  B6  1  0.500000  0.500000  0.397515  1
  B  B7  1  0.500000  0.500000  0.602485  1
  B  B8  1  0.500000  0.500000  0.809444  1
  Pt  Pt9  1  0.500000  0.500000  0.908298  1
  Pt  Pt10  1  0.500000  0.500000  0.091702  1
  Pt  Pt11  1  0.500000  0.500000  0.296318  1
  Pt  Pt12  1  0.500000  0.500000  0.500000  1
  Pt  Pt13  1  0.500000  0.500000  0.703682  1
  Pt  Pt14  1  0.500000  0.000000  0.000000  1
  Pt  Pt15  1  0.000000  0.500000  0.000000  1
  Rh  Rh16  1  0.500000  0.000000  0.198531  1
  Rh  Rh17  1  0.500000  0.000000  0.399486  1
  Rh  Rh18  1  0.500000  0.000000  0.600514  1
  Rh  Rh19  1  0.500000  0.000000  0.801469  1
  Rh  Rh20  1  0.000000  0.500000  0.198531  1
  Rh  Rh21  1  0.000000  0.500000  0.399486  1
  Rh  Rh22  1  0.000000  0.500000  0.600514  1
  Rh  Rh23  1  0.000000  0.500000  0.801469  1
