# generated using pymatgen
data_La2Zn6SiGe
_symmetry_space_group_name_H-M   'P 1'
_cell_length_a   6.03981356
_cell_length_b   6.03981376
_cell_length_c   5.95882400
_cell_angle_alpha   90.00000000
_cell_angle_beta   90.00000000
_cell_angle_gamma   117.53932213
_symmetry_Int_Tables_number   1
_chemical_formula_structural   La2Zn6SiGe
_chemical_formula_sum   'La2 Zn6 Si1 Ge1'
_cell_volume   192.74418009
_cell_formula_units_Z   1
loop_
 _symmetry_equiv_pos_site_id
 _symmetry_equiv_pos_as_xyz
  1  'x, y, z'
loop_
 _atom_site_type_symbol
 _atom_site_label
 _atom_site_symmetry_multiplicity
 _atom_site_fract_x
 _atom_site_fract_y
 _atom_site_fract_z
 _atom_site_occupancy
  La  La0  1  0.261263  0.738737  0.750000  1
  La  La1  1  0.737454  0.262546  0.250000  1
  Zn  Zn2  1  0.607252  0.392748  0.750000  1
  Zn  Zn3  1  0.387473  0.612527  0.250000  1
  Zn  Zn4  1  0.778393  0.774568  0.003757  1
  Zn  Zn5  1  0.778393  0.774568  0.496243  1
  Zn  Zn6  1  0.225432  0.221607  0.003757  1
  Zn  Zn7  1  0.225432  0.221607  0.496243  1
  Si  Si8  1  0.149169  0.850831  0.250000  1
  Ge  Ge9  1  0.849738  0.150262  0.750000  1
