# generated using pymatgen
data_BaZr8(In2Ir)7
_symmetry_space_group_name_H-M   'P 1'
_cell_length_a   9.75591755
_cell_length_b   9.75581304
_cell_length_c   9.75586535
_cell_angle_alpha   60.23383602
_cell_angle_beta   60.23567066
_cell_angle_gamma   60.23486451
_symmetry_Int_Tables_number   1
_chemical_formula_structural   BaZr8(In2Ir)7
_chemical_formula_sum   'Ba1 Zr8 In14 Ir7'
_cell_volume   660.06195807
_cell_formula_units_Z   1
loop_
 _symmetry_equiv_pos_site_id
 _symmetry_equiv_pos_as_xyz
  1  'x, y, z'
loop_
 _atom_site_type_symbol
 _atom_site_label
 _atom_site_symmetry_multiplicity
 _atom_site_fract_x
 _atom_site_fract_y
 _atom_site_fract_z
 _atom_site_occupancy
  Ba  Ba0  1  0.500000  0.500000  0.500000  1
  Zr  Zr1  1  0.122866  0.630288  0.122876  1
  Zr  Zr2  1  0.369707  0.877133  0.877137  1
  Zr  Zr3  1  0.876669  0.876677  0.876675  1
  Zr  Zr4  1  0.630293  0.122867  0.122863  1
  Zr  Zr5  1  0.877137  0.877127  0.369709  1
  Zr  Zr6  1  0.123331  0.123323  0.123325  1
  Zr  Zr7  1  0.877134  0.369712  0.877124  1
  Zr  Zr8  1  0.122863  0.122873  0.630291  1
  In  In9  1  0.500009  0.850554  0.149479  1
  In  In10  1  0.501632  0.848994  0.501645  1
  In  In11  1  0.498368  0.151006  0.498355  1
  In  In12  1  0.501628  0.501626  0.848992  1
  In  In13  1  0.151008  0.498377  0.498374  1
  In  In14  1  0.850504  0.149436  0.499994  1
  In  In15  1  0.149496  0.850564  0.500006  1
  In  In16  1  0.499991  0.149446  0.850521  1
  In  In17  1  0.149496  0.500006  0.850563  1
  In  In18  1  0.498372  0.498374  0.151008  1
  In  In19  1  0.848992  0.501623  0.501626  1
  In  In20  1  0.850504  0.499994  0.149437  1
  In  In21  1  0.251120  0.251120  0.251121  1
  In  In22  1  0.748880  0.748880  0.748879  1
  Ir  Ir23  1  0.781377  0.781370  0.217695  1
  Ir  Ir24  1  0.000000  0.000000  0.000000  1
  Ir  Ir25  1  0.218629  0.782299  0.218631  1
  Ir  Ir26  1  0.217693  0.781384  0.781379  1
  Ir  Ir27  1  0.218623  0.218630  0.782305  1
  Ir  Ir28  1  0.781371  0.217701  0.781369  1
  Ir  Ir29  1  0.782307  0.218616  0.218621  1
