# generated using pymatgen
data_Li3Hf(Nb2N3)4
_symmetry_space_group_name_H-M   'P 1'
_cell_length_a   5.25712900
_cell_length_b   5.25712765
_cell_length_c   10.39080900
_cell_angle_alpha   90.00000000
_cell_angle_beta   90.00000000
_cell_angle_gamma   120.00000217
_symmetry_Int_Tables_number   1
_chemical_formula_structural   Li3Hf(Nb2N3)4
_chemical_formula_sum   'Li3 Hf1 Nb8 N12'
_cell_volume   248.70077620
_cell_formula_units_Z   1
loop_
 _symmetry_equiv_pos_site_id
 _symmetry_equiv_pos_as_xyz
  1  'x, y, z'
loop_
 _atom_site_type_symbol
 _atom_site_label
 _atom_site_symmetry_multiplicity
 _atom_site_fract_x
 _atom_site_fract_y
 _atom_site_fract_z
 _atom_site_occupancy
  Li  Li0  1  0.333333  0.666667  0.500000  1
  Li  Li1  1  0.666667  0.333333  0.500000  1
  Li  Li2  1  0.666667  0.333333  0.000000  1
  Hf  Hf3  1  0.333333  0.666667  0.000000  1
  Nb  Nb4  1  0.997111  0.338814  0.252479  1
  Nb  Nb5  1  0.661186  0.002889  0.747521  1
  Nb  Nb6  1  0.341703  0.338814  0.747521  1
  Nb  Nb7  1  0.000000  0.000000  0.500000  1
  Nb  Nb8  1  0.000000  0.000000  0.000000  1
  Nb  Nb9  1  0.661186  0.658297  0.252479  1
  Nb  Nb10  1  0.341703  0.002889  0.252479  1
  Nb  Nb11  1  0.997111  0.658297  0.747521  1
  N  N12  1  0.673770  0.674895  0.623020  1
  N  N13  1  0.669938  0.667820  0.878499  1
  N  N14  1  0.332180  0.330062  0.121501  1
  N  N15  1  0.325105  0.326230  0.376980  1
  N  N16  1  0.332180  0.002117  0.878499  1
  N  N17  1  0.325105  0.998876  0.623020  1
  N  N18  1  0.001124  0.674895  0.376980  1
  N  N19  1  0.997883  0.667820  0.121501  1
  N  N20  1  0.669938  0.002117  0.121501  1
  N  N21  1  0.673770  0.998876  0.376980  1
  N  N22  1  0.997883  0.330062  0.878499  1
  N  N23  1  0.001124  0.326230  0.623020  1
