# generated using pymatgen
data_Y3Mg3CuPdRu
_symmetry_space_group_name_H-M   'P 1'
_cell_length_a   7.47372500
_cell_length_b   7.47372450
_cell_length_c   4.03142700
_cell_angle_alpha   90.00000000
_cell_angle_beta   90.00000000
_cell_angle_gamma   119.99998893
_symmetry_Int_Tables_number   1
_chemical_formula_structural   Y3Mg3CuPdRu
_chemical_formula_sum   'Y3 Mg3 Cu1 Pd1 Ru1'
_cell_volume   195.01305174
_cell_formula_units_Z   1
loop_
 _symmetry_equiv_pos_site_id
 _symmetry_equiv_pos_as_xyz
  1  'x, y, z'
loop_
 _atom_site_type_symbol
 _atom_site_label
 _atom_site_symmetry_multiplicity
 _atom_site_fract_x
 _atom_site_fract_y
 _atom_site_fract_z
 _atom_site_occupancy
  Y  Y0  1  0.424148  0.403328  0.500000  1
  Y  Y1  1  0.979180  0.575852  0.500000  1
  Y  Y2  1  0.596672  0.020820  0.500000  1
  Mg  Mg3  1  0.752634  0.753182  0.000000  1
  Mg  Mg4  1  0.246818  0.999451  0.000000  1
  Mg  Mg5  1  0.000549  0.247366  0.000000  1
  Cu  Cu6  1  0.333333  0.666667  0.000000  1
  Pd  Pd7  1  0.000000  0.000000  0.500000  1
  Ru  Ru8  1  0.666667  0.333333  0.000000  1
