# generated using pymatgen
data_LiY9Cd3Pd
_symmetry_space_group_name_H-M   'P 1'
_cell_length_a   9.59269300
_cell_length_b   9.59269290
_cell_length_c   9.66737400
_cell_angle_alpha   90.00000000
_cell_angle_beta   90.00000000
_cell_angle_gamma   119.99999690
_symmetry_Int_Tables_number   1
_chemical_formula_structural   LiY9Cd3Pd
_chemical_formula_sum   'Li2 Y18 Cd6 Pd2'
_cell_volume   770.40705737
_cell_formula_units_Z   2
loop_
 _symmetry_equiv_pos_site_id
 _symmetry_equiv_pos_as_xyz
  1  'x, y, z'
loop_
 _atom_site_type_symbol
 _atom_site_label
 _atom_site_symmetry_multiplicity
 _atom_site_fract_x
 _atom_site_fract_y
 _atom_site_fract_z
 _atom_site_occupancy
  Li  Li0  1  0.000000  0.000000  0.000000  1
  Li  Li1  1  0.000000  0.000000  0.500000  1
  Y  Y2  1  0.204536  0.795464  0.943299  1
  Y  Y3  1  0.204536  0.409072  0.943299  1
  Y  Y4  1  0.590928  0.795464  0.943299  1
  Y  Y5  1  0.795464  0.204536  0.056701  1
  Y  Y6  1  0.795464  0.590928  0.056701  1
  Y  Y7  1  0.409072  0.204536  0.056701  1
  Y  Y8  1  0.795464  0.204536  0.443299  1
  Y  Y9  1  0.795464  0.590928  0.443299  1
  Y  Y10  1  0.409072  0.204536  0.443299  1
  Y  Y11  1  0.204536  0.795464  0.556701  1
  Y  Y12  1  0.204536  0.409072  0.556701  1
  Y  Y13  1  0.590928  0.795464  0.556701  1
  Y  Y14  1  0.543174  0.456826  0.750000  1
  Y  Y15  1  0.543174  0.086347  0.750000  1
  Y  Y16  1  0.913653  0.456826  0.750000  1
  Y  Y17  1  0.456826  0.543174  0.250000  1
  Y  Y18  1  0.456826  0.913653  0.250000  1
  Y  Y19  1  0.086347  0.543174  0.250000  1
  Cd  Cd20  1  0.891208  0.108792  0.750000  1
  Cd  Cd21  1  0.891208  0.782417  0.750000  1
  Cd  Cd22  1  0.217583  0.108792  0.750000  1
  Cd  Cd23  1  0.108792  0.891208  0.250000  1
  Cd  Cd24  1  0.108792  0.217583  0.250000  1
  Cd  Cd25  1  0.782417  0.891208  0.250000  1
  Pd  Pd26  1  0.333333  0.666667  0.750000  1
  Pd  Pd27  1  0.666667  0.333333  0.250000  1
