# generated using pymatgen
data_CaLa3H10
_symmetry_space_group_name_H-M   'P 1'
_cell_length_a   6.81081553
_cell_length_b   6.81081585
_cell_length_c   6.81081576
_cell_angle_alpha   132.72247093
_cell_angle_beta   131.40217643
_cell_angle_gamma   70.13602829
_symmetry_Int_Tables_number   1
_chemical_formula_structural   CaLa3H10
_chemical_formula_sum   'Ca1 La3 H10'
_cell_volume   170.66241916
_cell_formula_units_Z   1
loop_
 _symmetry_equiv_pos_site_id
 _symmetry_equiv_pos_as_xyz
  1  'x, y, z'
loop_
 _atom_site_type_symbol
 _atom_site_label
 _atom_site_symmetry_multiplicity
 _atom_site_fract_x
 _atom_site_fract_y
 _atom_site_fract_z
 _atom_site_occupancy
  Ca  Ca0  1  0.505833  0.005833  0.500000  1
  La  La1  1  0.238828  0.238828  0.000000  1
  La  La2  1  0.990949  0.490949  0.500000  1
  La  La3  1  0.758493  0.758493  0.000000  1
  H  H4  1  0.597923  0.625722  0.471636  1
  H  H5  1  0.154086  0.126287  0.528364  1
  H  H6  1  0.597923  0.126287  0.972201  1
  H  H7  1  0.154086  0.625722  0.027799  1
  H  H8  1  0.377943  0.396139  0.527704  1
  H  H9  1  0.868435  0.850239  0.472296  1
  H  H10  1  0.868435  0.396139  0.018196  1
  H  H11  1  0.377943  0.850239  0.981804  1
  H  H12  1  0.759213  0.259213  0.500000  1
  H  H13  1  0.999912  0.999912  0.000000  1
