# generated using pymatgen
data_Tb3HoSc4(WO6)4
_symmetry_space_group_name_H-M   'P 1'
_cell_length_a   5.32757200
_cell_length_b   7.56175943
_cell_length_c   11.21771509
_cell_angle_alpha   77.60564491
_cell_angle_beta   90.00000000
_cell_angle_gamma   90.00000000
_symmetry_Int_Tables_number   1
_chemical_formula_structural   Tb3HoSc4(WO6)4
_chemical_formula_sum   'Tb3 Ho1 Sc4 W4 O24'
_cell_volume   441.38224150
_cell_formula_units_Z   1
loop_
 _symmetry_equiv_pos_site_id
 _symmetry_equiv_pos_as_xyz
  1  'x, y, z'
loop_
 _atom_site_type_symbol
 _atom_site_label
 _atom_site_symmetry_multiplicity
 _atom_site_fract_x
 _atom_site_fract_y
 _atom_site_fract_z
 _atom_site_occupancy
  Tb  Tb0  1  0.236440  0.000000  0.250000  1
  Tb  Tb1  1  0.689666  0.500000  0.750000  1
  Tb  Tb2  1  0.310607  0.500000  0.250000  1
  Ho  Ho3  1  0.763908  0.000000  0.750000  1
  Sc  Sc4  1  0.195569  0.780287  0.590785  1
  Sc  Sc5  1  0.804365  0.779989  0.090383  1
  Sc  Sc6  1  0.195569  0.219713  0.909215  1
  Sc  Sc7  1  0.804365  0.220011  0.409617  1
  W  W8  1  0.266154  0.731980  0.889456  1
  W  W9  1  0.734060  0.731314  0.389744  1
  W  W10  1  0.266154  0.268020  0.610544  1
  W  W11  1  0.734060  0.268686  0.110256  1
  O  O12  1  0.082903  0.960131  0.890984  1
  O  O13  1  0.570633  0.833558  0.937518  1
  O  O14  1  0.915127  0.959970  0.391761  1
  O  O15  1  0.462817  0.793301  0.725349  1
  O  O16  1  0.429627  0.832749  0.438169  1
  O  O17  1  0.988828  0.713317  0.773309  1
  O  O18  1  0.538673  0.792030  0.225379  1
  O  O19  1  0.862945  0.649316  0.550433  1
  O  O20  1  0.358559  0.490311  0.886477  1
  O  O21  1  0.010867  0.712404  0.273451  1
  O  O22  1  0.358559  0.509689  0.613523  1
  O  O23  1  0.862945  0.350684  0.949567  1
  O  O24  1  0.137490  0.649691  0.050290  1
  O  O25  1  0.641073  0.489891  0.386757  1
  O  O26  1  0.988828  0.286683  0.726691  1
  O  O27  1  0.641073  0.510109  0.113243  1
  O  O28  1  0.137490  0.350309  0.449710  1
  O  O29  1  0.462817  0.206699  0.774651  1
  O  O30  1  0.010867  0.287596  0.226549  1
  O  O31  1  0.570633  0.166442  0.562482  1
  O  O32  1  0.538673  0.207970  0.274621  1
  O  O33  1  0.082903  0.039869  0.609016  1
  O  O34  1  0.429627  0.167251  0.061831  1
  O  O35  1  0.915127  0.040030  0.108239  1
