# generated using pymatgen
data_Hf8Mn2Bi3Pb
_symmetry_space_group_name_H-M   'P 1'
_cell_length_a   8.21560227
_cell_length_b   8.21560284
_cell_length_c   8.21490895
_cell_angle_alpha   96.18591511
_cell_angle_beta   96.18591300
_cell_angle_gamma   141.67522291
_symmetry_Int_Tables_number   1
_chemical_formula_structural   Hf8Mn2Bi3Pb
_chemical_formula_sum   'Hf8 Mn2 Bi3 Pb1'
_cell_volume   324.78505665
_cell_formula_units_Z   1
loop_
 _symmetry_equiv_pos_site_id
 _symmetry_equiv_pos_as_xyz
  1  'x, y, z'
loop_
 _atom_site_type_symbol
 _atom_site_label
 _atom_site_symmetry_multiplicity
 _atom_site_fract_x
 _atom_site_fract_y
 _atom_site_fract_z
 _atom_site_occupancy
  Hf  Hf0  1  0.692204  0.580754  0.272958  1
  Hf  Hf1  1  0.307055  0.420136  0.727191  1
  Hf  Hf2  1  0.580381  0.307568  0.887949  1
  Hf  Hf3  1  0.080754  0.192204  0.272958  1
  Hf  Hf4  1  0.807568  0.080381  0.887949  1
  Hf  Hf5  1  0.419160  0.691893  0.111054  1
  Hf  Hf6  1  0.920136  0.807055  0.727191  1
  Hf  Hf7  1  0.191893  0.919160  0.111054  1
  Mn  Mn8  1  0.250209  0.250209  0.000417  1
  Mn  Mn9  1  0.750209  0.750209  0.000417  1
  Bi  Bi10  1  0.363426  0.136427  0.499853  1
  Bi  Bi11  1  0.863097  0.363097  0.226193  1
  Bi  Bi12  1  0.636427  0.863426  0.499853  1
  Pb  Pb13  1  0.137482  0.637482  0.774965  1
