# generated using pymatgen
data_Li8DyTm7Sn7Bi
_symmetry_space_group_name_H-M   'P 1'
_cell_length_a   9.36907544
_cell_length_b   9.36907666
_cell_length_c   7.15995533
_cell_angle_alpha   90.10370926
_cell_angle_beta   89.89628695
_cell_angle_gamma   119.96374747
_symmetry_Int_Tables_number   1
_chemical_formula_structural   Li8DyTm7Sn7Bi
_chemical_formula_sum   'Li8 Dy1 Tm7 Sn7 Bi1'
_cell_volume   544.49269517
_cell_formula_units_Z   1
loop_
 _symmetry_equiv_pos_site_id
 _symmetry_equiv_pos_as_xyz
  1  'x, y, z'
loop_
 _atom_site_type_symbol
 _atom_site_label
 _atom_site_symmetry_multiplicity
 _atom_site_fract_x
 _atom_site_fract_y
 _atom_site_fract_z
 _atom_site_occupancy
  Li  Li0  1  0.829430  0.664447  0.711420  1
  Li  Li1  1  0.833173  0.166827  0.713196  1
  Li  Li2  1  0.335174  0.664826  0.821976  1
  Li  Li3  1  0.666395  0.333605  0.321219  1
  Li  Li4  1  0.665461  0.832354  0.213416  1
  Li  Li5  1  0.167646  0.334539  0.213416  1
  Li  Li6  1  0.166961  0.833039  0.215515  1
  Li  Li7  1  0.335553  0.170570  0.711420  1
  Dy  Dy8  1  0.997519  0.002481  0.003555  1
  Tm  Tm9  1  0.997866  0.002134  0.498270  1
  Tm  Tm10  1  0.511404  0.488596  0.006644  1
  Tm  Tm11  1  0.019263  0.505966  0.503440  1
  Tm  Tm12  1  0.494034  0.980737  0.503440  1
  Tm  Tm13  1  0.516213  0.024586  0.009336  1
  Tm  Tm14  1  0.975414  0.483787  0.009336  1
  Tm  Tm15  1  0.488602  0.511398  0.505968  1
  Sn  Sn16  1  0.667052  0.332948  0.740869  1
  Sn  Sn17  1  0.332775  0.667225  0.240945  1
  Sn  Sn18  1  0.833017  0.166983  0.269945  1
  Sn  Sn19  1  0.166566  0.334112  0.768924  1
  Sn  Sn20  1  0.333627  0.166196  0.269992  1
  Sn  Sn21  1  0.833804  0.666373  0.269992  1
  Sn  Sn22  1  0.665888  0.833434  0.768924  1
  Bi  Bi23  1  0.167165  0.832835  0.766843  1
