# generated using pymatgen
data_UCoBN
_symmetry_space_group_name_H-M   'P 1'
_cell_length_a   3.50320700
_cell_length_b   3.50320700
_cell_length_c   7.29156500
_cell_angle_alpha   90.00000000
_cell_angle_beta   90.00000000
_cell_angle_gamma   90.00000000
_symmetry_Int_Tables_number   1
_chemical_formula_structural   UCoBN
_chemical_formula_sum   'U2 Co2 B2 N2'
_cell_volume   89.48543459
_cell_formula_units_Z   2
loop_
 _symmetry_equiv_pos_site_id
 _symmetry_equiv_pos_as_xyz
  1  'x, y, z'
loop_
 _atom_site_type_symbol
 _atom_site_label
 _atom_site_symmetry_multiplicity
 _atom_site_fract_x
 _atom_site_fract_y
 _atom_site_fract_z
 _atom_site_occupancy
  U  U0  1  0.499999  0.000000  0.181490  1
  U  U1  1  0.000000  0.499999  0.818509  1
  Co  Co2  1  0.000000  0.000000  0.500000  1
  Co  Co3  1  0.499999  0.499999  0.500000  1
  B  B4  1  0.000000  0.499999  0.346309  1
  B  B5  1  0.499999  0.000000  0.653690  1
  N  N6  1  0.000000  0.499999  0.136999  1
  N  N7  1  0.499999  0.000000  0.863000  1
