# generated using pymatgen
data_TbThMn3Co9P7
_symmetry_space_group_name_H-M   'P 1'
_cell_length_a   9.12172700
_cell_length_b   9.12172512
_cell_length_c   3.64568700
_cell_angle_alpha   90.00000000
_cell_angle_beta   90.00000000
_cell_angle_gamma   119.99999595
_symmetry_Int_Tables_number   1
_chemical_formula_structural   TbThMn3Co9P7
_chemical_formula_sum   'Tb1 Th1 Mn3 Co9 P7'
_cell_volume   262.70242392
_cell_formula_units_Z   1
loop_
 _symmetry_equiv_pos_site_id
 _symmetry_equiv_pos_as_xyz
  1  'x, y, z'
loop_
 _atom_site_type_symbol
 _atom_site_label
 _atom_site_symmetry_multiplicity
 _atom_site_fract_x
 _atom_site_fract_y
 _atom_site_fract_z
 _atom_site_occupancy
  Tb  Tb0  1  0.666667  0.333333  0.000000  1
  Th  Th1  1  0.333333  0.666667  0.500000  1
  Mn  Mn2  1  0.099474  0.880768  0.500000  1
  Mn  Mn3  1  0.781293  0.900526  0.500000  1
  Mn  Mn4  1  0.119232  0.218707  0.500000  1
  Co  Co5  1  0.061643  0.629678  0.000000  1
  Co  Co6  1  0.568035  0.938357  0.000000  1
  Co  Co7  1  0.370322  0.431965  0.000000  1
  Co  Co8  1  0.274929  0.121269  0.000000  1
  Co  Co9  1  0.846340  0.725071  0.000000  1
  Co  Co10  1  0.878731  0.153660  0.000000  1
  Co  Co11  1  0.436407  0.052677  0.500000  1
  Co  Co12  1  0.616271  0.563593  0.500000  1
  Co  Co13  1  0.947323  0.383729  0.500000  1
  P  P14  1  0.299949  0.896846  0.000000  1
  P  P15  1  0.596896  0.700051  0.000000  1
  P  P16  1  0.103154  0.403104  0.000000  1
  P  P17  1  0.405134  0.291334  0.500000  1
  P  P18  1  0.886199  0.594866  0.500000  1
  P  P19  1  0.708666  0.113801  0.500000  1
  P  P20  1  0.000000  0.000000  0.000000  1
