# generated using pymatgen
data_Tb2Gd2ZnRu7
_symmetry_space_group_name_H-M   'P 1'
_cell_length_a   5.34944000
_cell_length_b   5.34943969
_cell_length_c   8.83228900
_cell_angle_alpha   90.00000000
_cell_angle_beta   90.00000000
_cell_angle_gamma   120.00001429
_symmetry_Int_Tables_number   1
_chemical_formula_structural   Tb2Gd2ZnRu7
_chemical_formula_sum   'Tb2 Gd2 Zn1 Ru7'
_cell_volume   218.88724577
_cell_formula_units_Z   1
loop_
 _symmetry_equiv_pos_site_id
 _symmetry_equiv_pos_as_xyz
  1  'x, y, z'
loop_
 _atom_site_type_symbol
 _atom_site_label
 _atom_site_symmetry_multiplicity
 _atom_site_fract_x
 _atom_site_fract_y
 _atom_site_fract_z
 _atom_site_occupancy
  Tb  Tb0  1  0.666667  0.333333  0.935440  1
  Tb  Tb1  1  0.333333  0.666667  0.064560  1
  Gd  Gd2  1  0.333333  0.666667  0.429582  1
  Gd  Gd3  1  0.666667  0.333333  0.570418  1
  Zn  Zn4  1  0.000000  0.000000  0.500000  1
  Ru  Ru5  1  0.000000  0.000000  0.000000  1
  Ru  Ru6  1  0.828549  0.171451  0.249731  1
  Ru  Ru7  1  0.828549  0.657096  0.249731  1
  Ru  Ru8  1  0.342904  0.171451  0.249731  1
  Ru  Ru9  1  0.171451  0.828549  0.750269  1
  Ru  Ru10  1  0.171451  0.342904  0.750269  1
  Ru  Ru11  1  0.657096  0.828549  0.750269  1
