# generated using pymatgen
data_Nd3Dy(CuP2)4
_symmetry_space_group_name_H-M   'P 1'
_cell_length_a   3.75692500
_cell_length_b   3.84566137
_cell_length_c   19.86640034
_cell_angle_alpha   89.97276078
_cell_angle_beta   90.00000000
_cell_angle_gamma   90.00000000
_symmetry_Int_Tables_number   1
_chemical_formula_structural   Nd3Dy(CuP2)4
_chemical_formula_sum   'Nd3 Dy1 Cu4 P8'
_cell_volume   287.02696474
_cell_formula_units_Z   1
loop_
 _symmetry_equiv_pos_site_id
 _symmetry_equiv_pos_as_xyz
  1  'x, y, z'
loop_
 _atom_site_type_symbol
 _atom_site_label
 _atom_site_symmetry_multiplicity
 _atom_site_fract_x
 _atom_site_fract_y
 _atom_site_fract_z
 _atom_site_occupancy
  Nd  Nd0  1  0.250000  0.714146  0.378557  1
  Nd  Nd1  1  0.250000  0.785149  0.885479  1
  Nd  Nd2  1  0.750000  0.286578  0.618974  1
  Dy  Dy3  1  0.750000  0.213005  0.118936  1
  Cu  Cu4  1  0.250000  0.215825  0.245334  1
  Cu  Cu5  1  0.750000  0.784584  0.752617  1
  Cu  Cu6  1  0.250000  0.284557  0.751887  1
  Cu  Cu7  1  0.750000  0.715910  0.245835  1
  P  P8  1  0.750000  0.815915  0.501081  1
  P  P9  1  0.750000  0.684523  0.007392  1
  P  P10  1  0.250000  0.184716  0.496364  1
  P  P11  1  0.250000  0.315017  0.002648  1
  P  P12  1  0.250000  0.714260  0.171080  1
  P  P13  1  0.750000  0.214687  0.319391  1
  P  P14  1  0.750000  0.285331  0.826054  1
  P  P15  1  0.250000  0.785798  0.678371  1
