# generated using pymatgen
data_La3Cd2GaPt3
_symmetry_space_group_name_H-M   'P 1'
_cell_length_a   7.76629200
_cell_length_b   7.76629071
_cell_length_c   4.09793000
_cell_angle_alpha   90.00000000
_cell_angle_beta   90.00000000
_cell_angle_gamma   121.15434736
_symmetry_Int_Tables_number   1
_chemical_formula_structural   La3Cd2GaPt3
_chemical_formula_sum   'La3 Cd2 Ga1 Pt3'
_cell_volume   211.52045683
_cell_formula_units_Z   1
loop_
 _symmetry_equiv_pos_site_id
 _symmetry_equiv_pos_as_xyz
  1  'x, y, z'
loop_
 _atom_site_type_symbol
 _atom_site_label
 _atom_site_symmetry_multiplicity
 _atom_site_fract_x
 _atom_site_fract_y
 _atom_site_fract_z
 _atom_site_occupancy
  La  La0  1  0.423600  0.423600  0.000000  1
  La  La1  1  0.591902  0.000425  0.000000  1
  La  La2  1  0.000425  0.591902  0.000000  1
  Cd  Cd3  1  0.244323  0.005773  0.500000  1
  Cd  Cd4  1  0.005773  0.244323  0.500000  1
  Ga  Ga5  1  0.753778  0.753778  0.500000  1
  Pt  Pt6  1  0.671287  0.346901  0.500000  1
  Pt  Pt7  1  0.346901  0.671287  0.500000  1
  Pt  Pt8  1  0.962012  0.962012  0.000000  1
