# generated using pymatgen
data_AcLa7(Ga5Br2)2
_symmetry_space_group_name_H-M   'P 1'
_cell_length_a   11.78381841
_cell_length_b   11.78381869
_cell_length_c   4.33776400
_cell_angle_alpha   90.00000000
_cell_angle_beta   90.00000000
_cell_angle_gamma   93.01310465
_symmetry_Int_Tables_number   1
_chemical_formula_structural   AcLa7(Ga5Br2)2
_chemical_formula_sum   'Ac1 La7 Ga10 Br4'
_cell_volume   601.50217544
_cell_formula_units_Z   1
loop_
 _symmetry_equiv_pos_site_id
 _symmetry_equiv_pos_as_xyz
  1  'x, y, z'
loop_
 _atom_site_type_symbol
 _atom_site_label
 _atom_site_symmetry_multiplicity
 _atom_site_fract_x
 _atom_site_fract_y
 _atom_site_fract_z
 _atom_site_occupancy
  Ac  Ac0  1  0.633164  0.366836  0.000000  1
  La  La1  1  0.673148  0.038956  0.500000  1
  La  La2  1  0.324722  0.959426  0.500000  1
  La  La3  1  0.040574  0.675278  0.500000  1
  La  La4  1  0.961044  0.326852  0.500000  1
  La  La5  1  0.729247  0.729903  0.000000  1
  La  La6  1  0.270097  0.270753  0.000000  1
  La  La7  1  0.369019  0.630981  0.000000  1
  Ga  Ga8  1  0.579383  0.581595  0.500000  1
  Ga  Ga9  1  0.418405  0.420617  0.500000  1
  Ga  Ga10  1  0.538079  0.900194  0.000000  1
  Ga  Ga11  1  0.460121  0.097752  0.000000  1
  Ga  Ga12  1  0.902248  0.539879  0.000000  1
  Ga  Ga13  1  0.099806  0.461921  0.000000  1
  Ga  Ga14  1  0.511304  0.783372  0.500000  1
  Ga  Ga15  1  0.483299  0.214353  0.500000  1
  Ga  Ga16  1  0.216628  0.488696  0.500000  1
  Ga  Ga17  1  0.785647  0.516701  0.500000  1
  Br  Br18  1  0.126290  0.126816  0.500000  1
  Br  Br19  1  0.873184  0.873710  0.500000  1
  Br  Br20  1  0.827840  0.172160  0.000000  1
  Br  Br21  1  0.176750  0.823250  0.000000  1
