# generated using pymatgen
data_CeTm7(CdRu)2
_symmetry_space_group_name_H-M   'P 1'
_cell_length_a   9.62436045
_cell_length_b   9.55777402
_cell_length_c   9.55777400
_cell_angle_alpha   59.66892461
_cell_angle_beta   59.76927624
_cell_angle_gamma   59.76927325
_symmetry_Int_Tables_number   1
_chemical_formula_structural   CeTm7(CdRu)2
_chemical_formula_sum   'Ce2 Tm14 Cd4 Ru4'
_cell_volume   617.95400847
_cell_formula_units_Z   2
loop_
 _symmetry_equiv_pos_site_id
 _symmetry_equiv_pos_as_xyz
  1  'x, y, z'
loop_
 _atom_site_type_symbol
 _atom_site_label
 _atom_site_symmetry_multiplicity
 _atom_site_fract_x
 _atom_site_fract_y
 _atom_site_fract_z
 _atom_site_occupancy
  Ce  Ce0  1  0.970410  0.341334  0.341325  1
  Ce  Ce1  1  0.346971  0.341340  0.341329  1
  Tm  Tm2  1  0.562191  0.562283  0.938221  1
  Tm  Tm3  1  0.937318  0.562326  0.938180  1
  Tm  Tm4  1  0.561811  0.938192  0.938195  1
  Tm  Tm5  1  0.937317  0.938188  0.562323  1
  Tm  Tm6  1  0.562190  0.938209  0.562299  1
  Tm  Tm7  1  0.938307  0.561735  0.561747  1
  Tm  Tm8  1  0.189712  0.187493  0.812538  1
  Tm  Tm9  1  0.810126  0.187525  0.812644  1
  Tm  Tm10  1  0.188555  0.811465  0.811463  1
  Tm  Tm11  1  0.810128  0.812654  0.187517  1
  Tm  Tm12  1  0.189707  0.812551  0.187492  1
  Tm  Tm13  1  0.811347  0.188542  0.188539  1
  Tm  Tm14  1  0.348958  0.348372  0.953741  1
  Tm  Tm15  1  0.348944  0.953738  0.348385  1
  Cd  Cd16  1  0.581692  0.580235  0.256407  1
  Cd  Cd17  1  0.581694  0.256408  0.580233  1
  Cd  Cd18  1  0.258804  0.580449  0.580446  1
  Cd  Cd19  1  0.580324  0.580447  0.580448  1
  Ru  Ru20  1  0.137993  0.151008  0.573095  1
  Ru  Ru21  1  0.137973  0.573088  0.151021  1
  Ru  Ru22  1  0.574405  0.146259  0.146252  1
  Ru  Ru23  1  0.133119  0.146158  0.146157  1
