# generated using pymatgen
data_Tb5Ho5(InSb2)2
_symmetry_space_group_name_H-M   'P 1'
_cell_length_a   8.98987501
_cell_length_b   8.98167585
_cell_length_c   6.44848700
_cell_angle_alpha   90.00000000
_cell_angle_beta   90.00000000
_cell_angle_gamma   120.02071953
_symmetry_Int_Tables_number   1
_chemical_formula_structural   Tb5Ho5(InSb2)2
_chemical_formula_sum   'Tb5 Ho5 In2 Sb4'
_cell_volume   450.82581836
_cell_formula_units_Z   1
loop_
 _symmetry_equiv_pos_site_id
 _symmetry_equiv_pos_as_xyz
  1  'x, y, z'
loop_
 _atom_site_type_symbol
 _atom_site_label
 _atom_site_symmetry_multiplicity
 _atom_site_fract_x
 _atom_site_fract_y
 _atom_site_fract_z
 _atom_site_occupancy
  Tb  Tb0  1  0.758315  0.998727  0.750000  1
  Tb  Tb1  1  0.758468  0.759728  0.250000  1
  Tb  Tb2  1  0.001982  0.241958  0.250000  1
  Tb  Tb3  1  0.002029  0.760014  0.750000  1
  Tb  Tb4  1  0.240577  0.237239  0.750000  1
  Ho  Ho5  1  0.334819  0.667466  0.000058  1
  Ho  Ho6  1  0.663426  0.331701  0.499956  1
  Ho  Ho7  1  0.663426  0.331701  0.000044  1
  Ho  Ho8  1  0.334819  0.667466  0.499942  1
  Ho  Ho9  1  0.240740  0.003244  0.250000  1
  In  In10  1  0.395141  0.998315  0.750000  1
  In  In11  1  0.395006  0.396384  0.250000  1
  Sb  Sb12  1  0.999768  0.607544  0.250000  1
  Sb  Sb13  1  0.999521  0.392453  0.750000  1
  Sb  Sb14  1  0.606116  0.605748  0.750000  1
  Sb  Sb15  1  0.605846  0.000313  0.250000  1
