# generated using pymatgen
data_ScTiBIr6
_symmetry_space_group_name_H-M   'P 1'
_cell_length_a   5.66398844
_cell_length_b   5.66398909
_cell_length_c   5.66398900
_cell_angle_alpha   60.00000639
_cell_angle_beta   60.00000256
_cell_angle_gamma   60.00000217
_symmetry_Int_Tables_number   1
_chemical_formula_structural   ScTiBIr6
_chemical_formula_sum   'Sc1 Ti1 B1 Ir6'
_cell_volume   128.48493423
_cell_formula_units_Z   1
loop_
 _symmetry_equiv_pos_site_id
 _symmetry_equiv_pos_as_xyz
  1  'x, y, z'
loop_
 _atom_site_type_symbol
 _atom_site_label
 _atom_site_symmetry_multiplicity
 _atom_site_fract_x
 _atom_site_fract_y
 _atom_site_fract_z
 _atom_site_occupancy
  Sc  Sc0  1  0.750000  0.750000  0.750000  1
  Ti  Ti1  1  0.250000  0.250000  0.250000  1
  B  B2  1  0.500000  0.500000  0.500000  1
  Ir  Ir3  1  0.759152  0.759152  0.240848  1
  Ir  Ir4  1  0.759152  0.240848  0.240848  1
  Ir  Ir5  1  0.240848  0.759152  0.240848  1
  Ir  Ir6  1  0.240848  0.240848  0.759152  1
  Ir  Ir7  1  0.759152  0.240848  0.759152  1
  Ir  Ir8  1  0.240848  0.759152  0.759152  1
