# generated using pymatgen
data_LuZn2Ag3
_symmetry_space_group_name_H-M   'P 1'
_cell_length_a   5.53611293
_cell_length_b   5.34190500
_cell_length_c   5.34190309
_cell_angle_alpha   59.01369699
_cell_angle_beta   58.78988298
_cell_angle_gamma   58.78989161
_symmetry_Int_Tables_number   1
_chemical_formula_structural   LuZn2Ag3
_chemical_formula_sum   'Lu1 Zn2 Ag3'
_cell_volume   108.81062564
_cell_formula_units_Z   1
loop_
 _symmetry_equiv_pos_site_id
 _symmetry_equiv_pos_as_xyz
  1  'x, y, z'
loop_
 _atom_site_type_symbol
 _atom_site_label
 _atom_site_symmetry_multiplicity
 _atom_site_fract_x
 _atom_site_fract_y
 _atom_site_fract_z
 _atom_site_occupancy
  Lu  Lu0  1  0.000687  0.999313  0.999313  1
  Zn  Zn1  1  0.620805  0.629198  0.129191  1
  Zn  Zn2  1  0.620805  0.129191  0.629198  1
  Ag  Ag3  1  0.124031  0.625491  0.625491  1
  Ag  Ag4  1  0.624987  0.625491  0.625491  1
  Ag  Ag5  1  0.258682  0.241318  0.241318  1
