# generated using pymatgen
data_Dy15HoCd4CoRu3
_symmetry_space_group_name_H-M   'P 1'
_cell_length_a   9.62352164
_cell_length_b   9.63281968
_cell_length_c   9.55893948
_cell_angle_alpha   59.74400251
_cell_angle_beta   59.70783949
_cell_angle_gamma   59.96803593
_symmetry_Int_Tables_number   1
_chemical_formula_structural   Dy15HoCd4CoRu3
_chemical_formula_sum   'Dy15 Ho1 Cd4 Co1 Ru3'
_cell_volume   623.83007914
_cell_formula_units_Z   1
loop_
 _symmetry_equiv_pos_site_id
 _symmetry_equiv_pos_as_xyz
  1  'x, y, z'
loop_
 _atom_site_type_symbol
 _atom_site_label
 _atom_site_symmetry_multiplicity
 _atom_site_fract_x
 _atom_site_fract_y
 _atom_site_fract_z
 _atom_site_occupancy
  Dy  Dy0  1  0.937903  0.937749  0.560148  1
  Dy  Dy1  1  0.811109  0.190516  0.187100  1
  Dy  Dy2  1  0.937903  0.564200  0.560148  1
  Dy  Dy3  1  0.939616  0.560588  0.939207  1
  Dy  Dy4  1  0.811109  0.811275  0.187100  1
  Dy  Dy5  1  0.344202  0.344312  0.351148  1
  Dy  Dy6  1  0.561079  0.939157  0.938867  1
  Dy  Dy7  1  0.564740  0.937511  0.560239  1
  Dy  Dy8  1  0.188536  0.815314  0.807601  1
  Dy  Dy9  1  0.188536  0.188549  0.807601  1
  Dy  Dy10  1  0.346052  0.346417  0.961114  1
  Dy  Dy11  1  0.344202  0.960339  0.351148  1
  Dy  Dy12  1  0.814989  0.188901  0.807209  1
  Dy  Dy13  1  0.561079  0.560896  0.938867  1
  Dy  Dy14  1  0.189832  0.811382  0.187403  1
  Ho  Ho15  1  0.961592  0.343867  0.350674  1
  Cd  Cd16  1  0.580573  0.580789  0.257849  1
  Cd  Cd17  1  0.258674  0.580865  0.579599  1
  Cd  Cd18  1  0.580609  0.580780  0.579431  1
  Cd  Cd19  1  0.580609  0.259182  0.579431  1
  Co  Co20  1  0.140087  0.140027  0.579859  1
  Ru  Ru21  1  0.580695  0.138204  0.142898  1
  Ru  Ru22  1  0.138137  0.138300  0.142681  1
  Ru  Ru23  1  0.138137  0.580883  0.142681  1
