# generated using pymatgen
data_Tb3YHo4(OsC2)4
_symmetry_space_group_name_H-M   'P 1'
_cell_length_a   5.14424500
_cell_length_b   6.46236532
_cell_length_c   9.79728349
_cell_angle_alpha   90.03608393
_cell_angle_beta   90.00000000
_cell_angle_gamma   90.00000000
_symmetry_Int_Tables_number   1
_chemical_formula_structural   Tb3YHo4(OsC2)4
_chemical_formula_sum   'Tb3 Y1 Ho4 Os4 C8'
_cell_volume   325.70073441
_cell_formula_units_Z   1
loop_
 _symmetry_equiv_pos_site_id
 _symmetry_equiv_pos_as_xyz
  1  'x, y, z'
loop_
 _atom_site_type_symbol
 _atom_site_label
 _atom_site_symmetry_multiplicity
 _atom_site_fract_x
 _atom_site_fract_y
 _atom_site_fract_z
 _atom_site_occupancy
  Tb  Tb0  1  0.250000  0.526162  0.218627  1
  Tb  Tb1  1  0.750000  0.473811  0.781371  1
  Tb  Tb2  1  0.750000  0.973841  0.718643  1
  Y  Y3  1  0.250000  0.026414  0.281267  1
  Ho  Ho4  1  0.250000  0.682637  0.552880  1
  Ho  Ho5  1  0.750000  0.317178  0.447114  1
  Ho  Ho6  1  0.750000  0.817316  0.052958  1
  Ho  Ho7  1  0.250000  0.182786  0.947019  1
  Os  Os8  1  0.250000  0.726666  0.865128  1
  Os  Os9  1  0.750000  0.273356  0.135001  1
  Os  Os10  1  0.750000  0.773265  0.365004  1
  Os  Os11  1  0.250000  0.226634  0.635003  1
  C  C12  1  0.250000  0.462391  0.758231  1
  C  C13  1  0.750000  0.537701  0.241765  1
  C  C14  1  0.750000  0.037631  0.258268  1
  C  C15  1  0.250000  0.962408  0.741751  1
  C  C16  1  0.250000  0.826687  0.052236  1
  C  C17  1  0.750000  0.173244  0.947803  1
  C  C18  1  0.750000  0.673309  0.552209  1
  C  C19  1  0.250000  0.326561  0.447725  1
