# generated using pymatgen
data_ErZr3(Si3Ni5)4
_symmetry_space_group_name_H-M   'P 1'
_cell_length_a   3.75277300
_cell_length_b   6.67851930
_cell_length_c   18.51417053
_cell_angle_alpha   90.14183726
_cell_angle_beta   90.00000000
_cell_angle_gamma   90.00000000
_symmetry_Int_Tables_number   1
_chemical_formula_structural   ErZr3(Si3Ni5)4
_chemical_formula_sum   'Er1 Zr3 Si12 Ni20'
_cell_volume   464.01862163
_cell_formula_units_Z   1
loop_
 _symmetry_equiv_pos_site_id
 _symmetry_equiv_pos_as_xyz
  1  'x, y, z'
loop_
 _atom_site_type_symbol
 _atom_site_label
 _atom_site_symmetry_multiplicity
 _atom_site_fract_x
 _atom_site_fract_y
 _atom_site_fract_z
 _atom_site_occupancy
  Er  Er0  1  0.250000  0.877734  0.143224  1
  Zr  Zr1  1  0.250000  0.621490  0.643262  1
  Zr  Zr2  1  0.750000  0.379432  0.357510  1
  Zr  Zr3  1  0.750000  0.119685  0.855949  1
  Si  Si4  1  0.250000  0.852594  0.922713  1
  Si  Si5  1  0.750000  0.156360  0.075085  1
  Si  Si6  1  0.750000  0.351807  0.577654  1
  Si  Si7  1  0.250000  0.647216  0.424231  1
  Si  Si8  1  0.750000  0.623136  0.760266  1
  Si  Si9  1  0.250000  0.376692  0.240630  1
  Si  Si10  1  0.250000  0.405423  0.911740  1
  Si  Si11  1  0.750000  0.585215  0.083754  1
  Si  Si12  1  0.750000  0.905286  0.585737  1
  Si  Si13  1  0.250000  0.095327  0.415944  1
  Si  Si14  1  0.250000  0.122828  0.738831  1
  Si  Si15  1  0.750000  0.875947  0.263348  1
  Ni  Ni16  1  0.250000  0.132949  0.993706  1
  Ni  Ni17  1  0.750000  0.380432  0.983560  1
  Ni  Ni18  1  0.750000  0.121072  0.488027  1
  Ni  Ni19  1  0.250000  0.617092  0.010921  1
  Ni  Ni20  1  0.250000  0.359984  0.115686  1
  Ni  Ni21  1  0.750000  0.644632  0.884681  1
  Ni  Ni22  1  0.750000  0.857485  0.387338  1
  Ni  Ni23  1  0.250000  0.141760  0.614521  1
  Ni  Ni24  1  0.250000  0.070547  0.295497  1
  Ni  Ni25  1  0.750000  0.929943  0.706344  1
  Ni  Ni26  1  0.750000  0.568067  0.206342  1
  Ni  Ni27  1  0.250000  0.430654  0.791700  1
  Ni  Ni28  1  0.750000  0.629053  0.506196  1
  Ni  Ni29  1  0.250000  0.370502  0.495974  1
  Ni  Ni30  1  0.250000  0.818677  0.798500  1
  Ni  Ni31  1  0.750000  0.182986  0.201559  1
  Ni  Ni32  1  0.750000  0.317821  0.700654  1
  Ni  Ni33  1  0.250000  0.680754  0.300868  1
  Ni  Ni34  1  0.250000  0.879361  0.513375  1
  Ni  Ni35  1  0.750000  0.870057  0.004672  1
