# generated using pymatgen
data_Tm4FeReRu6
_symmetry_space_group_name_H-M   'P 1'
_cell_length_a   5.15276633
_cell_length_b   5.33976522
_cell_length_c   8.84856100
_cell_angle_alpha   90.00000000
_cell_angle_beta   90.00000000
_cell_angle_gamma   120.20181758
_symmetry_Int_Tables_number   1
_chemical_formula_structural   Tm4FeReRu6
_chemical_formula_sum   'Tm4 Fe1 Re1 Ru6'
_cell_volume   210.41616101
_cell_formula_units_Z   1
loop_
 _symmetry_equiv_pos_site_id
 _symmetry_equiv_pos_as_xyz
  1  'x, y, z'
loop_
 _atom_site_type_symbol
 _atom_site_label
 _atom_site_symmetry_multiplicity
 _atom_site_fract_x
 _atom_site_fract_y
 _atom_site_fract_z
 _atom_site_occupancy
  Tm  Tm0  1  0.330904  0.667317  0.432877  1
  Tm  Tm1  1  0.658356  0.326978  0.563790  1
  Tm  Tm2  1  0.658356  0.326978  0.936210  1
  Tm  Tm3  1  0.330904  0.667317  0.067123  1
  Fe  Fe4  1  0.836876  0.165466  0.250000  1
  Re  Re5  1  0.675062  0.837400  0.750000  1
  Ru  Ru6  1  0.983038  0.994731  0.497721  1
  Ru  Ru7  1  0.983038  0.994731  0.002279  1
  Ru  Ru8  1  0.828225  0.660698  0.250000  1
  Ru  Ru9  1  0.354070  0.176061  0.250000  1
  Ru  Ru10  1  0.179326  0.830691  0.750000  1
  Ru  Ru11  1  0.181847  0.351636  0.750000  1
