# generated using pymatgen
data_Li3Zr(Rh3W)2
_symmetry_space_group_name_H-M   'P 1'
_cell_length_a   4.33468100
_cell_length_b   6.24997100
_cell_length_c   12.88923800
_cell_angle_alpha   90.00000000
_cell_angle_beta   89.99981436
_cell_angle_gamma   90.00000000
_symmetry_Int_Tables_number   1
_chemical_formula_structural   Li3Zr(Rh3W)2
_chemical_formula_sum   'Li6 Zr2 Rh12 W4'
_cell_volume   349.19047389
_cell_formula_units_Z   2
loop_
 _symmetry_equiv_pos_site_id
 _symmetry_equiv_pos_as_xyz
  1  'x, y, z'
loop_
 _atom_site_type_symbol
 _atom_site_label
 _atom_site_symmetry_multiplicity
 _atom_site_fract_x
 _atom_site_fract_y
 _atom_site_fract_z
 _atom_site_occupancy
  Li  Li0  1  0.000006  0.000000  0.003890  1
  Li  Li1  1  0.499860  0.500000  0.170147  1
  Li  Li2  1  0.999917  0.000000  0.329759  1
  Li  Li3  1  0.500008  0.500000  0.496110  1
  Li  Li4  1  0.000124  0.000000  0.664544  1
  Li  Li5  1  0.500133  0.500000  0.835516  1
  Zr  Zr6  1  0.000128  0.500000  0.664033  1
  Zr  Zr7  1  0.500124  0.000000  0.835940  1
  Rh  Rh8  1  0.499982  0.259194  0.009963  1
  Rh  Rh9  1  0.499982  0.740807  0.009963  1
  Rh  Rh10  1  0.999877  0.248454  0.168334  1
  Rh  Rh11  1  0.999877  0.751545  0.168334  1
  Rh  Rh12  1  0.499888  0.251529  0.331706  1
  Rh  Rh13  1  0.499888  0.748471  0.331706  1
  Rh  Rh14  1  0.999983  0.240704  0.490027  1
  Rh  Rh15  1  0.999983  0.759297  0.490027  1
  Rh  Rh16  1  0.500119  0.242269  0.659300  1
  Rh  Rh17  1  0.500119  0.757731  0.659300  1
  Rh  Rh18  1  0.000121  0.257659  0.840632  1
  Rh  Rh19  1  0.000121  0.742340  0.840632  1
  W  W20  1  0.999986  0.500000  0.003098  1
  W  W21  1  0.499890  0.000000  0.168390  1
  W  W22  1  0.999897  0.500000  0.331714  1
  W  W23  1  0.499988  0.000000  0.496935  1
