# generated using pymatgen
data_Tm7Lu9(ScSb3)4
_symmetry_space_group_name_H-M   'P 1'
_cell_length_a   7.87150301
_cell_length_b   9.08800400
_cell_length_c   11.58771401
_cell_angle_alpha   90.00000000
_cell_angle_beta   89.99459749
_cell_angle_gamma   90.00000000
_symmetry_Int_Tables_number   1
_chemical_formula_structural   Tm7Lu9(ScSb3)4
_chemical_formula_sum   'Tm7 Lu9 Sc4 Sb12'
_cell_volume   828.94161248
_cell_formula_units_Z   1
loop_
 _symmetry_equiv_pos_site_id
 _symmetry_equiv_pos_as_xyz
  1  'x, y, z'
loop_
 _atom_site_type_symbol
 _atom_site_label
 _atom_site_symmetry_multiplicity
 _atom_site_fract_x
 _atom_site_fract_y
 _atom_site_fract_z
 _atom_site_occupancy
  Tm  Tm0  1  0.185084  0.750000  0.720661  1
  Tm  Tm1  1  0.685388  0.750000  0.779426  1
  Tm  Tm2  1  0.814779  0.250000  0.279425  1
  Tm  Tm3  1  0.314754  0.250000  0.220568  1
  Tm  Tm4  1  0.855246  0.750000  0.284760  1
  Tm  Tm5  1  0.355441  0.750000  0.215348  1
  Tm  Tm6  1  0.144476  0.250000  0.715249  1
  Lu  Lu7  1  0.196934  0.562636  0.439968  1
  Lu  Lu8  1  0.696990  0.937323  0.060010  1
  Lu  Lu9  1  0.803130  0.062701  0.560144  1
  Lu  Lu10  1  0.303179  0.437418  0.939948  1
  Lu  Lu11  1  0.803130  0.437299  0.560144  1
  Lu  Lu12  1  0.303179  0.062582  0.939948  1
  Lu  Lu13  1  0.196934  0.937364  0.439968  1
  Lu  Lu14  1  0.696990  0.562677  0.060010  1
  Lu  Lu15  1  0.644643  0.250000  0.784660  1
  Sc  Sc16  1  0.027843  0.750000  0.988659  1
  Sc  Sc17  1  0.528008  0.750000  0.511177  1
  Sc  Sc18  1  0.971877  0.250000  0.011178  1
  Sc  Sc19  1  0.472117  0.250000  0.488983  1
  Sb  Sb20  1  0.932975  0.496328  0.830697  1
  Sb  Sb21  1  0.433255  0.003859  0.669317  1
  Sb  Sb22  1  0.066833  0.996425  0.169322  1
  Sb  Sb23  1  0.566897  0.503643  0.330751  1
  Sb  Sb24  1  0.066833  0.503575  0.169322  1
  Sb  Sb25  1  0.566897  0.996357  0.330751  1
  Sb  Sb26  1  0.932975  0.003672  0.830697  1
  Sb  Sb27  1  0.433255  0.496141  0.669317  1
  Sb  Sb28  1  0.906825  0.750000  0.541265  1
  Sb  Sb29  1  0.406778  0.750000  0.958795  1
  Sb  Sb30  1  0.093061  0.250000  0.458758  1
  Sb  Sb31  1  0.593293  0.250000  0.040773  1
