# generated using pymatgen
data_NaTm(PaH4)6
_symmetry_space_group_name_H-M   'P 1'
_cell_length_a   6.54651300
_cell_length_b   6.54651300
_cell_length_c   6.54651300
_cell_angle_alpha   90.00000000
_cell_angle_beta   90.00000000
_cell_angle_gamma   90.00000000
_symmetry_Int_Tables_number   1
_chemical_formula_structural   NaTm(PaH4)6
_chemical_formula_sum   'Na1 Tm1 Pa6 H24'
_cell_volume   280.56281083
_cell_formula_units_Z   1
loop_
 _symmetry_equiv_pos_site_id
 _symmetry_equiv_pos_as_xyz
  1  'x, y, z'
loop_
 _atom_site_type_symbol
 _atom_site_label
 _atom_site_symmetry_multiplicity
 _atom_site_fract_x
 _atom_site_fract_y
 _atom_site_fract_z
 _atom_site_occupancy
  Na  Na0  1  0.000000  0.000000  0.000000  1
  Tm  Tm1  1  0.500000  0.500000  0.500000  1
  Pa  Pa2  1  0.248360  0.000000  0.500000  1
  Pa  Pa3  1  0.751640  0.000000  0.500000  1
  Pa  Pa4  1  0.000000  0.500000  0.248360  1
  Pa  Pa5  1  0.000000  0.500000  0.751640  1
  Pa  Pa6  1  0.500000  0.751640  0.000000  1
  Pa  Pa7  1  0.500000  0.248360  0.000000  1
  H  H8  1  0.000000  0.156536  0.313710  1
  H  H9  1  0.500000  0.196173  0.653289  1
  H  H10  1  0.500000  0.803827  0.346711  1
  H  H11  1  0.803827  0.653289  0.500000  1
  H  H12  1  0.196173  0.653289  0.500000  1
  H  H13  1  0.346711  0.500000  0.803827  1
  H  H14  1  0.653289  0.500000  0.803827  1
  H  H15  1  0.313710  0.000000  0.156536  1
  H  H16  1  0.156536  0.313710  0.000000  1
  H  H17  1  0.843464  0.686290  0.000000  1
  H  H18  1  0.313710  0.000000  0.843464  1
  H  H19  1  0.843464  0.313710  0.000000  1
  H  H20  1  0.686290  0.000000  0.156536  1
  H  H21  1  0.686290  0.000000  0.843464  1
  H  H22  1  0.156536  0.686290  0.000000  1
  H  H23  1  0.000000  0.843464  0.686290  1
  H  H24  1  0.000000  0.156536  0.686290  1
  H  H25  1  0.000000  0.843464  0.313710  1
  H  H26  1  0.653289  0.500000  0.196173  1
  H  H27  1  0.346711  0.500000  0.196173  1
  H  H28  1  0.803827  0.346711  0.500000  1
  H  H29  1  0.196173  0.346711  0.500000  1
  H  H30  1  0.500000  0.803827  0.653289  1
  H  H31  1  0.500000  0.196173  0.346711  1
