# generated using pymatgen
data_La2Pr3Y3(MgIr)2
_symmetry_space_group_name_H-M   'P 1'
_cell_length_a   9.97507358
_cell_length_b   9.97507473
_cell_length_c   9.97507500
_cell_angle_alpha   60.00000241
_cell_angle_beta   59.99999860
_cell_angle_gamma   60.00000671
_symmetry_Int_Tables_number   1
_chemical_formula_structural   La2Pr3Y3(MgIr)2
_chemical_formula_sum   'La4 Pr6 Y6 Mg4 Ir4'
_cell_volume   701.83247976
_cell_formula_units_Z   2
loop_
 _symmetry_equiv_pos_site_id
 _symmetry_equiv_pos_as_xyz
  1  'x, y, z'
loop_
 _atom_site_type_symbol
 _atom_site_label
 _atom_site_symmetry_multiplicity
 _atom_site_fract_x
 _atom_site_fract_y
 _atom_site_fract_z
 _atom_site_occupancy
  La  La0  1  0.347671  0.347671  0.347671  1
  La  La1  1  0.347671  0.347671  0.956986  1
  La  La2  1  0.347671  0.956986  0.347671  1
  La  La3  1  0.956986  0.347671  0.347671  1
  Pr  Pr4  1  0.938247  0.561753  0.561753  1
  Pr  Pr5  1  0.561753  0.938247  0.938247  1
  Pr  Pr6  1  0.561753  0.938247  0.561753  1
  Pr  Pr7  1  0.938247  0.561753  0.938247  1
  Pr  Pr8  1  0.561753  0.561753  0.938247  1
  Pr  Pr9  1  0.938247  0.938247  0.561753  1
  Y  Y10  1  0.816075  0.183925  0.183925  1
  Y  Y11  1  0.183925  0.816075  0.816075  1
  Y  Y12  1  0.183925  0.816075  0.183925  1
  Y  Y13  1  0.816075  0.183925  0.816075  1
  Y  Y14  1  0.183925  0.183925  0.816075  1
  Y  Y15  1  0.816075  0.816075  0.183925  1
  Mg  Mg16  1  0.579014  0.579014  0.579014  1
  Mg  Mg17  1  0.579014  0.579014  0.262958  1
  Mg  Mg18  1  0.579014  0.262958  0.579014  1
  Mg  Mg19  1  0.262958  0.579014  0.579014  1
  Ir  Ir20  1  0.140076  0.140076  0.140076  1
  Ir  Ir21  1  0.140076  0.140076  0.579771  1
  Ir  Ir22  1  0.140076  0.579771  0.140076  1
  Ir  Ir23  1  0.579771  0.140076  0.140076  1
