# generated using pymatgen
data_LiTbCr2O8
_symmetry_space_group_name_H-M   'P 1'
_cell_length_a   5.94824611
_cell_length_b   5.94824526
_cell_length_c   5.94824566
_cell_angle_alpha   105.81392920
_cell_angle_beta   105.81391995
_cell_angle_gamma   117.06312830
_symmetry_Int_Tables_number   1
_chemical_formula_structural   LiTbCr2O8
_chemical_formula_sum   'Li1 Tb1 Cr2 O8'
_cell_volume   159.85113083
_cell_formula_units_Z   1
loop_
 _symmetry_equiv_pos_site_id
 _symmetry_equiv_pos_as_xyz
  1  'x, y, z'
loop_
 _atom_site_type_symbol
 _atom_site_label
 _atom_site_symmetry_multiplicity
 _atom_site_fract_x
 _atom_site_fract_y
 _atom_site_fract_z
 _atom_site_occupancy
  Li  Li0  1  0.000000  0.000000  0.000000  1
  Tb  Tb1  1  0.250000  0.750000  0.500000  1
  Cr  Cr2  1  0.750000  0.250000  0.500000  1
  Cr  Cr3  1  0.500000  0.500000  0.000000  1
  O  O4  1  0.339989  0.525718  0.185729  1
  O  O5  1  0.400218  0.081698  0.318520  1
  O  O6  1  0.763178  0.081698  0.681480  1
  O  O7  1  0.339989  0.154260  0.814271  1
  O  O8  1  0.845740  0.660011  0.185729  1
  O  O9  1  0.918302  0.236822  0.318520  1
  O  O10  1  0.918302  0.599782  0.681480  1
  O  O11  1  0.474282  0.660011  0.814271  1
