# generated using pymatgen
data_Ho3Er13Ga6FeRh
_symmetry_space_group_name_H-M   'P 1'
_cell_length_a   9.92908903
_cell_length_b   9.92882784
_cell_length_c   6.93599905
_cell_angle_alpha   89.99090520
_cell_angle_beta   90.00085314
_cell_angle_gamma   120.00164558
_symmetry_Int_Tables_number   1
_chemical_formula_structural   Ho3Er13Ga6FeRh
_chemical_formula_sum   'Ho3 Er13 Ga6 Fe1 Rh1'
_cell_volume   592.16104356
_cell_formula_units_Z   1
loop_
 _symmetry_equiv_pos_site_id
 _symmetry_equiv_pos_as_xyz
  1  'x, y, z'
loop_
 _atom_site_type_symbol
 _atom_site_label
 _atom_site_symmetry_multiplicity
 _atom_site_fract_x
 _atom_site_fract_y
 _atom_site_fract_z
 _atom_site_occupancy
  Ho  Ho0  1  0.533691  0.067388  0.704683  1
  Ho  Ho1  1  0.000055  0.000195  0.234168  1
  Ho  Ho2  1  0.999930  0.999764  0.732765  1
  Er  Er3  1  0.173139  0.826537  0.509839  1
  Er  Er4  1  0.653388  0.826524  0.509862  1
  Er  Er5  1  0.173427  0.346828  0.510102  1
  Er  Er6  1  0.828777  0.171384  0.013140  1
  Er  Er7  1  0.342594  0.171401  0.013114  1
  Er  Er8  1  0.828620  0.657277  0.013030  1
  Er  Er9  1  0.333235  0.666451  0.830201  1
  Er  Er10  1  0.666790  0.333518  0.337725  1
  Er  Er11  1  0.462263  0.537670  0.207297  1
  Er  Er12  1  0.075390  0.537670  0.207340  1
  Er  Er13  1  0.462208  0.924439  0.207467  1
  Er  Er14  1  0.533898  0.466188  0.704383  1
  Er  Er15  1  0.932328  0.466200  0.704471  1
  Ga  Ga16  1  0.163835  0.836219  0.957219  1
  Ga  Ga17  1  0.672394  0.836260  0.957214  1
  Ga  Ga18  1  0.163772  0.327601  0.956976  1
  Ga  Ga19  1  0.836635  0.163590  0.457369  1
  Ga  Ga20  1  0.326986  0.163603  0.457388  1
  Ga  Ga21  1  0.836386  0.672771  0.457494  1
  Fe  Fe22  1  0.333354  0.666719  0.446404  1
  Rh  Rh23  1  0.666901  0.333802  0.944393  1
