# generated using pymatgen
data_Ba2Nd(CuO2)4
_symmetry_space_group_name_H-M   'P 1'
_cell_length_a   13.81443913
_cell_length_b   13.81443845
_cell_length_c   3.90939500
_cell_angle_alpha   90.00000000
_cell_angle_beta   90.00000000
_cell_angle_gamma   163.35910982
_symmetry_Int_Tables_number   1
_chemical_formula_structural   Ba2Nd(CuO2)4
_chemical_formula_sum   'Ba2 Nd1 Cu4 O8'
_cell_volume   213.65198424
_cell_formula_units_Z   1
loop_
 _symmetry_equiv_pos_site_id
 _symmetry_equiv_pos_as_xyz
  1  'x, y, z'
loop_
 _atom_site_type_symbol
 _atom_site_label
 _atom_site_symmetry_multiplicity
 _atom_site_fract_x
 _atom_site_fract_y
 _atom_site_fract_z
 _atom_site_occupancy
  Ba  Ba0  1  0.362986  0.637014  0.500000  1
  Ba  Ba1  1  0.637014  0.362986  0.500000  1
  Nd  Nd2  1  0.500000  0.500000  0.500000  1
  Cu  Cu3  1  0.062478  0.937522  0.000000  1
  Cu  Cu4  1  0.937522  0.062478  0.000000  1
  Cu  Cu5  1  0.213641  0.786359  0.000000  1
  Cu  Cu6  1  0.786359  0.213641  0.000000  1
  O  O7  1  0.146376  0.853624  0.000000  1
  O  O8  1  0.853624  0.146376  0.000000  1
  O  O9  1  0.556611  0.443389  0.000000  1
  O  O10  1  0.443389  0.556611  0.000000  1
  O  O11  1  0.055022  0.944978  0.500000  1
  O  O12  1  0.944978  0.055022  0.500000  1
  O  O13  1  0.717708  0.282292  0.000000  1
  O  O14  1  0.282292  0.717708  0.000000  1
