# generated using pymatgen
data_Pr20Ir3(PtRh2)3
_symmetry_space_group_name_H-M   'P 1'
_cell_length_a   11.40695243
_cell_length_b   11.40285339
_cell_length_c   6.62934800
_cell_angle_alpha   89.97956459
_cell_angle_beta   90.01571660
_cell_angle_gamma   89.71643117
_symmetry_Int_Tables_number   1
_chemical_formula_structural   Pr20Ir3(PtRh2)3
_chemical_formula_sum   'Pr20 Ir3 Pt3 Rh6'
_cell_volume   862.28061931
_cell_formula_units_Z   1
loop_
 _symmetry_equiv_pos_site_id
 _symmetry_equiv_pos_as_xyz
  1  'x, y, z'
loop_
 _atom_site_type_symbol
 _atom_site_label
 _atom_site_symmetry_multiplicity
 _atom_site_fract_x
 _atom_site_fract_y
 _atom_site_fract_z
 _atom_site_occupancy
  Pr  Pr0  1  0.294699  0.092375  0.378242  1
  Pr  Pr1  1  0.294882  0.906513  0.876784  1
  Pr  Pr2  1  0.707576  0.088228  0.879215  1
  Pr  Pr3  1  0.706819  0.906421  0.379702  1
  Pr  Pr4  1  0.590281  0.788924  0.881959  1
  Pr  Pr5  1  0.588870  0.207920  0.376666  1
  Pr  Pr6  1  0.412167  0.790213  0.382346  1
  Pr  Pr7  1  0.409479  0.208266  0.883895  1
  Pr  Pr8  1  0.211075  0.412265  0.617573  1
  Pr  Pr9  1  0.209665  0.588485  0.118125  1
  Pr  Pr10  1  0.792141  0.412071  0.122652  1
  Pr  Pr11  1  0.791684  0.593083  0.616687  1
  Pr  Pr12  1  0.906261  0.706297  0.118487  1
  Pr  Pr13  1  0.910170  0.294220  0.619910  1
  Pr  Pr14  1  0.091699  0.707088  0.624165  1
  Pr  Pr15  1  0.092020  0.293738  0.123612  1
  Pr  Pr16  1  0.995735  0.000588  0.499237  1
  Pr  Pr17  1  0.997494  0.999888  0.000466  1
  Pr  Pr18  1  0.498784  0.501365  0.000317  1
  Pr  Pr19  1  0.499582  0.500963  0.499662  1
  Ir  Ir20  1  0.654573  0.653869  0.250186  1
  Ir  Ir21  1  0.345907  0.344960  0.249974  1
  Ir  Ir22  1  0.343845  0.655353  0.749740  1
  Pt  Pt23  1  0.153344  0.154409  0.749492  1
  Pt  Pt24  1  0.154341  0.845624  0.250088  1
  Pt  Pt25  1  0.655669  0.343948  0.750080  1
  Rh  Rh26  1  0.845150  0.154967  0.249800  1
  Rh  Rh27  1  0.846214  0.847237  0.750535  1
  Rh  Rh28  1  0.500570  0.000548  0.118457  1
  Rh  Rh29  1  0.500290  0.000565  0.621460  1
  Rh  Rh30  1  0.999059  0.499708  0.879258  1
  Rh  Rh31  1  0.999956  0.499903  0.381232  1
