# generated using pymatgen
data_Ce4Si3(OsRh)2
_symmetry_space_group_name_H-M   'P 1'
_cell_length_a   10.78197224
_cell_length_b   10.78197302
_cell_length_c   7.87174723
_cell_angle_alpha   70.76250705
_cell_angle_beta   70.76250445
_cell_angle_gamma   30.12897663
_symmetry_Int_Tables_number   1
_chemical_formula_structural   Ce4Si3(OsRh)2
_chemical_formula_sum   'Ce8 Si6 Os4 Rh4'
_cell_volume   431.76584408
_cell_formula_units_Z   2
loop_
 _symmetry_equiv_pos_site_id
 _symmetry_equiv_pos_as_xyz
  1  'x, y, z'
loop_
 _atom_site_type_symbol
 _atom_site_label
 _atom_site_symmetry_multiplicity
 _atom_site_fract_x
 _atom_site_fract_y
 _atom_site_fract_z
 _atom_site_occupancy
  Ce  Ce0  1  0.783166  0.552790  0.602106  1
  Ce  Ce1  1  0.447210  0.216834  0.897894  1
  Ce  Ce2  1  0.216834  0.447210  0.397894  1
  Ce  Ce3  1  0.552790  0.783166  0.102106  1
  Ce  Ce4  1  0.788953  0.079913  0.168369  1
  Ce  Ce5  1  0.920087  0.211047  0.331631  1
  Ce  Ce6  1  0.211047  0.920087  0.831631  1
  Ce  Ce7  1  0.079913  0.788953  0.668369  1
  Si  Si8  1  0.947247  0.709553  0.059836  1
  Si  Si9  1  0.290447  0.052753  0.440164  1
  Si  Si10  1  0.052753  0.290447  0.940164  1
  Si  Si11  1  0.709553  0.947247  0.559836  1
  Si  Si12  1  0.627242  0.372758  0.750000  1
  Si  Si13  1  0.372758  0.627242  0.250000  1
  Os  Os14  1  0.576872  0.296124  0.523047  1
  Os  Os15  1  0.703876  0.423128  0.976953  1
  Os  Os16  1  0.423128  0.703876  0.476953  1
  Os  Os17  1  0.296124  0.576872  0.023047  1
  Rh  Rh18  1  0.629818  0.928343  0.315103  1
  Rh  Rh19  1  0.071657  0.370182  0.184897  1
  Rh  Rh20  1  0.370182  0.071657  0.684897  1
  Rh  Rh21  1  0.928343  0.629818  0.815103  1
