# generated using pymatgen
data_Cs6YLuF12
_symmetry_space_group_name_H-M   'P 1'
_cell_length_a   7.03140413
_cell_length_b   6.78332553
_cell_length_c   11.78768400
_cell_angle_alpha   55.26956668
_cell_angle_beta   89.92437324
_cell_angle_gamma   90.02447822
_symmetry_Int_Tables_number   1
_chemical_formula_structural   Cs6YLuF12
_chemical_formula_sum   'Cs6 Y1 Lu1 F12'
_cell_volume   462.06223040
_cell_formula_units_Z   1
loop_
 _symmetry_equiv_pos_site_id
 _symmetry_equiv_pos_as_xyz
  1  'x, y, z'
loop_
 _atom_site_type_symbol
 _atom_site_label
 _atom_site_symmetry_multiplicity
 _atom_site_fract_x
 _atom_site_fract_y
 _atom_site_fract_z
 _atom_site_occupancy
  Cs  Cs0  1  0.500000  0.500000  0.000000  1
  Cs  Cs1  1  0.000000  0.500000  0.500000  1
  Cs  Cs2  1  0.045595  0.738555  0.747487  1
  Cs  Cs3  1  0.954405  0.261445  0.252513  1
  Cs  Cs4  1  0.544002  0.267298  0.744665  1
  Cs  Cs5  1  0.455998  0.732702  0.255335  1
  Y  Y6  1  0.000000  0.000000  0.000000  1
  Lu  Lu7  1  0.500000  0.000000  0.500000  1
  F  F8  1  0.747670  0.781757  0.557154  1
  F  F9  1  0.252330  0.218243  0.442846  1
  F  F10  1  0.256214  0.224178  0.937087  1
  F  F11  1  0.743786  0.775822  0.062913  1
  F  F12  1  0.457966  0.884584  0.707954  1
  F  F13  1  0.542034  0.115416  0.292046  1
  F  F14  1  0.954135  0.114121  0.787029  1
  F  F15  1  0.045865  0.885879  0.212971  1
  F  F16  1  0.331396  0.707612  0.538649  1
  F  F17  1  0.668604  0.292388  0.461351  1
  F  F18  1  0.830799  0.305504  0.957243  1
  F  F19  1  0.169201  0.694496  0.042757  1
