# generated using pymatgen
data_LaBi3(RuO6)2
_symmetry_space_group_name_H-M   'P 1'
_cell_length_a   5.43709500
_cell_length_b   9.31890829
_cell_length_c   10.10919985
_cell_angle_alpha   90.68993835
_cell_angle_beta   90.00000000
_cell_angle_gamma   90.00000000
_symmetry_Int_Tables_number   1
_chemical_formula_structural   LaBi3(RuO6)2
_chemical_formula_sum   'La2 Bi6 Ru4 O24'
_cell_volume   512.17367670
_cell_formula_units_Z   2
loop_
 _symmetry_equiv_pos_site_id
 _symmetry_equiv_pos_as_xyz
  1  'x, y, z'
loop_
 _atom_site_type_symbol
 _atom_site_label
 _atom_site_symmetry_multiplicity
 _atom_site_fract_x
 _atom_site_fract_y
 _atom_site_fract_z
 _atom_site_occupancy
  La  La0  1  0.472026  0.719285  0.140825  1
  La  La1  1  0.972026  0.780715  0.859175  1
  Bi  Bi2  1  0.525537  0.100236  0.959907  1
  Bi  Bi3  1  0.025537  0.399764  0.040093  1
  Bi  Bi4  1  0.478716  0.602197  0.539155  1
  Bi  Bi5  1  0.978716  0.897803  0.460845  1
  Bi  Bi6  1  0.531162  0.214261  0.360808  1
  Bi  Bi7  1  0.031162  0.285739  0.639192  1
  Ru  Ru8  1  0.460757  0.001280  0.640840  1
  Ru  Ru9  1  0.960757  0.498720  0.359160  1
  Ru  Ru10  1  0.537603  0.493199  0.854127  1
  Ru  Ru11  1  0.037603  0.006801  0.145873  1
  O  O12  1  0.314462  0.140854  0.176690  1
  O  O13  1  0.814462  0.359146  0.823310  1
  O  O14  1  0.683876  0.630633  0.333053  1
  O  O15  1  0.183876  0.869367  0.666947  1
  O  O16  1  0.731120  0.113261  0.562638  1
  O  O17  1  0.231120  0.386739  0.437362  1
  O  O18  1  0.273532  0.609117  0.937718  1
  O  O19  1  0.773532  0.890883  0.062282  1
  O  O20  1  0.675543  0.635613  0.739596  1
  O  O21  1  0.175543  0.864387  0.260404  1
  O  O22  1  0.313162  0.139332  0.756731  1
  O  O23  1  0.813162  0.360668  0.243269  1
  O  O24  1  0.663079  0.952523  0.788028  1
  O  O25  1  0.163079  0.547477  0.211972  1
  O  O26  1  0.325640  0.451076  0.707765  1
  O  O27  1  0.825640  0.048924  0.292235  1
  O  O28  1  0.261017  0.083191  0.496241  1
  O  O29  1  0.761017  0.416809  0.503759  1
  O  O30  1  0.750460  0.579137  0.995853  1
  O  O31  1  0.250460  0.920863  0.004147  1
  O  O32  1  0.088599  0.655419  0.473985  1
  O  O33  1  0.588599  0.844581  0.526015  1
  O  O34  1  0.913710  0.156898  0.029227  1
  O  O35  1  0.413710  0.343102  0.970773  1
