# generated using pymatgen
data_Yb2ScPaPt4
_symmetry_space_group_name_H-M   'P 1'
_cell_length_a   4.38002500
_cell_length_b   5.58352463
_cell_length_c   7.08719308
_cell_angle_alpha   89.79204835
_cell_angle_beta   90.00000000
_cell_angle_gamma   90.00000000
_symmetry_Int_Tables_number   1
_chemical_formula_structural   Yb2ScPaPt4
_chemical_formula_sum   'Yb2 Sc1 Pa1 Pt4'
_cell_volume   173.32309279
_cell_formula_units_Z   1
loop_
 _symmetry_equiv_pos_site_id
 _symmetry_equiv_pos_as_xyz
  1  'x, y, z'
loop_
 _atom_site_type_symbol
 _atom_site_label
 _atom_site_symmetry_multiplicity
 _atom_site_fract_x
 _atom_site_fract_y
 _atom_site_fract_z
 _atom_site_occupancy
  Yb  Yb0  1  0.750000  0.853047  0.811274  1
  Yb  Yb1  1  0.250000  0.358530  0.681423  1
  Sc  Sc2  1  0.750000  0.640367  0.323319  1
  Pa  Pa3  1  0.250000  0.144925  0.185073  1
  Pt  Pt4  1  0.750000  0.163291  0.437440  1
  Pt  Pt5  1  0.250000  0.835990  0.510066  1
  Pt  Pt6  1  0.250000  0.662466  0.075295  1
  Pt  Pt7  1  0.750000  0.341383  0.976110  1
