# generated using pymatgen
data_DyU3(NbN2)4
_symmetry_space_group_name_H-M   'P 1'
_cell_length_a   3.26734700
_cell_length_b   5.69401233
_cell_length_c   10.96371163
_cell_angle_alpha   90.07892500
_cell_angle_beta   90.00000000
_cell_angle_gamma   90.00000000
_symmetry_Int_Tables_number   1
_chemical_formula_structural   DyU3(NbN2)4
_chemical_formula_sum   'Dy1 U3 Nb4 N8'
_cell_volume   203.97214159
_cell_formula_units_Z   1
loop_
 _symmetry_equiv_pos_site_id
 _symmetry_equiv_pos_as_xyz
  1  'x, y, z'
loop_
 _atom_site_type_symbol
 _atom_site_label
 _atom_site_symmetry_multiplicity
 _atom_site_fract_x
 _atom_site_fract_y
 _atom_site_fract_z
 _atom_site_occupancy
  Dy  Dy0  1  0.250000  0.578621  0.855033  1
  U  U1  1  0.750000  0.425297  0.140203  1
  U  U2  1  0.750000  0.923517  0.356377  1
  U  U3  1  0.250000  0.079193  0.645052  1
  Nb  Nb4  1  0.250000  0.922695  0.099912  1
  Nb  Nb5  1  0.750000  0.073784  0.903228  1
  Nb  Nb6  1  0.750000  0.576896  0.600407  1
  Nb  Nb7  1  0.250000  0.424091  0.400219  1
  N  N8  1  0.250000  0.659561  0.244897  1
  N  N9  1  0.750000  0.332112  0.751646  1
  N  N10  1  0.750000  0.845033  0.742841  1
  N  N11  1  0.250000  0.159758  0.255974  1
  N  N12  1  0.250000  0.766513  0.504378  1
  N  N13  1  0.750000  0.232955  0.496296  1
  N  N14  1  0.750000  0.733520  0.004712  1
  N  N15  1  0.250000  0.266453  0.998825  1
