# generated using pymatgen
data_Ho3Tm17Bi11Sb
_symmetry_space_group_name_H-M   'P 1'
_cell_length_a   8.15889095
_cell_length_b   9.43817100
_cell_length_c   11.89495813
_cell_angle_alpha   90.00000000
_cell_angle_beta   90.03610229
_cell_angle_gamma   90.00000000
_symmetry_Int_Tables_number   1
_chemical_formula_structural   Ho3Tm17Bi11Sb
_chemical_formula_sum   'Ho3 Tm17 Bi11 Sb1'
_cell_volume   915.97116333
_cell_formula_units_Z   1
loop_
 _symmetry_equiv_pos_site_id
 _symmetry_equiv_pos_as_xyz
  1  'x, y, z'
loop_
 _atom_site_type_symbol
 _atom_site_label
 _atom_site_symmetry_multiplicity
 _atom_site_fract_x
 _atom_site_fract_y
 _atom_site_fract_z
 _atom_site_occupancy
  Ho  Ho0  1  0.813585  0.250000  0.282336  1
  Ho  Ho1  1  0.681807  0.750000  0.784743  1
  Ho  Ho2  1  0.187838  0.750000  0.719676  1
  Tm  Tm3  1  0.354362  0.750000  0.214222  1
  Tm  Tm4  1  0.853624  0.750000  0.282177  1
  Tm  Tm5  1  0.646555  0.250000  0.782639  1
  Tm  Tm6  1  0.146763  0.250000  0.717735  1
  Tm  Tm7  1  0.689283  0.568112  0.058293  1
  Tm  Tm8  1  0.191972  0.934033  0.440193  1
  Tm  Tm9  1  0.309088  0.061702  0.940762  1
  Tm  Tm10  1  0.808056  0.434251  0.559507  1
  Tm  Tm11  1  0.309088  0.438298  0.940762  1
  Tm  Tm12  1  0.808056  0.065749  0.559507  1
  Tm  Tm13  1  0.689283  0.931888  0.058293  1
  Tm  Tm14  1  0.191972  0.565967  0.440193  1
  Tm  Tm15  1  0.476654  0.250000  0.488834  1
  Tm  Tm16  1  0.977301  0.250000  0.010974  1
  Tm  Tm17  1  0.523324  0.750000  0.510899  1
  Tm  Tm18  1  0.027470  0.750000  0.989036  1
  Tm  Tm19  1  0.313470  0.250000  0.217476  1
  Bi  Bi20  1  0.904392  0.750000  0.542054  1
  Bi  Bi21  1  0.595474  0.250000  0.042349  1
  Bi  Bi22  1  0.096335  0.250000  0.458071  1
  Bi  Bi23  1  0.565465  0.995737  0.325503  1
  Bi  Bi24  1  0.066772  0.503951  0.174133  1
  Bi  Bi25  1  0.433963  0.495400  0.674115  1
  Bi  Bi26  1  0.933556  0.004336  0.826062  1
  Bi  Bi27  1  0.433963  0.004600  0.674115  1
  Bi  Bi28  1  0.933556  0.495664  0.826062  1
  Bi  Bi29  1  0.565465  0.504263  0.325503  1
  Bi  Bi30  1  0.066772  0.996049  0.174133  1
  Sb  Sb31  1  0.404735  0.750000  0.959647  1
