# generated using pymatgen
data_Tb2Y2Ru7W
_symmetry_space_group_name_H-M   'P 1'
_cell_length_a   5.20530788
_cell_length_b   5.20530771
_cell_length_c   9.06702009
_cell_angle_alpha   90.01371503
_cell_angle_beta   89.98628388
_cell_angle_gamma   116.36830496
_symmetry_Int_Tables_number   1
_chemical_formula_structural   Tb2Y2Ru7W
_chemical_formula_sum   'Tb2 Y2 Ru7 W1'
_cell_volume   220.11256921
_cell_formula_units_Z   1
loop_
 _symmetry_equiv_pos_site_id
 _symmetry_equiv_pos_as_xyz
  1  'x, y, z'
loop_
 _atom_site_type_symbol
 _atom_site_label
 _atom_site_symmetry_multiplicity
 _atom_site_fract_x
 _atom_site_fract_y
 _atom_site_fract_z
 _atom_site_occupancy
  Tb  Tb0  1  0.664519  0.335481  0.931867  1
  Tb  Tb1  1  0.326807  0.673193  0.063014  1
  Y  Y2  1  0.326741  0.673259  0.436582  1
  Y  Y3  1  0.664993  0.335007  0.568351  1
  Ru  Ru4  1  0.990200  0.009800  0.501758  1
  Ru  Ru5  1  0.989911  0.010089  0.998329  1
  Ru  Ru6  1  0.828642  0.647208  0.250307  1
  Ru  Ru7  1  0.352792  0.171358  0.250307  1
  Ru  Ru8  1  0.177313  0.822687  0.749678  1
  Ru  Ru9  1  0.167292  0.331974  0.749715  1
  Ru  Ru10  1  0.668026  0.832708  0.749715  1
  W  W11  1  0.842763  0.157237  0.250377  1
