# generated using pymatgen
data_Ti4CrSe8
_symmetry_space_group_name_H-M   'P 1'
_cell_length_a   7.03289129
_cell_length_b   7.03289164
_cell_length_c   8.61480085
_cell_angle_alpha   53.12274375
_cell_angle_beta   53.12274292
_cell_angle_gamma   61.22713394
_symmetry_Int_Tables_number   1
_chemical_formula_structural   Ti4CrSe8
_chemical_formula_sum   'Ti4 Cr1 Se8'
_cell_volume   267.71555713
_cell_formula_units_Z   1
loop_
 _symmetry_equiv_pos_site_id
 _symmetry_equiv_pos_as_xyz
  1  'x, y, z'
loop_
 _atom_site_type_symbol
 _atom_site_label
 _atom_site_symmetry_multiplicity
 _atom_site_fract_x
 _atom_site_fract_y
 _atom_site_fract_z
 _atom_site_occupancy
  Ti  Ti0  1  0.734671  0.265329  0.500000  1
  Ti  Ti1  1  0.265329  0.734671  0.500000  1
  Ti  Ti2  1  0.745431  0.745431  0.010416  1
  Ti  Ti3  1  0.254569  0.254569  0.989584  1
  Cr  Cr4  1  0.000000  0.000000  0.000000  1
  Se  Se5  1  0.454216  0.454216  0.331704  1
  Se  Se6  1  0.545784  0.545784  0.668296  1
  Se  Se7  1  0.544440  0.047063  0.168870  1
  Se  Se8  1  0.455560  0.952937  0.831130  1
  Se  Se9  1  0.952937  0.455560  0.831130  1
  Se  Se10  1  0.047063  0.544440  0.168870  1
  Se  Se11  1  0.959796  0.959796  0.333206  1
  Se  Se12  1  0.040204  0.040204  0.666794  1
