# generated using pymatgen
data_Pr16Mg4Os3Pt
_symmetry_space_group_name_H-M   'P 1'
_cell_length_a   10.05344373
_cell_length_b   10.18113107
_cell_length_c   10.18113000
_cell_angle_alpha   60.00000348
_cell_angle_beta   59.57896565
_cell_angle_gamma   59.57896477
_symmetry_Int_Tables_number   1
_chemical_formula_structural   Pr16Mg4Os3Pt
_chemical_formula_sum   'Pr16 Mg4 Os3 Pt1'
_cell_volume   732.14742115
_cell_formula_units_Z   1
loop_
 _symmetry_equiv_pos_site_id
 _symmetry_equiv_pos_as_xyz
  1  'x, y, z'
loop_
 _atom_site_type_symbol
 _atom_site_label
 _atom_site_symmetry_multiplicity
 _atom_site_fract_x
 _atom_site_fract_y
 _atom_site_fract_z
 _atom_site_occupancy
  Pr  Pr0  1  0.590528  0.596867  0.596867  1
  Pr  Pr1  1  0.590528  0.596867  0.215739  1
  Pr  Pr2  1  0.590528  0.215739  0.596867  1
  Pr  Pr3  1  0.224687  0.591772  0.591772  1
  Pr  Pr4  1  0.066201  0.439021  0.439021  1
  Pr  Pr5  1  0.438180  0.061956  0.061956  1
  Pr  Pr6  1  0.438180  0.061956  0.437909  1
  Pr  Pr7  1  0.066201  0.439021  0.055757  1
  Pr  Pr8  1  0.438180  0.437909  0.061956  1
  Pr  Pr9  1  0.066201  0.055757  0.439021  1
  Pr  Pr10  1  0.185867  0.812705  0.812705  1
  Pr  Pr11  1  0.807410  0.188359  0.188359  1
  Pr  Pr12  1  0.807410  0.188359  0.815871  1
  Pr  Pr13  1  0.185867  0.812705  0.188724  1
  Pr  Pr14  1  0.807410  0.815871  0.188359  1
  Pr  Pr15  1  0.185867  0.188724  0.812705  1
  Mg  Mg16  1  0.828078  0.828297  0.828297  1
  Mg  Mg17  1  0.828078  0.828297  0.515329  1
  Mg  Mg18  1  0.828078  0.515329  0.828297  1
  Mg  Mg19  1  0.514425  0.828525  0.828525  1
  Os  Os20  1  0.393845  0.387010  0.387010  1
  Os  Os21  1  0.393845  0.387010  0.832135  1
  Os  Os22  1  0.393845  0.832135  0.387010  1
  Pt  Pt23  1  0.830562  0.389813  0.389813  1
