# generated using pymatgen
data_Dy5Er3Sc12Si15Hg
_symmetry_space_group_name_H-M   'P 1'
_cell_length_a   7.12376061
_cell_length_b   7.38283847
_cell_length_c   14.07709653
_cell_angle_alpha   89.90366062
_cell_angle_beta   89.56505155
_cell_angle_gamma   90.16163391
_symmetry_Int_Tables_number   1
_chemical_formula_structural   Dy5Er3Sc12Si15Hg
_chemical_formula_sum   'Dy5 Er3 Sc12 Si15 Hg1'
_cell_volume   740.33946386
_cell_formula_units_Z   1
loop_
 _symmetry_equiv_pos_site_id
 _symmetry_equiv_pos_as_xyz
  1  'x, y, z'
loop_
 _atom_site_type_symbol
 _atom_site_label
 _atom_site_symmetry_multiplicity
 _atom_site_fract_x
 _atom_site_fract_y
 _atom_site_fract_z
 _atom_site_occupancy
  Dy  Dy0  1  0.010967  0.175190  0.097539  1
  Dy  Dy1  1  0.988437  0.825989  0.904099  1
  Dy  Dy2  1  0.488469  0.676503  0.904053  1
  Dy  Dy3  1  0.990260  0.831983  0.597657  1
  Dy  Dy4  1  0.510857  0.324153  0.096619  1
  Er  Er5  1  0.006474  0.171072  0.397872  1
  Er  Er6  1  0.510595  0.321570  0.398989  1
  Er  Er7  1  0.497279  0.682336  0.600140  1
  Sc  Sc8  1  0.164416  0.501905  0.754103  1
  Sc  Sc9  1  0.835215  0.497992  0.250317  1
  Sc  Sc10  1  0.335781  0.000721  0.249172  1
  Sc  Sc11  1  0.666760  0.997107  0.751473  1
  Sc  Sc12  1  0.344555  0.168185  0.628617  1
  Sc  Sc13  1  0.662471  0.823813  0.373196  1
  Sc  Sc14  1  0.165112  0.677527  0.370829  1
  Sc  Sc15  1  0.667824  0.823554  0.124622  1
  Sc  Sc16  1  0.826565  0.325282  0.625908  1
  Sc  Sc17  1  0.330319  0.175333  0.876201  1
  Sc  Sc18  1  0.831426  0.323206  0.876077  1
  Sc  Sc19  1  0.167701  0.676736  0.125464  1
  Si  Si20  1  0.037560  0.121406  0.751048  1
  Si  Si21  1  0.962434  0.883669  0.248451  1
  Si  Si22  1  0.464606  0.614600  0.248439  1
  Si  Si23  1  0.535185  0.386592  0.751817  1
  Si  Si24  1  0.286810  0.872314  0.751380  1
  Si  Si25  1  0.711028  0.127607  0.248570  1
  Si  Si26  1  0.211802  0.370578  0.248894  1
  Si  Si27  1  0.789694  0.628507  0.752099  1
  Si  Si28  1  0.831397  0.536872  0.458846  1
  Si  Si29  1  0.337284  0.962674  0.459747  1
  Si  Si30  1  0.843115  0.535607  0.038916  1
  Si  Si31  1  0.661152  0.037696  0.536968  1
  Si  Si32  1  0.156362  0.464096  0.962429  1
  Si  Si33  1  0.656880  0.035335  0.960908  1
  Si  Si34  1  0.341997  0.964674  0.039895  1
  Hg  Hg35  1  0.171211  0.457622  0.538648  1
