# generated using pymatgen
data_Tm2Mn10Mo2P7
_symmetry_space_group_name_H-M   'P 1'
_cell_length_a   9.33377805
_cell_length_b   9.34956307
_cell_length_c   3.63609100
_cell_angle_alpha   90.00000000
_cell_angle_beta   90.00000000
_cell_angle_gamma   120.06624678
_symmetry_Int_Tables_number   1
_chemical_formula_structural   Tm2Mn10Mo2P7
_chemical_formula_sum   'Tm2 Mn10 Mo2 P7'
_cell_volume   274.61475079
_cell_formula_units_Z   1
loop_
 _symmetry_equiv_pos_site_id
 _symmetry_equiv_pos_as_xyz
  1  'x, y, z'
loop_
 _atom_site_type_symbol
 _atom_site_label
 _atom_site_symmetry_multiplicity
 _atom_site_fract_x
 _atom_site_fract_y
 _atom_site_fract_z
 _atom_site_occupancy
  Tm  Tm0  1  0.664783  0.330739  0.500000  1
  Tm  Tm1  1  0.335024  0.668405  0.000000  1
  Mn  Mn2  1  0.720404  0.874519  0.000000  1
  Mn  Mn3  1  0.950020  0.380539  0.000000  1
  Mn  Mn4  1  0.164804  0.286421  0.000000  1
  Mn  Mn5  1  0.389982  0.436887  0.500000  1
  Mn  Mn6  1  0.115640  0.833468  0.000000  1
  Mn  Mn7  1  0.428472  0.047784  0.000000  1
  Mn  Mn8  1  0.042459  0.613353  0.500000  1
  Mn  Mn9  1  0.567105  0.953235  0.500000  1
  Mn  Mn10  1  0.623883  0.576925  0.000000  1
  Mn  Mn11  1  0.874041  0.779557  0.500000  1
  Mo  Mo12  1  0.220245  0.095764  0.500000  1
  Mo  Mo13  1  0.906158  0.122461  0.500000  1
  P  P14  1  0.417397  0.294153  0.000000  1
  P  P15  1  0.287603  0.871295  0.500000  1
  P  P16  1  0.707076  0.119375  0.000000  1
  P  P17  1  0.586581  0.715556  0.500000  1
  P  P18  1  0.873829  0.584691  0.000000  1
  P  P19  1  0.127132  0.420175  0.500000  1
  P  P20  1  0.997362  0.994697  0.000000  1
