# generated using pymatgen
data_Pr2MnCdO6
_symmetry_space_group_name_H-M   'P 1'
_cell_length_a   5.59406350
_cell_length_b   5.90913000
_cell_length_c   8.03436168
_cell_angle_alpha   90.00118549
_cell_angle_beta   89.90674137
_cell_angle_gamma   89.99952797
_symmetry_Int_Tables_number   1
_chemical_formula_structural   Pr2MnCdO6
_chemical_formula_sum   'Pr4 Mn2 Cd2 O12'
_cell_volume   265.58389729
_cell_formula_units_Z   2
loop_
 _symmetry_equiv_pos_site_id
 _symmetry_equiv_pos_as_xyz
  1  'x, y, z'
loop_
 _atom_site_type_symbol
 _atom_site_label
 _atom_site_symmetry_multiplicity
 _atom_site_fract_x
 _atom_site_fract_y
 _atom_site_fract_z
 _atom_site_occupancy
  Pr  Pr0  1  0.982519  0.064221  0.248745  1
  Pr  Pr1  1  0.482512  0.435783  0.748743  1
  Pr  Pr2  1  0.017481  0.935779  0.751254  1
  Pr  Pr3  1  0.517487  0.564217  0.251257  1
  Mn  Mn4  1  0.000002  0.499998  0.500001  1
  Mn  Mn5  1  0.500002  0.000001  0.000000  1
  Cd  Cd6  1  0.500000  0.000000  0.500000  1
  Cd  Cd7  1  0.000000  0.500000  0.000000  1
  O  O8  1  0.110253  0.457349  0.272143  1
  O  O9  1  0.610248  0.042646  0.772144  1
  O  O10  1  0.889746  0.542651  0.727858  1
  O  O11  1  0.389752  0.957354  0.227855  1
  O  O12  1  0.283485  0.675960  0.551744  1
  O  O13  1  0.783492  0.824040  0.051734  1
  O  O14  1  0.716514  0.324040  0.448256  1
  O  O15  1  0.216508  0.175960  0.948265  1
  O  O16  1  0.169916  0.220647  0.562925  1
  O  O17  1  0.669921  0.279353  0.062920  1
  O  O18  1  0.830084  0.779353  0.437075  1
  O  O19  1  0.330079  0.720648  0.937079  1
