# generated using pymatgen
data_Tb7Hf2ThIr6
_symmetry_space_group_name_H-M   'P 1'
_cell_length_a   10.94289669
_cell_length_b   10.93595500
_cell_length_c   6.26932246
_cell_angle_alpha   90.00000000
_cell_angle_beta   89.46313396
_cell_angle_gamma   90.00000000
_symmetry_Int_Tables_number   1
_chemical_formula_structural   Tb7Hf2ThIr6
_chemical_formula_sum   'Tb14 Hf4 Th2 Ir12'
_cell_volume   750.22331486
_cell_formula_units_Z   2
loop_
 _symmetry_equiv_pos_site_id
 _symmetry_equiv_pos_as_xyz
  1  'x, y, z'
loop_
 _atom_site_type_symbol
 _atom_site_label
 _atom_site_symmetry_multiplicity
 _atom_site_fract_x
 _atom_site_fract_y
 _atom_site_fract_z
 _atom_site_occupancy
  Tb  Tb0  1  0.710494  0.086183  0.874455  1
  Tb  Tb1  1  0.710494  0.913817  0.374455  1
  Tb  Tb2  1  0.590267  0.787132  0.875198  1
  Tb  Tb3  1  0.590267  0.212868  0.375198  1
  Tb  Tb4  1  0.417475  0.783177  0.374391  1
  Tb  Tb5  1  0.417475  0.216823  0.874391  1
  Tb  Tb6  1  0.210514  0.415310  0.623852  1
  Tb  Tb7  1  0.210514  0.584690  0.123852  1
  Tb  Tb8  1  0.788857  0.415714  0.123800  1
  Tb  Tb9  1  0.788857  0.584286  0.623800  1
  Tb  Tb10  1  0.914198  0.711143  0.124016  1
  Tb  Tb11  1  0.914198  0.288857  0.624016  1
  Tb  Tb12  1  0.082593  0.710030  0.620751  1
  Tb  Tb13  1  0.082593  0.289970  0.120751  1
  Hf  Hf14  1  0.995982  0.998808  0.501645  1
  Hf  Hf15  1  0.995982  0.001192  0.001645  1
  Hf  Hf16  1  0.501204  0.500763  0.003716  1
  Hf  Hf17  1  0.501204  0.499237  0.503716  1
  Th  Th18  1  0.289286  0.090287  0.376173  1
  Th  Th19  1  0.289286  0.909713  0.876173  1
  Ir  Ir20  1  0.857191  0.142030  0.251490  1
  Ir  Ir21  1  0.857191  0.857970  0.751490  1
  Ir  Ir22  1  0.144214  0.139108  0.746593  1
  Ir  Ir23  1  0.144214  0.860892  0.246593  1
  Ir  Ir24  1  0.642927  0.358922  0.750744  1
  Ir  Ir25  1  0.642927  0.641078  0.250744  1
  Ir  Ir26  1  0.359032  0.357261  0.254810  1
  Ir  Ir27  1  0.359032  0.642739  0.754810  1
  Ir  Ir28  1  0.496172  0.000775  0.117155  1
  Ir  Ir29  1  0.496172  0.999225  0.617155  1
  Ir  Ir30  1  0.999594  0.499458  0.881211  1
  Ir  Ir31  1  0.999594  0.500542  0.381211  1
