# generated using pymatgen
data_La5PrCd23As
_symmetry_space_group_name_H-M   'P 1'
_cell_length_a   10.19417715
_cell_length_b   10.19417675
_cell_length_c   10.18818300
_cell_angle_alpha   60.01945086
_cell_angle_beta   60.01945214
_cell_angle_gamma   59.96109965
_symmetry_Int_Tables_number   1
_chemical_formula_structural   La5PrCd23As
_chemical_formula_sum   'La5 Pr1 Cd23 As1'
_cell_volume   748.66198881
_cell_formula_units_Z   1
loop_
 _symmetry_equiv_pos_site_id
 _symmetry_equiv_pos_as_xyz
  1  'x, y, z'
loop_
 _atom_site_type_symbol
 _atom_site_label
 _atom_site_symmetry_multiplicity
 _atom_site_fract_x
 _atom_site_fract_y
 _atom_site_fract_z
 _atom_site_occupancy
  La  La0  1  0.208640  0.791137  0.208863  1
  La  La1  1  0.791137  0.208640  0.208863  1
  La  La2  1  0.208702  0.208702  0.791298  1
  La  La3  1  0.791137  0.208640  0.791360  1
  La  La4  1  0.208640  0.791137  0.791360  1
  Pr  Pr5  1  0.791460  0.791460  0.208540  1
  Cd  Cd6  1  0.830595  0.830595  0.507856  1
  Cd  Cd7  1  0.830520  0.508220  0.830631  1
  Cd  Cd8  1  0.508220  0.830520  0.830631  1
  Cd  Cd9  1  0.830595  0.830595  0.830956  1
  Cd  Cd10  1  0.169369  0.169369  0.491780  1
  Cd  Cd11  1  0.169044  0.492144  0.169405  1
  Cd  Cd12  1  0.492144  0.169044  0.169405  1
  Cd  Cd13  1  0.169369  0.169369  0.169480  1
  Cd  Cd14  1  0.621266  0.621266  0.136947  1
  Cd  Cd15  1  0.621042  0.136901  0.621028  1
  Cd  Cd16  1  0.136901  0.621042  0.621028  1
  Cd  Cd17  1  0.621266  0.621266  0.620521  1
  Cd  Cd18  1  0.378972  0.378972  0.863099  1
  Cd  Cd19  1  0.379479  0.863053  0.378734  1
  Cd  Cd20  1  0.863053  0.379479  0.378734  1
  Cd  Cd21  1  0.378972  0.378972  0.378958  1
  Cd  Cd22  1  0.999969  0.999969  0.500031  1
  Cd  Cd23  1  0.500082  0.999827  0.499918  1
  Cd  Cd24  1  0.999827  0.500082  0.499918  1
  Cd  Cd25  1  0.499969  0.499969  0.000031  1
  Cd  Cd26  1  0.999827  0.500082  0.000173  1
  Cd  Cd27  1  0.500082  0.999827  0.000173  1
  Cd  Cd28  1  0.499994  0.499994  0.500006  1
  As  As29  1  0.999728  0.999728  0.000272  1
