# generated using pymatgen
data_Y8CdHg3Au8
_symmetry_space_group_name_H-M   'P 1'
_cell_length_a   7.96741700
_cell_length_b   7.96741700
_cell_length_c   7.52107200
_cell_angle_alpha   90.00000000
_cell_angle_beta   90.00000000
_cell_angle_gamma   90.00000000
_symmetry_Int_Tables_number   1
_chemical_formula_structural   Y8CdHg3Au8
_chemical_formula_sum   'Y8 Cd1 Hg3 Au8'
_cell_volume   477.43564734
_cell_formula_units_Z   1
loop_
 _symmetry_equiv_pos_site_id
 _symmetry_equiv_pos_as_xyz
  1  'x, y, z'
loop_
 _atom_site_type_symbol
 _atom_site_label
 _atom_site_symmetry_multiplicity
 _atom_site_fract_x
 _atom_site_fract_y
 _atom_site_fract_z
 _atom_site_occupancy
  Y  Y0  1  0.834619  0.160062  0.500059  1
  Y  Y1  1  0.165381  0.839938  0.500059  1
  Y  Y2  1  0.339938  0.334619  0.999941  1
  Y  Y3  1  0.660062  0.665381  0.999941  1
  Y  Y4  1  0.675629  0.683878  0.500115  1
  Y  Y5  1  0.324371  0.316122  0.500115  1
  Y  Y6  1  0.183878  0.824371  0.999885  1
  Y  Y7  1  0.816122  0.175629  0.999885  1
  Cd  Cd8  1  0.000000  0.500000  0.250000  1
  Hg  Hg9  1  0.500000  0.000000  0.250000  1
  Hg  Hg10  1  0.000000  0.500000  0.750000  1
  Hg  Hg11  1  0.500000  0.000000  0.750000  1
  Au  Au12  1  0.632585  0.376805  0.267408  1
  Au  Au13  1  0.367415  0.623195  0.267408  1
  Au  Au14  1  0.125782  0.128670  0.767493  1
  Au  Au15  1  0.874218  0.871330  0.767493  1
  Au  Au16  1  0.371330  0.625782  0.732507  1
  Au  Au17  1  0.628670  0.374218  0.732507  1
  Au  Au18  1  0.876805  0.867415  0.232592  1
  Au  Au19  1  0.123195  0.132585  0.232592  1
