# generated using pymatgen
data_CdBiIrRuO7
_symmetry_space_group_name_H-M   'P 1'
_cell_length_a   7.29389774
_cell_length_b   7.29389799
_cell_length_c   7.29389798
_cell_angle_alpha   119.36220765
_cell_angle_beta   120.65227768
_cell_angle_gamma   89.99108517
_symmetry_Int_Tables_number   1
_chemical_formula_structural   CdBiIrRuO7
_chemical_formula_sum   'Cd2 Bi2 Ir2 Ru2 O14'
_cell_volume   274.31381112
_cell_formula_units_Z   2
loop_
 _symmetry_equiv_pos_site_id
 _symmetry_equiv_pos_as_xyz
  1  'x, y, z'
loop_
 _atom_site_type_symbol
 _atom_site_label
 _atom_site_symmetry_multiplicity
 _atom_site_fract_x
 _atom_site_fract_y
 _atom_site_fract_z
 _atom_site_occupancy
  Cd  Cd0  1  0.500000  0.500000  0.000000  1
  Cd  Cd1  1  0.000000  0.500000  0.500000  1
  Bi  Bi2  1  0.500000  0.500000  0.500000  1
  Bi  Bi3  1  0.500000  0.000000  0.000000  1
  Ir  Ir4  1  0.000000  0.000000  0.000000  1
  Ir  Ir5  1  0.500000  0.000000  0.500000  1
  Ru  Ru6  1  0.000000  0.000000  0.500000  1
  Ru  Ru7  1  0.000000  0.500000  0.000000  1
  O  O8  1  0.333299  0.080629  0.663541  1
  O  O9  1  0.917088  0.080629  0.247331  1
  O  O10  1  0.954871  0.704871  0.250000  1
  O  O11  1  0.917088  0.669757  0.836459  1
  O  O12  1  0.333299  0.669757  0.252669  1
  O  O13  1  0.331542  0.081542  0.250000  1
  O  O14  1  0.666701  0.919371  0.336459  1
  O  O15  1  0.082912  0.919371  0.752669  1
  O  O16  1  0.045129  0.295129  0.750000  1
  O  O17  1  0.082912  0.330243  0.163541  1
  O  O18  1  0.666701  0.330243  0.747331  1
  O  O19  1  0.668458  0.918458  0.750000  1
  O  O20  1  0.633337  0.383337  0.250000  1
  O  O21  1  0.366663  0.616663  0.750000  1
