# generated using pymatgen
data_Yb6Al24FeRu7
_symmetry_space_group_name_H-M   'P 1'
_cell_length_a   8.82809900
_cell_length_b   8.82809838
_cell_length_c   9.51498500
_cell_angle_alpha   90.00000000
_cell_angle_beta   90.00000000
_cell_angle_gamma   120.00000606
_symmetry_Int_Tables_number   1
_chemical_formula_structural   Yb6Al24FeRu7
_chemical_formula_sum   'Yb6 Al24 Fe1 Ru7'
_cell_volume   642.20409774
_cell_formula_units_Z   1
loop_
 _symmetry_equiv_pos_site_id
 _symmetry_equiv_pos_as_xyz
  1  'x, y, z'
loop_
 _atom_site_type_symbol
 _atom_site_label
 _atom_site_symmetry_multiplicity
 _atom_site_fract_x
 _atom_site_fract_y
 _atom_site_fract_z
 _atom_site_occupancy
  Yb  Yb0  1  0.804521  0.195479  0.749854  1
  Yb  Yb1  1  0.195479  0.804521  0.250146  1
  Yb  Yb2  1  0.390958  0.195479  0.749854  1
  Yb  Yb3  1  0.609042  0.804521  0.250146  1
  Yb  Yb4  1  0.804521  0.609042  0.749854  1
  Yb  Yb5  1  0.195479  0.390958  0.250146  1
  Al  Al6  1  0.666667  0.333333  0.006730  1
  Al  Al7  1  0.333333  0.666667  0.993270  1
  Al  Al8  1  0.333333  0.666667  0.504415  1
  Al  Al9  1  0.666667  0.333333  0.495585  1
  Al  Al10  1  0.839976  0.160024  0.421965  1
  Al  Al11  1  0.160024  0.839976  0.578035  1
  Al  Al12  1  0.320047  0.160024  0.421965  1
  Al  Al13  1  0.157441  0.842559  0.923793  1
  Al  Al14  1  0.679953  0.839976  0.578035  1
  Al  Al15  1  0.842559  0.157441  0.076207  1
  Al  Al16  1  0.839976  0.679953  0.421965  1
  Al  Al17  1  0.685118  0.842559  0.923793  1
  Al  Al18  1  0.160024  0.320047  0.578035  1
  Al  Al19  1  0.314882  0.157441  0.076207  1
  Al  Al20  1  0.157441  0.314882  0.923793  1
  Al  Al21  1  0.842559  0.685118  0.076207  1
  Al  Al22  1  0.438750  0.561250  0.750517  1
  Al  Al23  1  0.561250  0.438750  0.249483  1
  Al  Al24  1  0.122499  0.561250  0.750517  1
  Al  Al25  1  0.877501  0.438750  0.249483  1
  Al  Al26  1  0.438750  0.877501  0.750517  1
  Al  Al27  1  0.561250  0.122499  0.249483  1
  Al  Al28  1  0.000000  0.000000  0.755732  1
  Al  Al29  1  0.000000  0.000000  0.244268  1
  Fe  Fe30  1  0.000000  0.000000  0.000000  1
  Ru  Ru31  1  0.500000  0.500000  0.000000  1
  Ru  Ru32  1  0.000000  0.500000  0.000000  1
  Ru  Ru33  1  0.500000  0.500000  0.500000  1
  Ru  Ru34  1  0.500000  0.000000  0.000000  1
  Ru  Ru35  1  0.000000  0.500000  0.500000  1
  Ru  Ru36  1  0.500000  0.000000  0.500000  1
  Ru  Ru37  1  0.000000  0.000000  0.500000  1
