# generated using pymatgen
data_Zr6NiSb8Pd5
_symmetry_space_group_name_H-M   'P 1'
_cell_length_a   8.16185295
_cell_length_b   8.16185312
_cell_length_c   8.16185230
_cell_angle_alpha   109.21298420
_cell_angle_beta   109.21298573
_cell_angle_gamma   109.98892897
_symmetry_Int_Tables_number   1
_chemical_formula_structural   Zr6NiSb8Pd5
_chemical_formula_sum   'Zr6 Ni1 Sb8 Pd5'
_cell_volume   418.52152088
_cell_formula_units_Z   1
loop_
 _symmetry_equiv_pos_site_id
 _symmetry_equiv_pos_as_xyz
  1  'x, y, z'
loop_
 _atom_site_type_symbol
 _atom_site_label
 _atom_site_symmetry_multiplicity
 _atom_site_fract_x
 _atom_site_fract_y
 _atom_site_fract_z
 _atom_site_occupancy
  Zr  Zr0  1  0.625000  0.375000  0.250000  1
  Zr  Zr1  1  0.367202  0.241905  0.615516  1
  Zr  Zr2  1  0.126389  0.751685  0.884484  1
  Zr  Zr3  1  0.758095  0.873611  0.125297  1
  Zr  Zr4  1  0.248315  0.632798  0.374703  1
  Zr  Zr5  1  0.875000  0.125000  0.750000  1
  Ni  Ni6  1  0.125000  0.875000  0.250000  1
  Sb  Sb7  1  0.500023  0.000949  0.821611  1
  Sb  Sb8  1  0.175877  0.167592  0.179365  1
  Sb  Sb9  1  0.832408  0.511773  0.008285  1
  Sb  Sb10  1  0.003487  0.824123  0.491715  1
  Sb  Sb11  1  0.321588  0.499977  0.000925  1
  Sb  Sb12  1  0.999051  0.320663  0.499075  1
  Sb  Sb13  1  0.488227  0.996513  0.320635  1
  Sb  Sb14  1  0.679337  0.678412  0.678389  1
  Pd  Pd15  1  0.877566  0.250968  0.124676  1
  Pd  Pd16  1  0.375000  0.625000  0.750000  1
  Pd  Pd17  1  0.626292  0.752890  0.375324  1
  Pd  Pd18  1  0.749032  0.373708  0.626598  1
  Pd  Pd19  1  0.247110  0.122434  0.873402  1
