# generated using pymatgen
data_HoEr3Co4(P3Rh4)4
_symmetry_space_group_name_H-M   'P 1'
_cell_length_a   3.84026800
_cell_length_b   10.75715702
_cell_length_c   12.39285603
_cell_angle_alpha   90.00780090
_cell_angle_beta   90.00000000
_cell_angle_gamma   90.00000000
_symmetry_Int_Tables_number   1
_chemical_formula_structural   HoEr3Co4(P3Rh4)4
_chemical_formula_sum   'Ho1 Er3 Co4 P12 Rh16'
_cell_volume   511.95341227
_cell_formula_units_Z   1
loop_
 _symmetry_equiv_pos_site_id
 _symmetry_equiv_pos_as_xyz
  1  'x, y, z'
loop_
 _atom_site_type_symbol
 _atom_site_label
 _atom_site_symmetry_multiplicity
 _atom_site_fract_x
 _atom_site_fract_y
 _atom_site_fract_z
 _atom_site_occupancy
  Ho  Ho0  1  0.750000  0.085134  0.792481  1
  Er  Er1  1  0.250000  0.585152  0.707541  1
  Er  Er2  1  0.250000  0.914862  0.207517  1
  Er  Er3  1  0.750000  0.414909  0.292436  1
  Co  Co4  1  0.250000  0.464397  0.933755  1
  Co  Co5  1  0.250000  0.035658  0.433631  1
  Co  Co6  1  0.750000  0.535676  0.066285  1
  Co  Co7  1  0.750000  0.964279  0.566205  1
  P  P8  1  0.250000  0.424064  0.106325  1
  P  P9  1  0.250000  0.075927  0.606204  1
  P  P10  1  0.750000  0.575941  0.893684  1
  P  P11  1  0.750000  0.924029  0.393606  1
  P  P12  1  0.250000  0.271862  0.872558  1
  P  P13  1  0.250000  0.228416  0.372437  1
  P  P14  1  0.750000  0.728376  0.127561  1
  P  P15  1  0.750000  0.771593  0.627577  1
  P  P16  1  0.250000  0.598902  0.387849  1
  P  P17  1  0.250000  0.900891  0.887952  1
  P  P18  1  0.750000  0.401067  0.612167  1
  P  P19  1  0.750000  0.098906  0.112131  1
  Rh  Rh20  1  0.250000  0.716476  0.987882  1
  Rh  Rh21  1  0.250000  0.783443  0.487845  1
  Rh  Rh22  1  0.750000  0.283511  0.012159  1
  Rh  Rh23  1  0.750000  0.216544  0.512123  1
  Rh  Rh24  1  0.250000  0.408307  0.479540  1
  Rh  Rh25  1  0.250000  0.091682  0.979792  1
  Rh  Rh26  1  0.750000  0.591681  0.520456  1
  Rh  Rh27  1  0.750000  0.908284  0.020464  1
  Rh  Rh28  1  0.250000  0.228016  0.178416  1
  Rh  Rh29  1  0.250000  0.272198  0.678266  1
  Rh  Rh30  1  0.750000  0.771993  0.821644  1
  Rh  Rh31  1  0.750000  0.727992  0.321604  1
  Rh  Rh32  1  0.250000  0.887032  0.699022  1
  Rh  Rh33  1  0.250000  0.612749  0.199115  1
  Rh  Rh34  1  0.750000  0.112763  0.300882  1
  Rh  Rh35  1  0.750000  0.387288  0.800889  1
