# generated using pymatgen
data_Tb16CdCo4Hg3
_symmetry_space_group_name_H-M   'P 1'
_cell_length_a   9.54235179
_cell_length_b   9.52796583
_cell_length_c   9.54235100
_cell_angle_alpha   59.95004069
_cell_angle_beta   59.99999927
_cell_angle_gamma   59.95004494
_symmetry_Int_Tables_number   1
_chemical_formula_structural   Tb16CdCo4Hg3
_chemical_formula_sum   'Tb16 Cd1 Co4 Hg3'
_cell_volume   613.01012995
_cell_formula_units_Z   1
loop_
 _symmetry_equiv_pos_site_id
 _symmetry_equiv_pos_as_xyz
  1  'x, y, z'
loop_
 _atom_site_type_symbol
 _atom_site_label
 _atom_site_symmetry_multiplicity
 _atom_site_fract_x
 _atom_site_fract_y
 _atom_site_fract_z
 _atom_site_occupancy
  Tb  Tb0  1  0.437789  0.437395  0.062408  1
  Tb  Tb1  1  0.597168  0.597343  0.597168  1
  Tb  Tb2  1  0.187839  0.811892  0.812430  1
  Tb  Tb3  1  0.061738  0.061688  0.438287  1
  Tb  Tb4  1  0.438287  0.061688  0.061738  1
  Tb  Tb5  1  0.812513  0.186559  0.812513  1
  Tb  Tb6  1  0.438287  0.061688  0.438287  1
  Tb  Tb7  1  0.597717  0.206849  0.597717  1
  Tb  Tb8  1  0.812430  0.811892  0.187839  1
  Tb  Tb9  1  0.208321  0.597343  0.597168  1
  Tb  Tb10  1  0.812513  0.186559  0.188416  1
  Tb  Tb11  1  0.062408  0.437395  0.437789  1
  Tb  Tb12  1  0.187839  0.811892  0.187839  1
  Tb  Tb13  1  0.597168  0.597343  0.208321  1
  Tb  Tb14  1  0.188416  0.186559  0.812513  1
  Tb  Tb15  1  0.062408  0.437395  0.062408  1
  Cd  Cd16  1  0.829337  0.511989  0.829337  1
  Co  Co17  1  0.391066  0.390560  0.391066  1
  Co  Co18  1  0.827309  0.390560  0.391066  1
  Co  Co19  1  0.390996  0.827014  0.390996  1
  Co  Co20  1  0.391066  0.390560  0.827309  1
  Hg  Hg21  1  0.834270  0.832612  0.498847  1
  Hg  Hg22  1  0.834270  0.832612  0.834270  1
  Hg  Hg23  1  0.498847  0.832612  0.834270  1
