# generated using pymatgen
data_Ho3Er(VOs3)2
_symmetry_space_group_name_H-M   'P 1'
_cell_length_a   5.45553500
_cell_length_b   5.45553447
_cell_length_c   8.31186200
_cell_angle_alpha   90.00000000
_cell_angle_beta   90.00000000
_cell_angle_gamma   120.00000928
_symmetry_Int_Tables_number   1
_chemical_formula_structural   Ho3Er(VOs3)2
_chemical_formula_sum   'Ho3 Er1 V2 Os6'
_cell_volume   214.24148287
_cell_formula_units_Z   1
loop_
 _symmetry_equiv_pos_site_id
 _symmetry_equiv_pos_as_xyz
  1  'x, y, z'
loop_
 _atom_site_type_symbol
 _atom_site_label
 _atom_site_symmetry_multiplicity
 _atom_site_fract_x
 _atom_site_fract_y
 _atom_site_fract_z
 _atom_site_occupancy
  Ho  Ho0  1  0.666667  0.333333  0.564854  1
  Ho  Ho1  1  0.666667  0.333333  0.935191  1
  Ho  Ho2  1  0.333333  0.666667  0.065077  1
  Er  Er3  1  0.333333  0.666667  0.434896  1
  V  V4  1  0.000000  0.000000  0.499852  1
  V  V5  1  0.000000  0.000000  0.999989  1
  Os  Os6  1  0.830355  0.169645  0.250229  1
  Os  Os7  1  0.830355  0.660710  0.250229  1
  Os  Os8  1  0.339290  0.169645  0.250229  1
  Os  Os9  1  0.169739  0.830261  0.749818  1
  Os  Os10  1  0.169739  0.339477  0.749818  1
  Os  Os11  1  0.660523  0.830261  0.749818  1
