# generated using pymatgen
data_Ca3TmTi4O12
_symmetry_space_group_name_H-M   'P 1'
_cell_length_a   5.37580732
_cell_length_b   5.53492509
_cell_length_c   7.68439600
_cell_angle_alpha   90.00000000
_cell_angle_beta   90.00000000
_cell_angle_gamma   89.78947510
_symmetry_Int_Tables_number   1
_chemical_formula_structural   Ca3TmTi4O12
_chemical_formula_sum   'Ca3 Tm1 Ti4 O12'
_cell_volume   228.64528357
_cell_formula_units_Z   1
loop_
 _symmetry_equiv_pos_site_id
 _symmetry_equiv_pos_as_xyz
  1  'x, y, z'
loop_
 _atom_site_type_symbol
 _atom_site_label
 _atom_site_symmetry_multiplicity
 _atom_site_fract_x
 _atom_site_fract_y
 _atom_site_fract_z
 _atom_site_occupancy
  Ca  Ca0  1  0.491432  0.455588  0.250000  1
  Ca  Ca1  1  0.989468  0.049356  0.750000  1
  Ca  Ca2  1  0.011816  0.950860  0.250000  1
  Tm  Tm3  1  0.514500  0.563530  0.750000  1
  Ti  Ti4  1  0.003588  0.498667  0.499356  1
  Ti  Ti5  1  0.003588  0.498667  0.000644  1
  Ti  Ti6  1  0.497604  0.003413  0.499279  1
  Ti  Ti7  1  0.497604  0.003413  0.000721  1
  O  O8  1  0.105713  0.475965  0.750000  1
  O  O9  1  0.921563  0.521319  0.250000  1
  O  O10  1  0.415654  0.966792  0.750000  1
  O  O11  1  0.583777  0.025058  0.250000  1
  O  O12  1  0.787330  0.784992  0.948489  1
  O  O13  1  0.200816  0.203206  0.457893  1
  O  O14  1  0.200816  0.203206  0.042107  1
  O  O15  1  0.787330  0.784992  0.551511  1
  O  O16  1  0.696062  0.301676  0.945601  1
  O  O17  1  0.297638  0.703811  0.462122  1
  O  O18  1  0.297638  0.703811  0.037878  1
  O  O19  1  0.696062  0.301676  0.554399  1
