# generated using pymatgen
data_Nd3In2HgPd2Pt
_symmetry_space_group_name_H-M   'P 1'
_cell_length_a   7.89444937
_cell_length_b   7.95856744
_cell_length_c   3.90071100
_cell_angle_alpha   90.00000000
_cell_angle_beta   90.00000000
_cell_angle_gamma   120.16813952
_symmetry_Int_Tables_number   1
_chemical_formula_structural   Nd3In2HgPd2Pt
_chemical_formula_sum   'Nd3 In2 Hg1 Pd2 Pt1'
_cell_volume   211.88140127
_cell_formula_units_Z   1
loop_
 _symmetry_equiv_pos_site_id
 _symmetry_equiv_pos_as_xyz
  1  'x, y, z'
loop_
 _atom_site_type_symbol
 _atom_site_label
 _atom_site_symmetry_multiplicity
 _atom_site_fract_x
 _atom_site_fract_y
 _atom_site_fract_z
 _atom_site_occupancy
  Nd  Nd0  1  0.006846  0.590586  0.500000  1
  Nd  Nd1  1  0.594709  0.998872  0.500000  1
  Nd  Nd2  1  0.399795  0.409320  0.500000  1
  In  In3  1  0.258282  0.001702  0.000000  1
  In  In4  1  0.745240  0.739535  0.000000  1
  Hg  Hg5  1  0.995205  0.258520  0.000000  1
  Pd  Pd6  1  0.999654  0.988207  0.500000  1
  Pd  Pd7  1  0.657669  0.335579  0.000000  1
  Pt  Pt8  1  0.342599  0.677678  0.000000  1
