# generated using pymatgen
data_Y8Al3Si8Ge
_symmetry_space_group_name_H-M   'P 1'
_cell_length_a   5.61413957
_cell_length_b   5.61413928
_cell_length_c   19.55043478
_cell_angle_alpha   82.32740754
_cell_angle_beta   82.32740770
_cell_angle_gamma   42.45525903
_symmetry_Int_Tables_number   1
_chemical_formula_structural   Y8Al3Si8Ge
_chemical_formula_sum   'Y8 Al3 Si8 Ge1'
_cell_volume   411.65621133
_cell_formula_units_Z   1
loop_
 _symmetry_equiv_pos_site_id
 _symmetry_equiv_pos_as_xyz
  1  'x, y, z'
loop_
 _atom_site_type_symbol
 _atom_site_label
 _atom_site_symmetry_multiplicity
 _atom_site_fract_x
 _atom_site_fract_y
 _atom_site_fract_z
 _atom_site_occupancy
  Y  Y0  1  0.462674  0.462674  0.676559  1
  Y  Y1  1  0.703374  0.703374  0.928685  1
  Y  Y2  1  0.973776  0.973776  0.179227  1
  Y  Y3  1  0.216805  0.216805  0.428042  1
  Y  Y4  1  0.783195  0.783195  0.571958  1
  Y  Y5  1  0.026224  0.026224  0.820773  1
  Y  Y6  1  0.296626  0.296626  0.071315  1
  Y  Y7  1  0.537326  0.537326  0.323441  1
  Al  Al8  1  0.254694  0.254694  0.252326  1
  Al  Al9  1  0.500000  0.500000  0.500000  1
  Al  Al10  1  0.745306  0.745306  0.747674  1
  Si  Si11  1  0.172664  0.172664  0.676316  1
  Si  Si12  1  0.415713  0.415713  0.923103  1
  Si  Si13  1  0.687051  0.687051  0.180068  1
  Si  Si14  1  0.928100  0.928100  0.427904  1
  Si  Si15  1  0.071900  0.071900  0.572096  1
  Si  Si16  1  0.312949  0.312949  0.819932  1
  Si  Si17  1  0.584287  0.584287  0.076897  1
  Si  Si18  1  0.827336  0.827336  0.323684  1
  Ge  Ge19  1  0.000000  0.000000  0.000000  1
