# generated using pymatgen
data_Zr4Fe4Si3P
_symmetry_space_group_name_H-M   'P 1'
_cell_length_a   3.92171700
_cell_length_b   6.41114528
_cell_length_c   7.02844031
_cell_angle_alpha   90.03421312
_cell_angle_beta   90.00000000
_cell_angle_gamma   90.00000000
_symmetry_Int_Tables_number   1
_chemical_formula_structural   Zr4Fe4Si3P
_chemical_formula_sum   'Zr4 Fe4 Si3 P1'
_cell_volume   176.71391688
_cell_formula_units_Z   1
loop_
 _symmetry_equiv_pos_site_id
 _symmetry_equiv_pos_as_xyz
  1  'x, y, z'
loop_
 _atom_site_type_symbol
 _atom_site_label
 _atom_site_symmetry_multiplicity
 _atom_site_fract_x
 _atom_site_fract_y
 _atom_site_fract_z
 _atom_site_occupancy
  Zr  Zr0  1  0.250000  0.001272  0.305740  1
  Zr  Zr1  1  0.250000  0.500565  0.194745  1
  Zr  Zr2  1  0.750000  0.004413  0.696129  1
  Zr  Zr3  1  0.750000  0.500957  0.802484  1
  Fe  Fe4  1  0.250000  0.154877  0.928238  1
  Fe  Fe5  1  0.250000  0.644823  0.566982  1
  Fe  Fe6  1  0.750000  0.847815  0.067419  1
  Fe  Fe7  1  0.750000  0.344214  0.437358  1
  Si  Si8  1  0.250000  0.790195  0.894412  1
  Si  Si9  1  0.750000  0.710281  0.394931  1
  Si  Si10  1  0.750000  0.211024  0.105253  1
  P  P11  1  0.250000  0.289563  0.606309  1
