# generated using pymatgen
data_CsV2Si2MoP6O25
_symmetry_space_group_name_H-M   'P 1'
_cell_length_a   8.24459000
_cell_length_b   8.24459053
_cell_length_c   17.73813000
_cell_angle_alpha   90.00000000
_cell_angle_beta   90.00000000
_cell_angle_gamma   119.99999786
_symmetry_Int_Tables_number   1
_chemical_formula_structural   CsV2Si2MoP6O25
_chemical_formula_sum   'Cs2 V4 Si4 Mo2 P12 O50'
_cell_volume   1044.18302590
_cell_formula_units_Z   2
loop_
 _symmetry_equiv_pos_site_id
 _symmetry_equiv_pos_as_xyz
  1  'x, y, z'
loop_
 _atom_site_type_symbol
 _atom_site_label
 _atom_site_symmetry_multiplicity
 _atom_site_fract_x
 _atom_site_fract_y
 _atom_site_fract_z
 _atom_site_occupancy
  Cs  Cs0  1  0.666667  0.333333  0.750000  1
  Cs  Cs1  1  0.333333  0.666667  0.250000  1
  V  V2  1  0.666667  0.333333  0.521204  1
  V  V3  1  0.333333  0.666667  0.478796  1
  V  V4  1  0.666667  0.333333  0.978796  1
  V  V5  1  0.333333  0.666667  0.021204  1
  Si  Si6  1  0.000000  0.000000  0.590350  1
  Si  Si7  1  0.000000  0.000000  0.409650  1
  Si  Si8  1  0.000000  0.000000  0.909650  1
  Si  Si9  1  0.000000  0.000000  0.090350  1
  Mo  Mo10  1  0.333333  0.666667  0.750000  1
  Mo  Mo11  1  0.666667  0.333333  0.250000  1
  P  P12  1  0.333684  0.382704  0.608108  1
  P  P13  1  0.666316  0.617296  0.391892  1
  P  P14  1  0.617296  0.950979  0.608108  1
  P  P15  1  0.333684  0.950979  0.891892  1
  P  P16  1  0.382704  0.049021  0.391892  1
  P  P17  1  0.666316  0.049021  0.108108  1
  P  P18  1  0.049021  0.666316  0.608108  1
  P  P19  1  0.617296  0.666316  0.891892  1
  P  P20  1  0.950979  0.333684  0.391892  1
  P  P21  1  0.382704  0.333684  0.108108  1
  P  P22  1  0.049021  0.382704  0.891892  1
  P  P23  1  0.950979  0.617296  0.108108  1
  O  O24  1  0.242580  0.439621  0.547246  1
  O  O25  1  0.757420  0.560379  0.452754  1
  O  O26  1  0.560379  0.802959  0.547246  1
  O  O27  1  0.242580  0.802959  0.952754  1
  O  O28  1  0.439621  0.197041  0.452754  1
  O  O29  1  0.757420  0.197041  0.047246  1
  O  O30  1  0.197041  0.757420  0.547246  1
  O  O31  1  0.560379  0.757420  0.952754  1
  O  O32  1  0.802959  0.242580  0.452754  1
  O  O33  1  0.439621  0.242580  0.047246  1
  O  O34  1  0.197041  0.439621  0.952754  1
  O  O35  1  0.802959  0.560379  0.047246  1
  O  O36  1  0.339080  0.470420  0.687328  1
  O  O37  1  0.660920  0.529580  0.312672  1
  O  O38  1  0.529580  0.868661  0.687328  1
  O  O39  1  0.339080  0.868661  0.812672  1
  O  O40  1  0.470420  0.131339  0.312672  1
  O  O41  1  0.660920  0.131339  0.187328  1
  O  O42  1  0.131339  0.660920  0.687328  1
  O  O43  1  0.529580  0.660920  0.812672  1
  O  O44  1  0.868661  0.339080  0.312672  1
  O  O45  1  0.470420  0.339080  0.187328  1
  O  O46  1  0.131339  0.470420  0.812672  1
  O  O47  1  0.868661  0.529580  0.187328  1
  O  O48  1  0.000000  0.000000  0.500000  1
  O  O49  1  0.000000  0.000000  0.000000  1
  O  O50  1  0.583380  0.111758  0.592147  1
  O  O51  1  0.416620  0.888242  0.407853  1
  O  O52  1  0.888242  0.471623  0.592147  1
  O  O53  1  0.583380  0.471623  0.907853  1
  O  O54  1  0.111758  0.528377  0.407853  1
  O  O55  1  0.416620  0.528377  0.092147  1
  O  O56  1  0.528377  0.416620  0.592147  1
  O  O57  1  0.888242  0.416620  0.907853  1
  O  O58  1  0.471623  0.583380  0.407853  1
  O  O59  1  0.111758  0.583380  0.092147  1
  O  O60  1  0.528377  0.111758  0.907853  1
  O  O61  1  0.471623  0.888242  0.092147  1
  O  O62  1  0.835428  0.034401  0.624495  1
  O  O63  1  0.164572  0.965599  0.375505  1
  O  O64  1  0.965599  0.801027  0.624495  1
  O  O65  1  0.835428  0.801027  0.875505  1
  O  O66  1  0.034401  0.198973  0.375505  1
  O  O67  1  0.164572  0.198973  0.124495  1
  O  O68  1  0.198973  0.164572  0.624495  1
  O  O69  1  0.965599  0.164572  0.875505  1
  O  O70  1  0.801027  0.835428  0.375505  1
  O  O71  1  0.034401  0.835428  0.124495  1
  O  O72  1  0.198973  0.034401  0.875505  1
  O  O73  1  0.801027  0.965599  0.124495  1
