# generated using pymatgen
data_DySc7(Ta3Si4)4
_symmetry_space_group_name_H-M   'P 1'
_cell_length_a   6.92210333
_cell_length_b   6.91930292
_cell_length_c   12.72238817
_cell_angle_alpha   90.02233142
_cell_angle_beta   89.88696808
_cell_angle_gamma   89.95595411
_symmetry_Int_Tables_number   1
_chemical_formula_structural   DySc7(Ta3Si4)4
_chemical_formula_sum   'Dy1 Sc7 Ta12 Si16'
_cell_volume   609.35174298
_cell_formula_units_Z   1
loop_
 _symmetry_equiv_pos_site_id
 _symmetry_equiv_pos_as_xyz
  1  'x, y, z'
loop_
 _atom_site_type_symbol
 _atom_site_label
 _atom_site_symmetry_multiplicity
 _atom_site_fract_x
 _atom_site_fract_y
 _atom_site_fract_z
 _atom_site_occupancy
  Dy  Dy0  1  0.340360  0.005430  0.468501  1
  Sc  Sc1  1  0.998827  0.657504  0.031040  1
  Sc  Sc2  1  0.999719  0.344162  0.532385  1
  Sc  Sc3  1  0.657131  0.998872  0.968702  1
  Sc  Sc4  1  0.157391  0.501264  0.782097  1
  Sc  Sc5  1  0.841856  0.499826  0.280034  1
  Sc  Sc6  1  0.500975  0.157262  0.217724  1
  Sc  Sc7  1  0.499691  0.841840  0.719212  1
  Ta  Ta8  1  0.349920  0.504854  0.375482  1
  Ta  Ta9  1  0.849258  0.993266  0.373315  1
  Ta  Ta10  1  0.004825  0.149683  0.124869  1
  Ta  Ta11  1  0.995451  0.848154  0.627693  1
  Ta  Ta12  1  0.508207  0.350134  0.625360  1
  Ta  Ta13  1  0.149405  0.005500  0.874586  1
  Ta  Ta14  1  0.673165  0.671353  0.500336  1
  Ta  Ta15  1  0.828298  0.171997  0.751150  1
  Ta  Ta16  1  0.170827  0.827447  0.248850  1
  Ta  Ta17  1  0.327999  0.327711  0.999816  1
  Ta  Ta18  1  0.494244  0.649464  0.122890  1
  Ta  Ta19  1  0.649805  0.494116  0.876613  1
  Si  Si20  1  0.043833  0.696909  0.435638  1
  Si  Si21  1  0.954529  0.301583  0.935952  1
  Si  Si22  1  0.705280  0.046139  0.565470  1
  Si  Si23  1  0.198493  0.455610  0.184857  1
  Si  Si24  1  0.801090  0.545886  0.686873  1
  Si  Si25  1  0.454724  0.198571  0.814679  1
  Si  Si26  1  0.547599  0.797688  0.312008  1
  Si  Si27  1  0.300933  0.954431  0.064001  1
  Si  Si28  1  0.795359  0.860052  0.177443  1
  Si  Si29  1  0.294683  0.635168  0.572788  1
  Si  Si30  1  0.704697  0.359786  0.071535  1
  Si  Si31  1  0.643414  0.298663  0.428882  1
  Si  Si32  1  0.359987  0.704830  0.928143  1
  Si  Si33  1  0.134367  0.208825  0.318036  1
  Si  Si34  1  0.203718  0.140902  0.680625  1
  Si  Si35  1  0.859938  0.795115  0.822414  1
