# generated using pymatgen
data_Ca3CdOs2(RuO7)2
_symmetry_space_group_name_H-M   'P 1'
_cell_length_a   7.26333858
_cell_length_b   7.20852342
_cell_length_c   7.26333843
_cell_angle_alpha   60.98829359
_cell_angle_beta   60.95426068
_cell_angle_gamma   60.98830056
_symmetry_Int_Tables_number   1
_chemical_formula_structural   Ca3CdOs2(RuO7)2
_chemical_formula_sum   'Ca3 Cd1 Os2 Ru2 O14'
_cell_volume   274.82647464
_cell_formula_units_Z   1
loop_
 _symmetry_equiv_pos_site_id
 _symmetry_equiv_pos_as_xyz
  1  'x, y, z'
loop_
 _atom_site_type_symbol
 _atom_site_label
 _atom_site_symmetry_multiplicity
 _atom_site_fract_x
 _atom_site_fract_y
 _atom_site_fract_z
 _atom_site_occupancy
  Ca  Ca0  1  0.625000  0.125000  0.125000  1
  Ca  Ca1  1  0.125000  0.625000  0.125000  1
  Ca  Ca2  1  0.125000  0.125000  0.625000  1
  Cd  Cd3  1  0.125000  0.125000  0.125000  1
  Os  Os4  1  0.125000  0.625000  0.625000  1
  Os  Os5  1  0.625000  0.625000  0.125000  1
  Ru  Ru6  1  0.625000  0.625000  0.625000  1
  Ru  Ru7  1  0.625000  0.125000  0.625000  1
  O  O8  1  0.245316  0.244518  0.245316  1
  O  O9  1  0.004684  0.005482  0.004684  1
  O  O10  1  0.554996  0.943810  0.554996  1
  O  O11  1  0.310502  0.690481  0.310502  1
  O  O12  1  0.552091  0.555086  0.949431  1
  O  O13  1  0.949431  0.555086  0.552091  1
  O  O14  1  0.561583  0.935361  0.945493  1
  O  O15  1  0.945493  0.935361  0.561583  1
  O  O16  1  0.939498  0.559519  0.939498  1
  O  O17  1  0.688417  0.314639  0.304507  1
  O  O18  1  0.300569  0.694914  0.697909  1
  O  O19  1  0.695004  0.306190  0.695004  1
  O  O20  1  0.304507  0.314639  0.688417  1
  O  O21  1  0.697909  0.694914  0.300569  1
