# generated using pymatgen
data_Dy5Y2Sn23Os6
_symmetry_space_group_name_H-M   'P 1'
_cell_length_a   9.85970390
_cell_length_b   9.85970491
_cell_length_c   10.13746086
_cell_angle_alpha   89.95910142
_cell_angle_beta   90.04090069
_cell_angle_gamma   119.97312951
_symmetry_Int_Tables_number   1
_chemical_formula_structural   Dy5Y2Sn23Os6
_chemical_formula_sum   'Dy5 Y2 Sn23 Os6'
_cell_volume   853.69943158
_cell_formula_units_Z   1
loop_
 _symmetry_equiv_pos_site_id
 _symmetry_equiv_pos_as_xyz
  1  'x, y, z'
loop_
 _atom_site_type_symbol
 _atom_site_label
 _atom_site_symmetry_multiplicity
 _atom_site_fract_x
 _atom_site_fract_y
 _atom_site_fract_z
 _atom_site_occupancy
  Dy  Dy0  1  0.029436  0.514739  0.301792  1
  Dy  Dy1  1  0.485261  0.970564  0.301792  1
  Dy  Dy2  1  0.485287  0.514713  0.301805  1
  Dy  Dy3  1  0.970534  0.485271  0.698217  1
  Dy  Dy4  1  0.514729  0.029466  0.698217  1
  Y  Y5  1  0.999980  0.000020  0.000012  1
  Y  Y6  1  0.515272  0.484728  0.697576  1
  Sn  Sn7  1  0.000004  0.999996  0.499992  1
  Sn  Sn8  1  0.117420  0.882580  0.275544  1
  Sn  Sn9  1  0.765102  0.882537  0.275563  1
  Sn  Sn10  1  0.117463  0.234898  0.275563  1
  Sn  Sn11  1  0.882551  0.117449  0.724419  1
  Sn  Sn12  1  0.234705  0.117404  0.724549  1
  Sn  Sn13  1  0.882596  0.765295  0.724549  1
  Sn  Sn14  1  0.349660  0.000015  0.999998  1
  Sn  Sn15  1  0.650339  0.650441  0.999998  1
  Sn  Sn16  1  0.999999  0.349720  0.000074  1
  Sn  Sn17  1  0.349559  0.349661  0.999998  1
  Sn  Sn18  1  0.999985  0.650340  0.999998  1
  Sn  Sn19  1  0.650280  0.000001  0.000074  1
  Sn  Sn20  1  0.780553  0.560680  0.462502  1
  Sn  Sn21  1  0.780302  0.219698  0.462733  1
  Sn  Sn22  1  0.439320  0.219447  0.462502  1
  Sn  Sn23  1  0.219419  0.439326  0.537334  1
  Sn  Sn24  1  0.219675  0.780325  0.537261  1
  Sn  Sn25  1  0.560674  0.780581  0.537334  1
  Sn  Sn26  1  0.666675  0.333325  0.174762  1
  Sn  Sn27  1  0.333312  0.666688  0.825191  1
  Sn  Sn28  1  0.666909  0.333091  0.870493  1
  Sn  Sn29  1  0.333386  0.666614  0.129877  1
  Os  Os30  1  0.170315  0.829685  0.797721  1
  Os  Os31  1  0.659561  0.830300  0.797948  1
  Os  Os32  1  0.169700  0.340439  0.797948  1
  Os  Os33  1  0.829685  0.170315  0.202286  1
  Os  Os34  1  0.340680  0.170326  0.202189  1
  Os  Os35  1  0.829674  0.659320  0.202189  1
