# generated using pymatgen
data_HoEr3Cr6O24
_symmetry_space_group_name_H-M   'P 1'
_cell_length_a   9.96713873
_cell_length_b   9.96713727
_cell_length_c   9.96713780
_cell_angle_alpha   58.17005624
_cell_angle_beta   58.17006445
_cell_angle_gamma   58.17006628
_symmetry_Int_Tables_number   1
_chemical_formula_structural   HoEr3Cr6O24
_chemical_formula_sum   'Ho1 Er3 Cr6 O24'
_cell_volume   670.79534730
_cell_formula_units_Z   1
loop_
 _symmetry_equiv_pos_site_id
 _symmetry_equiv_pos_as_xyz
  1  'x, y, z'
loop_
 _atom_site_type_symbol
 _atom_site_label
 _atom_site_symmetry_multiplicity
 _atom_site_fract_x
 _atom_site_fract_y
 _atom_site_fract_z
 _atom_site_occupancy
  Ho  Ho0  1  0.858166  0.858166  0.858166  1
  Er  Er1  1  0.642125  0.642125  0.642125  1
  Er  Er2  1  0.358006  0.358006  0.358006  1
  Er  Er3  1  0.142049  0.142049  0.142049  1
  Cr  Cr4  1  0.750066  0.034297  0.465149  1
  Cr  Cr5  1  0.965895  0.533465  0.250933  1
  Cr  Cr6  1  0.533465  0.250933  0.965896  1
  Cr  Cr7  1  0.465148  0.750066  0.034298  1
  Cr  Cr8  1  0.034298  0.465148  0.750066  1
  Cr  Cr9  1  0.250933  0.965895  0.533465  1
  O  O10  1  0.918637  0.062436  0.295201  1
  O  O11  1  0.777295  0.002905  0.631307  1
  O  O12  1  0.997939  0.367480  0.222754  1
  O  O13  1  0.703978  0.082664  0.937730  1
  O  O14  1  0.581710  0.204641  0.436523  1
  O  O15  1  0.867694  0.497632  0.722507  1
  O  O16  1  0.501409  0.278554  0.132112  1
  O  O17  1  0.795773  0.561666  0.419301  1
  O  O18  1  0.937730  0.703978  0.082664  1
  O  O19  1  0.561666  0.419301  0.795773  1
  O  O20  1  0.367480  0.222754  0.997939  1
  O  O21  1  0.278554  0.132112  0.501409  1
  O  O22  1  0.722507  0.867694  0.497632  1
  O  O23  1  0.631307  0.777295  0.002905  1
  O  O24  1  0.436523  0.581710  0.204641  1
  O  O25  1  0.062436  0.295201  0.918637  1
  O  O26  1  0.204641  0.436523  0.581710  1
  O  O27  1  0.497632  0.722507  0.867694  1
  O  O28  1  0.132112  0.501409  0.278554  1
  O  O29  1  0.419301  0.795773  0.561666  1
  O  O30  1  0.295201  0.918637  0.062436  1
  O  O31  1  0.002905  0.631307  0.777295  1
  O  O32  1  0.222754  0.997939  0.367480  1
  O  O33  1  0.082664  0.937730  0.703978  1
