# generated using pymatgen
data_Tb6Sm4B2Br15
_symmetry_space_group_name_H-M   'P 1'
_cell_length_a   9.20158260
_cell_length_b   9.94965876
_cell_length_c   10.78708814
_cell_angle_alpha   91.25051501
_cell_angle_beta   114.42631851
_cell_angle_gamma   110.83000077
_symmetry_Int_Tables_number   1
_chemical_formula_structural   Tb6Sm4B2Br15
_chemical_formula_sum   'Tb6 Sm4 B2 Br15'
_cell_volume   823.70573491
_cell_formula_units_Z   1
loop_
 _symmetry_equiv_pos_site_id
 _symmetry_equiv_pos_as_xyz
  1  'x, y, z'
loop_
 _atom_site_type_symbol
 _atom_site_label
 _atom_site_symmetry_multiplicity
 _atom_site_fract_x
 _atom_site_fract_y
 _atom_site_fract_z
 _atom_site_occupancy
  Tb  Tb0  1  0.525085  0.706320  0.093979  1
  Tb  Tb1  1  0.474915  0.293680  0.906021  1
  Tb  Tb2  1  0.584587  0.040409  0.321312  1
  Tb  Tb3  1  0.415413  0.959591  0.678688  1
  Tb  Tb4  1  0.720519  0.073942  0.047679  1
  Tb  Tb5  1  0.279481  0.926058  0.952321  1
  Sm  Sm6  1  0.800460  0.408891  0.276728  1
  Sm  Sm7  1  0.199540  0.591109  0.723272  1
  Sm  Sm8  1  0.674057  0.746742  0.819992  1
  Sm  Sm9  1  0.325943  0.253258  0.180008  1
  B  B10  1  0.467695  0.821615  0.878653  1
  B  B11  1  0.532305  0.178385  0.121347  1
  Br  Br12  1  0.000000  0.000000  0.000000  1
  Br  Br13  1  0.634898  0.885986  0.581499  1
  Br  Br14  1  0.365102  0.114014  0.418501  1
  Br  Br15  1  0.880965  0.294442  0.528768  1
  Br  Br16  1  0.119035  0.705558  0.471232  1
  Br  Br17  1  0.292382  0.763165  0.179274  1
  Br  Br18  1  0.707618  0.236835  0.820726  1
  Br  Br19  1  0.053966  0.340126  0.224926  1
  Br  Br20  1  0.167795  0.057883  0.704447  1
  Br  Br21  1  0.832205  0.942117  0.295553  1
  Br  Br22  1  0.234935  0.411256  0.944501  1
  Br  Br23  1  0.765065  0.588744  0.055499  1
  Br  Br24  1  0.408184  0.458424  0.659859  1
  Br  Br25  1  0.591816  0.541576  0.340141  1
  Br  Br26  1  0.946034  0.659874  0.775074  1
