# generated using pymatgen
data_Er8Sc12Si15Pt
_symmetry_space_group_name_H-M   'P 1'
_cell_length_a   7.07926866
_cell_length_b   7.34421604
_cell_length_c   13.97496393
_cell_angle_alpha   89.92412257
_cell_angle_beta   89.75352986
_cell_angle_gamma   90.19526457
_symmetry_Int_Tables_number   1
_chemical_formula_structural   Er8Sc12Si15Pt
_chemical_formula_sum   'Er8 Sc12 Si15 Pt1'
_cell_volume   726.57023825
_cell_formula_units_Z   1
loop_
 _symmetry_equiv_pos_site_id
 _symmetry_equiv_pos_as_xyz
  1  'x, y, z'
loop_
 _atom_site_type_symbol
 _atom_site_label
 _atom_site_symmetry_multiplicity
 _atom_site_fract_x
 _atom_site_fract_y
 _atom_site_fract_z
 _atom_site_occupancy
  Er  Er0  1  0.012484  0.175766  0.096971  1
  Er  Er1  1  0.988097  0.824091  0.903393  1
  Er  Er2  1  0.487024  0.677450  0.903118  1
  Er  Er3  1  0.989123  0.823193  0.596934  1
  Er  Er4  1  0.512284  0.323379  0.096071  1
  Er  Er5  1  0.011739  0.178855  0.401930  1
  Er  Er6  1  0.507158  0.324666  0.402705  1
  Er  Er7  1  0.486463  0.671883  0.598045  1
  Sc  Sc8  1  0.163658  0.502977  0.747306  1
  Sc  Sc9  1  0.836893  0.497534  0.251150  1
  Sc  Sc10  1  0.337740  0.000367  0.249964  1
  Sc  Sc11  1  0.664048  0.995892  0.750127  1
  Sc  Sc12  1  0.334460  0.183853  0.622984  1
  Sc  Sc13  1  0.667401  0.823380  0.373536  1
  Sc  Sc14  1  0.169930  0.668029  0.375916  1
  Sc  Sc15  1  0.670549  0.824377  0.125934  1
  Sc  Sc16  1  0.832233  0.326415  0.624467  1
  Sc  Sc17  1  0.328987  0.176145  0.875797  1
  Sc  Sc18  1  0.831678  0.322156  0.875896  1
  Sc  Sc19  1  0.169321  0.676768  0.125070  1
  Si  Si20  1  0.034976  0.115637  0.750281  1
  Si  Si21  1  0.968339  0.885159  0.250448  1
  Si  Si22  1  0.466656  0.613371  0.248222  1
  Si  Si23  1  0.537006  0.385457  0.753213  1
  Si  Si24  1  0.286140  0.875250  0.750591  1
  Si  Si25  1  0.713176  0.129695  0.249280  1
  Si  Si26  1  0.215025  0.369084  0.247346  1
  Si  Si27  1  0.785498  0.628208  0.753128  1
  Si  Si28  1  0.835157  0.536285  0.460113  1
  Si  Si29  1  0.341236  0.963646  0.460539  1
  Si  Si30  1  0.842584  0.535697  0.038938  1
  Si  Si31  1  0.657476  0.034338  0.538265  1
  Si  Si32  1  0.156948  0.465163  0.961168  1
  Si  Si33  1  0.658344  0.034253  0.961550  1
  Si  Si34  1  0.342827  0.964270  0.039015  1
  Pt  Pt35  1  0.157342  0.467310  0.540589  1
