# generated using pymatgen
data_Tb10Cd2NiHg
_symmetry_space_group_name_H-M   'P 1'
_cell_length_a   9.65397006
_cell_length_b   9.64370210
_cell_length_c   9.73193300
_cell_angle_alpha   90.00000000
_cell_angle_beta   90.00000000
_cell_angle_gamma   119.96480673
_symmetry_Int_Tables_number   1
_chemical_formula_structural   Tb10Cd2NiHg
_chemical_formula_sum   'Tb20 Cd4 Ni2 Hg2'
_cell_volume   784.93443308
_cell_formula_units_Z   2
loop_
 _symmetry_equiv_pos_site_id
 _symmetry_equiv_pos_as_xyz
  1  'x, y, z'
loop_
 _atom_site_type_symbol
 _atom_site_label
 _atom_site_symmetry_multiplicity
 _atom_site_fract_x
 _atom_site_fract_y
 _atom_site_fract_z
 _atom_site_occupancy
  Tb  Tb0  1  0.996409  0.998205  0.494033  1
  Tb  Tb1  1  0.996409  0.998205  0.005967  1
  Tb  Tb2  1  0.548260  0.458417  0.250000  1
  Tb  Tb3  1  0.548260  0.089843  0.250000  1
  Tb  Tb4  1  0.910793  0.455397  0.250000  1
  Tb  Tb5  1  0.454238  0.544193  0.750000  1
  Tb  Tb6  1  0.454238  0.910045  0.750000  1
  Tb  Tb7  1  0.091323  0.545662  0.750000  1
  Tb  Tb8  1  0.210873  0.789829  0.436513  1
  Tb  Tb9  1  0.210873  0.421046  0.436513  1
  Tb  Tb10  1  0.578342  0.789171  0.436675  1
  Tb  Tb11  1  0.789715  0.211167  0.563962  1
  Tb  Tb12  1  0.789715  0.578547  0.563962  1
  Tb  Tb13  1  0.421297  0.210648  0.563166  1
  Tb  Tb14  1  0.789715  0.211167  0.936038  1
  Tb  Tb15  1  0.789715  0.578547  0.936038  1
  Tb  Tb16  1  0.421297  0.210648  0.936834  1
  Tb  Tb17  1  0.210873  0.789829  0.063487  1
  Tb  Tb18  1  0.210873  0.421046  0.063487  1
  Tb  Tb19  1  0.578342  0.789171  0.063325  1
  Cd  Cd20  1  0.236004  0.118002  0.250000  1
  Cd  Cd21  1  0.113214  0.885602  0.750000  1
  Cd  Cd22  1  0.113214  0.227612  0.750000  1
  Cd  Cd23  1  0.770597  0.885298  0.750000  1
  Ni  Ni24  1  0.333189  0.666596  0.250000  1
  Ni  Ni25  1  0.666148  0.333073  0.750000  1
  Hg  Hg26  1  0.883037  0.121699  0.250000  1
  Hg  Hg27  1  0.883037  0.761338  0.250000  1
