# generated using pymatgen
data_Y5Ho3Ti9Si16W3
_symmetry_space_group_name_H-M   'P 1'
_cell_length_a   7.00148418
_cell_length_b   7.00130234
_cell_length_c   12.89253003
_cell_angle_alpha   90.01032930
_cell_angle_beta   89.98959222
_cell_angle_gamma   89.95442860
_symmetry_Int_Tables_number   1
_chemical_formula_structural   Y5Ho3Ti9Si16W3
_chemical_formula_sum   'Y5 Ho3 Ti9 Si16 W3'
_cell_volume   631.98525284
_cell_formula_units_Z   1
loop_
 _symmetry_equiv_pos_site_id
 _symmetry_equiv_pos_as_xyz
  1  'x, y, z'
loop_
 _atom_site_type_symbol
 _atom_site_label
 _atom_site_symmetry_multiplicity
 _atom_site_fract_x
 _atom_site_fract_y
 _atom_site_fract_z
 _atom_site_occupancy
  Y  Y0  1  0.339651  0.002268  0.466858  1
  Y  Y1  1  0.498073  0.841111  0.718463  1
  Y  Y2  1  0.500568  0.158699  0.216507  1
  Y  Y3  1  0.841150  0.498096  0.281378  1
  Y  Y4  1  0.158698  0.500700  0.783460  1
  Ho  Ho5  1  0.659796  0.999811  0.967200  1
  Ho  Ho6  1  0.001486  0.339993  0.533433  1
  Ho  Ho7  1  0.999826  0.659784  0.032729  1
  Ti  Ti8  1  0.673631  0.673408  0.500077  1
  Ti  Ti9  1  0.152676  0.009267  0.876684  1
  Ti  Ti10  1  0.490599  0.653598  0.125600  1
  Ti  Ti11  1  0.508562  0.345759  0.628168  1
  Ti  Ti12  1  0.653634  0.490646  0.874274  1
  Ti  Ti13  1  0.345699  0.508163  0.371998  1
  Ti  Ti14  1  0.848009  0.991176  0.375428  1
  Ti  Ti15  1  0.009325  0.152684  0.123216  1
  Ti  Ti16  1  0.991336  0.847627  0.624715  1
  Si  Si17  1  0.200185  0.129727  0.684873  1
  Si  Si18  1  0.370586  0.700115  0.934881  1
  Si  Si19  1  0.630611  0.299058  0.435199  1
  Si  Si20  1  0.700067  0.370574  0.065032  1
  Si  Si21  1  0.298188  0.629140  0.565093  1
  Si  Si22  1  0.800184  0.869935  0.184421  1
  Si  Si23  1  0.129104  0.200891  0.315021  1
  Si  Si24  1  0.869951  0.800095  0.815530  1
  Si  Si25  1  0.291639  0.953018  0.064603  1
  Si  Si26  1  0.546405  0.791005  0.314877  1
  Si  Si27  1  0.452901  0.208403  0.815943  1
  Si  Si28  1  0.791375  0.546203  0.684908  1
  Si  Si29  1  0.208389  0.453091  0.183998  1
  Si  Si30  1  0.708654  0.048557  0.566352  1
  Si  Si31  1  0.953043  0.291614  0.935347  1
  Si  Si32  1  0.047862  0.707435  0.433792  1
  W  W33  1  0.327144  0.327141  0.999978  1
  W  W34  1  0.174102  0.826812  0.248749  1
  W  W35  1  0.826893  0.174397  0.751214  1
