# generated using pymatgen
data_TmCr2BiF14
_symmetry_space_group_name_H-M   'P 1'
_cell_length_a   5.56390757
_cell_length_b   5.87535492
_cell_length_c   8.21216458
_cell_angle_alpha   103.04632690
_cell_angle_beta   89.95001684
_cell_angle_gamma   89.81080073
_symmetry_Int_Tables_number   1
_chemical_formula_structural   TmCr2BiF14
_chemical_formula_sum   'Tm1 Cr2 Bi1 F14'
_cell_volume   261.52391238
_cell_formula_units_Z   1
loop_
 _symmetry_equiv_pos_site_id
 _symmetry_equiv_pos_as_xyz
  1  'x, y, z'
loop_
 _atom_site_type_symbol
 _atom_site_label
 _atom_site_symmetry_multiplicity
 _atom_site_fract_x
 _atom_site_fract_y
 _atom_site_fract_z
 _atom_site_occupancy
  Tm  Tm0  1  0.199151  0.342111  0.293533  1
  Cr  Cr1  1  0.708957  0.817312  0.224781  1
  Cr  Cr2  1  0.208984  0.186352  0.777174  1
  Bi  Bi3  1  0.698757  0.648262  0.680934  1
  F  F4  1  0.905797  0.434966  0.471374  1
  F  F5  1  0.390027  0.537291  0.505890  1
  F  F6  1  0.411284  0.936878  0.776081  1
  F  F7  1  0.927108  0.058810  0.232891  1
  F  F8  1  0.946093  0.980385  0.765456  1
  F  F9  1  0.451683  0.042850  0.244360  1
  F  F10  1  0.009644  0.441000  0.797114  1
  F  F11  1  0.498534  0.569910  0.210013  1
  F  F12  1  0.702694  0.772494  0.999391  1
  F  F13  1  0.205312  0.237079  0.011565  1
  F  F14  1  0.710888  0.869366  0.454286  1
  F  F15  1  0.213236  0.130719  0.551660  1
  F  F16  1  0.485399  0.382924  0.792286  1
  F  F17  1  0.979172  0.611292  0.211211  1
