# generated using pymatgen
data_Pr7Y13Pb16
_symmetry_space_group_name_H-M   'P 1'
_cell_length_a   8.28521173
_cell_length_b   8.40899658
_cell_length_c   15.83115815
_cell_angle_alpha   90.03289209
_cell_angle_beta   89.61178111
_cell_angle_gamma   90.31064656
_symmetry_Int_Tables_number   1
_chemical_formula_structural   Pr7Y13Pb16
_chemical_formula_sum   'Pr7 Y13 Pb16'
_cell_volume   1102.92012114
_cell_formula_units_Z   1
loop_
 _symmetry_equiv_pos_site_id
 _symmetry_equiv_pos_as_xyz
  1  'x, y, z'
loop_
 _atom_site_type_symbol
 _atom_site_label
 _atom_site_symmetry_multiplicity
 _atom_site_fract_x
 _atom_site_fract_y
 _atom_site_fract_z
 _atom_site_occupancy
  Pr  Pr0  1  0.521353  0.321461  0.401436  1
  Pr  Pr1  1  0.476776  0.678332  0.903153  1
  Pr  Pr2  1  0.979187  0.822162  0.596218  1
  Pr  Pr3  1  0.976679  0.823623  0.903777  1
  Pr  Pr4  1  0.479280  0.677788  0.596614  1
  Pr  Pr5  1  0.522511  0.321012  0.097612  1
  Pr  Pr6  1  0.019497  0.177250  0.403842  1
  Y  Y7  1  0.864305  0.657951  0.122542  1
  Y  Y8  1  0.361645  0.841210  0.376855  1
  Y  Y9  1  0.633908  0.158014  0.879123  1
  Y  Y10  1  0.137624  0.341258  0.623173  1
  Y  Y11  1  0.133538  0.341433  0.878362  1
  Y  Y12  1  0.637326  0.158953  0.622345  1
  Y  Y13  1  0.365378  0.842801  0.121488  1
  Y  Y14  1  0.862754  0.657577  0.375198  1
  Y  Y15  1  0.029093  0.176315  0.099646  1
  Y  Y16  1  0.698549  0.996361  0.248773  1
  Y  Y17  1  0.197759  0.504510  0.248719  1
  Y  Y18  1  0.801759  0.494953  0.750345  1
  Y  Y19  1  0.301397  0.004398  0.751008  1
  Pb  Pb20  1  0.059842  0.872803  0.249029  1
  Pb  Pb21  1  0.559200  0.628653  0.249302  1
  Pb  Pb22  1  0.440003  0.370779  0.750918  1
  Pb  Pb23  1  0.939572  0.128444  0.750448  1
  Pb  Pb24  1  0.837512  0.347066  0.247447  1
  Pb  Pb25  1  0.329867  0.148620  0.249610  1
  Pb  Pb26  1  0.667098  0.851684  0.749864  1
  Pb  Pb27  1  0.166355  0.649813  0.749957  1
  Pb  Pb28  1  0.795448  0.460358  0.956861  1
  Pb  Pb29  1  0.298395  0.041907  0.543291  1
  Pb  Pb30  1  0.711939  0.965205  0.045179  1
  Pb  Pb31  1  0.201460  0.540510  0.456215  1
  Pb  Pb32  1  0.202537  0.537567  0.043948  1
  Pb  Pb33  1  0.700821  0.956424  0.456171  1
  Pb  Pb34  1  0.291222  0.043915  0.959087  1
  Pb  Pb35  1  0.798413  0.458888  0.542449  1
