# generated using pymatgen
data_Fe3CuSb12
_symmetry_space_group_name_H-M   'P 1'
_cell_length_a   7.94811524
_cell_length_b   7.94811609
_cell_length_c   7.94811537
_cell_angle_alpha   109.37413077
_cell_angle_beta   109.37413706
_cell_angle_gamma   109.37414005
_symmetry_Int_Tables_number   1
_chemical_formula_structural   Fe3CuSb12
_chemical_formula_sum   'Fe3 Cu1 Sb12'
_cell_volume   387.90191365
_cell_formula_units_Z   1
loop_
 _symmetry_equiv_pos_site_id
 _symmetry_equiv_pos_as_xyz
  1  'x, y, z'
loop_
 _atom_site_type_symbol
 _atom_site_label
 _atom_site_symmetry_multiplicity
 _atom_site_fract_x
 _atom_site_fract_y
 _atom_site_fract_z
 _atom_site_occupancy
  Fe  Fe0  1  0.500000  0.000000  0.000000  1
  Fe  Fe1  1  0.000000  0.000000  0.500000  1
  Fe  Fe2  1  0.000000  0.500000  0.000000  1
  Cu  Cu3  1  0.500000  0.500000  0.500000  1
  Sb  Sb4  1  0.668206  0.851917  0.503154  1
  Sb  Sb5  1  0.851917  0.503154  0.668206  1
  Sb  Sb6  1  0.503154  0.668206  0.851917  1
  Sb  Sb7  1  0.671763  0.162203  0.832455  1
  Sb  Sb8  1  0.837797  0.167545  0.328237  1
  Sb  Sb9  1  0.162203  0.832455  0.671763  1
  Sb  Sb10  1  0.167545  0.328237  0.837797  1
  Sb  Sb11  1  0.148083  0.496846  0.331794  1
  Sb  Sb12  1  0.331794  0.148083  0.496846  1
  Sb  Sb13  1  0.496846  0.331794  0.148083  1
  Sb  Sb14  1  0.328237  0.837797  0.167545  1
  Sb  Sb15  1  0.832455  0.671763  0.162203  1
