# generated using pymatgen
data_TbY3(Er3Pt4)2
_symmetry_space_group_name_H-M   'P 1'
_cell_length_a   7.47106000
_cell_length_b   7.54737200
_cell_length_c   14.68992800
_cell_angle_alpha   90.00125805
_cell_angle_beta   90.00000000
_cell_angle_gamma   90.00000000
_symmetry_Int_Tables_number   1
_chemical_formula_structural   TbY3(Er3Pt4)2
_chemical_formula_sum   'Tb2 Y6 Er12 Pt16'
_cell_volume   828.31904645
_cell_formula_units_Z   2
loop_
 _symmetry_equiv_pos_site_id
 _symmetry_equiv_pos_as_xyz
  1  'x, y, z'
loop_
 _atom_site_type_symbol
 _atom_site_label
 _atom_site_symmetry_multiplicity
 _atom_site_fract_x
 _atom_site_fract_y
 _atom_site_fract_z
 _atom_site_occupancy
  Tb  Tb0  1  0.998170  0.820081  0.407005  1
  Tb  Tb1  1  0.498170  0.679919  0.092995  1
  Y  Y2  1  0.501796  0.320106  0.592980  1
  Y  Y3  1  0.001796  0.179894  0.907020  1
  Y  Y4  1  0.001743  0.179942  0.593019  1
  Y  Y5  1  0.501743  0.320058  0.906981  1
  Y  Y6  1  0.498202  0.679852  0.407031  1
  Y  Y7  1  0.998202  0.820148  0.092969  1
  Er  Er8  1  0.681193  0.989028  0.249979  1
  Er  Er9  1  0.181193  0.510972  0.250021  1
  Er  Er10  1  0.818799  0.488946  0.749970  1
  Er  Er11  1  0.318799  0.011054  0.750030  1
  Er  Er12  1  0.656146  0.832454  0.622423  1
  Er  Er13  1  0.156146  0.667546  0.877577  1
  Er  Er14  1  0.843678  0.332466  0.377623  1
  Er  Er15  1  0.343678  0.167534  0.122377  1
  Er  Er16  1  0.343819  0.167609  0.377595  1
  Er  Er17  1  0.843819  0.332391  0.122405  1
  Er  Er18  1  0.156349  0.667427  0.622444  1
  Er  Er19  1  0.656349  0.832573  0.877556  1
  Pt  Pt20  1  0.816191  0.641666  0.250102  1
  Pt  Pt21  1  0.316191  0.858334  0.249898  1
  Pt  Pt22  1  0.683950  0.141566  0.749998  1
  Pt  Pt23  1  0.183950  0.358434  0.750002  1
  Pt  Pt24  1  0.546416  0.385460  0.249968  1
  Pt  Pt25  1  0.046416  0.114540  0.250032  1
  Pt  Pt26  1  0.953508  0.885486  0.749995  1
  Pt  Pt27  1  0.453508  0.614514  0.750005  1
  Pt  Pt28  1  0.817556  0.533405  0.542031  1
  Pt  Pt29  1  0.317556  0.966595  0.957969  1
  Pt  Pt30  1  0.682624  0.033255  0.457828  1
  Pt  Pt31  1  0.182624  0.466745  0.042172  1
  Pt  Pt32  1  0.182402  0.466725  0.457884  1
  Pt  Pt33  1  0.682402  0.033275  0.042116  1
  Pt  Pt34  1  0.317458  0.966699  0.542128  1
  Pt  Pt35  1  0.817458  0.533301  0.957872  1
