# generated using pymatgen
data_Nd6OsPtBr6
_symmetry_space_group_name_H-M   'P 1'
_cell_length_a   10.46476847
_cell_length_b   10.46476864
_cell_length_c   10.54490464
_cell_angle_alpha   109.46232628
_cell_angle_beta   109.46232487
_cell_angle_gamma   109.17915188
_symmetry_Int_Tables_number   1
_chemical_formula_structural   Nd6OsPtBr6
_chemical_formula_sum   'Nd12 Os2 Pt2 Br12'
_cell_volume   892.33329087
_cell_formula_units_Z   2
loop_
 _symmetry_equiv_pos_site_id
 _symmetry_equiv_pos_as_xyz
  1  'x, y, z'
loop_
 _atom_site_type_symbol
 _atom_site_label
 _atom_site_symmetry_multiplicity
 _atom_site_fract_x
 _atom_site_fract_y
 _atom_site_fract_z
 _atom_site_occupancy
  Nd  Nd0  1  0.468414  0.479789  0.238138  1
  Nd  Nd1  1  0.741651  0.230276  0.261862  1
  Nd  Nd2  1  0.741338  0.009653  0.479511  1
  Nd  Nd3  1  0.238172  0.469858  0.479511  1
  Nd  Nd4  1  0.269724  0.758349  0.238138  1
  Nd  Nd5  1  0.030142  0.261828  0.020489  1
  Nd  Nd6  1  0.020211  0.031586  0.261862  1
  Nd  Nd7  1  0.490347  0.758662  0.020489  1
  Nd  Nd8  1  0.484607  0.234607  0.469214  1
  Nd  Nd9  1  0.014522  0.485478  0.750000  1
  Nd  Nd10  1  0.265393  0.015393  0.030786  1
  Nd  Nd11  1  0.235478  0.264522  0.750000  1
  Os  Os12  1  0.249580  0.250420  0.250000  1
  Os  Os13  1  0.500420  0.999580  0.250000  1
  Pt  Pt14  1  0.000575  0.250575  0.501149  1
  Pt  Pt15  1  0.249425  0.499425  0.998851  1
  Br  Br16  1  0.249588  0.752946  0.746531  1
  Br  Br17  1  0.506415  0.503058  0.753469  1
  Br  Br18  1  0.990911  0.744604  0.995062  1
  Br  Br19  1  0.747054  0.250412  0.753469  1
  Br  Br20  1  0.996942  0.993585  0.746531  1
  Br  Br21  1  0.249542  0.995848  0.504938  1
  Br  Br22  1  0.755396  0.509089  0.504938  1
  Br  Br23  1  0.504152  0.250458  0.995062  1
  Br  Br24  1  0.753630  0.746370  0.250000  1
  Br  Br25  1  0.745502  0.995502  0.991006  1
  Br  Br26  1  0.996370  0.503630  0.250000  1
  Br  Br27  1  0.504498  0.754498  0.508994  1
