# generated using pymatgen
data_Pr10Si5Sn
_symmetry_space_group_name_H-M   'P 1'
_cell_length_a   7.93724207
_cell_length_b   7.93724260
_cell_length_c   9.09052984
_cell_angle_alpha   115.88502518
_cell_angle_beta   115.88502330
_cell_angle_gamma   90.00000051
_symmetry_Int_Tables_number   1
_chemical_formula_structural   Pr10Si5Sn
_chemical_formula_sum   'Pr10 Si5 Sn1'
_cell_volume   450.51612226
_cell_formula_units_Z   1
loop_
 _symmetry_equiv_pos_site_id
 _symmetry_equiv_pos_as_xyz
  1  'x, y, z'
loop_
 _atom_site_type_symbol
 _atom_site_label
 _atom_site_symmetry_multiplicity
 _atom_site_fract_x
 _atom_site_fract_y
 _atom_site_fract_z
 _atom_site_occupancy
  Pr  Pr0  1  0.503437  0.503437  0.006875  1
  Pr  Pr1  1  0.996563  0.996563  0.993125  1
  Pr  Pr2  1  0.971574  0.825728  0.285701  1
  Pr  Pr3  1  0.314127  0.459973  0.285701  1
  Pr  Pr4  1  0.825728  0.314127  0.285701  1
  Pr  Pr5  1  0.459973  0.971574  0.285701  1
  Pr  Pr6  1  0.040027  0.185873  0.714299  1
  Pr  Pr7  1  0.674272  0.528426  0.714299  1
  Pr  Pr8  1  0.185873  0.674272  0.714299  1
  Pr  Pr9  1  0.528426  0.040027  0.714299  1
  Si  Si10  1  0.250000  0.250000  0.500000  1
  Si  Si11  1  0.614659  0.885341  0.000000  1
  Si  Si12  1  0.385341  0.114659  0.000000  1
  Si  Si13  1  0.885341  0.385341  0.000000  1
  Si  Si14  1  0.114659  0.614659  0.000000  1
  Sn  Sn15  1  0.750000  0.750000  0.500000  1
