# generated using pymatgen
data_Sn7OsRuRh
_symmetry_space_group_name_H-M   'P 1'
_cell_length_a   9.47788261
_cell_length_b   8.22767563
_cell_length_c   8.22576168
_cell_angle_alpha   70.59045800
_cell_angle_beta   54.82415914
_cell_angle_gamma   54.80347299
_symmetry_Int_Tables_number   1
_chemical_formula_structural   Sn7OsRuRh
_chemical_formula_sum   'Sn14 Os2 Ru2 Rh2'
_cell_volume   428.46012624
_cell_formula_units_Z   2
loop_
 _symmetry_equiv_pos_site_id
 _symmetry_equiv_pos_as_xyz
  1  'x, y, z'
loop_
 _atom_site_type_symbol
 _atom_site_label
 _atom_site_symmetry_multiplicity
 _atom_site_fract_x
 _atom_site_fract_y
 _atom_site_fract_z
 _atom_site_occupancy
  Sn  Sn0  1  0.675167  0.324846  0.000537  1
  Sn  Sn1  1  0.000499  0.001968  0.323639  1
  Sn  Sn2  1  0.325035  0.001577  0.676174  1
  Sn  Sn3  1  0.998233  0.674898  0.000322  1
  Sn  Sn4  1  0.326125  0.676603  0.000394  1
  Sn  Sn5  1  0.998179  0.001733  0.674931  1
  Sn  Sn6  1  0.673636  0.002170  0.324806  1
  Sn  Sn7  1  0.000364  0.323736  0.000593  1
  Sn  Sn8  1  0.252425  0.495179  0.500135  1
  Sn  Sn9  1  0.502870  0.246849  0.747478  1
  Sn  Sn10  1  0.749137  0.748353  0.753559  1
  Sn  Sn11  1  0.502592  0.748472  0.246763  1
  Sn  Sn12  1  0.751566  0.495179  0.499706  1
  Sn  Sn13  1  0.251111  0.245887  0.251714  1
  Os  Os14  1  0.655485  0.000850  0.999623  1
  Os  Os15  1  0.999498  0.346863  0.653458  1
  Ru  Ru16  1  0.652690  0.347541  0.346477  1
  Ru  Ru17  1  0.344438  0.000900  0.999595  1
  Rh  Rh18  1  0.999357  0.657821  0.342657  1
  Rh  Rh19  1  0.341591  0.658573  0.657438  1
