# generated using pymatgen
data_NaNi5P3
_symmetry_space_group_name_H-M   'P 1'
_cell_length_a   3.52935600
_cell_length_b   6.12838298
_cell_length_c   11.49112800
_cell_angle_alpha   90.00000000
_cell_angle_beta   90.00000000
_cell_angle_gamma   73.26463595
_symmetry_Int_Tables_number   1
_chemical_formula_structural   NaNi5P3
_chemical_formula_sum   'Na2 Ni10 P6'
_cell_volume   238.01731353
_cell_formula_units_Z   2
loop_
 _symmetry_equiv_pos_site_id
 _symmetry_equiv_pos_as_xyz
  1  'x, y, z'
loop_
 _atom_site_type_symbol
 _atom_site_label
 _atom_site_symmetry_multiplicity
 _atom_site_fract_x
 _atom_site_fract_y
 _atom_site_fract_z
 _atom_site_occupancy
  Na  Na0  1  0.662305  0.675393  0.250000  1
  Na  Na1  1  0.337696  0.324606  0.750000  1
  Ni  Ni2  1  0.499999  0.000000  0.000000  1
  Ni  Ni3  1  0.301125  0.397748  0.068197  1
  Ni  Ni4  1  0.949136  0.101730  0.144289  1
  Ni  Ni5  1  0.949136  0.101730  0.355712  1
  Ni  Ni6  1  0.301125  0.397748  0.431803  1
  Ni  Ni7  1  0.499999  0.000000  0.500000  1
  Ni  Ni8  1  0.698876  0.602251  0.568197  1
  Ni  Ni9  1  0.050864  0.898271  0.644288  1
  Ni  Ni10  1  0.050864  0.898271  0.855711  1
  Ni  Ni11  1  0.698876  0.602251  0.931803  1
  P  P12  1  0.118438  0.763123  0.041784  1
  P  P13  1  0.384853  0.230292  0.250000  1
  P  P14  1  0.118438  0.763123  0.458216  1
  P  P15  1  0.881562  0.236877  0.541784  1
  P  P16  1  0.615146  0.769709  0.750000  1
  P  P17  1  0.881562  0.236877  0.958216  1
