# generated using pymatgen
data_Y16Cd4Ir2PdRh
_symmetry_space_group_name_H-M   'P 1'
_cell_length_a   9.68370633
_cell_length_b   9.68370533
_cell_length_c   9.66622607
_cell_angle_alpha   60.14349741
_cell_angle_beta   60.14350312
_cell_angle_gamma   60.23476462
_symmetry_Int_Tables_number   1
_chemical_formula_structural   Y16Cd4Ir2PdRh
_chemical_formula_sum   'Y16 Cd4 Ir2 Pd1 Rh1'
_cell_volume   643.47499404
_cell_formula_units_Z   1
loop_
 _symmetry_equiv_pos_site_id
 _symmetry_equiv_pos_as_xyz
  1  'x, y, z'
loop_
 _atom_site_type_symbol
 _atom_site_label
 _atom_site_symmetry_multiplicity
 _atom_site_fract_x
 _atom_site_fract_y
 _atom_site_fract_z
 _atom_site_occupancy
  Y  Y0  1  0.347908  0.347908  0.347386  1
  Y  Y1  1  0.353843  0.353843  0.947126  1
  Y  Y2  1  0.354411  0.946340  0.353559  1
  Y  Y3  1  0.946340  0.354411  0.353559  1
  Y  Y4  1  0.804365  0.190888  0.189937  1
  Y  Y5  1  0.188739  0.810176  0.811112  1
  Y  Y6  1  0.190888  0.804365  0.189937  1
  Y  Y7  1  0.810176  0.188739  0.811112  1
  Y  Y8  1  0.190447  0.190447  0.804734  1
  Y  Y9  1  0.810434  0.810434  0.188589  1
  Y  Y10  1  0.937607  0.564787  0.563042  1
  Y  Y11  1  0.565175  0.937028  0.937009  1
  Y  Y12  1  0.564787  0.937607  0.563042  1
  Y  Y13  1  0.937028  0.565175  0.937009  1
  Y  Y14  1  0.563027  0.563027  0.938259  1
  Y  Y15  1  0.936300  0.936300  0.565204  1
  Cd  Cd16  1  0.581001  0.581001  0.580692  1
  Cd  Cd17  1  0.580655  0.580655  0.256607  1
  Cd  Cd18  1  0.580585  0.256575  0.580448  1
  Cd  Cd19  1  0.256575  0.580585  0.580448  1
  Ir  Ir20  1  0.141620  0.573212  0.142162  1
  Ir  Ir21  1  0.573212  0.141620  0.142162  1
  Pd  Pd22  1  0.143142  0.143142  0.143535  1
  Rh  Rh23  1  0.141736  0.141736  0.573333  1
