# generated using pymatgen
data_Zr6Ti2Al14GaPtRh6
_symmetry_space_group_name_H-M   'P 1'
_cell_length_a   8.84519946
_cell_length_b   8.84519947
_cell_length_c   8.84520000
_cell_angle_alpha   120.09897045
_cell_angle_beta   119.87464646
_cell_angle_gamma   90.02296576
_symmetry_Int_Tables_number   1
_chemical_formula_structural   Zr6Ti2Al14GaPtRh6
_chemical_formula_sum   'Zr6 Ti2 Al14 Ga1 Pt1 Rh6'
_cell_volume   489.43200675
_cell_formula_units_Z   1
loop_
 _symmetry_equiv_pos_site_id
 _symmetry_equiv_pos_as_xyz
  1  'x, y, z'
loop_
 _atom_site_type_symbol
 _atom_site_label
 _atom_site_symmetry_multiplicity
 _atom_site_fract_x
 _atom_site_fract_y
 _atom_site_fract_z
 _atom_site_occupancy
  Zr  Zr0  1  0.795177  0.292716  0.079757  1
  Zr  Zr1  1  0.213545  0.292143  0.496998  1
  Zr  Zr2  1  0.205500  0.705351  0.500375  1
  Zr  Zr3  1  0.212450  0.715741  0.919624  1
  Zr  Zr4  1  0.795041  0.715634  0.503310  1
  Zr  Zr5  1  0.784206  0.285050  0.499600  1
  Ti  Ti6  1  0.383724  0.124887  0.746405  1
  Ti  Ti7  1  0.380341  0.636995  0.257856  1
  Al  Al8  1  0.162544  0.337927  0.175800  1
  Al  Al9  1  0.164238  0.987139  0.827624  1
  Al  Al10  1  0.159349  0.343225  0.820457  1
  Al  Al11  1  0.521892  0.340121  0.182142  1
  Al  Al12  1  0.837861  0.660355  0.822403  1
  Al  Al13  1  0.836410  0.015858  0.174053  1
  Al  Al14  1  0.835329  0.658438  0.172196  1
  Al  Al15  1  0.486784  0.661504  0.824590  1
  Al  Al16  1  0.379696  0.121719  0.259098  1
  Al  Al17  1  0.861739  0.122539  0.744522  1
  Al  Al18  1  0.616274  0.875507  0.253964  1
  Al  Al19  1  0.619424  0.363001  0.742436  1
  Al  Al20  1  0.617811  0.877157  0.739698  1
  Al  Al21  1  0.138269  0.876131  0.256035  1
  Ga  Ga22  1  0.993990  0.493616  0.499846  1
  Pt  Pt23  1  0.001901  0.000660  0.501748  1
  Rh  Rh24  1  0.499132  0.000636  0.999411  1
  Rh  Rh25  1  0.497711  0.498025  0.000603  1
  Rh  Rh26  1  0.498684  0.499673  0.497844  1
  Rh  Rh27  1  0.001973  0.499429  0.001190  1
  Rh  Rh28  1  0.000452  0.000498  0.999979  1
  Rh  Rh29  1  0.498546  0.998318  0.500436  1
