# generated using pymatgen
data_Ta4Mn2Fe3B4Ru7
_symmetry_space_group_name_H-M   'P 1'
_cell_length_a   9.06294154
_cell_length_b   9.02401665
_cell_length_c   3.00816200
_cell_angle_alpha   90.00000000
_cell_angle_beta   90.00000000
_cell_angle_gamma   90.21280760
_symmetry_Int_Tables_number   1
_chemical_formula_structural   Ta4Mn2Fe3B4Ru7
_chemical_formula_sum   'Ta4 Mn2 Fe3 B4 Ru7'
_cell_volume   246.01823120
_cell_formula_units_Z   1
loop_
 _symmetry_equiv_pos_site_id
 _symmetry_equiv_pos_as_xyz
  1  'x, y, z'
loop_
 _atom_site_type_symbol
 _atom_site_label
 _atom_site_symmetry_multiplicity
 _atom_site_fract_x
 _atom_site_fract_y
 _atom_site_fract_z
 _atom_site_occupancy
  Ta  Ta0  1  0.819882  0.674522  0.000000  1
  Ta  Ta1  1  0.174286  0.325474  0.000000  1
  Ta  Ta2  1  0.332176  0.822447  0.000000  1
  Ta  Ta3  1  0.673238  0.172561  0.000000  1
  Mn  Mn4  1  0.503482  0.512083  0.000000  1
  Mn  Mn5  1  0.998836  0.999370  0.000000  1
  Fe  Fe6  1  0.567623  0.721119  0.500000  1
  Fe  Fe7  1  0.500211  0.996748  0.500000  1
  Fe  Fe8  1  0.000947  0.499924  0.500000  1
  B  B9  1  0.610895  0.872032  0.000000  1
  B  B10  1  0.387050  0.115842  0.000000  1
  B  B11  1  0.114826  0.615478  0.000000  1
  B  B12  1  0.884702  0.386273  0.000000  1
  Ru  Ru13  1  0.435094  0.284536  0.500000  1
  Ru  Ru14  1  0.066676  0.782356  0.500000  1
  Ru  Ru15  1  0.931446  0.218015  0.500000  1
  Ru  Ru16  1  0.283846  0.568624  0.500000  1
  Ru  Ru17  1  0.717649  0.436239  0.500000  1
  Ru  Ru18  1  0.218565  0.066317  0.500000  1
  Ru  Ru19  1  0.778569  0.930040  0.500000  1
