# generated using pymatgen
data_ErLu5TcRh
_symmetry_space_group_name_H-M   'P 1'
_cell_length_a   6.19813000
_cell_length_b   7.24631300
_cell_length_c   8.98428000
_cell_angle_alpha   90.00000000
_cell_angle_beta   90.00000000
_cell_angle_gamma   90.00000000
_symmetry_Int_Tables_number   1
_chemical_formula_structural   ErLu5TcRh
_chemical_formula_sum   'Er2 Lu10 Tc2 Rh2'
_cell_volume   403.51626832
_cell_formula_units_Z   2
loop_
 _symmetry_equiv_pos_site_id
 _symmetry_equiv_pos_as_xyz
  1  'x, y, z'
loop_
 _atom_site_type_symbol
 _atom_site_label
 _atom_site_symmetry_multiplicity
 _atom_site_fract_x
 _atom_site_fract_y
 _atom_site_fract_z
 _atom_site_occupancy
  Er  Er0  1  0.629123  0.460598  0.750000  1
  Er  Er1  1  0.129123  0.039402  0.250000  1
  Lu  Lu2  1  0.670215  0.175986  0.064096  1
  Lu  Lu3  1  0.170215  0.324014  0.935904  1
  Lu  Lu4  1  0.832805  0.678634  0.438774  1
  Lu  Lu5  1  0.332805  0.821366  0.561226  1
  Lu  Lu6  1  0.332805  0.821366  0.938774  1
  Lu  Lu7  1  0.832805  0.678634  0.061226  1
  Lu  Lu8  1  0.170215  0.324014  0.564096  1
  Lu  Lu9  1  0.670215  0.175986  0.435904  1
  Lu  Lu10  1  0.868201  0.960083  0.750000  1
  Lu  Lu11  1  0.368201  0.539917  0.250000  1
  Tc  Tc12  1  0.039156  0.613085  0.750000  1
  Tc  Tc13  1  0.539156  0.886915  0.250000  1
  Rh  Rh14  1  0.457480  0.114265  0.750000  1
  Rh  Rh15  1  0.957480  0.385735  0.250000  1
