# generated using pymatgen
data_Hf18CrGa2Re7
_symmetry_space_group_name_H-M   'P 1'
_cell_length_a   8.59248900
_cell_length_b   8.59252041
_cell_length_c   8.65069400
_cell_angle_alpha   89.99994506
_cell_angle_beta   90.00015950
_cell_angle_gamma   119.99992604
_symmetry_Int_Tables_number   1
_chemical_formula_structural   Hf18CrGa2Re7
_chemical_formula_sum   'Hf18 Cr1 Ga2 Re7'
_cell_volume   553.12267488
_cell_formula_units_Z   1
loop_
 _symmetry_equiv_pos_site_id
 _symmetry_equiv_pos_as_xyz
  1  'x, y, z'
loop_
 _atom_site_type_symbol
 _atom_site_label
 _atom_site_symmetry_multiplicity
 _atom_site_fract_x
 _atom_site_fract_y
 _atom_site_fract_z
 _atom_site_occupancy
  Hf  Hf0  1  0.193040  0.806961  0.452699  1
  Hf  Hf1  1  0.193038  0.386077  0.452699  1
  Hf  Hf2  1  0.613922  0.806961  0.452699  1
  Hf  Hf3  1  0.806960  0.193039  0.547301  1
  Hf  Hf4  1  0.806962  0.613923  0.547301  1
  Hf  Hf5  1  0.386078  0.193039  0.547301  1
  Hf  Hf6  1  0.805830  0.194170  0.952826  1
  Hf  Hf7  1  0.805831  0.611660  0.952826  1
  Hf  Hf8  1  0.388340  0.194170  0.952825  1
  Hf  Hf9  1  0.194170  0.805830  0.047174  1
  Hf  Hf10  1  0.194169  0.388340  0.047174  1
  Hf  Hf11  1  0.611660  0.805830  0.047175  1
  Hf  Hf12  1  0.540400  0.459600  0.250658  1
  Hf  Hf13  1  0.540399  0.080799  0.250659  1
  Hf  Hf14  1  0.919201  0.459601  0.250659  1
  Hf  Hf15  1  0.459600  0.540400  0.749342  1
  Hf  Hf16  1  0.459601  0.919201  0.749341  1
  Hf  Hf17  1  0.080799  0.540399  0.749341  1
  Cr  Cr18  1  0.000000  0.000000  0.500000  1
  Ga  Ga19  1  0.333334  0.666667  0.250460  1
  Ga  Ga20  1  0.666666  0.333333  0.749540  1
  Re  Re21  1  0.891436  0.108563  0.254097  1
  Re  Re22  1  0.891436  0.782872  0.254097  1
  Re  Re23  1  0.217129  0.108564  0.254097  1
  Re  Re24  1  0.108564  0.891437  0.745903  1
  Re  Re25  1  0.108564  0.217128  0.745903  1
  Re  Re26  1  0.782871  0.891436  0.745903  1
  Re  Re27  1  0.000000  0.000000  0.000000  1
