# generated using pymatgen
data_NbZnNi9Sn
_symmetry_space_group_name_H-M   'P 1'
_cell_length_a   3.68119000
_cell_length_b   3.68119000
_cell_length_c   10.87798400
_cell_angle_alpha   90.00000000
_cell_angle_beta   90.00000000
_cell_angle_gamma   90.00000000
_symmetry_Int_Tables_number   1
_chemical_formula_structural   NbZnNi9Sn
_chemical_formula_sum   'Nb1 Zn1 Ni9 Sn1'
_cell_volume   147.40929966
_cell_formula_units_Z   1
loop_
 _symmetry_equiv_pos_site_id
 _symmetry_equiv_pos_as_xyz
  1  'x, y, z'
loop_
 _atom_site_type_symbol
 _atom_site_label
 _atom_site_symmetry_multiplicity
 _atom_site_fract_x
 _atom_site_fract_y
 _atom_site_fract_z
 _atom_site_occupancy
  Nb  Nb0  1  0.000000  0.000000  0.992927  1
  Zn  Zn1  1  0.000000  0.000000  0.668228  1
  Ni  Ni2  1  0.500000  0.500000  0.996416  1
  Ni  Ni3  1  0.500000  0.500000  0.333531  1
  Ni  Ni4  1  0.500000  0.500000  0.667303  1
  Ni  Ni5  1  0.500000  0.000000  0.160703  1
  Ni  Ni6  1  0.500000  0.000000  0.510670  1
  Ni  Ni7  1  0.500000  0.000000  0.829116  1
  Ni  Ni8  1  0.000000  0.500000  0.160703  1
  Ni  Ni9  1  0.000000  0.500000  0.510670  1
  Ni  Ni10  1  0.000000  0.500000  0.829116  1
  Sn  Sn11  1  0.000000  0.000000  0.340616  1
