# generated using pymatgen
data_SmBeCo3B
_symmetry_space_group_name_H-M   'P 1'
_cell_length_a   5.07612505
_cell_length_b   5.07545953
_cell_length_c   6.39983500
_cell_angle_alpha   90.00000000
_cell_angle_beta   90.00000000
_cell_angle_gamma   120.02096849
_symmetry_Int_Tables_number   1
_chemical_formula_structural   SmBeCo3B
_chemical_formula_sum   'Sm2 Be2 Co6 B2'
_cell_volume   142.76287608
_cell_formula_units_Z   2
loop_
 _symmetry_equiv_pos_site_id
 _symmetry_equiv_pos_as_xyz
  1  'x, y, z'
loop_
 _atom_site_type_symbol
 _atom_site_label
 _atom_site_symmetry_multiplicity
 _atom_site_fract_x
 _atom_site_fract_y
 _atom_site_fract_z
 _atom_site_occupancy
  Sm  Sm0  1  0.999980  0.000000  0.000000  1
  Sm  Sm1  1  0.999988  0.000002  0.500000  1
  Be  Be2  1  0.333625  0.667064  0.000000  1
  Be  Be3  1  0.666335  0.332933  0.000000  1
  Co  Co4  1  0.499985  0.999999  0.276758  1
  Co  Co5  1  0.499985  0.500002  0.276757  1
  Co  Co6  1  0.999983  0.500000  0.276752  1
  Co  Co7  1  0.499985  0.999999  0.723242  1
  Co  Co8  1  0.499985  0.500002  0.723242  1
  Co  Co9  1  0.999983  0.500000  0.723247  1
  B  B10  1  0.333335  0.666775  0.500000  1
  B  B11  1  0.666631  0.333224  0.500000  1
