# generated using pymatgen
data_Ta3Be2Ru3Rh2
_symmetry_space_group_name_H-M   'P 1'
_cell_length_a   9.41287942
_cell_length_b   9.34839261
_cell_length_c   3.17308400
_cell_angle_alpha   90.00000000
_cell_angle_beta   90.00000000
_cell_angle_gamma   90.26724762
_symmetry_Int_Tables_number   1
_chemical_formula_structural   Ta3Be2Ru3Rh2
_chemical_formula_sum   'Ta6 Be4 Ru6 Rh4'
_cell_volume   279.21341682
_cell_formula_units_Z   2
loop_
 _symmetry_equiv_pos_site_id
 _symmetry_equiv_pos_as_xyz
  1  'x, y, z'
loop_
 _atom_site_type_symbol
 _atom_site_label
 _atom_site_symmetry_multiplicity
 _atom_site_fract_x
 _atom_site_fract_y
 _atom_site_fract_z
 _atom_site_occupancy
  Ta  Ta0  1  0.828096  0.678194  0.000000  1
  Ta  Ta1  1  0.171904  0.321806  0.000000  1
  Ta  Ta2  1  0.318488  0.826506  0.000000  1
  Ta  Ta3  1  0.681512  0.173494  0.000000  1
  Ta  Ta4  1  0.500000  0.500000  0.000000  1
  Ta  Ta5  1  0.000000  0.000000  0.000000  1
  Be  Be6  1  0.618712  0.880936  0.000000  1
  Be  Be7  1  0.381288  0.119064  0.000000  1
  Be  Be8  1  0.120849  0.618630  0.000000  1
  Be  Be9  1  0.879151  0.381370  0.000000  1
  Ru  Ru10  1  0.071784  0.786652  0.500000  1
  Ru  Ru11  1  0.928216  0.213348  0.500000  1
  Ru  Ru12  1  0.288343  0.570304  0.500000  1
  Ru  Ru13  1  0.711657  0.429696  0.500000  1
  Ru  Ru14  1  0.214092  0.072560  0.500000  1
  Ru  Ru15  1  0.785908  0.927440  0.500000  1
  Rh  Rh16  1  0.570677  0.713578  0.500000  1
  Rh  Rh17  1  0.429323  0.286422  0.500000  1
  Rh  Rh18  1  0.500000  0.000000  0.500000  1
  Rh  Rh19  1  0.000000  0.500000  0.500000  1
