# generated using pymatgen
data_TbHo5Al24(Os3Rh)2
_symmetry_space_group_name_H-M   'P 1'
_cell_length_a   8.82488493
_cell_length_b   8.78673632
_cell_length_c   9.57325700
_cell_angle_alpha   90.00000000
_cell_angle_beta   90.00000000
_cell_angle_gamma   119.79552867
_symmetry_Int_Tables_number   1
_chemical_formula_structural   TbHo5Al24(Os3Rh)2
_chemical_formula_sum   'Tb1 Ho5 Al24 Os6 Rh2'
_cell_volume   644.19615399
_cell_formula_units_Z   1
loop_
 _symmetry_equiv_pos_site_id
 _symmetry_equiv_pos_as_xyz
  1  'x, y, z'
loop_
 _atom_site_type_symbol
 _atom_site_label
 _atom_site_symmetry_multiplicity
 _atom_site_fract_x
 _atom_site_fract_y
 _atom_site_fract_z
 _atom_site_occupancy
  Tb  Tb0  1  0.813140  0.196522  0.750000  1
  Ho  Ho1  1  0.193653  0.389179  0.250000  1
  Ho  Ho2  1  0.806421  0.610891  0.750000  1
  Ho  Ho3  1  0.614775  0.803949  0.250000  1
  Ho  Ho4  1  0.385470  0.196078  0.750000  1
  Ho  Ho5  1  0.187054  0.802128  0.250000  1
  Al  Al6  1  0.332570  0.666832  0.022087  1
  Al  Al7  1  0.667433  0.333570  0.978510  1
  Al  Al8  1  0.667433  0.333570  0.521490  1
  Al  Al9  1  0.332570  0.666832  0.477913  1
  Al  Al10  1  0.165609  0.328379  0.575669  1
  Al  Al11  1  0.834650  0.671945  0.423774  1
  Al  Al12  1  0.673245  0.834332  0.576754  1
  Al  Al13  1  0.834650  0.671945  0.076226  1
  Al  Al14  1  0.326387  0.165200  0.422658  1
  Al  Al15  1  0.165609  0.328379  0.924331  1
  Al  Al16  1  0.162580  0.835202  0.575469  1
  Al  Al17  1  0.326387  0.165200  0.077342  1
  Al  Al18  1  0.837405  0.164947  0.423590  1
  Al  Al19  1  0.673245  0.834332  0.923246  1
  Al  Al20  1  0.837405  0.164947  0.076410  1
  Al  Al21  1  0.162580  0.835202  0.924531  1
  Al  Al22  1  0.559405  0.119520  0.250000  1
  Al  Al23  1  0.439764  0.879771  0.750000  1
  Al  Al24  1  0.874983  0.437470  0.250000  1
  Al  Al25  1  0.125323  0.563171  0.750000  1
  Al  Al26  1  0.561809  0.437315  0.250000  1
  Al  Al27  1  0.438190  0.562636  0.750000  1
  Al  Al28  1  0.998329  0.999237  0.250000  1
  Al  Al29  1  0.002491  0.000015  0.750000  1
  Os  Os30  1  0.000552  0.500831  0.000400  1
  Os  Os31  1  0.499693  0.500103  0.000165  1
  Os  Os32  1  0.000552  0.500831  0.499600  1
  Os  Os33  1  0.499693  0.500103  0.499835  1
  Os  Os34  1  0.999982  0.999957  0.999922  1
  Os  Os35  1  0.999982  0.999957  0.500078  1
  Rh  Rh36  1  0.499490  0.999761  0.000268  1
  Rh  Rh37  1  0.499490  0.999761  0.499732  1
