# generated using pymatgen
data_Nd4Ga10(NiPd)3
_symmetry_space_group_name_H-M   'P 1'
_cell_length_a   8.60126473
_cell_length_b   8.59257030
_cell_length_c   8.59257172
_cell_angle_alpha   140.82375794
_cell_angle_beta   107.33060527
_cell_angle_gamma   85.79538598
_symmetry_Int_Tables_number   1
_chemical_formula_structural   Nd4Ga10(NiPd)3
_chemical_formula_sum   'Nd4 Ga10 Ni3 Pd3'
_cell_volume   369.64420867
_cell_formula_units_Z   1
loop_
 _symmetry_equiv_pos_site_id
 _symmetry_equiv_pos_as_xyz
  1  'x, y, z'
loop_
 _atom_site_type_symbol
 _atom_site_label
 _atom_site_symmetry_multiplicity
 _atom_site_fract_x
 _atom_site_fract_y
 _atom_site_fract_z
 _atom_site_occupancy
  Nd  Nd0  1  0.638233  0.862847  0.775386  1
  Nd  Nd1  1  0.368739  0.139182  0.229556  1
  Nd  Nd2  1  0.084615  0.360218  0.724396  1
  Nd  Nd3  1  0.914654  0.638597  0.276057  1
  Ga  Ga4  1  0.294324  0.042159  0.745950  1
  Ga  Ga5  1  0.714124  0.954589  0.248493  1
  Ga  Ga6  1  0.714124  0.465631  0.759535  1
  Ga  Ga7  1  0.294324  0.548375  0.252165  1
  Ga  Ga8  1  0.431360  0.590082  0.841277  1
  Ga  Ga9  1  0.570183  0.414520  0.155663  1
  Ga  Ga10  1  0.750282  0.090930  0.659352  1
  Ga  Ga11  1  0.237166  0.908080  0.329085  1
  Ga  Ga12  1  0.001632  0.753405  0.765598  1
  Ga  Ga13  1  0.001632  0.236035  0.248227  1
  Ni  Ni14  1  0.951275  0.852588  0.098687  1
  Ni  Ni15  1  0.495712  0.756669  0.252449  1
  Ni  Ni16  1  0.495712  0.243264  0.739044  1
  Pd  Pd17  1  0.241643  0.643147  0.598496  1
  Pd  Pd18  1  0.752161  0.355590  0.396571  1
  Pd  Pd19  1  0.048106  0.144093  0.904013  1
