# generated using pymatgen
data_SmDy11(BBr3)4
_symmetry_space_group_name_H-M   'P 1'
_cell_length_a   9.75561545
_cell_length_b   9.75561434
_cell_length_c   9.76490760
_cell_angle_alpha   109.46876064
_cell_angle_beta   109.46875935
_cell_angle_gamma   109.43321582
_symmetry_Int_Tables_number   1
_chemical_formula_structural   SmDy11(BBr3)4
_chemical_formula_sum   'Sm1 Dy11 B4 Br12'
_cell_volume   715.78956571
_cell_formula_units_Z   1
loop_
 _symmetry_equiv_pos_site_id
 _symmetry_equiv_pos_as_xyz
  1  'x, y, z'
loop_
 _atom_site_type_symbol
 _atom_site_label
 _atom_site_symmetry_multiplicity
 _atom_site_fract_x
 _atom_site_fract_y
 _atom_site_fract_z
 _atom_site_occupancy
  Sm  Sm0  1  0.232526  0.267474  0.750000  1
  Dy  Dy1  1  0.460068  0.480543  0.230626  1
  Dy  Dy2  1  0.749450  0.230168  0.269299  1
  Dy  Dy3  1  0.749852  0.020031  0.479989  1
  Dy  Dy4  1  0.229874  0.460237  0.479820  1
  Dy  Dy5  1  0.269832  0.750550  0.230701  1
  Dy  Dy6  1  0.039763  0.270126  0.020180  1
  Dy  Dy7  1  0.019457  0.039932  0.269374  1
  Dy  Dy8  1  0.479969  0.750148  0.020011  1
  Dy  Dy9  1  0.479973  0.230352  0.460216  1
  Dy  Dy10  1  0.019726  0.480274  0.750000  1
  Dy  Dy11  1  0.269648  0.020027  0.039784  1
  B  B12  1  0.249997  0.250003  0.250000  1
  B  B13  1  0.499832  0.000168  0.250000  1
  B  B14  1  0.997956  0.249936  0.497888  1
  B  B15  1  0.250064  0.502044  0.002112  1
  Br  Br16  1  0.249986  0.757768  0.742469  1
  Br  Br17  1  0.518728  0.511740  0.757330  1
  Br  Br18  1  0.984966  0.742571  0.992566  1
  Br  Br19  1  0.742232  0.250014  0.757531  1
  Br  Br20  1  0.988260  0.981272  0.742670  1
  Br  Br21  1  0.249691  0.988932  0.504192  1
  Br  Br22  1  0.757429  0.515034  0.507434  1
  Br  Br23  1  0.511068  0.250309  0.995808  1
  Br  Br24  1  0.757442  0.742558  0.250000  1
  Br  Br25  1  0.742326  0.992470  0.984811  1
  Br  Br26  1  0.992359  0.507641  0.250000  1
  Br  Br27  1  0.507530  0.757674  0.515189  1
