# generated using pymatgen
data_Y10Th2FeCoNi2
_symmetry_space_group_name_H-M   'P 1'
_cell_length_a   6.36138902
_cell_length_b   6.95041003
_cell_length_c   9.61801500
_cell_angle_alpha   90.00000000
_cell_angle_beta   90.00000000
_cell_angle_gamma   89.99072376
_symmetry_Int_Tables_number   1
_chemical_formula_structural   Y10Th2FeCoNi2
_chemical_formula_sum   'Y10 Th2 Fe1 Co1 Ni2'
_cell_volume   425.25342965
_cell_formula_units_Z   1
loop_
 _symmetry_equiv_pos_site_id
 _symmetry_equiv_pos_as_xyz
  1  'x, y, z'
loop_
 _atom_site_type_symbol
 _atom_site_label
 _atom_site_symmetry_multiplicity
 _atom_site_fract_x
 _atom_site_fract_y
 _atom_site_fract_z
 _atom_site_occupancy
  Y  Y0  1  0.325914  0.674145  0.069709  1
  Y  Y1  1  0.173768  0.173849  0.429224  1
  Y  Y2  1  0.675163  0.325584  0.568090  1
  Y  Y3  1  0.826676  0.825476  0.932560  1
  Y  Y4  1  0.675163  0.325584  0.931910  1
  Y  Y5  1  0.826676  0.825476  0.567440  1
  Y  Y6  1  0.325914  0.674145  0.430291  1
  Y  Y7  1  0.173768  0.173849  0.070776  1
  Y  Y8  1  0.146096  0.461936  0.750000  1
  Y  Y9  1  0.354650  0.962940  0.750000  1
  Th  Th10  1  0.851220  0.558956  0.250000  1
  Th  Th11  1  0.654422  0.052923  0.250000  1
  Fe  Fe12  1  0.015574  0.867422  0.250000  1
  Co  Co13  1  0.475862  0.371503  0.250000  1
  Ni  Ni14  1  0.944589  0.113177  0.750000  1
  Ni  Ni15  1  0.554543  0.613035  0.750000  1
