# generated using pymatgen
data_HoTm3(Ir2O7)2
_symmetry_space_group_name_H-M   'P 1'
_cell_length_a   7.21340435
_cell_length_b   7.18200583
_cell_length_c   7.18200500
_cell_angle_alpha   60.00000844
_cell_angle_beta   60.14389375
_cell_angle_gamma   60.14389004
_symmetry_Int_Tables_number   1
_chemical_formula_structural   HoTm3(Ir2O7)2
_chemical_formula_sum   'Ho1 Tm3 Ir4 O14'
_cell_volume   263.66829209
_cell_formula_units_Z   1
loop_
 _symmetry_equiv_pos_site_id
 _symmetry_equiv_pos_as_xyz
  1  'x, y, z'
loop_
 _atom_site_type_symbol
 _atom_site_label
 _atom_site_symmetry_multiplicity
 _atom_site_fract_x
 _atom_site_fract_y
 _atom_site_fract_z
 _atom_site_occupancy
  Ho  Ho0  1  0.625000  0.125000  0.125000  1
  Tm  Tm1  1  0.125000  0.625000  0.125000  1
  Tm  Tm2  1  0.125000  0.125000  0.625000  1
  Tm  Tm3  1  0.125000  0.125000  0.125000  1
  Ir  Ir4  1  0.125000  0.625000  0.625000  1
  Ir  Ir5  1  0.625000  0.125000  0.625000  1
  Ir  Ir6  1  0.625000  0.625000  0.125000  1
  Ir  Ir7  1  0.625000  0.625000  0.625000  1
  O  O8  1  0.719261  0.710582  0.285078  1
  O  O9  1  0.286025  0.286083  0.713946  1
  O  O10  1  0.719261  0.285078  0.710582  1
  O  O11  1  0.286025  0.713946  0.286083  1
  O  O12  1  0.286025  0.713946  0.713946  1
  O  O13  1  0.719261  0.285078  0.285078  1
  O  O14  1  0.530739  0.539418  0.964922  1
  O  O15  1  0.963975  0.963917  0.536054  1
  O  O16  1  0.530739  0.964922  0.539418  1
  O  O17  1  0.963975  0.536054  0.963917  1
  O  O18  1  0.963975  0.536054  0.536054  1
  O  O19  1  0.530739  0.964922  0.964922  1
  O  O20  1  0.248609  0.250464  0.250464  1
  O  O21  1  0.001391  0.999536  0.999536  1
