# generated using pymatgen
data_Y2Tm4Al24Ir3Os5
_symmetry_space_group_name_H-M   'P 1'
_cell_length_a   8.79542029
_cell_length_b   8.81993200
_cell_length_c   9.55714907
_cell_angle_alpha   89.82729544
_cell_angle_beta   90.18422066
_cell_angle_gamma   120.02175654
_symmetry_Int_Tables_number   1
_chemical_formula_structural   Y2Tm4Al24Ir3Os5
_chemical_formula_sum   'Y2 Tm4 Al24 Ir3 Os5'
_cell_volume   641.92273207
_cell_formula_units_Z   1
loop_
 _symmetry_equiv_pos_site_id
 _symmetry_equiv_pos_as_xyz
  1  'x, y, z'
loop_
 _atom_site_type_symbol
 _atom_site_label
 _atom_site_symmetry_multiplicity
 _atom_site_fract_x
 _atom_site_fract_y
 _atom_site_fract_z
 _atom_site_occupancy
  Y  Y0  1  0.194803  0.383639  0.250900  1
  Y  Y1  1  0.805197  0.616361  0.749100  1
  Tm  Tm2  1  0.609222  0.807315  0.251690  1
  Tm  Tm3  1  0.390778  0.192685  0.748310  1
  Tm  Tm4  1  0.200519  0.811880  0.250152  1
  Tm  Tm5  1  0.799481  0.188120  0.749848  1
  Al  Al6  1  0.333120  0.667288  0.024941  1
  Al  Al7  1  0.666880  0.332712  0.975059  1
  Al  Al8  1  0.666370  0.333271  0.523622  1
  Al  Al9  1  0.333630  0.666729  0.476378  1
  Al  Al10  1  0.163809  0.326232  0.577224  1
  Al  Al11  1  0.836191  0.673768  0.422776  1
  Al  Al12  1  0.672116  0.835915  0.574939  1
  Al  Al13  1  0.837885  0.673859  0.077074  1
  Al  Al14  1  0.327884  0.164085  0.425061  1
  Al  Al15  1  0.162115  0.326141  0.922926  1
  Al  Al16  1  0.164024  0.836831  0.575213  1
  Al  Al17  1  0.327421  0.162286  0.074408  1
  Al  Al18  1  0.835976  0.163169  0.424787  1
  Al  Al19  1  0.672579  0.837714  0.925592  1
  Al  Al20  1  0.835653  0.162717  0.075568  1
  Al  Al21  1  0.164347  0.837283  0.924432  1
  Al  Al22  1  0.564011  0.125640  0.249540  1
  Al  Al23  1  0.435989  0.874360  0.750460  1
  Al  Al24  1  0.877159  0.439432  0.249536  1
  Al  Al25  1  0.122841  0.560568  0.750464  1
  Al  Al26  1  0.564002  0.440035  0.250312  1
  Al  Al27  1  0.435998  0.559965  0.749688  1
  Al  Al28  1  0.999190  0.997855  0.249993  1
  Al  Al29  1  0.000810  0.002145  0.750007  1
  Ir  Ir30  1  0.000000  0.500000  0.000000  1
  Ir  Ir31  1  0.500000  0.500000  0.000000  1
  Ir  Ir32  1  0.000000  0.500000  0.500000  1
  Os  Os33  1  0.500000  0.000000  0.000000  1
  Os  Os34  1  0.500000  0.000000  0.500000  1
  Os  Os35  1  0.500000  0.500000  0.500000  1
  Os  Os36  1  0.000000  0.000000  0.000000  1
  Os  Os37  1  0.000000  0.000000  0.500000  1
