# generated using pymatgen
data_Ho5Co11As6(P3Ru4)2
_symmetry_space_group_name_H-M   'P 1'
_cell_length_a   12.46380432
_cell_length_b   12.48112842
_cell_length_c   3.77498600
_cell_angle_alpha   90.00000000
_cell_angle_beta   90.00000000
_cell_angle_gamma   119.85075938
_symmetry_Int_Tables_number   1
_chemical_formula_structural   Ho5Co11As6(P3Ru4)2
_chemical_formula_sum   'Ho5 Co11 As6 P6 Ru8'
_cell_volume   509.33274866
_cell_formula_units_Z   1
loop_
 _symmetry_equiv_pos_site_id
 _symmetry_equiv_pos_as_xyz
  1  'x, y, z'
loop_
 _atom_site_type_symbol
 _atom_site_label
 _atom_site_symmetry_multiplicity
 _atom_site_fract_x
 _atom_site_fract_y
 _atom_site_fract_z
 _atom_site_occupancy
  Ho  Ho0  1  0.666766  0.333377  0.000000  1
  Ho  Ho1  1  0.330699  0.664487  0.000000  1
  Ho  Ho2  1  0.820655  0.820337  0.500000  1
  Ho  Ho3  1  0.178669  0.000420  0.500000  1
  Ho  Ho4  1  0.999943  0.179464  0.500000  1
  Co  Co5  1  0.123701  0.474456  0.500000  1
  Co  Co6  1  0.811695  0.172043  0.000000  1
  Co  Co7  1  0.828844  0.638581  0.000000  1
  Co  Co8  1  0.359565  0.189200  0.000000  1
  Co  Co9  1  0.171958  0.810136  0.000000  1
  Co  Co10  1  0.639073  0.827770  0.000000  1
  Co  Co11  1  0.187168  0.364282  0.000000  1
  Co  Co12  1  0.270529  0.273324  0.500000  1
  Co  Co13  1  0.727954  0.000004  0.500000  1
  Co  Co14  1  0.001120  0.727071  0.500000  1
  Co  Co15  1  0.000277  0.999483  0.000000  1
  As  As16  1  0.684432  0.159604  0.500000  1
  As  As17  1  0.843843  0.524300  0.500000  1
  As  As18  1  0.474252  0.318273  0.500000  1
  As  As19  1  0.158066  0.678510  0.500000  1
  As  As20  1  0.524425  0.842387  0.500000  1
  As  As21  1  0.311578  0.475526  0.500000  1
  P  P22  1  0.174797  0.176576  0.000000  1
  P  P23  1  0.824352  0.999501  0.000000  1
  P  P24  1  0.000156  0.823430  0.000000  1
  P  P25  1  0.638715  0.639428  0.000000  1
  P  P26  1  0.359845  0.000025  0.000000  1
  P  P27  1  0.003865  0.361044  0.000000  1
  Ru  Ru28  1  0.882087  0.351346  0.500000  1
  Ru  Ru29  1  0.650770  0.526584  0.500000  1
  Ru  Ru30  1  0.474361  0.124880  0.500000  1
  Ru  Ru31  1  0.348746  0.875080  0.500000  1
  Ru  Ru32  1  0.522662  0.648782  0.500000  1
  Ru  Ru33  1  0.445888  0.448222  0.000000  1
  Ru  Ru34  1  0.552720  0.000285  0.000000  1
  Ru  Ru35  1  0.005822  0.551783  0.000000  1
