# generated using pymatgen
data_Ce3Dy13Cd3HgRu4
_symmetry_space_group_name_H-M   'P 1'
_cell_length_a   9.65635970
_cell_length_b   9.65636029
_cell_length_c   9.59044563
_cell_angle_alpha   59.77238183
_cell_angle_beta   59.77237703
_cell_angle_gamma   59.99999618
_symmetry_Int_Tables_number   1
_chemical_formula_structural   Ce3Dy13Cd3HgRu4
_chemical_formula_sum   'Ce3 Dy13 Cd3 Hg1 Ru4'
_cell_volume   630.15573228
_cell_formula_units_Z   1
loop_
 _symmetry_equiv_pos_site_id
 _symmetry_equiv_pos_as_xyz
  1  'x, y, z'
loop_
 _atom_site_type_symbol
 _atom_site_label
 _atom_site_symmetry_multiplicity
 _atom_site_fract_x
 _atom_site_fract_y
 _atom_site_fract_z
 _atom_site_occupancy
  Ce  Ce0  1  0.346338  0.965591  0.341735  1
  Ce  Ce1  1  0.965591  0.346338  0.341735  1
  Ce  Ce2  1  0.346338  0.346338  0.341735  1
  Dy  Dy3  1  0.563177  0.563177  0.937791  1
  Dy  Dy4  1  0.935853  0.563177  0.937791  1
  Dy  Dy5  1  0.563177  0.935853  0.937791  1
  Dy  Dy6  1  0.937586  0.937586  0.562299  1
  Dy  Dy7  1  0.562530  0.937586  0.562299  1
  Dy  Dy8  1  0.937586  0.562530  0.562299  1
  Dy  Dy9  1  0.187770  0.187770  0.813617  1
  Dy  Dy10  1  0.810843  0.187770  0.813617  1
  Dy  Dy11  1  0.187769  0.810844  0.813617  1
  Dy  Dy12  1  0.810482  0.810483  0.189876  1
  Dy  Dy13  1  0.189161  0.810482  0.189875  1
  Dy  Dy14  1  0.810482  0.189162  0.189876  1
  Dy  Dy15  1  0.350868  0.350868  0.947397  1
  Cd  Cd16  1  0.580702  0.258600  0.579996  1
  Cd  Cd17  1  0.258600  0.580702  0.579996  1
  Cd  Cd18  1  0.580702  0.580702  0.579996  1
  Hg  Hg19  1  0.583728  0.583728  0.248814  1
  Ru  Ru20  1  0.144349  0.144349  0.566954  1
  Ru  Ru21  1  0.139043  0.568282  0.153632  1
  Ru  Ru22  1  0.568282  0.139043  0.153632  1
  Ru  Ru23  1  0.139043  0.139043  0.153632  1
