# generated using pymatgen
data_Pr2As4RuRh3
_symmetry_space_group_name_H-M   'P 1'
_cell_length_a   4.31487200
_cell_length_b   4.31487200
_cell_length_c   9.96125400
_cell_angle_alpha   90.00000000
_cell_angle_beta   90.00000000
_cell_angle_gamma   90.00000000
_symmetry_Int_Tables_number   1
_chemical_formula_structural   Pr2As4RuRh3
_chemical_formula_sum   'Pr2 As4 Ru1 Rh3'
_cell_volume   185.45982607
_cell_formula_units_Z   1
loop_
 _symmetry_equiv_pos_site_id
 _symmetry_equiv_pos_as_xyz
  1  'x, y, z'
loop_
 _atom_site_type_symbol
 _atom_site_label
 _atom_site_symmetry_multiplicity
 _atom_site_fract_x
 _atom_site_fract_y
 _atom_site_fract_z
 _atom_site_occupancy
  Pr  Pr0  1  0.000000  0.500000  0.256138  1
  Pr  Pr1  1  0.500000  0.000000  0.743862  1
  As  As2  1  0.000000  0.000000  0.500000  1
  As  As3  1  0.500000  0.500000  0.500000  1
  As  As4  1  0.000000  0.500000  0.866849  1
  As  As5  1  0.500000  0.000000  0.133151  1
  Ru  Ru6  1  0.000000  0.000000  0.000000  1
  Rh  Rh7  1  0.500000  0.500000  0.000000  1
  Rh  Rh8  1  0.000000  0.500000  0.619793  1
  Rh  Rh9  1  0.500000  0.000000  0.380207  1
