# generated using pymatgen
data_GdHo3(As4O9)2
_symmetry_space_group_name_H-M   'P 1'
_cell_length_a   6.75301530
_cell_length_b   7.54799956
_cell_length_c   9.83385080
_cell_angle_alpha   94.81220551
_cell_angle_beta   104.10068774
_cell_angle_gamma   104.80164530
_symmetry_Int_Tables_number   1
_chemical_formula_structural   GdHo3(As4O9)2
_chemical_formula_sum   'Gd1 Ho3 As8 O18'
_cell_volume   464.27075102
_cell_formula_units_Z   1
loop_
 _symmetry_equiv_pos_site_id
 _symmetry_equiv_pos_as_xyz
  1  'x, y, z'
loop_
 _atom_site_type_symbol
 _atom_site_label
 _atom_site_symmetry_multiplicity
 _atom_site_fract_x
 _atom_site_fract_y
 _atom_site_fract_z
 _atom_site_occupancy
  Gd  Gd0  1  0.243157  0.940069  0.614932  1
  Ho  Ho1  1  0.755847  0.061680  0.384522  1
  Ho  Ho2  1  0.720218  0.529183  0.409068  1
  Ho  Ho3  1  0.279156  0.470233  0.590399  1
  As  As4  1  0.682088  0.775165  0.079032  1
  As  As5  1  0.318224  0.226262  0.922636  1
  As  As6  1  0.171285  0.751720  0.912876  1
  As  As7  1  0.828151  0.247404  0.087775  1
  As  As8  1  0.744611  0.914689  0.708603  1
  As  As9  1  0.256674  0.085171  0.290074  1
  As  As10  1  0.810051  0.351333  0.700634  1
  As  As11  1  0.191215  0.648227  0.298664  1
  O  O12  1  0.722178  0.749292  0.259243  1
  O  O13  1  0.278264  0.253836  0.742609  1
  O  O14  1  0.317173  0.979282  0.872399  1
  O  O15  1  0.684240  0.021530  0.131644  1
  O  O16  1  0.607817  0.324164  0.985520  1
  O  O17  1  0.392307  0.675746  0.014691  1
  O  O18  1  0.129129  0.645545  0.738315  1
  O  O19  1  0.870512  0.353603  0.261937  1
  O  O20  1  0.842837  0.874385  0.556598  1
  O  O21  1  0.150932  0.128079  0.438326  1
  O  O22  1  0.485232  0.766158  0.666951  1
  O  O23  1  0.517681  0.231583  0.334446  1
  O  O24  1  0.373654  0.534021  0.380531  1
  O  O25  1  0.626767  0.465117  0.618921  1
  O  O26  1  0.087636  0.665906  0.452575  1
  O  O27  1  0.910812  0.330213  0.545613  1
  O  O28  1  0.376575  0.899604  0.359535  1
  O  O29  1  0.625578  0.100801  0.640932  1
