# generated using pymatgen
data_PrGd3F12
_symmetry_space_group_name_H-M   'P 1'
_cell_length_a   7.12027200
_cell_length_b   4.49069227
_cell_length_c   6.66676425
_cell_angle_alpha   90.75338429
_cell_angle_beta   90.00000000
_cell_angle_gamma   90.00000000
_symmetry_Int_Tables_number   1
_chemical_formula_structural   PrGd3F12
_chemical_formula_sum   'Pr1 Gd3 F12'
_cell_volume   213.15102849
_cell_formula_units_Z   1
loop_
 _symmetry_equiv_pos_site_id
 _symmetry_equiv_pos_as_xyz
  1  'x, y, z'
loop_
 _atom_site_type_symbol
 _atom_site_label
 _atom_site_symmetry_multiplicity
 _atom_site_fract_x
 _atom_site_fract_y
 _atom_site_fract_z
 _atom_site_occupancy
  Pr  Pr0  1  0.000000  0.938345  0.132179  1
  Gd  Gd1  1  0.000000  0.562326  0.631731  1
  Gd  Gd2  1  0.500000  0.064556  0.866167  1
  Gd  Gd3  1  0.500000  0.436881  0.370969  1
  F  F4  1  0.000000  0.083747  0.486962  1
  F  F5  1  0.000000  0.423666  0.972584  1
  F  F6  1  0.500000  0.915702  0.520676  1
  F  F7  1  0.500000  0.585916  0.022059  1
  F  F8  1  0.187396  0.610608  0.340587  1
  F  F9  1  0.810064  0.883074  0.829947  1
  F  F10  1  0.685269  0.381924  0.664467  1
  F  F11  1  0.318144  0.118825  0.163336  1
  F  F12  1  0.314731  0.381924  0.664467  1
  F  F13  1  0.681856  0.118825  0.163336  1
  F  F14  1  0.812604  0.610608  0.340587  1
  F  F15  1  0.189936  0.883074  0.829947  1
