# generated using pymatgen
data_CaLa15(DyIr3)4
_symmetry_space_group_name_H-M   'P 1'
_cell_length_a   11.37682447
_cell_length_b   11.39388992
_cell_length_c   6.55398477
_cell_angle_alpha   89.52345926
_cell_angle_beta   89.99094422
_cell_angle_gamma   89.94636948
_symmetry_Int_Tables_number   1
_chemical_formula_structural   CaLa15(DyIr3)4
_chemical_formula_sum   'Ca1 La15 Dy4 Ir12'
_cell_volume   849.53893557
_cell_formula_units_Z   1
loop_
 _symmetry_equiv_pos_site_id
 _symmetry_equiv_pos_as_xyz
  1  'x, y, z'
loop_
 _atom_site_type_symbol
 _atom_site_label
 _atom_site_symmetry_multiplicity
 _atom_site_fract_x
 _atom_site_fract_y
 _atom_site_fract_z
 _atom_site_occupancy
  Ca  Ca0  1  0.087396  0.289960  0.111071  1
  La  La1  1  0.287287  0.091192  0.386468  1
  La  La2  1  0.287497  0.911124  0.887234  1
  La  La3  1  0.711952  0.087390  0.892519  1
  La  La4  1  0.710828  0.911651  0.393500  1
  La  La5  1  0.588804  0.787791  0.891149  1
  La  La6  1  0.589123  0.212805  0.392973  1
  La  La7  1  0.409412  0.787436  0.390616  1
  La  La8  1  0.410811  0.211210  0.889916  1
  La  La9  1  0.209380  0.408705  0.606103  1
  La  La10  1  0.209911  0.581724  0.106277  1
  La  La11  1  0.793869  0.411077  0.106328  1
  La  La12  1  0.788198  0.588046  0.606901  1
  La  La13  1  0.912899  0.714685  0.106856  1
  La  La14  1  0.913715  0.286945  0.604641  1
  La  La15  1  0.088787  0.711573  0.606900  1
  Dy  Dy16  1  0.999656  0.998043  0.501330  1
  Dy  Dy17  1  0.002271  0.006987  0.002851  1
  Dy  Dy18  1  0.501548  0.498430  0.004813  1
  Dy  Dy19  1  0.500021  0.500225  0.504786  1
  Ir  Ir20  1  0.845056  0.144638  0.256317  1
  Ir  Ir21  1  0.851241  0.853081  0.754005  1
  Ir  Ir22  1  0.149301  0.145663  0.738947  1
  Ir  Ir23  1  0.150822  0.854339  0.249395  1
  Ir  Ir24  1  0.649809  0.351043  0.753701  1
  Ir  Ir25  1  0.647220  0.650044  0.250827  1
  Ir  Ir26  1  0.357743  0.350470  0.256381  1
  Ir  Ir27  1  0.349838  0.646447  0.751955  1
  Ir  Ir28  1  0.498787  0.000023  0.124550  1
  Ir  Ir29  1  0.499563  0.999865  0.624204  1
  Ir  Ir30  1  0.998324  0.504273  0.867649  1
  Ir  Ir31  1  0.998931  0.503114  0.378835  1
