# generated using pymatgen
data_Sr2Cu6Si3Ni12P7
_symmetry_space_group_name_H-M   'P 1'
_cell_length_a   6.60484000
_cell_length_b   6.60391992
_cell_length_c   10.85780961
_cell_angle_alpha   89.74755625
_cell_angle_beta   90.00000000
_cell_angle_gamma   120.00460890
_symmetry_Int_Tables_number   1
_chemical_formula_structural   Sr2Cu6Si3Ni12P7
_chemical_formula_sum   'Sr2 Cu6 Si3 Ni12 P7'
_cell_volume   410.12020020
_cell_formula_units_Z   1
loop_
 _symmetry_equiv_pos_site_id
 _symmetry_equiv_pos_as_xyz
  1  'x, y, z'
loop_
 _atom_site_type_symbol
 _atom_site_label
 _atom_site_symmetry_multiplicity
 _atom_site_fract_x
 _atom_site_fract_y
 _atom_site_fract_z
 _atom_site_occupancy
  Sr  Sr0  1  0.000200  0.000400  0.001937  1
  Sr  Sr1  1  0.000261  0.000521  0.502099  1
  Cu  Cu2  1  0.538363  0.076726  0.107831  1
  Cu  Cu3  1  0.458293  0.531306  0.605013  1
  Cu  Cu4  1  0.073013  0.531306  0.605013  1
  Cu  Cu5  1  0.923511  0.462023  0.106527  1
  Cu  Cu6  1  0.538512  0.462023  0.106527  1
  Cu  Cu7  1  0.466272  0.932542  0.896201  1
  Si  Si8  1  0.330357  0.660715  0.064511  1
  Si  Si9  1  0.659476  0.318950  0.561901  1
  Si  Si10  1  0.673644  0.347287  0.927881  1
  Ni  Ni11  1  0.466328  0.544702  0.889374  1
  Ni  Ni12  1  0.457737  0.915475  0.608736  1
  Ni  Ni13  1  0.078376  0.544702  0.889374  1
  Ni  Ni14  1  0.929036  0.464823  0.392151  1
  Ni  Ni15  1  0.535024  0.070047  0.392877  1
  Ni  Ni16  1  0.535788  0.464823  0.392151  1
  Ni  Ni17  1  0.203526  0.407052  0.249301  1
  Ni  Ni18  1  0.796456  0.202819  0.747582  1
  Ni  Ni19  1  0.406361  0.202819  0.747582  1
  Ni  Ni20  1  0.593718  0.797043  0.248227  1
  Ni  Ni21  1  0.203326  0.797043  0.248227  1
  Ni  Ni22  1  0.797403  0.594809  0.745311  1
  P  P23  1  0.832300  0.664600  0.258413  1
  P  P24  1  0.169739  0.831061  0.747971  1
  P  P25  1  0.661321  0.831061  0.747971  1
  P  P26  1  0.336301  0.168315  0.258647  1
  P  P27  1  0.832014  0.168315  0.258647  1
  P  P28  1  0.167291  0.334583  0.760510  1
  P  P29  1  0.336054  0.672109  0.431509  1
