# generated using pymatgen
data_Ti10CuSb5
_symmetry_space_group_name_H-M   'P 1'
_cell_length_a   5.22234718
_cell_length_b   7.89185725
_cell_length_c   7.89185786
_cell_angle_alpha   96.28502627
_cell_angle_beta   109.32155396
_cell_angle_gamma   70.67845435
_symmetry_Int_Tables_number   1
_chemical_formula_structural   Ti10CuSb5
_chemical_formula_sum   'Ti10 Cu1 Sb5'
_cell_volume   289.64801974
_cell_formula_units_Z   1
loop_
 _symmetry_equiv_pos_site_id
 _symmetry_equiv_pos_as_xyz
  1  'x, y, z'
loop_
 _atom_site_type_symbol
 _atom_site_label
 _atom_site_symmetry_multiplicity
 _atom_site_fract_x
 _atom_site_fract_y
 _atom_site_fract_z
 _atom_site_occupancy
  Ti  Ti0  1  0.432546  0.854553  0.702795  1
  Ti  Ti1  1  0.584305  0.145447  0.297205  1
  Ti  Ti2  1  0.915695  0.297205  0.145447  1
  Ti  Ti3  1  0.067454  0.702795  0.854553  1
  Ti  Ti4  1  0.729751  0.702795  0.145447  1
  Ti  Ti5  1  0.287098  0.297205  0.854553  1
  Ti  Ti6  1  0.770249  0.145447  0.702795  1
  Ti  Ti7  1  0.212902  0.854553  0.297205  1
  Ti  Ti8  1  0.250000  0.500000  0.500000  1
  Ti  Ti9  1  0.750000  0.500000  0.500000  1
  Cu  Cu10  1  0.750000  0.000000  0.000000  1
  Sb  Sb11  1  0.336255  0.500000  0.172510  1
  Sb  Sb12  1  0.663745  0.500000  0.827490  1
  Sb  Sb13  1  0.836255  0.827490  0.500000  1
  Sb  Sb14  1  0.163745  0.172510  0.500000  1
  Sb  Sb15  1  0.250000  0.000000  0.000000  1
