# generated using pymatgen
data_TbDyAl20Fe3Ir
_symmetry_space_group_name_H-M   'P 1'
_cell_length_a   6.78387778
_cell_length_b   6.78043664
_cell_length_c   9.02227978
_cell_angle_alpha   90.13084775
_cell_angle_beta   89.91125967
_cell_angle_gamma   96.96349052
_symmetry_Int_Tables_number   1
_chemical_formula_structural   TbDyAl20Fe3Ir
_chemical_formula_sum   'Tb1 Dy1 Al20 Fe3 Ir1'
_cell_volume   411.94105571
_cell_formula_units_Z   1
loop_
 _symmetry_equiv_pos_site_id
 _symmetry_equiv_pos_as_xyz
  1  'x, y, z'
loop_
 _atom_site_type_symbol
 _atom_site_label
 _atom_site_symmetry_multiplicity
 _atom_site_fract_x
 _atom_site_fract_y
 _atom_site_fract_z
 _atom_site_occupancy
  Tb  Tb0  1  0.126110  0.871950  0.251539  1
  Dy  Dy1  1  0.873608  0.128453  0.748434  1
  Al  Al2  1  0.413434  0.140203  0.744389  1
  Al  Al3  1  0.137470  0.415962  0.250925  1
  Al  Al4  1  0.586973  0.859895  0.255603  1
  Al  Al5  1  0.862448  0.583563  0.749076  1
  Al  Al6  1  0.520162  0.779159  0.744406  1
  Al  Al7  1  0.781039  0.518889  0.251041  1
  Al  Al8  1  0.480192  0.221089  0.255595  1
  Al  Al9  1  0.218705  0.480744  0.748945  1
  Al  Al10  1  0.842293  0.157112  0.402585  1
  Al  Al11  1  0.157508  0.843094  0.597693  1
  Al  Al12  1  0.847961  0.161655  0.100567  1
  Al  Al13  1  0.151806  0.838559  0.899198  1
  Al  Al14  1  0.628261  0.380382  0.950210  1
  Al  Al15  1  0.371921  0.619438  0.049647  1
  Al  Al16  1  0.626279  0.375220  0.547886  1
  Al  Al17  1  0.373923  0.624582  0.452286  1
  Al  Al18  1  0.778251  0.768587  0.003240  1
  Al  Al19  1  0.773860  0.772223  0.501682  1
  Al  Al20  1  0.221604  0.231456  0.996451  1
  Al  Al21  1  0.226029  0.227884  0.498664  1
  Fe  Fe22  1  0.999974  0.499926  0.999797  1
  Fe  Fe23  1  0.500090  0.000027  0.500179  1
  Fe  Fe24  1  0.999986  0.499912  0.500194  1
  Ir  Ir25  1  0.500115  0.000035  0.999769  1
