# generated using pymatgen
data_Dy2YHf(NiP)4
_symmetry_space_group_name_H-M   'P 1'
_cell_length_a   3.87437300
_cell_length_b   3.87437560
_cell_length_c   15.07099000
_cell_angle_alpha   90.00000000
_cell_angle_beta   90.00000000
_cell_angle_gamma   120.00002050
_symmetry_Int_Tables_number   1
_chemical_formula_structural   Dy2YHf(NiP)4
_chemical_formula_sum   'Dy2 Y1 Hf1 Ni4 P4'
_cell_volume   195.91851219
_cell_formula_units_Z   1
loop_
 _symmetry_equiv_pos_site_id
 _symmetry_equiv_pos_as_xyz
  1  'x, y, z'
loop_
 _atom_site_type_symbol
 _atom_site_label
 _atom_site_symmetry_multiplicity
 _atom_site_fract_x
 _atom_site_fract_y
 _atom_site_fract_z
 _atom_site_occupancy
  Dy  Dy0  1  0.000000  0.000000  0.491896  1
  Dy  Dy1  1  0.000000  0.000000  0.750002  1
  Y  Y2  1  0.000000  0.000000  0.008137  1
  Hf  Hf3  1  0.000000  0.000000  0.250022  1
  Ni  Ni4  1  0.333333  0.666667  0.345067  1
  Ni  Ni5  1  0.666667  0.333333  0.623228  1
  Ni  Ni6  1  0.666667  0.333333  0.876544  1
  Ni  Ni7  1  0.333333  0.666667  0.155009  1
  P  P8  1  0.333333  0.666667  0.880813  1
  P  P9  1  0.666667  0.333333  0.128332  1
  P  P10  1  0.666667  0.333333  0.371917  1
  P  P11  1  0.333333  0.666667  0.619035  1
