# generated using pymatgen
data_Pr12CoNi3
_symmetry_space_group_name_H-M   'P 1'
_cell_length_a   6.52285880
_cell_length_b   7.13505695
_cell_length_c   10.04950500
_cell_angle_alpha   90.00000000
_cell_angle_beta   90.00000000
_cell_angle_gamma   90.10525663
_symmetry_Int_Tables_number   1
_chemical_formula_structural   Pr12CoNi3
_chemical_formula_sum   'Pr12 Co1 Ni3'
_cell_volume   467.71291209
_cell_formula_units_Z   1
loop_
 _symmetry_equiv_pos_site_id
 _symmetry_equiv_pos_as_xyz
  1  'x, y, z'
loop_
 _atom_site_type_symbol
 _atom_site_label
 _atom_site_symmetry_multiplicity
 _atom_site_fract_x
 _atom_site_fract_y
 _atom_site_fract_z
 _atom_site_occupancy
  Pr  Pr0  1  0.325098  0.675494  0.068058  1
  Pr  Pr1  1  0.170958  0.170884  0.430630  1
  Pr  Pr2  1  0.671340  0.325309  0.566541  1
  Pr  Pr3  1  0.827760  0.824615  0.934165  1
  Pr  Pr4  1  0.671340  0.325309  0.933459  1
  Pr  Pr5  1  0.827760  0.824615  0.565835  1
  Pr  Pr6  1  0.325098  0.675494  0.431942  1
  Pr  Pr7  1  0.170958  0.170884  0.069370  1
  Pr  Pr8  1  0.861020  0.548134  0.250000  1
  Pr  Pr9  1  0.647792  0.039772  0.250000  1
  Pr  Pr10  1  0.143299  0.460862  0.750000  1
  Pr  Pr11  1  0.356043  0.961218  0.750000  1
  Co  Co12  1  0.068010  0.886271  0.250000  1
  Ni  Ni13  1  0.435177  0.386995  0.250000  1
  Ni  Ni14  1  0.929894  0.111906  0.750000  1
  Ni  Ni15  1  0.568452  0.612237  0.750000  1
