# generated using pymatgen
data_Dy2Si3Sn(PRh4)3
_symmetry_space_group_name_H-M   'P 1'
_cell_length_a   9.83875400
_cell_length_b   9.83875422
_cell_length_c   3.83447300
_cell_angle_alpha   90.00000000
_cell_angle_beta   90.00000000
_cell_angle_gamma   120.00000690
_symmetry_Int_Tables_number   1
_chemical_formula_structural   Dy2Si3Sn(PRh4)3
_chemical_formula_sum   'Dy2 Si3 Sn1 P3 Rh12'
_cell_volume   321.45227154
_cell_formula_units_Z   1
loop_
 _symmetry_equiv_pos_site_id
 _symmetry_equiv_pos_as_xyz
  1  'x, y, z'
loop_
 _atom_site_type_symbol
 _atom_site_label
 _atom_site_symmetry_multiplicity
 _atom_site_fract_x
 _atom_site_fract_y
 _atom_site_fract_z
 _atom_site_occupancy
  Dy  Dy0  1  0.333333  0.666667  0.745767  1
  Dy  Dy1  1  0.666667  0.333333  0.238852  1
  Si  Si2  1  0.403166  0.289988  0.739793  1
  Si  Si3  1  0.710012  0.113178  0.739793  1
  Si  Si4  1  0.886822  0.596834  0.739793  1
  Sn  Sn5  1  0.000000  0.000000  0.670277  1
  P  P6  1  0.595394  0.707056  0.243365  1
  P  P7  1  0.292944  0.888338  0.243365  1
  P  P8  1  0.111662  0.404606  0.243365  1
  Rh  Rh9  1  0.448356  0.068371  0.740899  1
  Rh  Rh10  1  0.931629  0.379984  0.740899  1
  Rh  Rh11  1  0.620016  0.551644  0.740899  1
  Rh  Rh12  1  0.550445  0.938593  0.241971  1
  Rh  Rh13  1  0.061407  0.611853  0.241971  1
  Rh  Rh14  1  0.388147  0.449555  0.241971  1
  Rh  Rh15  1  0.161040  0.296847  0.744904  1
  Rh  Rh16  1  0.703153  0.864194  0.744904  1
  Rh  Rh17  1  0.135806  0.838960  0.744904  1
  Rh  Rh18  1  0.851272  0.733605  0.237435  1
  Rh  Rh19  1  0.266395  0.117667  0.237435  1
  Rh  Rh20  1  0.882333  0.148728  0.237435  1
