# generated using pymatgen
data_Tb16Cd4FeCoNi2
_symmetry_space_group_name_H-M   'P 1'
_cell_length_a   9.55648678
_cell_length_b   9.55648731
_cell_length_c   9.57773403
_cell_angle_alpha   59.88295199
_cell_angle_beta   59.88295154
_cell_angle_gamma   59.83212754
_symmetry_Int_Tables_number   1
_chemical_formula_structural   Tb16Cd4FeCoNi2
_chemical_formula_sum   'Tb16 Cd4 Fe1 Co1 Ni2'
_cell_volume   616.62573151
_cell_formula_units_Z   1
loop_
 _symmetry_equiv_pos_site_id
 _symmetry_equiv_pos_as_xyz
  1  'x, y, z'
loop_
 _atom_site_type_symbol
 _atom_site_label
 _atom_site_symmetry_multiplicity
 _atom_site_fract_x
 _atom_site_fract_y
 _atom_site_fract_z
 _atom_site_occupancy
  Tb  Tb0  1  0.345320  0.345320  0.349818  1
  Tb  Tb1  1  0.348290  0.348290  0.955015  1
  Tb  Tb2  1  0.344644  0.959864  0.348890  1
  Tb  Tb3  1  0.959864  0.344644  0.348890  1
  Tb  Tb4  1  0.814328  0.188260  0.189135  1
  Tb  Tb5  1  0.185803  0.816588  0.807290  1
  Tb  Tb6  1  0.188260  0.814328  0.189135  1
  Tb  Tb7  1  0.816588  0.185803  0.807290  1
  Tb  Tb8  1  0.188555  0.188555  0.809700  1
  Tb  Tb9  1  0.810525  0.810525  0.188612  1
  Tb  Tb10  1  0.938053  0.558887  0.565558  1
  Tb  Tb11  1  0.560036  0.937086  0.938716  1
  Tb  Tb12  1  0.558887  0.938053  0.565558  1
  Tb  Tb13  1  0.937086  0.560036  0.938716  1
  Tb  Tb14  1  0.562596  0.562596  0.939014  1
  Tb  Tb15  1  0.937775  0.937775  0.562918  1
  Cd  Cd16  1  0.579529  0.579529  0.580484  1
  Cd  Cd17  1  0.579839  0.579839  0.258475  1
  Cd  Cd18  1  0.581448  0.256386  0.580521  1
  Cd  Cd19  1  0.256386  0.581448  0.580521  1
  Fe  Fe20  1  0.143885  0.143885  0.576090  1
  Co  Co21  1  0.143085  0.143085  0.139204  1
  Ni  Ni22  1  0.143060  0.576159  0.140225  1
  Ni  Ni23  1  0.576159  0.143060  0.140225  1
