# generated using pymatgen
data_Hf6ZnAsC2
_symmetry_space_group_name_H-M   'P 1'
_cell_length_a   5.86377455
_cell_length_b   5.86377451
_cell_length_c   8.77254000
_cell_angle_alpha   90.00000000
_cell_angle_beta   90.00000000
_cell_angle_gamma   145.85289177
_symmetry_Int_Tables_number   1
_chemical_formula_structural   Hf6ZnAsC2
_chemical_formula_sum   'Hf6 Zn1 As1 C2'
_cell_volume   169.31292528
_cell_formula_units_Z   1
loop_
 _symmetry_equiv_pos_site_id
 _symmetry_equiv_pos_as_xyz
  1  'x, y, z'
loop_
 _atom_site_type_symbol
 _atom_site_label
 _atom_site_symmetry_multiplicity
 _atom_site_fract_x
 _atom_site_fract_y
 _atom_site_fract_z
 _atom_site_occupancy
  Hf  Hf0  1  0.629466  0.370534  0.946458  1
  Hf  Hf1  1  0.371630  0.628370  0.451201  1
  Hf  Hf2  1  0.371630  0.628370  0.048799  1
  Hf  Hf3  1  0.629466  0.370534  0.553542  1
  Hf  Hf4  1  0.942137  0.057863  0.750000  1
  Hf  Hf5  1  0.050956  0.949044  0.250000  1
  Zn  Zn6  1  0.750167  0.249833  0.250000  1
  As  As7  1  0.253430  0.746570  0.750000  1
  C  C8  1  0.000558  0.999442  0.997717  1
  C  C9  1  0.000558  0.999442  0.502283  1
