# generated using pymatgen
data_Nd4Ho6Sn5Sb3
_symmetry_space_group_name_H-M   'P 1'
_cell_length_a   8.15911600
_cell_length_b   8.24677443
_cell_length_c   15.51206000
_cell_angle_alpha   90.17030822
_cell_angle_beta   90.00000000
_cell_angle_gamma   90.00000000
_symmetry_Int_Tables_number   1
_chemical_formula_structural   Nd4Ho6Sn5Sb3
_chemical_formula_sum   'Nd8 Ho12 Sn10 Sb6'
_cell_volume   1043.74589571
_cell_formula_units_Z   2
loop_
 _symmetry_equiv_pos_site_id
 _symmetry_equiv_pos_as_xyz
  1  'x, y, z'
loop_
 _atom_site_type_symbol
 _atom_site_label
 _atom_site_symmetry_multiplicity
 _atom_site_fract_x
 _atom_site_fract_y
 _atom_site_fract_z
 _atom_site_occupancy
  Nd  Nd0  1  0.530499  0.324912  0.898963  1
  Nd  Nd1  1  0.030499  0.175088  0.601037  1
  Nd  Nd2  1  0.471124  0.678220  0.398811  1
  Nd  Nd3  1  0.971124  0.821780  0.101189  1
  Nd  Nd4  1  0.473388  0.676077  0.100572  1
  Nd  Nd5  1  0.973388  0.823923  0.399428  1
  Nd  Nd6  1  0.526681  0.319929  0.600362  1
  Nd  Nd7  1  0.026681  0.180071  0.899638  1
  Ho  Ho8  1  0.370326  0.838747  0.877826  1
  Ho  Ho9  1  0.870326  0.661253  0.622174  1
  Ho  Ho10  1  0.628420  0.160843  0.377311  1
  Ho  Ho11  1  0.128420  0.339157  0.122689  1
  Ho  Ho12  1  0.630749  0.162325  0.121940  1
  Ho  Ho13  1  0.130749  0.337675  0.378060  1
  Ho  Ho14  1  0.369296  0.838929  0.622829  1
  Ho  Ho15  1  0.869296  0.661071  0.877171  1
  Ho  Ho16  1  0.199514  0.500190  0.749625  1
  Ho  Ho17  1  0.699514  0.999810  0.750375  1
  Ho  Ho18  1  0.800824  0.499332  0.249024  1
  Ho  Ho19  1  0.300824  0.000668  0.250976  1
  Sn  Sn20  1  0.288938  0.035916  0.456727  1
  Sn  Sn21  1  0.788938  0.464084  0.043273  1
  Sn  Sn22  1  0.565896  0.625767  0.749414  1
  Sn  Sn23  1  0.065896  0.874233  0.750586  1
  Sn  Sn24  1  0.433613  0.374109  0.249909  1
  Sn  Sn25  1  0.933613  0.125891  0.250091  1
  Sn  Sn26  1  0.334648  0.142891  0.750885  1
  Sn  Sn27  1  0.834648  0.357109  0.749115  1
  Sn  Sn28  1  0.666402  0.857502  0.249910  1
  Sn  Sn29  1  0.166402  0.642498  0.250090  1
  Sb  Sb30  1  0.286841  0.035477  0.044478  1
  Sb  Sb31  1  0.786841  0.464523  0.455522  1
  Sb  Sb32  1  0.710570  0.963859  0.544406  1
  Sb  Sb33  1  0.210570  0.536141  0.955594  1
  Sb  Sb34  1  0.712272  0.964893  0.954974  1
  Sb  Sb35  1  0.212272  0.535107  0.545026  1
