# generated using pymatgen
data_K4Hf5Zr3S16
_symmetry_space_group_name_H-M   'P 1'
_cell_length_a   6.35470539
_cell_length_b   7.31042438
_cell_length_c   15.55202400
_cell_angle_alpha   90.01138795
_cell_angle_beta   90.02002515
_cell_angle_gamma   89.96672564
_symmetry_Int_Tables_number   1
_chemical_formula_structural   K4Hf5Zr3S16
_chemical_formula_sum   'K4 Hf5 Zr3 S16'
_cell_volume   722.47831982
_cell_formula_units_Z   1
loop_
 _symmetry_equiv_pos_site_id
 _symmetry_equiv_pos_as_xyz
  1  'x, y, z'
loop_
 _atom_site_type_symbol
 _atom_site_label
 _atom_site_symmetry_multiplicity
 _atom_site_fract_x
 _atom_site_fract_y
 _atom_site_fract_z
 _atom_site_occupancy
  K  K0  1  0.346552  0.000260  0.999771  1
  K  K1  1  0.653448  0.499740  0.500229  1
  K  K2  1  0.022554  0.001163  0.500037  1
  K  K3  1  0.977446  0.498837  0.999963  1
  Hf  Hf4  1  0.000751  0.998280  0.248002  1
  Hf  Hf5  1  0.000245  0.999796  0.751977  1
  Hf  Hf6  1  0.999249  0.501720  0.251998  1
  Hf  Hf7  1  0.999755  0.500204  0.748023  1
  Hf  Hf8  1  0.500000  0.250000  0.250000  1
  Zr  Zr9  1  0.500000  0.750000  0.750000  1
  Zr  Zr10  1  0.500000  0.750000  0.250000  1
  Zr  Zr11  1  0.500000  0.250000  0.750000  1
  S  S12  1  0.833190  0.248169  0.344947  1
  S  S13  1  0.838172  0.751834  0.653611  1
  S  S14  1  0.160699  0.747848  0.153144  1
  S  S15  1  0.161810  0.251765  0.846265  1
  S  S16  1  0.166810  0.251831  0.155053  1
  S  S17  1  0.161828  0.748166  0.846389  1
  S  S18  1  0.839301  0.752152  0.346856  1
  S  S19  1  0.838190  0.248235  0.653735  1
  S  S20  1  0.670621  0.003876  0.154448  1
  S  S21  1  0.673158  0.000067  0.846677  1
  S  S22  1  0.329379  0.496124  0.345552  1
  S  S23  1  0.326841  0.499932  0.653323  1
  S  S24  1  0.332049  0.003683  0.344154  1
  S  S25  1  0.329947  0.000051  0.654987  1
  S  S26  1  0.667951  0.496317  0.155846  1
  S  S27  1  0.670053  0.499949  0.845013  1
