# generated using pymatgen
data_TbEr3Al24Pd8Au
_symmetry_space_group_name_H-M   'P 1'
_cell_length_a   7.55608319
_cell_length_b   7.57980386
_cell_length_c   13.15348001
_cell_angle_alpha   84.53068438
_cell_angle_beta   78.99758198
_cell_angle_gamma   59.91735944
_symmetry_Int_Tables_number   1
_chemical_formula_structural   TbEr3Al24Pd8Au
_chemical_formula_sum   'Tb1 Er3 Al24 Pd8 Au1'
_cell_volume   639.89205578
_cell_formula_units_Z   1
loop_
 _symmetry_equiv_pos_site_id
 _symmetry_equiv_pos_as_xyz
  1  'x, y, z'
loop_
 _atom_site_type_symbol
 _atom_site_label
 _atom_site_symmetry_multiplicity
 _atom_site_fract_x
 _atom_site_fract_y
 _atom_site_fract_z
 _atom_site_occupancy
  Tb  Tb0  1  0.391770  0.169574  0.809464  1
  Er  Er1  1  0.606588  0.831533  0.191599  1
  Er  Er2  1  0.734534  0.498156  0.809056  1
  Er  Er3  1  0.266652  0.501601  0.191253  1
  Al  Al4  1  0.683115  0.833662  0.945516  1
  Al  Al5  1  0.315752  0.166095  0.056405  1
  Al  Al6  1  0.146209  0.838993  0.560094  1
  Al  Al7  1  0.854866  0.166498  0.436225  1
  Al  Al8  1  0.487227  0.160239  0.557858  1
  Al  Al9  1  0.520655  0.833383  0.439267  1
  Al  Al10  1  0.218186  0.165194  0.327969  1
  Al  Al11  1  0.776944  0.839322  0.673649  1
  Al  Al12  1  0.440541  0.507409  0.674008  1
  Al  Al13  1  0.563556  0.493378  0.327472  1
  Al  Al14  1  0.108042  0.153610  0.672453  1
  Al  Al15  1  0.891118  0.839883  0.328814  1
  Al  Al16  1  0.354020  0.499162  0.945225  1
  Al  Al17  1  0.646727  0.500822  0.056113  1
  Al  Al18  1  0.014582  0.167755  0.954851  1
  Al  Al19  1  0.984196  0.832146  0.046974  1
  Al  Al20  1  0.188375  0.499794  0.435832  1
  Al  Al21  1  0.807263  0.499741  0.557851  1
  Al  Al22  1  0.733292  0.163680  0.183733  1
  Al  Al23  1  0.267909  0.835395  0.816753  1
  Al  Al24  1  0.059934  0.634612  0.818475  1
  Al  Al25  1  0.938238  0.369577  0.185089  1
  Al  Al26  1  0.853712  0.043407  0.816517  1
  Al  Al27  1  0.145344  0.957549  0.183922  1
  Pd  Pd28  1  0.879800  0.508195  0.361280  1
  Pd  Pd29  1  0.657074  0.171466  0.999822  1
  Pd  Pd30  1  0.343047  0.828133  0.999979  1
  Pd  Pd31  1  0.537601  0.166691  0.361479  1
  Pd  Pd32  1  0.462536  0.832640  0.637773  1
  Pd  Pd33  1  0.778833  0.175092  0.637143  1
  Pd  Pd34  1  0.221976  0.824633  0.361981  1
  Pd  Pd35  1  0.999952  0.499905  0.000221  1
  Au  Au36  1  0.119836  0.491073  0.637882  1
