# generated using pymatgen
data_HoThZn5Ge
_symmetry_space_group_name_H-M   'P 1'
_cell_length_a   8.34126000
_cell_length_b   8.34126062
_cell_length_c   8.85856900
_cell_angle_alpha   90.00000000
_cell_angle_beta   90.00000000
_cell_angle_gamma   150.04736656
_symmetry_Int_Tables_number   1
_chemical_formula_structural   HoThZn5Ge
_chemical_formula_sum   'Ho2 Th2 Zn10 Ge2'
_cell_volume   307.73328270
_cell_formula_units_Z   2
loop_
 _symmetry_equiv_pos_site_id
 _symmetry_equiv_pos_as_xyz
  1  'x, y, z'
loop_
 _atom_site_type_symbol
 _atom_site_label
 _atom_site_symmetry_multiplicity
 _atom_site_fract_x
 _atom_site_fract_y
 _atom_site_fract_z
 _atom_site_occupancy
  Ho  Ho0  1  0.198752  0.801248  0.250000  1
  Ho  Ho1  1  0.801248  0.198752  0.750000  1
  Th  Th2  1  0.000000  0.000000  0.500000  1
  Th  Th3  1  0.000000  0.000000  0.000000  1
  Zn  Zn4  1  0.811788  0.188212  0.393270  1
  Zn  Zn5  1  0.188212  0.811788  0.606730  1
  Zn  Zn6  1  0.811788  0.188212  0.106730  1
  Zn  Zn7  1  0.188212  0.811788  0.893270  1
  Zn  Zn8  1  0.652976  0.347024  0.475490  1
  Zn  Zn9  1  0.347024  0.652976  0.524510  1
  Zn  Zn10  1  0.652976  0.347024  0.024510  1
  Zn  Zn11  1  0.347024  0.652976  0.975490  1
  Zn  Zn12  1  0.399011  0.600989  0.250000  1
  Zn  Zn13  1  0.600989  0.399011  0.750000  1
  Ge  Ge14  1  0.555135  0.444865  0.250000  1
  Ge  Ge15  1  0.444865  0.555135  0.750000  1
