# generated using pymatgen
data_Rb8Na4DyHo3Sb8
_symmetry_space_group_name_H-M   'P 1'
_cell_length_a   11.32608833
_cell_length_b   11.32608670
_cell_length_c   7.47570191
_cell_angle_alpha   90.02271429
_cell_angle_beta   89.97728531
_cell_angle_gamma   98.57186685
_symmetry_Int_Tables_number   1
_chemical_formula_structural   Rb8Na4DyHo3Sb8
_chemical_formula_sum   'Rb8 Na4 Dy1 Ho3 Sb8'
_cell_volume   948.27267980
_cell_formula_units_Z   1
loop_
 _symmetry_equiv_pos_site_id
 _symmetry_equiv_pos_as_xyz
  1  'x, y, z'
loop_
 _atom_site_type_symbol
 _atom_site_label
 _atom_site_symmetry_multiplicity
 _atom_site_fract_x
 _atom_site_fract_y
 _atom_site_fract_z
 _atom_site_occupancy
  Rb  Rb0  1  0.070389  0.429868  0.250145  1
  Rb  Rb1  1  0.429868  0.070389  0.749855  1
  Rb  Rb2  1  0.929591  0.570394  0.749961  1
  Rb  Rb3  1  0.570394  0.929591  0.250039  1
  Rb  Rb4  1  0.676894  0.323124  0.215225  1
  Rb  Rb5  1  0.822962  0.176847  0.714936  1
  Rb  Rb6  1  0.323124  0.676894  0.784775  1
  Rb  Rb7  1  0.176847  0.822962  0.285064  1
  Na  Na8  1  0.382629  0.382629  0.000000  1
  Na  Na9  1  0.117449  0.117449  0.500000  1
  Na  Na10  1  0.617339  0.617339  0.000000  1
  Na  Na11  1  0.882513  0.882513  0.500000  1
  Dy  Dy12  1  0.130870  0.130870  0.000000  1
  Ho  Ho13  1  0.369335  0.369335  0.500000  1
  Ho  Ho14  1  0.869186  0.869186  0.000000  1
  Ho  Ho15  1  0.630524  0.630524  0.500000  1
  Sb  Sb16  1  0.846520  0.653468  0.249966  1
  Sb  Sb17  1  0.653468  0.846520  0.750034  1
  Sb  Sb18  1  0.153655  0.347309  0.749071  1
  Sb  Sb19  1  0.347309  0.153655  0.250929  1
  Sb  Sb20  1  0.898801  0.100254  0.211700  1
  Sb  Sb21  1  0.600424  0.399653  0.711017  1
  Sb  Sb22  1  0.100254  0.898801  0.788300  1
  Sb  Sb23  1  0.399653  0.600424  0.288983  1
