# generated using pymatgen
data_Pr4TmSi2Hg
_symmetry_space_group_name_H-M   'P 1'
_cell_length_a   7.62924171
_cell_length_b   7.62924146
_cell_length_c   9.44426560
_cell_angle_alpha   113.82276190
_cell_angle_beta   113.82275627
_cell_angle_gamma   90.00001161
_symmetry_Int_Tables_number   1
_chemical_formula_structural   Pr4TmSi2Hg
_chemical_formula_sum   'Pr8 Tm2 Si4 Hg2'
_cell_volume   451.20009213
_cell_formula_units_Z   2
loop_
 _symmetry_equiv_pos_site_id
 _symmetry_equiv_pos_as_xyz
  1  'x, y, z'
loop_
 _atom_site_type_symbol
 _atom_site_label
 _atom_site_symmetry_multiplicity
 _atom_site_fract_x
 _atom_site_fract_y
 _atom_site_fract_z
 _atom_site_occupancy
  Pr  Pr0  1  0.961569  0.813263  0.274832  1
  Pr  Pr1  1  0.313263  0.461569  0.274832  1
  Pr  Pr2  1  0.813263  0.313263  0.274832  1
  Pr  Pr3  1  0.461569  0.961569  0.274832  1
  Pr  Pr4  1  0.038431  0.186737  0.725168  1
  Pr  Pr5  1  0.686737  0.538431  0.725168  1
  Pr  Pr6  1  0.186737  0.686737  0.725168  1
  Pr  Pr7  1  0.538431  0.038431  0.725168  1
  Tm  Tm8  1  0.500000  0.500000  0.000000  1
  Tm  Tm9  1  0.000000  0.000000  0.000000  1
  Si  Si10  1  0.620753  0.879247  0.000000  1
  Si  Si11  1  0.379247  0.120753  0.000000  1
  Si  Si12  1  0.879247  0.379247  0.000000  1
  Si  Si13  1  0.120753  0.620753  0.000000  1
  Hg  Hg14  1  0.750000  0.750000  0.500000  1
  Hg  Hg15  1  0.250000  0.250000  0.500000  1
