# generated using pymatgen
data_Th3ZnIr8
_symmetry_space_group_name_H-M   'P 1'
_cell_length_a   9.26496225
_cell_length_b   9.26496142
_cell_length_c   9.26496100
_cell_angle_alpha   33.87944669
_cell_angle_beta   33.87944328
_cell_angle_gamma   33.87944295
_symmetry_Int_Tables_number   1
_chemical_formula_structural   Th3ZnIr8
_chemical_formula_sum   'Th3 Zn1 Ir8'
_cell_volume   220.24826393
_cell_formula_units_Z   1
loop_
 _symmetry_equiv_pos_site_id
 _symmetry_equiv_pos_as_xyz
  1  'x, y, z'
loop_
 _atom_site_type_symbol
 _atom_site_label
 _atom_site_symmetry_multiplicity
 _atom_site_fract_x
 _atom_site_fract_y
 _atom_site_fract_z
 _atom_site_occupancy
  Th  Th0  1  0.859441  0.859441  0.859441  1
  Th  Th1  1  0.136940  0.136940  0.136940  1
  Th  Th2  1  0.999585  0.999585  0.999585  1
  Zn  Zn3  1  0.335417  0.335417  0.335417  1
  Ir  Ir4  1  0.414474  0.924426  0.414474  1
  Ir  Ir5  1  0.414474  0.414474  0.924426  1
  Ir  Ir6  1  0.924426  0.414474  0.414474  1
  Ir  Ir7  1  0.583848  0.079970  0.583848  1
  Ir  Ir8  1  0.583848  0.583848  0.079970  1
  Ir  Ir9  1  0.079970  0.583848  0.583848  1
  Ir  Ir10  1  0.665937  0.665937  0.665937  1
  Ir  Ir11  1  0.501643  0.501643  0.501643  1
