# generated using pymatgen
data_CaLa8Tb11Ga16
_symmetry_space_group_name_H-M   'P 1'
_cell_length_a   8.04440216
_cell_length_b   8.04440308
_cell_length_c   15.11720800
_cell_angle_alpha   89.94174555
_cell_angle_beta   90.05825445
_cell_angle_gamma   90.07522232
_symmetry_Int_Tables_number   1
_chemical_formula_structural   CaLa8Tb11Ga16
_chemical_formula_sum   'Ca1 La8 Tb11 Ga16'
_cell_volume   978.26916193
_cell_formula_units_Z   1
loop_
 _symmetry_equiv_pos_site_id
 _symmetry_equiv_pos_as_xyz
  1  'x, y, z'
loop_
 _atom_site_type_symbol
 _atom_site_label
 _atom_site_symmetry_multiplicity
 _atom_site_fract_x
 _atom_site_fract_y
 _atom_site_fract_z
 _atom_site_occupancy
  Ca  Ca0  1  0.681963  0.681963  0.500000  1
  La  La1  1  0.986272  0.637805  0.041953  1
  La  La2  1  0.011907  0.361045  0.542348  1
  La  La3  1  0.637805  0.986272  0.958047  1
  La  La4  1  0.141193  0.514771  0.791287  1
  La  La5  1  0.863590  0.487891  0.293269  1
  La  La6  1  0.514771  0.141193  0.208713  1
  La  La7  1  0.487891  0.863590  0.706731  1
  La  La8  1  0.361045  0.011907  0.457652  1
  Tb  Tb9  1  0.359301  0.491643  0.375222  1
  Tb  Tb10  1  0.859101  0.006654  0.375576  1
  Tb  Tb11  1  0.990488  0.140406  0.124258  1
  Tb  Tb12  1  0.006654  0.859101  0.624424  1
  Tb  Tb13  1  0.641177  0.509413  0.874579  1
  Tb  Tb14  1  0.491643  0.359301  0.624778  1
  Tb  Tb15  1  0.509413  0.641177  0.125421  1
  Tb  Tb16  1  0.140406  0.990488  0.875742  1
  Tb  Tb17  1  0.817867  0.184183  0.749431  1
  Tb  Tb18  1  0.184183  0.817867  0.250569  1
  Tb  Tb19  1  0.317279  0.317279  0.000000  1
  Ga  Ga20  1  0.071972  0.718135  0.437274  1
  Ga  Ga21  1  0.934938  0.284071  0.938582  1
  Ga  Ga22  1  0.718135  0.071972  0.562726  1
  Ga  Ga23  1  0.214470  0.434165  0.187959  1
  Ga  Ga24  1  0.786993  0.562327  0.691401  1
  Ga  Ga25  1  0.434165  0.214470  0.812041  1
  Ga  Ga26  1  0.562327  0.786993  0.308599  1
  Ga  Ga27  1  0.284071  0.934938  0.061418  1
  Ga  Ga28  1  0.844184  0.800121  0.808155  1
  Ga  Ga29  1  0.154922  0.200618  0.308174  1
  Ga  Ga30  1  0.800121  0.844184  0.191845  1
  Ga  Ga31  1  0.292896  0.651009  0.560927  1
  Ga  Ga32  1  0.700300  0.344928  0.057993  1
  Ga  Ga33  1  0.651009  0.292896  0.439073  1
  Ga  Ga34  1  0.344928  0.700300  0.942007  1
  Ga  Ga35  1  0.200618  0.154922  0.691826  1
