# generated using pymatgen
data_Eu3Cd2HgAu3
_symmetry_space_group_name_H-M   'P 1'
_cell_length_a   8.07194900
_cell_length_b   7.94489954
_cell_length_c   4.13500700
_cell_angle_alpha   90.00000000
_cell_angle_beta   90.00000000
_cell_angle_gamma   120.53040959
_symmetry_Int_Tables_number   1
_chemical_formula_structural   Eu3Cd2HgAu3
_chemical_formula_sum   'Eu3 Cd2 Hg1 Au3'
_cell_volume   228.41656660
_cell_formula_units_Z   1
loop_
 _symmetry_equiv_pos_site_id
 _symmetry_equiv_pos_as_xyz
  1  'x, y, z'
loop_
 _atom_site_type_symbol
 _atom_site_label
 _atom_site_symmetry_multiplicity
 _atom_site_fract_x
 _atom_site_fract_y
 _atom_site_fract_z
 _atom_site_occupancy
  Eu  Eu0  1  0.408743  0.000000  0.000000  1
  Eu  Eu1  1  0.599313  0.606099  0.000000  1
  Eu  Eu2  1  0.993214  0.393901  0.000000  1
  Cd  Cd3  1  0.259650  0.256083  0.500000  1
  Cd  Cd4  1  0.003566  0.743917  0.500000  1
  Hg  Hg5  1  0.738862  0.000000  0.500000  1
  Au  Au6  1  0.664849  0.343461  0.500000  1
  Au  Au7  1  0.321387  0.656539  0.500000  1
  Au  Au8  1  0.010416  0.000000  0.000000  1
