# generated using pymatgen
data_Ac2HfPa3N8
_symmetry_space_group_name_H-M   'P 1'
_cell_length_a   7.15684202
_cell_length_b   6.93387359
_cell_length_c   6.93477548
_cell_angle_alpha   117.91226078
_cell_angle_beta   89.97225611
_cell_angle_gamma   121.07842028
_symmetry_Int_Tables_number   1
_chemical_formula_structural   Ac2HfPa3N8
_chemical_formula_sum   'Ac2 Hf1 Pa3 N8'
_cell_volume   246.87388191
_cell_formula_units_Z   1
loop_
 _symmetry_equiv_pos_site_id
 _symmetry_equiv_pos_as_xyz
  1  'x, y, z'
loop_
 _atom_site_type_symbol
 _atom_site_label
 _atom_site_symmetry_multiplicity
 _atom_site_fract_x
 _atom_site_fract_y
 _atom_site_fract_z
 _atom_site_occupancy
  Ac  Ac0  1  0.998023  0.996052  0.002032  1
  Ac  Ac1  1  0.751978  0.503948  0.247968  1
  Hf  Hf2  1  0.375000  0.750000  0.624999  1
  Pa  Pa3  1  0.375000  0.750000  0.125000  1
  Pa  Pa4  1  0.375000  0.249999  0.624999  1
  Pa  Pa5  1  0.874999  0.249999  0.625000  1
  N  N6  1  0.604152  0.208597  0.395362  1
  N  N7  1  0.187429  0.789733  0.397871  1
  N  N8  1  0.602281  0.789675  0.398061  1
  N  N9  1  0.147833  0.295871  0.437394  1
  N  N10  1  0.602166  0.204130  0.812606  1
  N  N11  1  0.147719  0.710324  0.851937  1
  N  N12  1  0.145849  0.291404  0.854638  1
  N  N13  1  0.562571  0.710266  0.852129  1
