# generated using pymatgen
data_Y10NiHg3
_symmetry_space_group_name_H-M   'P 1'
_cell_length_a   9.71772700
_cell_length_b   9.71772723
_cell_length_c   9.54179200
_cell_angle_alpha   90.00000000
_cell_angle_beta   90.00000000
_cell_angle_gamma   119.99999582
_symmetry_Int_Tables_number   1
_chemical_formula_structural   Y10NiHg3
_chemical_formula_sum   'Y20 Ni2 Hg6'
_cell_volume   780.35100472
_cell_formula_units_Z   2
loop_
 _symmetry_equiv_pos_site_id
 _symmetry_equiv_pos_as_xyz
  1  'x, y, z'
loop_
 _atom_site_type_symbol
 _atom_site_label
 _atom_site_symmetry_multiplicity
 _atom_site_fract_x
 _atom_site_fract_y
 _atom_site_fract_z
 _atom_site_occupancy
  Y  Y0  1  0.000000  0.000000  0.500000  1
  Y  Y1  1  0.000000  0.000000  0.000000  1
  Y  Y2  1  0.543264  0.456736  0.250000  1
  Y  Y3  1  0.543264  0.086529  0.250000  1
  Y  Y4  1  0.913471  0.456736  0.250000  1
  Y  Y5  1  0.456736  0.543264  0.750000  1
  Y  Y6  1  0.456736  0.913471  0.750000  1
  Y  Y7  1  0.086529  0.543264  0.750000  1
  Y  Y8  1  0.209498  0.790502  0.435775  1
  Y  Y9  1  0.209498  0.418997  0.435775  1
  Y  Y10  1  0.581003  0.790502  0.435775  1
  Y  Y11  1  0.790502  0.209498  0.564225  1
  Y  Y12  1  0.790502  0.581003  0.564225  1
  Y  Y13  1  0.418997  0.209498  0.564225  1
  Y  Y14  1  0.790502  0.209498  0.935775  1
  Y  Y15  1  0.790502  0.581003  0.935775  1
  Y  Y16  1  0.418997  0.209498  0.935775  1
  Y  Y17  1  0.209498  0.790502  0.064225  1
  Y  Y18  1  0.209498  0.418997  0.064225  1
  Y  Y19  1  0.581003  0.790502  0.064225  1
  Ni  Ni20  1  0.333333  0.666667  0.250000  1
  Ni  Ni21  1  0.666667  0.333333  0.750000  1
  Hg  Hg22  1  0.878873  0.121127  0.250000  1
  Hg  Hg23  1  0.878873  0.757746  0.250000  1
  Hg  Hg24  1  0.242254  0.121127  0.250000  1
  Hg  Hg25  1  0.121127  0.878873  0.750000  1
  Hg  Hg26  1  0.121127  0.242254  0.750000  1
  Hg  Hg27  1  0.757746  0.878873  0.750000  1
