# generated using pymatgen
data_Sr4In2IrPt3
_symmetry_space_group_name_H-M   'P 1'
_cell_length_a   6.04287227
_cell_length_b   6.00606092
_cell_length_c   8.39747504
_cell_angle_alpha   78.47817390
_cell_angle_beta   78.18346990
_cell_angle_gamma   60.29314103
_symmetry_Int_Tables_number   1
_chemical_formula_structural   Sr4In2IrPt3
_chemical_formula_sum   'Sr4 In2 Ir1 Pt3'
_cell_volume   257.37430352
_cell_formula_units_Z   1
loop_
 _symmetry_equiv_pos_site_id
 _symmetry_equiv_pos_as_xyz
  1  'x, y, z'
loop_
 _atom_site_type_symbol
 _atom_site_label
 _atom_site_symmetry_multiplicity
 _atom_site_fract_x
 _atom_site_fract_y
 _atom_site_fract_z
 _atom_site_occupancy
  Sr  Sr0  1  0.504324  0.789416  0.351268  1
  Sr  Sr1  1  0.210429  0.497482  0.144730  1
  Sr  Sr2  1  0.491140  0.210933  0.648478  1
  Sr  Sr3  1  0.792300  0.502703  0.855378  1
  In  In4  1  0.877700  0.126142  0.244048  1
  In  In5  1  0.131170  0.872279  0.755185  1
  Ir  Ir6  1  0.282618  0.997695  0.994792  1
  Pt  Pt7  1  0.001519  0.724561  0.506733  1
  Pt  Pt8  1  0.711332  0.001470  0.003792  1
  Pt  Pt9  1  0.997468  0.277321  0.495596  1
