# generated using pymatgen
data_Sc3GaAg3Ge2
_symmetry_space_group_name_H-M   'P 1'
_cell_length_a   6.97357700
_cell_length_b   6.97357776
_cell_length_c   4.01737900
_cell_angle_alpha   90.00000000
_cell_angle_beta   90.00000000
_cell_angle_gamma   119.99999167
_symmetry_Int_Tables_number   1
_chemical_formula_structural   Sc3GaAg3Ge2
_chemical_formula_sum   'Sc3 Ga1 Ag3 Ge2'
_cell_volume   169.19390793
_cell_formula_units_Z   1
loop_
 _symmetry_equiv_pos_site_id
 _symmetry_equiv_pos_as_xyz
  1  'x, y, z'
loop_
 _atom_site_type_symbol
 _atom_site_label
 _atom_site_symmetry_multiplicity
 _atom_site_fract_x
 _atom_site_fract_y
 _atom_site_fract_z
 _atom_site_occupancy
  Sc  Sc0  1  0.422128  0.422128  0.000000  1
  Sc  Sc1  1  0.577872  0.000000  0.000000  1
  Sc  Sc2  1  0.000000  0.577872  0.000000  1
  Ga  Ga3  1  0.000000  0.000000  0.000000  1
  Ag  Ag4  1  0.748414  0.748414  0.500000  1
  Ag  Ag5  1  0.251586  0.000000  0.500000  1
  Ag  Ag6  1  0.000000  0.251586  0.500000  1
  Ge  Ge7  1  0.666667  0.333333  0.500000  1
  Ge  Ge8  1  0.333333  0.666667  0.500000  1
