# generated using pymatgen
data_Tb5Dy5Ho10(CoSb2)4
_symmetry_space_group_name_H-M   'P 1'
_cell_length_a   7.89501812
_cell_length_b   8.75755595
_cell_length_c   12.17321027
_cell_angle_alpha   90.01804979
_cell_angle_beta   90.00189537
_cell_angle_gamma   90.02136046
_symmetry_Int_Tables_number   1
_chemical_formula_structural   Tb5Dy5Ho10(CoSb2)4
_chemical_formula_sum   'Tb5 Dy5 Ho10 Co4 Sb8'
_cell_volume   841.66859691
_cell_formula_units_Z   1
loop_
 _symmetry_equiv_pos_site_id
 _symmetry_equiv_pos_as_xyz
  1  'x, y, z'
loop_
 _atom_site_type_symbol
 _atom_site_label
 _atom_site_symmetry_multiplicity
 _atom_site_fract_x
 _atom_site_fract_y
 _atom_site_fract_z
 _atom_site_occupancy
  Tb  Tb0  1  0.622254  0.750326  0.306135  1
  Tb  Tb1  1  0.121837  0.250140  0.193524  1
  Tb  Tb2  1  0.378573  0.249577  0.693891  1
  Tb  Tb3  1  0.878126  0.749980  0.806359  1
  Tb  Tb4  1  0.320570  0.464521  0.435114  1
  Dy  Dy5  1  0.154625  0.750030  0.203052  1
  Dy  Dy6  1  0.655028  0.249763  0.296815  1
  Dy  Dy7  1  0.845170  0.249994  0.796844  1
  Dy  Dy8  1  0.345146  0.750154  0.703126  1
  Dy  Dy9  1  0.453181  0.750042  0.997819  1
  Ho  Ho10  1  0.952440  0.249765  0.502154  1
  Ho  Ho11  1  0.546928  0.249945  0.002064  1
  Ho  Ho12  1  0.046012  0.750340  0.497950  1
  Ho  Ho13  1  0.822157  0.964417  0.065008  1
  Ho  Ho14  1  0.322148  0.035620  0.435130  1
  Ho  Ho15  1  0.177817  0.464034  0.934936  1
  Ho  Ho16  1  0.678232  0.535865  0.565186  1
  Ho  Ho17  1  0.177807  0.035947  0.934901  1
  Ho  Ho18  1  0.677962  0.963940  0.565188  1
  Ho  Ho19  1  0.822108  0.535552  0.064960  1
  Co  Co20  1  0.433800  0.750333  0.490490  1
  Co  Co21  1  0.933376  0.249984  0.009431  1
  Co  Co22  1  0.567963  0.249394  0.509839  1
  Co  Co23  1  0.066469  0.750009  0.990514  1
  Sb  Sb24  1  0.928958  0.991691  0.327626  1
  Sb  Sb25  1  0.428738  0.008656  0.172501  1
  Sb  Sb26  1  0.071450  0.491608  0.672230  1
  Sb  Sb27  1  0.571390  0.508184  0.827533  1
  Sb  Sb28  1  0.071262  0.008429  0.672288  1
  Sb  Sb29  1  0.571527  0.991774  0.827663  1
  Sb  Sb30  1  0.927946  0.508539  0.327499  1
  Sb  Sb31  1  0.428999  0.491446  0.172225  1
