# generated using pymatgen
data_CeHo2Bi3
_symmetry_space_group_name_H-M   'P 1'
_cell_length_a   4.53660100
_cell_length_b   4.53659963
_cell_length_c   11.03045900
_cell_angle_alpha   90.00000000
_cell_angle_beta   90.00000000
_cell_angle_gamma   119.99998810
_symmetry_Int_Tables_number   1
_chemical_formula_structural   CeHo2Bi3
_chemical_formula_sum   'Ce1 Ho2 Bi3'
_cell_volume   196.60081143
_cell_formula_units_Z   1
loop_
 _symmetry_equiv_pos_site_id
 _symmetry_equiv_pos_as_xyz
  1  'x, y, z'
loop_
 _atom_site_type_symbol
 _atom_site_label
 _atom_site_symmetry_multiplicity
 _atom_site_fract_x
 _atom_site_fract_y
 _atom_site_fract_z
 _atom_site_occupancy
  Ce  Ce0  1  0.000000  0.000000  0.000000  1
  Ho  Ho1  1  0.333333  0.666667  0.661357  1
  Ho  Ho2  1  0.666667  0.333333  0.338643  1
  Bi  Bi3  1  0.333333  0.666667  0.174170  1
  Bi  Bi4  1  0.666667  0.333333  0.825830  1
  Bi  Bi5  1  0.000000  0.000000  0.500000  1
