# generated using pymatgen
data_Er7Tm3(Zn2Bi)2
_symmetry_space_group_name_H-M   'P 1'
_cell_length_a   8.55589481
_cell_length_b   8.55589494
_cell_length_c   8.55487937
_cell_angle_alpha   123.61500737
_cell_angle_beta   123.61500935
_cell_angle_gamma   83.84718593
_symmetry_Int_Tables_number   1
_chemical_formula_structural   Er7Tm3(Zn2Bi)2
_chemical_formula_sum   'Er7 Tm3 Zn4 Bi2'
_cell_volume   415.99081024
_cell_formula_units_Z   1
loop_
 _symmetry_equiv_pos_site_id
 _symmetry_equiv_pos_as_xyz
  1  'x, y, z'
loop_
 _atom_site_type_symbol
 _atom_site_label
 _atom_site_symmetry_multiplicity
 _atom_site_fract_x
 _atom_site_fract_y
 _atom_site_fract_z
 _atom_site_occupancy
  Er  Er0  1  0.205648  0.705648  0.195440  1
  Er  Er1  1  0.010298  0.205557  0.500021  1
  Er  Er2  1  0.705557  0.510298  0.500021  1
  Er  Er3  1  0.489696  0.989696  0.195050  1
  Er  Er4  1  0.794410  0.294410  0.804670  1
  Er  Er5  1  0.989814  0.794518  0.500064  1
  Er  Er6  1  0.294518  0.489814  0.500064  1
  Tm  Tm7  1  0.499983  0.499825  0.999907  1
  Tm  Tm8  1  0.999825  0.999983  0.999907  1
  Tm  Tm9  1  0.510371  0.010371  0.804606  1
  Zn  Zn10  1  0.139381  0.639381  0.778797  1
  Zn  Zn11  1  0.860475  0.360475  0.221047  1
  Zn  Zn12  1  0.639278  0.860721  0.500186  1
  Zn  Zn13  1  0.360721  0.139278  0.500186  1
  Bi  Bi14  1  0.250070  0.249956  0.000017  1
  Bi  Bi15  1  0.749956  0.750070  0.000017  1
