# generated using pymatgen
data_LaTm3(CuP)6
_symmetry_space_group_name_H-M   'P 1'
_cell_length_a   3.89389300
_cell_length_b   10.72041300
_cell_length_c   12.93719700
_cell_angle_alpha   90.00000000
_cell_angle_beta   90.00000000
_cell_angle_gamma   90.00000000
_symmetry_Int_Tables_number   1
_chemical_formula_structural   LaTm3(CuP)6
_chemical_formula_sum   'La2 Tm6 Cu12 P12'
_cell_volume   540.05217750
_cell_formula_units_Z   2
loop_
 _symmetry_equiv_pos_site_id
 _symmetry_equiv_pos_as_xyz
  1  'x, y, z'
loop_
 _atom_site_type_symbol
 _atom_site_label
 _atom_site_symmetry_multiplicity
 _atom_site_fract_x
 _atom_site_fract_y
 _atom_site_fract_z
 _atom_site_occupancy
  La  La0  1  0.250000  0.932978  0.791725  1
  La  La1  1  0.750000  0.432978  0.708275  1
  Tm  Tm2  1  0.250000  0.568807  0.292732  1
  Tm  Tm3  1  0.750000  0.068807  0.207268  1
  Tm  Tm4  1  0.250000  0.841094  0.498744  1
  Tm  Tm5  1  0.750000  0.341094  0.001256  1
  Tm  Tm6  1  0.250000  0.655486  0.005925  1
  Tm  Tm7  1  0.750000  0.155486  0.494075  1
  Cu  Cu8  1  0.250000  0.401777  0.509213  1
  Cu  Cu9  1  0.750000  0.901777  0.990787  1
  Cu  Cu10  1  0.250000  0.097972  0.014937  1
  Cu  Cu11  1  0.750000  0.597972  0.485063  1
  Cu  Cu12  1  0.250000  0.271698  0.331647  1
  Cu  Cu13  1  0.750000  0.771698  0.168353  1
  Cu  Cu14  1  0.250000  0.230450  0.834500  1
  Cu  Cu15  1  0.750000  0.730450  0.665500  1
  Cu  Cu16  1  0.250000  0.859202  0.278355  1
  Cu  Cu17  1  0.750000  0.359202  0.221645  1
  Cu  Cu18  1  0.250000  0.642244  0.784122  1
  Cu  Cu19  1  0.750000  0.142244  0.715878  1
  P  P20  1  0.250000  0.236149  0.639699  1
  P  P21  1  0.750000  0.736149  0.860301  1
  P  P22  1  0.250000  0.257386  0.144231  1
  P  P23  1  0.750000  0.757386  0.355769  1
  P  P24  1  0.250000  0.609869  0.599582  1
  P  P25  1  0.750000  0.109869  0.900418  1
  P  P26  1  0.250000  0.895362  0.099918  1
  P  P27  1  0.750000  0.395362  0.400082  1
  P  P28  1  0.250000  0.056446  0.367077  1
  P  P29  1  0.750000  0.556446  0.132923  1
  P  P30  1  0.250000  0.443079  0.878731  1
  P  P31  1  0.750000  0.943079  0.621269  1
