# generated using pymatgen
data_Ho2V3Ni9P7
_symmetry_space_group_name_H-M   'P 1'
_cell_length_a   9.14974500
_cell_length_b   9.14974509
_cell_length_c   3.64839900
_cell_angle_alpha   90.00000000
_cell_angle_beta   90.00000000
_cell_angle_gamma   119.99999606
_symmetry_Int_Tables_number   1
_chemical_formula_structural   Ho2V3Ni9P7
_chemical_formula_sum   'Ho2 V3 Ni9 P7'
_cell_volume   264.51540050
_cell_formula_units_Z   1
loop_
 _symmetry_equiv_pos_site_id
 _symmetry_equiv_pos_as_xyz
  1  'x, y, z'
loop_
 _atom_site_type_symbol
 _atom_site_label
 _atom_site_symmetry_multiplicity
 _atom_site_fract_x
 _atom_site_fract_y
 _atom_site_fract_z
 _atom_site_occupancy
  Ho  Ho0  1  0.333333  0.666667  0.000000  1
  Ho  Ho1  1  0.666667  0.333333  0.500000  1
  V  V2  1  0.219028  0.117525  0.500000  1
  V  V3  1  0.882475  0.101504  0.500000  1
  V  V4  1  0.898496  0.780972  0.500000  1
  Ni  Ni5  1  0.125936  0.280012  0.000000  1
  Ni  Ni6  1  0.719988  0.845924  0.000000  1
  Ni  Ni7  1  0.154076  0.874064  0.000000  1
  Ni  Ni8  1  0.433434  0.371079  0.000000  1
  Ni  Ni9  1  0.628921  0.062355  0.000000  1
  Ni  Ni10  1  0.937645  0.566566  0.000000  1
  Ni  Ni11  1  0.054869  0.438059  0.500000  1
  Ni  Ni12  1  0.561941  0.616810  0.500000  1
  Ni  Ni13  1  0.383190  0.945131  0.500000  1
  P  P14  1  0.291533  0.404469  0.500000  1
  P  P15  1  0.595531  0.887064  0.500000  1
  P  P16  1  0.112936  0.708467  0.500000  1
  P  P17  1  0.408281  0.113036  0.000000  1
  P  P18  1  0.886964  0.295245  0.000000  1
  P  P19  1  0.704755  0.591719  0.000000  1
  P  P20  1  0.000000  0.000000  0.000000  1
