# generated using pymatgen
data_Bi2H8Br
_symmetry_space_group_name_H-M   'P 1'
_cell_length_a   4.28550611
_cell_length_b   6.75149899
_cell_length_c   10.35690150
_cell_angle_alpha   88.08689673
_cell_angle_beta   94.18407428
_cell_angle_gamma   73.61871481
_symmetry_Int_Tables_number   1
_chemical_formula_structural   Bi2H8Br
_chemical_formula_sum   'Bi2 H8 Br1'
_cell_volume   286.27534188
_cell_formula_units_Z   1
loop_
 _symmetry_equiv_pos_site_id
 _symmetry_equiv_pos_as_xyz
  1  'x, y, z'
loop_
 _atom_site_type_symbol
 _atom_site_label
 _atom_site_symmetry_multiplicity
 _atom_site_fract_x
 _atom_site_fract_y
 _atom_site_fract_z
 _atom_site_occupancy
  Bi  Bi0  1  0.509415  0.949928  0.973963  1
  Bi  Bi1  1  0.973574  0.087833  0.152126  1
  H  H2  1  0.425450  0.355776  0.421961  1
  H  H3  1  0.474488  0.581634  0.703165  1
  H  H4  1  0.744118  0.745174  0.380163  1
  H  H5  1  0.516220  0.416167  0.385195  1
  H  H6  1  0.120474  0.269231  0.734333  1
  H  H7  1  0.428023  0.562631  0.634408  1
  H  H8  1  0.963937  0.343205  0.705100  1
  H  H9  1  0.571487  0.757192  0.395359  1
  Br  Br10  1  0.660285  0.508234  0.046133  1
