# generated using pymatgen
data_TbPu(CBr)2
_symmetry_space_group_name_H-M   'P 1'
_cell_length_a   4.01028412
_cell_length_b   4.01028533
_cell_length_c   10.67438458
_cell_angle_alpha   81.57520591
_cell_angle_beta   81.57520150
_cell_angle_gamma   56.71560584
_symmetry_Int_Tables_number   1
_chemical_formula_structural   TbPu(CBr)2
_chemical_formula_sum   'Tb1 Pu1 C2 Br2'
_cell_volume   141.50540705
_cell_formula_units_Z   1
loop_
 _symmetry_equiv_pos_site_id
 _symmetry_equiv_pos_as_xyz
  1  'x, y, z'
loop_
 _atom_site_type_symbol
 _atom_site_label
 _atom_site_symmetry_multiplicity
 _atom_site_fract_x
 _atom_site_fract_y
 _atom_site_fract_z
 _atom_site_occupancy
  Tb  Tb0  1  0.408161  0.408161  0.861446  1
  Pu  Pu1  1  0.590067  0.590067  0.140001  1
  C  C2  1  0.909894  0.909894  0.032083  1
  C  C3  1  0.086202  0.086202  0.962418  1
  Br  Br4  1  0.796476  0.796476  0.681377  1
  Br  Br5  1  0.209201  0.209201  0.322675  1
