# generated using pymatgen
data_Ti6Al3Si(PtN)2
_symmetry_space_group_name_H-M   'P 1'
_cell_length_a   8.15666466
_cell_length_b   8.15245303
_cell_length_c   8.15245240
_cell_angle_alpha   59.97855360
_cell_angle_beta   59.98291063
_cell_angle_gamma   59.98291492
_symmetry_Int_Tables_number   1
_chemical_formula_structural   Ti6Al3Si(PtN)2
_chemical_formula_sum   'Ti12 Al6 Si2 Pt4 N4'
_cell_volume   383.17006115
_cell_formula_units_Z   2
loop_
 _symmetry_equiv_pos_site_id
 _symmetry_equiv_pos_as_xyz
  1  'x, y, z'
loop_
 _atom_site_type_symbol
 _atom_site_label
 _atom_site_symmetry_multiplicity
 _atom_site_fract_x
 _atom_site_fract_y
 _atom_site_fract_z
 _atom_site_occupancy
  Ti  Ti0  1  0.817286  0.817249  0.186228  1
  Ti  Ti1  1  0.067883  0.432304  0.431929  1
  Ti  Ti2  1  0.432586  0.063988  0.070840  1
  Ti  Ti3  1  0.070763  0.063772  0.432751  1
  Ti  Ti4  1  0.068197  0.432019  0.068113  1
  Ti  Ti5  1  0.432714  0.063772  0.432751  1
  Ti  Ti6  1  0.179237  0.817249  0.186228  1
  Ti  Ti7  1  0.182117  0.818071  0.817696  1
  Ti  Ti8  1  0.817414  0.179160  0.186012  1
  Ti  Ti9  1  0.818330  0.181887  0.817981  1
  Ti  Ti10  1  0.431670  0.432019  0.068113  1
  Ti  Ti11  1  0.181803  0.181887  0.817981  1
  Al  Al12  1  0.493830  0.835006  0.836562  1
  Al  Al13  1  0.834603  0.835006  0.836562  1
  Al  Al14  1  0.756170  0.413438  0.414994  1
  Al  Al15  1  0.415397  0.413438  0.414994  1
  Al  Al16  1  0.415955  0.414072  0.754017  1
  Al  Al17  1  0.834045  0.495983  0.835928  1
  Si  Si18  1  0.413916  0.758803  0.413364  1
  Si  Si19  1  0.836084  0.836636  0.491197  1
  Pt  Pt20  1  0.628036  0.122231  0.621696  1
  Pt  Pt21  1  0.621964  0.628304  0.127769  1
  Pt  Pt22  1  0.125000  0.630670  0.619330  1
  Pt  Pt23  1  0.625000  0.630670  0.619330  1
  N  N24  1  0.124830  0.625920  0.124421  1
  N  N25  1  0.125170  0.125579  0.624080  1
  N  N26  1  0.625000  0.125433  0.124567  1
  N  N27  1  0.125000  0.125433  0.124567  1
