# generated using pymatgen
data_LaPr3YSi4
_symmetry_space_group_name_H-M   'P 1'
_cell_length_a   7.86434237
_cell_length_b   7.86442750
_cell_length_c   15.39033729
_cell_angle_alpha   90.02170624
_cell_angle_beta   90.00442349
_cell_angle_gamma   90.06746308
_symmetry_Int_Tables_number   1
_chemical_formula_structural   LaPr3YSi4
_chemical_formula_sum   'La4 Pr12 Y4 Si16'
_cell_volume   951.86932080
_cell_formula_units_Z   4
loop_
 _symmetry_equiv_pos_site_id
 _symmetry_equiv_pos_as_xyz
  1  'x, y, z'
loop_
 _atom_site_type_symbol
 _atom_site_label
 _atom_site_symmetry_multiplicity
 _atom_site_fract_x
 _atom_site_fract_y
 _atom_site_fract_z
 _atom_site_occupancy
  La  La0  1  0.377374  0.014347  0.445780  1
  La  La1  1  0.485872  0.877090  0.696024  1
  La  La2  1  0.514015  0.122476  0.195214  1
  La  La3  1  0.877730  0.485739  0.304436  1
  Pr  Pr4  1  0.121126  0.512840  0.805065  1
  Pr  Pr5  1  0.621584  0.987011  0.945241  1
  Pr  Pr6  1  0.013123  0.379168  0.555253  1
  Pr  Pr7  1  0.986720  0.621369  0.054430  1
  Pr  Pr8  1  0.124877  0.975928  0.878756  1
  Pr  Pr9  1  0.524405  0.625810  0.128118  1
  Pr  Pr10  1  0.475896  0.374776  0.628732  1
  Pr  Pr11  1  0.625629  0.524715  0.871486  1
  Pr  Pr12  1  0.374506  0.475760  0.371434  1
  Pr  Pr13  1  0.875234  0.023672  0.378813  1
  Pr  Pr14  1  0.975955  0.124570  0.120851  1
  Pr  Pr15  1  0.024210  0.874819  0.621418  1
  Y  Y16  1  0.309551  0.309835  0.999960  1
  Y  Y17  1  0.190212  0.809448  0.249939  1
  Y  Y18  1  0.809933  0.190808  0.750137  1
  Y  Y19  1  0.690645  0.689822  0.500148  1
  Si  Si20  1  0.187781  0.172415  0.708797  1
  Si  Si21  1  0.327802  0.687859  0.958428  1
  Si  Si22  1  0.672522  0.311924  0.459177  1
  Si  Si23  1  0.688563  0.328450  0.040936  1
  Si  Si24  1  0.311538  0.671131  0.541031  1
  Si  Si25  1  0.812397  0.827968  0.208699  1
  Si  Si26  1  0.171377  0.188273  0.290651  1
  Si  Si27  1  0.828908  0.811877  0.791405  1
  Si  Si28  1  0.286360  0.920343  0.063225  1
  Si  Si29  1  0.579393  0.786276  0.313516  1
  Si  Si30  1  0.420712  0.213910  0.813708  1
  Si  Si31  1  0.786952  0.578564  0.686526  1
  Si  Si32  1  0.213150  0.421307  0.186059  1
  Si  Si33  1  0.713843  0.079855  0.563729  1
  Si  Si34  1  0.921055  0.286951  0.936316  1
  Si  Si35  1  0.079051  0.712896  0.436561  1
