# generated using pymatgen
data_Li3Tm4Co17As12
_symmetry_space_group_name_H-M   'P 1'
_cell_length_a   3.79229400
_cell_length_b   10.65382130
_cell_length_c   12.26159806
_cell_angle_alpha   89.98806108
_cell_angle_beta   90.00000000
_cell_angle_gamma   90.00000000
_symmetry_Int_Tables_number   1
_chemical_formula_structural   Li3Tm4Co17As12
_chemical_formula_sum   'Li3 Tm4 Co17 As12'
_cell_volume   495.39825569
_cell_formula_units_Z   1
loop_
 _symmetry_equiv_pos_site_id
 _symmetry_equiv_pos_as_xyz
  1  'x, y, z'
loop_
 _atom_site_type_symbol
 _atom_site_label
 _atom_site_symmetry_multiplicity
 _atom_site_fract_x
 _atom_site_fract_y
 _atom_site_fract_z
 _atom_site_occupancy
  Li  Li0  1  0.250000  0.699954  0.992163  1
  Li  Li1  1  0.250000  0.799367  0.492108  1
  Li  Li2  1  0.750000  0.299318  0.006696  1
  Tm  Tm3  1  0.250000  0.576238  0.700808  1
  Tm  Tm4  1  0.250000  0.924622  0.202162  1
  Tm  Tm5  1  0.750000  0.423539  0.299949  1
  Tm  Tm6  1  0.750000  0.075678  0.797662  1
  Co  Co7  1  0.750000  0.208245  0.506560  1
  Co  Co8  1  0.250000  0.405832  0.485401  1
  Co  Co9  1  0.250000  0.092325  0.985390  1
  Co  Co10  1  0.750000  0.590287  0.515938  1
  Co  Co11  1  0.750000  0.909001  0.015887  1
  Co  Co12  1  0.250000  0.216880  0.178643  1
  Co  Co13  1  0.250000  0.281383  0.671761  1
  Co  Co14  1  0.750000  0.784201  0.825110  1
  Co  Co15  1  0.750000  0.715079  0.325303  1
  Co  Co16  1  0.250000  0.881434  0.699002  1
  Co  Co17  1  0.250000  0.620188  0.199278  1
  Co  Co18  1  0.750000  0.118751  0.302330  1
  Co  Co19  1  0.750000  0.378181  0.798628  1
  Co  Co20  1  0.250000  0.465562  0.930571  1
  Co  Co21  1  0.250000  0.035250  0.431677  1
  Co  Co22  1  0.750000  0.532673  0.068007  1
  Co  Co23  1  0.750000  0.967702  0.567681  1
  As  As24  1  0.250000  0.420398  0.117087  1
  As  As25  1  0.250000  0.080338  0.614063  1
  As  As26  1  0.750000  0.578610  0.882316  1
  As  As27  1  0.750000  0.919324  0.383367  1
  As  As28  1  0.250000  0.264714  0.861892  1
  As  As29  1  0.250000  0.234503  0.367619  1
  As  As30  1  0.750000  0.733938  0.136962  1
  As  As31  1  0.750000  0.766365  0.636444  1
  As  As32  1  0.250000  0.601944  0.393256  1
  As  As33  1  0.250000  0.897439  0.893117  1
  As  As34  1  0.750000  0.396681  0.606345  1
  As  As35  1  0.750000  0.104060  0.108817  1
