# generated using pymatgen
data_Ce9Si6AgH2
_symmetry_space_group_name_H-M   'P 1'
_cell_length_a   8.37548508
_cell_length_b   8.37548411
_cell_length_c   8.37548500
_cell_angle_alpha   126.23655967
_cell_angle_beta   126.23656328
_cell_angle_gamma   79.49968955
_symmetry_Int_Tables_number   1
_chemical_formula_structural   Ce9Si6AgH2
_chemical_formula_sum   'Ce9 Si6 Ag1 H2'
_cell_volume   369.39684934
_cell_formula_units_Z   1
loop_
 _symmetry_equiv_pos_site_id
 _symmetry_equiv_pos_as_xyz
  1  'x, y, z'
loop_
 _atom_site_type_symbol
 _atom_site_label
 _atom_site_symmetry_multiplicity
 _atom_site_fract_x
 _atom_site_fract_y
 _atom_site_fract_z
 _atom_site_occupancy
  Ce  Ce0  1  0.000000  0.000000  0.000000  1
  Ce  Ce1  1  0.524595  0.030300  0.861020  1
  Ce  Ce2  1  0.169280  0.663576  0.138980  1
  Ce  Ce3  1  0.030300  0.169280  0.505705  1
  Ce  Ce4  1  0.663576  0.524595  0.494295  1
  Ce  Ce5  1  0.475405  0.969700  0.138980  1
  Ce  Ce6  1  0.830720  0.336424  0.861020  1
  Ce  Ce7  1  0.969700  0.830720  0.494295  1
  Ce  Ce8  1  0.336424  0.475405  0.505705  1
  Si  Si9  1  0.244410  0.244410  0.000000  1
  Si  Si10  1  0.755590  0.755590  0.000000  1
  Si  Si11  1  0.891224  0.385504  0.276729  1
  Si  Si12  1  0.108776  0.614496  0.723271  1
  Si  Si13  1  0.385504  0.108776  0.494279  1
  Si  Si14  1  0.614496  0.891224  0.505721  1
  Ag  Ag15  1  0.500000  0.500000  0.000000  1
  H  H16  1  0.250000  0.750000  0.500000  1
  H  H17  1  0.750000  0.250000  0.500000  1
