# generated using pymatgen
data_Ho2(CN2)3
_symmetry_space_group_name_H-M   'P 1'
_cell_length_a   7.40845900
_cell_length_b   7.40845970
_cell_length_c   5.22504506
_cell_angle_alpha   83.88064539
_cell_angle_beta   83.88064705
_cell_angle_gamma   29.62935904
_symmetry_Int_Tables_number   1
_chemical_formula_structural   Ho2(CN2)3
_chemical_formula_sum   'Ho2 C3 N6'
_cell_volume   140.91487186
_cell_formula_units_Z   1
loop_
 _symmetry_equiv_pos_site_id
 _symmetry_equiv_pos_as_xyz
  1  'x, y, z'
loop_
 _atom_site_type_symbol
 _atom_site_label
 _atom_site_symmetry_multiplicity
 _atom_site_fract_x
 _atom_site_fract_y
 _atom_site_fract_z
 _atom_site_occupancy
  Ho  Ho0  1  0.865853  0.865853  0.569446  1
  Ho  Ho1  1  0.134147  0.134147  0.430554  1
  C  C2  1  0.328133  0.328133  0.093705  1
  C  C3  1  0.671867  0.671867  0.906295  1
  C  C4  1  0.000000  0.000000  0.000000  1
  N  N5  1  0.988756  0.988756  0.237147  1
  N  N6  1  0.011244  0.011244  0.762853  1
  N  N7  1  0.689828  0.689828  0.666878  1
  N  N8  1  0.310172  0.310172  0.333122  1
  N  N9  1  0.657141  0.657141  0.140309  1
  N  N10  1  0.342859  0.342859  0.859691  1
