# generated using pymatgen
data_Tm12Fe4BiRu
_symmetry_space_group_name_H-M   'P 1'
_cell_length_a   8.23001641
_cell_length_b   8.23001569
_cell_length_c   8.23001572
_cell_angle_alpha   111.21453883
_cell_angle_beta   111.13798880
_cell_angle_gamma   106.11245756
_symmetry_Int_Tables_number   1
_chemical_formula_structural   Tm12Fe4BiRu
_chemical_formula_sum   'Tm12 Fe4 Bi1 Ru1'
_cell_volume   428.02347837
_cell_formula_units_Z   1
loop_
 _symmetry_equiv_pos_site_id
 _symmetry_equiv_pos_as_xyz
  1  'x, y, z'
loop_
 _atom_site_type_symbol
 _atom_site_label
 _atom_site_symmetry_multiplicity
 _atom_site_fract_x
 _atom_site_fract_y
 _atom_site_fract_z
 _atom_site_occupancy
  Tm  Tm0  1  0.278095  0.183602  0.461698  1
  Tm  Tm1  1  0.721905  0.816398  0.538302  1
  Tm  Tm2  1  0.278095  0.816398  0.094493  1
  Tm  Tm3  1  0.721905  0.183602  0.905507  1
  Tm  Tm4  1  0.616094  0.309750  0.306344  1
  Tm  Tm5  1  0.383906  0.690250  0.693656  1
  Tm  Tm6  1  0.003406  0.309750  0.693656  1
  Tm  Tm7  1  0.996594  0.690250  0.306344  1
  Tm  Tm8  1  0.215790  0.413245  0.197456  1
  Tm  Tm9  1  0.784210  0.586755  0.802544  1
  Tm  Tm10  1  0.215790  0.018335  0.802544  1
  Tm  Tm11  1  0.784210  0.981665  0.197456  1
  Fe  Fe12  1  0.000000  0.382172  0.382172  1
  Fe  Fe13  1  0.000000  0.617828  0.617828  1
  Fe  Fe14  1  0.393607  0.893607  0.500000  1
  Fe  Fe15  1  0.606393  0.106393  0.500000  1
  Bi  Bi16  1  0.500000  0.500000  0.000000  1
  Ru  Ru17  1  0.000000  0.000000  0.000000  1
