# generated using pymatgen
data_Tm4Lu4Mn(B8Ru)3
_symmetry_space_group_name_H-M   'P 1'
_cell_length_a   3.58141100
_cell_length_b   9.02561500
_cell_length_c   11.40016700
_cell_angle_alpha   89.99798177
_cell_angle_beta   90.00000000
_cell_angle_gamma   90.00000000
_symmetry_Int_Tables_number   1
_chemical_formula_structural   Tm4Lu4Mn(B8Ru)3
_chemical_formula_sum   'Tm4 Lu4 Mn1 B24 Ru3'
_cell_volume   368.50397807
_cell_formula_units_Z   1
loop_
 _symmetry_equiv_pos_site_id
 _symmetry_equiv_pos_as_xyz
  1  'x, y, z'
loop_
 _atom_site_type_symbol
 _atom_site_label
 _atom_site_symmetry_multiplicity
 _atom_site_fract_x
 _atom_site_fract_y
 _atom_site_fract_z
 _atom_site_occupancy
  Tm  Tm0  1  0.000000  0.325356  0.412614  1
  Tm  Tm1  1  0.000000  0.677346  0.582107  1
  Tm  Tm2  1  0.000000  0.819339  0.088653  1
  Tm  Tm3  1  0.000000  0.178589  0.915197  1
  Lu  Lu4  1  0.000000  0.940474  0.371480  1
  Lu  Lu5  1  0.000000  0.056618  0.627806  1
  Lu  Lu6  1  0.000000  0.446342  0.130021  1
  Lu  Lu7  1  0.000000  0.556339  0.872149  1
  Mn  Mn8  1  0.000000  0.638245  0.320414  1
  B  B9  1  0.500000  0.554187  0.431984  1
  B  B10  1  0.500000  0.446700  0.566137  1
  B  B11  1  0.500000  0.053591  0.066756  1
  B  B12  1  0.500000  0.946347  0.933604  1
  B  B13  1  0.500000  0.747173  0.417976  1
  B  B14  1  0.500000  0.250967  0.579792  1
  B  B15  1  0.500000  0.250069  0.080394  1
  B  B16  1  0.500000  0.750571  0.920178  1
  B  B17  1  0.500000  0.790218  0.266114  1
  B  B18  1  0.500000  0.207983  0.734563  1
  B  B19  1  0.500000  0.292651  0.234731  1
  B  B20  1  0.500000  0.708119  0.765250  1
  B  B21  1  0.500000  0.630971  0.186139  1
  B  B22  1  0.500000  0.369204  0.815994  1
  B  B23  1  0.500000  0.130657  0.315474  1
  B  B24  1  0.500000  0.869037  0.683955  1
  B  B25  1  0.500000  0.981227  0.213010  1
  B  B26  1  0.500000  0.018138  0.787201  1
  B  B27  1  0.500000  0.484351  0.287992  1
  B  B28  1  0.500000  0.518069  0.712663  1
  B  B29  1  0.500000  0.605107  0.029232  1
  B  B30  1  0.500000  0.395149  0.971410  1
  B  B31  1  0.500000  0.104403  0.470883  1
  B  B32  1  0.500000  0.895134  0.528547  1
  Ru  Ru33  1  0.000000  0.361332  0.679983  1
  Ru  Ru34  1  0.000000  0.138124  0.179303  1
  Ru  Ru35  1  0.000000  0.861871  0.820294  1
