# generated using pymatgen
data_CoSn16Pt3
_symmetry_space_group_name_H-M   'P 1'
_cell_length_a   12.67003382
_cell_length_b   12.67003396
_cell_length_c   12.67127669
_cell_angle_alpha   150.70228947
_cell_angle_beta   150.70229142
_cell_angle_gamma   41.89680015
_symmetry_Int_Tables_number   1
_chemical_formula_structural   CoSn16Pt3
_chemical_formula_sum   'Co1 Sn16 Pt3'
_cell_volume   485.97724901
_cell_formula_units_Z   1
loop_
 _symmetry_equiv_pos_site_id
 _symmetry_equiv_pos_as_xyz
  1  'x, y, z'
loop_
 _atom_site_type_symbol
 _atom_site_label
 _atom_site_symmetry_multiplicity
 _atom_site_fract_x
 _atom_site_fract_y
 _atom_site_fract_z
 _atom_site_occupancy
  Co  Co0  1  0.250000  0.250000  0.000000  1
  Sn  Sn1  1  0.764626  0.104963  0.999451  1
  Sn  Sn2  1  0.734827  0.394490  0.999453  1
  Sn  Sn3  1  0.507003  0.023611  0.154342  1
  Sn  Sn4  1  0.147339  0.630731  0.154342  1
  Sn  Sn5  1  0.234245  0.234625  0.340126  1
  Sn  Sn6  1  0.605881  0.605501  0.340126  1
  Sn  Sn7  1  0.992350  0.147374  0.516527  1
  Sn  Sn8  1  0.024177  0.869153  0.516527  1
  Sn  Sn9  1  0.630847  0.475823  0.483473  1
  Sn  Sn10  1  0.352626  0.507650  0.483473  1
  Sn  Sn11  1  0.265374  0.265756  0.659874  1
  Sn  Sn12  1  0.894500  0.894119  0.659874  1
  Sn  Sn13  1  0.869270  0.352661  0.845659  1
  Sn  Sn14  1  0.476389  0.992997  0.845659  1
  Sn  Sn15  1  0.395037  0.735374  0.000549  1
  Sn  Sn16  1  0.105510  0.765174  0.000548  1
  Pt  Pt17  1  0.750000  0.750000  0.000000  1
  Pt  Pt18  1  0.499999  0.000000  0.499999  1
  Pt  Pt19  1  0.000000  0.499999  0.499999  1
