# generated using pymatgen
data_Tm4Si4TcIr3
_symmetry_space_group_name_H-M   'P 1'
_cell_length_a   4.21373500
_cell_length_b   6.83319506
_cell_length_c   7.37178622
_cell_angle_alpha   89.93499539
_cell_angle_beta   90.00000000
_cell_angle_gamma   90.00000000
_symmetry_Int_Tables_number   1
_chemical_formula_structural   Tm4Si4TcIr3
_chemical_formula_sum   'Tm4 Si4 Tc1 Ir3'
_cell_volume   212.25771816
_cell_formula_units_Z   1
loop_
 _symmetry_equiv_pos_site_id
 _symmetry_equiv_pos_as_xyz
  1  'x, y, z'
loop_
 _atom_site_type_symbol
 _atom_site_label
 _atom_site_symmetry_multiplicity
 _atom_site_fract_x
 _atom_site_fract_y
 _atom_site_fract_z
 _atom_site_occupancy
  Tm  Tm0  1  0.250000  0.503680  0.184450  1
  Tm  Tm1  1  0.750000  0.494700  0.814226  1
  Tm  Tm2  1  0.750000  0.001247  0.687220  1
  Tm  Tm3  1  0.250000  0.996204  0.313217  1
  Si  Si4  1  0.250000  0.798884  0.884399  1
  Si  Si5  1  0.750000  0.203261  0.114839  1
  Si  Si6  1  0.750000  0.702775  0.393523  1
  Si  Si7  1  0.250000  0.297080  0.607793  1
  Tc  Tc8  1  0.250000  0.656445  0.565433  1
  Ir  Ir9  1  0.750000  0.340273  0.433453  1
  Ir  Ir10  1  0.750000  0.844669  0.064049  1
  Ir  Ir11  1  0.250000  0.160780  0.937399  1
