# generated using pymatgen
data_Sm3PdPt2Pb3
_symmetry_space_group_name_H-M   'P 1'
_cell_length_a   7.91801800
_cell_length_b   7.91801736
_cell_length_c   3.96337100
_cell_angle_alpha   90.00000000
_cell_angle_beta   90.00000000
_cell_angle_gamma   120.00000266
_symmetry_Int_Tables_number   1
_chemical_formula_structural   Sm3PdPt2Pb3
_chemical_formula_sum   'Sm3 Pd1 Pt2 Pb3'
_cell_volume   215.19307023
_cell_formula_units_Z   1
loop_
 _symmetry_equiv_pos_site_id
 _symmetry_equiv_pos_as_xyz
  1  'x, y, z'
loop_
 _atom_site_type_symbol
 _atom_site_label
 _atom_site_symmetry_multiplicity
 _atom_site_fract_x
 _atom_site_fract_y
 _atom_site_fract_z
 _atom_site_occupancy
  Sm  Sm0  1  0.403321  0.403321  0.500000  1
  Sm  Sm1  1  0.596679  0.000000  0.500000  1
  Sm  Sm2  1  0.000000  0.596679  0.500000  1
  Pd  Pd3  1  0.000000  0.000000  0.500000  1
  Pt  Pt4  1  0.666667  0.333333  0.000000  1
  Pt  Pt5  1  0.333333  0.666667  0.000000  1
  Pb  Pb6  1  0.737829  0.737829  0.000000  1
  Pb  Pb7  1  0.262171  0.000000  0.000000  1
  Pb  Pb8  1  0.000000  0.262171  0.000000  1
