# generated using pymatgen
data_ThGa7CuPd3
_symmetry_space_group_name_H-M   'P 1'
_cell_length_a   8.49854974
_cell_length_b   8.43920419
_cell_length_c   8.54963615
_cell_angle_alpha   89.75972322
_cell_angle_beta   90.02757167
_cell_angle_gamma   89.37056268
_symmetry_Int_Tables_number   1
_chemical_formula_structural   ThGa7CuPd3
_chemical_formula_sum   'Th3 Ga21 Cu3 Pd9'
_cell_volume   613.14594661
_cell_formula_units_Z   3
loop_
 _symmetry_equiv_pos_site_id
 _symmetry_equiv_pos_as_xyz
  1  'x, y, z'
loop_
 _atom_site_type_symbol
 _atom_site_label
 _atom_site_symmetry_multiplicity
 _atom_site_fract_x
 _atom_site_fract_y
 _atom_site_fract_z
 _atom_site_occupancy
  Th  Th0  1  0.001804  0.498806  0.000811  1
  Th  Th1  1  0.498896  0.002800  0.997988  1
  Th  Th2  1  0.998862  0.000584  0.499753  1
  Ga  Ga3  1  0.994117  0.634620  0.645563  1
  Ga  Ga4  1  0.645647  0.638063  0.998183  1
  Ga  Ga5  1  0.635418  0.990895  0.642140  1
  Ga  Ga6  1  0.002550  0.361809  0.360848  1
  Ga  Ga7  1  0.364785  0.363949  0.986340  1
  Ga  Ga8  1  0.358119  0.017806  0.359356  1
  Ga  Ga9  1  0.502471  0.733139  0.264073  1
  Ga  Ga10  1  0.263967  0.729116  0.503375  1
  Ga  Ga11  1  0.727229  0.268797  0.498815  1
  Ga  Ga12  1  0.834984  0.136249  0.837143  1
  Ga  Ga13  1  0.140526  0.835370  0.837119  1
  Ga  Ga14  1  0.838449  0.835046  0.142749  1
  Ga  Ga15  1  0.162305  0.865809  0.162622  1
  Ga  Ga16  1  0.860281  0.164819  0.165122  1
  Ga  Ga17  1  0.165714  0.165880  0.855970  1
  Ga  Ga18  1  0.718538  0.478646  0.733421  1
  Ga  Ga19  1  0.479421  0.718739  0.737532  1
  Ga  Ga20  1  0.736036  0.721392  0.482796  1
  Ga  Ga21  1  0.270040  0.498543  0.264230  1
  Ga  Ga22  1  0.521333  0.283393  0.260184  1
  Ga  Ga23  1  0.273388  0.281034  0.536318  1
  Cu  Cu24  1  0.741226  0.501164  0.262150  1
  Cu  Cu25  1  0.261800  0.503985  0.737236  1
  Cu  Cu26  1  0.501326  0.263104  0.733547  1
  Pd  Pd27  1  0.834157  0.830227  0.835521  1
  Pd  Pd28  1  0.167838  0.173412  0.162534  1
  Pd  Pd29  1  0.669192  0.332046  0.998025  1
  Pd  Pd30  1  0.992532  0.330353  0.665343  1
  Pd  Pd31  1  0.331521  0.994966  0.662260  1
  Pd  Pd32  1  0.334452  0.669459  0.006473  1
  Pd  Pd33  1  0.008190  0.668415  0.336411  1
  Pd  Pd34  1  0.664391  0.000839  0.334969  1
  Pd  Pd35  1  0.498493  0.506725  0.493080  1
