# generated using pymatgen
data_Tm2Fe3Ni7P6
_symmetry_space_group_name_H-M   'P 1'
_cell_length_a   3.68433700
_cell_length_b   10.26469900
_cell_length_c   11.86378800
_cell_angle_alpha   90.00000000
_cell_angle_beta   90.00000000
_cell_angle_gamma   90.00000000
_symmetry_Int_Tables_number   1
_chemical_formula_structural   Tm2Fe3Ni7P6
_chemical_formula_sum   'Tm4 Fe6 Ni14 P12'
_cell_volume   448.67197529
_cell_formula_units_Z   2
loop_
 _symmetry_equiv_pos_site_id
 _symmetry_equiv_pos_as_xyz
  1  'x, y, z'
loop_
 _atom_site_type_symbol
 _atom_site_label
 _atom_site_symmetry_multiplicity
 _atom_site_fract_x
 _atom_site_fract_y
 _atom_site_fract_z
 _atom_site_occupancy
  Tm  Tm0  1  0.250000  0.574649  0.704733  1
  Tm  Tm1  1  0.250000  0.925351  0.204733  1
  Tm  Tm2  1  0.750000  0.419235  0.294580  1
  Tm  Tm3  1  0.750000  0.080765  0.794580  1
  Fe  Fe4  1  0.750000  0.125487  0.298385  1
  Fe  Fe5  1  0.750000  0.374513  0.798385  1
  Fe  Fe6  1  0.250000  0.465374  0.932065  1
  Fe  Fe7  1  0.250000  0.034626  0.432065  1
  Fe  Fe8  1  0.750000  0.540383  0.069352  1
  Fe  Fe9  1  0.750000  0.959617  0.569352  1
  Ni  Ni10  1  0.250000  0.718979  0.998908  1
  Ni  Ni11  1  0.250000  0.781021  0.498908  1
  Ni  Ni12  1  0.750000  0.288685  0.007982  1
  Ni  Ni13  1  0.750000  0.211315  0.507982  1
  Ni  Ni14  1  0.250000  0.405909  0.483802  1
  Ni  Ni15  1  0.250000  0.094091  0.983802  1
  Ni  Ni16  1  0.750000  0.588605  0.512437  1
  Ni  Ni17  1  0.750000  0.911395  0.012437  1
  Ni  Ni18  1  0.250000  0.227394  0.172010  1
  Ni  Ni19  1  0.250000  0.272606  0.672010  1
  Ni  Ni20  1  0.750000  0.772377  0.824293  1
  Ni  Ni21  1  0.750000  0.727623  0.324293  1
  Ni  Ni22  1  0.250000  0.874340  0.703862  1
  Ni  Ni23  1  0.250000  0.625660  0.203862  1
  P  P24  1  0.250000  0.430248  0.112012  1
  P  P25  1  0.250000  0.069752  0.612012  1
  P  P26  1  0.750000  0.568979  0.886227  1
  P  P27  1  0.750000  0.931021  0.386227  1
  P  P28  1  0.250000  0.271637  0.864034  1
  P  P29  1  0.250000  0.228363  0.364034  1
  P  P30  1  0.750000  0.736387  0.132065  1
  P  P31  1  0.750000  0.763613  0.632065  1
  P  P32  1  0.250000  0.602415  0.392644  1
  P  P33  1  0.250000  0.897585  0.892644  1
  P  P34  1  0.750000  0.393598  0.610612  1
  P  P35  1  0.750000  0.106402  0.110612  1
