# generated using pymatgen
data_Ho9Lu(CoPd2)2
_symmetry_space_group_name_H-M   'P 1'
_cell_length_a   7.73022200
_cell_length_b   8.27511100
_cell_length_c   11.78781100
_cell_angle_alpha   89.99929377
_cell_angle_beta   90.00029648
_cell_angle_gamma   89.99998616
_symmetry_Int_Tables_number   1
_chemical_formula_structural   Ho9Lu(CoPd2)2
_chemical_formula_sum   'Ho18 Lu2 Co4 Pd8'
_cell_volume   754.04794086
_cell_formula_units_Z   2
loop_
 _symmetry_equiv_pos_site_id
 _symmetry_equiv_pos_as_xyz
  1  'x, y, z'
loop_
 _atom_site_type_symbol
 _atom_site_label
 _atom_site_symmetry_multiplicity
 _atom_site_fract_x
 _atom_site_fract_y
 _atom_site_fract_z
 _atom_site_occupancy
  Ho  Ho0  1  0.162700  0.749385  0.217390  1
  Ho  Ho1  1  0.662680  0.250663  0.282673  1
  Ho  Ho2  1  0.836987  0.250136  0.782723  1
  Ho  Ho3  1  0.337019  0.749870  0.717195  1
  Ho  Ho4  1  0.459600  0.749523  0.004738  1
  Ho  Ho5  1  0.959572  0.250474  0.495268  1
  Ho  Ho6  1  0.541434  0.250575  0.995597  1
  Ho  Ho7  1  0.041486  0.749439  0.504405  1
  Ho  Ho8  1  0.630864  0.749175  0.307982  1
  Ho  Ho9  1  0.130924  0.250808  0.192099  1
  Ho  Ho10  1  0.368730  0.250200  0.691459  1
  Ho  Ho11  1  0.868672  0.749803  0.808487  1
  Ho  Ho12  1  0.828131  0.964997  0.081939  1
  Ho  Ho13  1  0.328226  0.034930  0.418119  1
  Ho  Ho14  1  0.171454  0.465347  0.918459  1
  Ho  Ho15  1  0.671309  0.534625  0.581484  1
  Ho  Ho16  1  0.171772  0.034620  0.918219  1
  Ho  Ho17  1  0.671700  0.965367  0.581738  1
  Lu  Lu18  1  0.828656  0.534734  0.081896  1
  Lu  Lu19  1  0.328749  0.465322  0.418130  1
  Co  Co20  1  0.431449  0.749525  0.496661  1
  Co  Co21  1  0.931486  0.250474  0.003343  1
  Co  Co22  1  0.567394  0.250418  0.503057  1
  Co  Co23  1  0.067375  0.749584  0.996946  1
  Pd  Pd24  1  0.934275  0.985707  0.331670  1
  Pd  Pd25  1  0.434242  0.014299  0.168343  1
  Pd  Pd26  1  0.065456  0.485525  0.668244  1
  Pd  Pd27  1  0.565456  0.514456  0.831735  1
  Pd  Pd28  1  0.065569  0.014433  0.668257  1
  Pd  Pd29  1  0.565580  0.985589  0.831730  1
  Pd  Pd30  1  0.935531  0.514425  0.331035  1
  Pd  Pd31  1  0.435521  0.485573  0.168980  1
