# generated using pymatgen
data_MgSc(ZnNi)2
_symmetry_space_group_name_H-M   'P 1'
_cell_length_a   4.99433744
_cell_length_b   4.99433828
_cell_length_c   4.99433820
_cell_angle_alpha   119.66635945
_cell_angle_beta   118.49983761
_cell_angle_gamma   91.59848833
_symmetry_Int_Tables_number   1
_chemical_formula_structural   MgSc(ZnNi)2
_chemical_formula_sum   'Mg1 Sc1 Zn2 Ni2'
_cell_volume   89.26044851
_cell_formula_units_Z   1
loop_
 _symmetry_equiv_pos_site_id
 _symmetry_equiv_pos_as_xyz
  1  'x, y, z'
loop_
 _atom_site_type_symbol
 _atom_site_label
 _atom_site_symmetry_multiplicity
 _atom_site_fract_x
 _atom_site_fract_y
 _atom_site_fract_z
 _atom_site_occupancy
  Mg  Mg0  1  0.246902  0.746902  0.500000  1
  Sc  Sc1  1  0.008209  0.008209  0.000000  1
  Zn  Zn2  1  0.623695  0.873354  0.249660  1
  Zn  Zn3  1  0.623695  0.374035  0.750340  1
  Ni  Ni4  1  0.126040  0.373751  0.752290  1
  Ni  Ni5  1  0.621460  0.373751  0.247710  1
