# generated using pymatgen
data_Lu8ReSi16Tc11
_symmetry_space_group_name_H-M   'P 1'
_cell_length_a   6.74416929
_cell_length_b   6.74416929
_cell_length_c   12.57638622
_cell_angle_alpha   89.98472705
_cell_angle_beta   89.98472705
_cell_angle_gamma   90.02988652
_symmetry_Int_Tables_number   1
_chemical_formula_structural   Lu8ReSi16Tc11
_chemical_formula_sum   'Lu8 Re1 Si16 Tc11'
_cell_volume   572.02196124
_cell_formula_units_Z   1
loop_
 _symmetry_equiv_pos_site_id
 _symmetry_equiv_pos_as_xyz
  1  'x, y, z'
loop_
 _atom_site_type_symbol
 _atom_site_label
 _atom_site_symmetry_multiplicity
 _atom_site_fract_x
 _atom_site_fract_y
 _atom_site_fract_z
 _atom_site_occupancy
  Lu  Lu0  1  0.005291  0.660693  0.030534  1
  Lu  Lu1  1  0.994338  0.339150  0.530670  1
  Lu  Lu2  1  0.339307  0.994709  0.469466  1
  Lu  Lu3  1  0.160302  0.494512  0.780242  1
  Lu  Lu4  1  0.839486  0.505287  0.280440  1
  Lu  Lu5  1  0.494713  0.160514  0.219560  1
  Lu  Lu6  1  0.505488  0.839698  0.719758  1
  Lu  Lu7  1  0.660850  0.005662  0.969330  1
  Re  Re8  1  0.833393  0.166607  0.750000  1
  Si  Si9  1  0.023720  0.723114  0.436714  1
  Si  Si10  1  0.617138  0.306732  0.435179  1
  Si  Si11  1  0.382930  0.693252  0.935259  1
  Si  Si12  1  0.193700  0.116938  0.684850  1
  Si  Si13  1  0.306748  0.617070  0.564741  1
  Si  Si14  1  0.693268  0.382862  0.064821  1
  Si  Si15  1  0.806529  0.882586  0.185175  1
  Si  Si16  1  0.117414  0.193471  0.314825  1
  Si  Si17  1  0.976169  0.277199  0.936594  1
  Si  Si18  1  0.722801  0.023831  0.563406  1
  Si  Si19  1  0.222904  0.476183  0.186678  1
  Si  Si20  1  0.776446  0.524262  0.686499  1
  Si  Si21  1  0.475738  0.223554  0.813501  1
  Si  Si22  1  0.523817  0.777096  0.313322  1
  Si  Si23  1  0.276886  0.976280  0.063286  1
  Si  Si24  1  0.883062  0.806300  0.815150  1
  Tc  Tc25  1  0.666937  0.666730  0.500329  1
  Tc  Tc26  1  0.166708  0.833292  0.250000  1
  Tc  Tc27  1  0.333270  0.333063  0.999671  1
  Tc  Tc28  1  0.021026  0.816441  0.628820  1
  Tc  Tc29  1  0.978996  0.183042  0.129085  1
  Tc  Tc30  1  0.816958  0.021004  0.370915  1
  Tc  Tc31  1  0.317261  0.479685  0.378858  1
  Tc  Tc32  1  0.683433  0.520900  0.879119  1
  Tc  Tc33  1  0.479100  0.316567  0.620881  1
  Tc  Tc34  1  0.520315  0.682739  0.121142  1
  Tc  Tc35  1  0.183559  0.978974  0.871180  1
