# generated using pymatgen
data_La5Sm5Sn8
_symmetry_space_group_name_H-M   'P 1'
_cell_length_a   8.32750201
_cell_length_b   8.48294552
_cell_length_c   16.04952600
_cell_angle_alpha   90.01384618
_cell_angle_beta   89.99774326
_cell_angle_gamma   89.98560728
_symmetry_Int_Tables_number   1
_chemical_formula_structural   La5Sm5Sn8
_chemical_formula_sum   'La10 Sm10 Sn16'
_cell_volume   1133.76646614
_cell_formula_units_Z   2
loop_
 _symmetry_equiv_pos_site_id
 _symmetry_equiv_pos_as_xyz
  1  'x, y, z'
loop_
 _atom_site_type_symbol
 _atom_site_label
 _atom_site_symmetry_multiplicity
 _atom_site_fract_x
 _atom_site_fract_y
 _atom_site_fract_z
 _atom_site_occupancy
  La  La0  1  0.366929  0.835294  0.617850  1
  La  La1  1  0.867032  0.664558  0.882070  1
  La  La2  1  0.516904  0.318120  0.903290  1
  La  La3  1  0.016996  0.182024  0.596657  1
  La  La4  1  0.483132  0.680749  0.400879  1
  La  La5  1  0.983083  0.819256  0.099020  1
  La  La6  1  0.483415  0.680050  0.098918  1
  La  La7  1  0.983383  0.819947  0.401212  1
  La  La8  1  0.515898  0.318781  0.596571  1
  La  La9  1  0.016046  0.181275  0.903404  1
  Sm  Sm10  1  0.363084  0.836953  0.879089  1
  Sm  Sm11  1  0.863064  0.663057  0.621005  1
  Sm  Sm12  1  0.635844  0.162064  0.378545  1
  Sm  Sm13  1  0.135802  0.337931  0.121554  1
  Sm  Sm14  1  0.634458  0.163086  0.123501  1
  Sm  Sm15  1  0.134429  0.336822  0.376376  1
  Sm  Sm16  1  0.197083  0.502523  0.750402  1
  Sm  Sm17  1  0.697017  0.997260  0.749609  1
  Sm  Sm18  1  0.802537  0.497307  0.250751  1
  Sm  Sm19  1  0.302525  0.002681  0.249231  1
  Sn  Sn20  1  0.297142  0.038471  0.042637  1
  Sn  Sn21  1  0.797248  0.461536  0.457468  1
  Sn  Sn22  1  0.710455  0.963882  0.541839  1
  Sn  Sn23  1  0.210554  0.536392  0.958384  1
  Sn  Sn24  1  0.697671  0.966887  0.958367  1
  Sn  Sn25  1  0.197536  0.533416  0.541418  1
  Sn  Sn26  1  0.296024  0.041185  0.453880  1
  Sn  Sn27  1  0.795952  0.458815  0.046142  1
  Sn  Sn28  1  0.565223  0.617517  0.749675  1
  Sn  Sn29  1  0.065263  0.882638  0.750320  1
  Sn  Sn30  1  0.435551  0.379620  0.250300  1
  Sn  Sn31  1  0.935447  0.120299  0.249709  1
  Sn  Sn32  1  0.321426  0.142031  0.750903  1
  Sn  Sn33  1  0.821001  0.357419  0.748997  1
  Sn  Sn34  1  0.677445  0.859386  0.250130  1
  Sn  Sn35  1  0.177400  0.640767  0.249897  1
