# generated using pymatgen
data_YHo5CrB14W
_symmetry_space_group_name_H-M   'P 1'
_cell_length_a   8.11221606
_cell_length_b   8.11221444
_cell_length_c   9.41408400
_cell_angle_alpha   90.00000000
_cell_angle_beta   90.00000000
_cell_angle_gamma   155.50412169
_symmetry_Int_Tables_number   1
_chemical_formula_structural   YHo5CrB14W
_chemical_formula_sum   'Y1 Ho5 Cr1 B14 W1'
_cell_volume   256.87119063
_cell_formula_units_Z   1
loop_
 _symmetry_equiv_pos_site_id
 _symmetry_equiv_pos_as_xyz
  1  'x, y, z'
loop_
 _atom_site_type_symbol
 _atom_site_label
 _atom_site_symmetry_multiplicity
 _atom_site_fract_x
 _atom_site_fract_y
 _atom_site_fract_z
 _atom_site_occupancy
  Y  Y0  1  0.753906  0.246094  0.250000  1
  Ho  Ho1  1  0.894455  0.105545  0.935734  1
  Ho  Ho2  1  0.106565  0.893435  0.055627  1
  Ho  Ho3  1  0.240994  0.759006  0.750000  1
  Ho  Ho4  1  0.894455  0.105545  0.564266  1
  Ho  Ho5  1  0.106565  0.893435  0.444373  1
  Cr  Cr6  1  0.052969  0.947031  0.750000  1
  B  B7  1  0.545689  0.454311  0.250000  1
  B  B8  1  0.460247  0.539753  0.750000  1
  B  B9  1  0.521877  0.478123  0.902748  1
  B  B10  1  0.480793  0.519207  0.090197  1
  B  B11  1  0.480793  0.519207  0.409803  1
  B  B12  1  0.521877  0.478123  0.597252  1
  B  B13  1  0.631128  0.368872  0.847948  1
  B  B14  1  0.365193  0.634807  0.144950  1
  B  B15  1  0.727217  0.272783  0.965087  1
  B  B16  1  0.272345  0.727655  0.030246  1
  B  B17  1  0.272345  0.727655  0.469754  1
  B  B18  1  0.727217  0.272783  0.534913  1
  B  B19  1  0.631128  0.368872  0.652052  1
  B  B20  1  0.365193  0.634807  0.355050  1
  W  W21  1  0.947049  0.052951  0.250000  1
