# generated using pymatgen
data_Hf4NbCuSn3
_symmetry_space_group_name_H-M   'P 1'
_cell_length_a   8.55277400
_cell_length_b   8.55277388
_cell_length_c   5.73820800
_cell_angle_alpha   90.00000000
_cell_angle_beta   90.00000000
_cell_angle_gamma   119.99999271
_symmetry_Int_Tables_number   1
_chemical_formula_structural   Hf4NbCuSn3
_chemical_formula_sum   'Hf8 Nb2 Cu2 Sn6'
_cell_volume   363.51382876
_cell_formula_units_Z   2
loop_
 _symmetry_equiv_pos_site_id
 _symmetry_equiv_pos_as_xyz
  1  'x, y, z'
loop_
 _atom_site_type_symbol
 _atom_site_label
 _atom_site_symmetry_multiplicity
 _atom_site_fract_x
 _atom_site_fract_y
 _atom_site_fract_z
 _atom_site_occupancy
  Hf  Hf0  1  0.666667  0.333333  0.000000  1
  Hf  Hf1  1  0.333333  0.666667  0.500000  1
  Hf  Hf2  1  0.264474  0.000000  0.250000  1
  Hf  Hf3  1  0.264474  0.264474  0.750000  1
  Hf  Hf4  1  0.000000  0.735526  0.750000  1
  Hf  Hf5  1  0.000000  0.264474  0.250000  1
  Hf  Hf6  1  0.735526  0.735526  0.250000  1
  Hf  Hf7  1  0.735526  0.000000  0.750000  1
  Nb  Nb8  1  0.333333  0.666667  0.000000  1
  Nb  Nb9  1  0.666667  0.333333  0.500000  1
  Cu  Cu10  1  0.000000  0.000000  0.000000  1
  Cu  Cu11  1  0.000000  0.000000  0.500000  1
  Sn  Sn12  1  0.611850  0.000000  0.250000  1
  Sn  Sn13  1  0.611850  0.611850  0.750000  1
  Sn  Sn14  1  0.000000  0.388150  0.750000  1
  Sn  Sn15  1  0.000000  0.611850  0.250000  1
  Sn  Sn16  1  0.388150  0.388150  0.250000  1
  Sn  Sn17  1  0.388150  0.000000  0.750000  1
