# generated using pymatgen
data_Zr8Al14GeOs4Rh3
_symmetry_space_group_name_H-M   'P 1'
_cell_length_a   8.84499115
_cell_length_b   8.85019775
_cell_length_c   8.86988200
_cell_angle_alpha   119.94831396
_cell_angle_beta   119.95344436
_cell_angle_gamma   89.99267022
_symmetry_Int_Tables_number   1
_chemical_formula_structural   Zr8Al14GeOs4Rh3
_chemical_formula_sum   'Zr8 Al14 Ge1 Os4 Rh3'
_cell_volume   491.72744297
_cell_formula_units_Z   1
loop_
 _symmetry_equiv_pos_site_id
 _symmetry_equiv_pos_as_xyz
  1  'x, y, z'
loop_
 _atom_site_type_symbol
 _atom_site_label
 _atom_site_symmetry_multiplicity
 _atom_site_fract_x
 _atom_site_fract_y
 _atom_site_fract_z
 _atom_site_occupancy
  Zr  Zr0  1  0.792818  0.292331  0.082515  1
  Zr  Zr1  1  0.217814  0.300065  0.501560  1
  Zr  Zr2  1  0.206066  0.704641  0.508987  1
  Zr  Zr3  1  0.219458  0.719896  0.919030  1
  Zr  Zr4  1  0.798545  0.716866  0.501480  1
  Zr  Zr5  1  0.775263  0.275834  0.488323  1
  Zr  Zr6  1  0.377453  0.119139  0.739634  1
  Zr  Zr7  1  0.379503  0.638956  0.260776  1
  Al  Al8  1  0.157803  0.332110  0.171040  1
  Al  Al9  1  0.160927  0.993338  0.830873  1
  Al  Al10  1  0.152043  0.339361  0.814012  1
  Al  Al11  1  0.518193  0.338885  0.181557  1
  Al  Al12  1  0.840116  0.659060  0.820291  1
  Al  Al13  1  0.840941  0.013612  0.176796  1
  Al  Al14  1  0.837293  0.661433  0.172239  1
  Al  Al15  1  0.497016  0.665102  0.831367  1
  Al  Al16  1  0.377102  0.121077  0.257900  1
  Al  Al17  1  0.861773  0.121942  0.741545  1
  Al  Al18  1  0.622604  0.873702  0.253058  1
  Al  Al19  1  0.623032  0.368058  0.746473  1
  Al  Al20  1  0.622718  0.877430  0.743781  1
  Al  Al21  1  0.134579  0.880038  0.256604  1
  Ge  Ge22  1  0.991444  0.491254  0.501341  1
  Os  Os23  1  0.995953  0.997509  0.499610  1
  Os  Os24  1  0.499994  0.999620  0.003706  1
  Os  Os25  1  0.498608  0.498971  0.999642  1
  Os  Os26  1  0.497859  0.496427  0.499860  1
  Rh  Rh27  1  0.995839  0.496905  0.997204  1
  Rh  Rh28  1  0.998681  0.998360  0.998788  1
  Rh  Rh29  1  0.508559  0.008078  0.500002  1
