# generated using pymatgen
data_Ti4MnZnIn5
_symmetry_space_group_name_H-M   'P 1'
_cell_length_a   7.39552373
_cell_length_b   3.09789200
_cell_length_c   9.12583993
_cell_angle_alpha   90.00000000
_cell_angle_beta   94.36727274
_cell_angle_gamma   90.00000000
_symmetry_Int_Tables_number   1
_chemical_formula_structural   Ti4MnZnIn5
_chemical_formula_sum   'Ti4 Mn1 Zn1 In5'
_cell_volume   208.47078801
_cell_formula_units_Z   1
loop_
 _symmetry_equiv_pos_site_id
 _symmetry_equiv_pos_as_xyz
  1  'x, y, z'
loop_
 _atom_site_type_symbol
 _atom_site_label
 _atom_site_symmetry_multiplicity
 _atom_site_fract_x
 _atom_site_fract_y
 _atom_site_fract_z
 _atom_site_occupancy
  Ti  Ti0  1  0.297000  0.500001  0.139319  1
  Ti  Ti1  1  0.712483  0.500001  0.454780  1
  Ti  Ti2  1  0.314085  0.500001  0.584505  1
  Ti  Ti3  1  0.687710  0.500001  0.830413  1
  Mn  Mn4  1  0.577275  0.000000  0.627936  1
  Zn  Zn5  1  0.419777  0.000000  0.366034  1
  In  In6  1  0.991574  0.000000  0.996629  1
  In  In7  1  0.643142  0.000000  0.138328  1
  In  In8  1  0.038452  0.000000  0.333374  1
  In  In9  1  0.967686  0.000000  0.665118  1
  In  In10  1  0.350816  0.000000  0.863566  1
