# generated using pymatgen
data_Er5In4RuRh
_symmetry_space_group_name_H-M   'P 1'
_cell_length_a   3.58361500
_cell_length_b   7.96671701
_cell_length_c   18.28681569
_cell_angle_alpha   89.82584685
_cell_angle_beta   90.00000000
_cell_angle_gamma   90.00000000
_symmetry_Int_Tables_number   1
_chemical_formula_structural   Er5In4RuRh
_chemical_formula_sum   'Er10 In8 Ru2 Rh2'
_cell_volume   522.07971293
_cell_formula_units_Z   2
loop_
 _symmetry_equiv_pos_site_id
 _symmetry_equiv_pos_as_xyz
  1  'x, y, z'
loop_
 _atom_site_type_symbol
 _atom_site_label
 _atom_site_symmetry_multiplicity
 _atom_site_fract_x
 _atom_site_fract_y
 _atom_site_fract_z
 _atom_site_occupancy
  Er  Er0  1  0.000000  0.000000  0.000000  1
  Er  Er1  1  0.000000  0.500000  0.500000  1
  Er  Er2  1  0.000000  0.748718  0.778145  1
  Er  Er3  1  0.000000  0.251282  0.221855  1
  Er  Er4  1  0.000000  0.240732  0.720865  1
  Er  Er5  1  0.000000  0.759268  0.279135  1
  Er  Er6  1  0.000000  0.878417  0.588051  1
  Er  Er7  1  0.000000  0.121583  0.411949  1
  Er  Er8  1  0.000000  0.378044  0.912352  1
  Er  Er9  1  0.000000  0.621956  0.087648  1
  In  In10  1  0.500000  0.795219  0.431002  1
  In  In11  1  0.500000  0.204781  0.568998  1
  In  In12  1  0.500000  0.295501  0.067268  1
  In  In13  1  0.500000  0.704499  0.932732  1
  In  In14  1  0.500000  0.937628  0.150335  1
  In  In15  1  0.500000  0.062372  0.849665  1
  In  In16  1  0.500000  0.436016  0.349803  1
  In  In17  1  0.500000  0.563984  0.650197  1
  Ru  Ru18  1  0.500000  0.968361  0.695892  1
  Ru  Ru19  1  0.500000  0.031639  0.304108  1
  Rh  Rh20  1  0.500000  0.466435  0.805024  1
  Rh  Rh21  1  0.500000  0.533565  0.194976  1
