# generated using pymatgen
data_BaLiGdS3
_symmetry_space_group_name_H-M   'P 1'
_cell_length_a   4.13673403
_cell_length_b   7.12305352
_cell_length_c   10.44575702
_cell_angle_alpha   89.99498997
_cell_angle_beta   89.99794420
_cell_angle_gamma   106.89337142
_symmetry_Int_Tables_number   1
_chemical_formula_structural   BaLiGdS3
_chemical_formula_sum   'Ba2 Li2 Gd2 S6'
_cell_volume   294.51425295
_cell_formula_units_Z   2
loop_
 _symmetry_equiv_pos_site_id
 _symmetry_equiv_pos_as_xyz
  1  'x, y, z'
loop_
 _atom_site_type_symbol
 _atom_site_label
 _atom_site_symmetry_multiplicity
 _atom_site_fract_x
 _atom_site_fract_y
 _atom_site_fract_z
 _atom_site_occupancy
  Ba  Ba0  1  0.254821  0.509707  0.250001  1
  Ba  Ba1  1  0.745176  0.490292  0.750000  1
  Li  Li2  1  0.528904  0.058036  0.250011  1
  Li  Li3  1  0.471092  0.941964  0.749990  1
  Gd  Gd4  1  0.999997  0.999998  0.000001  1
  Gd  Gd5  1  0.000003  0.000002  0.500000  1
  S  S6  1  0.630083  0.260156  0.062795  1
  S  S7  1  0.933365  0.866828  0.250000  1
  S  S8  1  0.630090  0.260152  0.437204  1
  S  S9  1  0.369909  0.739850  0.562795  1
  S  S10  1  0.066632  0.133174  0.750001  1
  S  S11  1  0.369910  0.739842  0.937206  1
