# generated using pymatgen
data_DyZr11(Si3Ru)4
_symmetry_space_group_name_H-M   'P 1'
_cell_length_a   3.96573100
_cell_length_b   10.38332227
_cell_length_c   11.89144814
_cell_angle_alpha   90.19873460
_cell_angle_beta   90.00000000
_cell_angle_gamma   90.00000000
_symmetry_Int_Tables_number   1
_chemical_formula_structural   DyZr11(Si3Ru)4
_chemical_formula_sum   'Dy1 Zr11 Si12 Ru4'
_cell_volume   489.65672023
_cell_formula_units_Z   1
loop_
 _symmetry_equiv_pos_site_id
 _symmetry_equiv_pos_as_xyz
  1  'x, y, z'
loop_
 _atom_site_type_symbol
 _atom_site_label
 _atom_site_symmetry_multiplicity
 _atom_site_fract_x
 _atom_site_fract_y
 _atom_site_fract_z
 _atom_site_occupancy
  Dy  Dy0  1  0.750000  0.157335  0.697671  1
  Zr  Zr1  1  0.250000  0.874391  0.022966  1
  Zr  Zr2  1  0.250000  0.625832  0.521085  1
  Zr  Zr3  1  0.750000  0.123381  0.982063  1
  Zr  Zr4  1  0.750000  0.378109  0.476375  1
  Zr  Zr5  1  0.250000  0.921911  0.595077  1
  Zr  Zr6  1  0.250000  0.575468  0.098292  1
  Zr  Zr7  1  0.750000  0.074632  0.398010  1
  Zr  Zr8  1  0.750000  0.424352  0.905181  1
  Zr  Zr9  1  0.250000  0.657988  0.800970  1
  Zr  Zr10  1  0.250000  0.841171  0.300646  1
  Zr  Zr11  1  0.750000  0.343160  0.199033  1
  Si  Si12  1  0.250000  0.010696  0.828820  1
  Si  Si13  1  0.250000  0.487503  0.325289  1
  Si  Si14  1  0.750000  0.984152  0.174401  1
  Si  Si15  1  0.750000  0.513810  0.674210  1
  Si  Si16  1  0.250000  0.252361  0.845358  1
  Si  Si17  1  0.250000  0.251278  0.338921  1
  Si  Si18  1  0.750000  0.748971  0.158967  1
  Si  Si19  1  0.750000  0.751071  0.659302  1
  Si  Si20  1  0.250000  0.197342  0.537042  1
  Si  Si21  1  0.250000  0.305893  0.045374  1
  Si  Si22  1  0.750000  0.806012  0.455492  1
  Si  Si23  1  0.750000  0.694196  0.956883  1
  Ru  Ru24  1  0.250000  0.388457  0.679898  1
  Ru  Ru25  1  0.250000  0.112918  0.179224  1
  Ru  Ru26  1  0.750000  0.613481  0.319934  1
  Ru  Ru27  1  0.750000  0.884130  0.823518  1
