# generated using pymatgen
data_Y5Tm6Lu5(InRh)4
_symmetry_space_group_name_H-M   'P 1'
_cell_length_a   9.56851076
_cell_length_b   9.57409952
_cell_length_c   9.56738486
_cell_angle_alpha   60.05330786
_cell_angle_beta   59.85566388
_cell_angle_gamma   59.84550591
_symmetry_Int_Tables_number   1
_chemical_formula_structural   Y5Tm6Lu5(InRh)4
_chemical_formula_sum   'Y5 Tm6 Lu5 In4 Rh4'
_cell_volume   618.59994421
_cell_formula_units_Z   1
loop_
 _symmetry_equiv_pos_site_id
 _symmetry_equiv_pos_as_xyz
  1  'x, y, z'
loop_
 _atom_site_type_symbol
 _atom_site_label
 _atom_site_symmetry_multiplicity
 _atom_site_fract_x
 _atom_site_fract_y
 _atom_site_fract_z
 _atom_site_occupancy
  Y  Y0  1  0.062504  0.062786  0.436216  1
  Y  Y1  1  0.438252  0.062098  0.436977  1
  Y  Y2  1  0.062537  0.436405  0.062831  1
  Y  Y3  1  0.050735  0.649346  0.649190  1
  Y  Y4  1  0.437892  0.437163  0.062249  1
  Tm  Tm5  1  0.812479  0.188176  0.188644  1
  Tm  Tm6  1  0.059319  0.440443  0.439900  1
  Tm  Tm7  1  0.810681  0.189968  0.810994  1
  Tm  Tm8  1  0.189061  0.812328  0.812544  1
  Tm  Tm9  1  0.650075  0.648524  0.048910  1
  Tm  Tm10  1  0.650882  0.652219  0.651804  1
  Lu  Lu11  1  0.650247  0.048118  0.648691  1
  Lu  Lu12  1  0.188570  0.812699  0.187708  1
  Lu  Lu13  1  0.189100  0.187727  0.812536  1
  Lu  Lu14  1  0.810981  0.811080  0.189935  1
  Lu  Lu15  1  0.442129  0.057066  0.057102  1
  In  In16  1  0.416556  0.416374  0.417014  1
  In  In17  1  0.749145  0.417291  0.417675  1
  In  In18  1  0.417747  0.749956  0.416069  1
  In  In19  1  0.417831  0.415962  0.749860  1
  Rh  Rh20  1  0.856714  0.858688  0.424252  1
  Rh  Rh21  1  0.852304  0.861438  0.861298  1
  Rh  Rh22  1  0.427130  0.859879  0.859202  1
  Rh  Rh23  1  0.857131  0.424265  0.858397  1
