# generated using pymatgen
data_La2Cd(Si3Pd10)2
_symmetry_space_group_name_H-M   'P 1'
_cell_length_a   8.74583617
_cell_length_b   8.74563846
_cell_length_c   8.74551100
_cell_angle_alpha   59.99784568
_cell_angle_beta   60.00007470
_cell_angle_gamma   60.00086546
_symmetry_Int_Tables_number   1
_chemical_formula_structural   La2Cd(Si3Pd10)2
_chemical_formula_sum   'La2 Cd1 Si6 Pd20'
_cell_volume   472.99773855
_cell_formula_units_Z   1
loop_
 _symmetry_equiv_pos_site_id
 _symmetry_equiv_pos_as_xyz
  1  'x, y, z'
loop_
 _atom_site_type_symbol
 _atom_site_label
 _atom_site_symmetry_multiplicity
 _atom_site_fract_x
 _atom_site_fract_y
 _atom_site_fract_z
 _atom_site_occupancy
  La  La0  1  0.749997  0.749996  0.750009  1
  La  La1  1  0.250003  0.250004  0.249991  1
  Cd  Cd2  1  0.000000  0.000000  0.000000  1
  Si  Si3  1  0.733429  0.733400  0.266586  1
  Si  Si4  1  0.266571  0.266600  0.733414  1
  Si  Si5  1  0.733410  0.266605  0.733384  1
  Si  Si6  1  0.266590  0.733395  0.266616  1
  Si  Si7  1  0.266575  0.733410  0.733414  1
  Si  Si8  1  0.733425  0.266590  0.266586  1
  Pd  Pd9  1  0.614602  0.614608  0.614606  1
  Pd  Pd10  1  0.385398  0.385392  0.385394  1
  Pd  Pd11  1  0.156151  0.614610  0.614633  1
  Pd  Pd12  1  0.614609  0.156176  0.614604  1
  Pd  Pd13  1  0.843849  0.385390  0.385367  1
  Pd  Pd14  1  0.385391  0.843824  0.385396  1
  Pd  Pd15  1  0.614617  0.614589  0.156200  1
  Pd  Pd16  1  0.385383  0.385411  0.843800  1
  Pd  Pd17  1  0.999989  0.999978  0.655625  1
  Pd  Pd18  1  0.000011  0.000022  0.344375  1
  Pd  Pd19  1  0.344358  0.655668  0.999981  1
  Pd  Pd20  1  0.655642  0.344332  0.000019  1
  Pd  Pd21  1  0.000007  0.655634  0.999996  1
  Pd  Pd22  1  0.655620  0.000036  0.344318  1
  Pd  Pd23  1  0.999993  0.344366  0.000004  1
  Pd  Pd24  1  0.344380  0.999964  0.655682  1
  Pd  Pd25  1  0.655645  0.000015  0.000014  1
  Pd  Pd26  1  0.344355  0.999985  0.999986  1
  Pd  Pd27  1  0.000018  0.655600  0.344363  1
  Pd  Pd28  1  0.999982  0.344400  0.655637  1
