# generated using pymatgen
data_CeZr2(ScOs2)3
_symmetry_space_group_name_H-M   'P 1'
_cell_length_a   4.63557300
_cell_length_b   6.53985200
_cell_length_c   14.01401400
_cell_angle_alpha   90.00000000
_cell_angle_beta   90.00029132
_cell_angle_gamma   90.00000000
_symmetry_Int_Tables_number   1
_chemical_formula_structural   CeZr2(ScOs2)3
_chemical_formula_sum   'Ce2 Zr4 Sc6 Os12'
_cell_volume   424.84830685
_cell_formula_units_Z   2
loop_
 _symmetry_equiv_pos_site_id
 _symmetry_equiv_pos_as_xyz
  1  'x, y, z'
loop_
 _atom_site_type_symbol
 _atom_site_label
 _atom_site_symmetry_multiplicity
 _atom_site_fract_x
 _atom_site_fract_y
 _atom_site_fract_z
 _atom_site_occupancy
  Ce  Ce0  1  0.000004  0.500000  0.997555  1
  Ce  Ce1  1  0.499990  0.000000  0.169118  1
  Zr  Zr2  1  0.999987  0.500000  0.337894  1
  Zr  Zr3  1  0.499999  0.000000  0.502244  1
  Zr  Zr4  1  0.000012  0.500000  0.664439  1
  Zr  Zr5  1  0.500018  0.000000  0.828776  1
  Sc  Sc6  1  0.999989  0.000000  0.995021  1
  Sc  Sc7  1  0.500003  0.500000  0.171662  1
  Sc  Sc8  1  0.999998  0.000000  0.339323  1
  Sc  Sc9  1  0.499985  0.500000  0.500731  1
  Sc  Sc10  1  0.999996  0.000000  0.665892  1
  Sc  Sc11  1  0.500013  0.500000  0.827312  1
  Os  Os12  1  0.500004  0.249388  0.996424  1
  Os  Os13  1  0.500004  0.750611  0.996424  1
  Os  Os14  1  0.999977  0.250670  0.170242  1
  Os  Os15  1  0.999977  0.749329  0.170242  1
  Os  Os16  1  0.499983  0.251284  0.336730  1
  Os  Os17  1  0.499983  0.748716  0.336730  1
  Os  Os18  1  0.000001  0.249998  0.501043  1
  Os  Os19  1  0.000001  0.750001  0.501043  1
  Os  Os20  1  0.500018  0.250000  0.665617  1
  Os  Os21  1  0.500018  0.750000  0.665617  1
  Os  Os22  1  0.000018  0.248753  0.829960  1
  Os  Os23  1  0.000018  0.751246  0.829960  1
