# generated using pymatgen
data_Ho3Tm13(NiAg)4
_symmetry_space_group_name_H-M   'P 1'
_cell_length_a   9.31666873
_cell_length_b   9.32677962
_cell_length_c   9.32677900
_cell_angle_alpha   59.99999864
_cell_angle_beta   59.96409246
_cell_angle_gamma   59.96409437
_symmetry_Int_Tables_number   1
_chemical_formula_structural   Ho3Tm13(NiAg)4
_chemical_formula_sum   'Ho3 Tm13 Ni4 Ag4'
_cell_volume   572.76060017
_cell_formula_units_Z   1
loop_
 _symmetry_equiv_pos_site_id
 _symmetry_equiv_pos_as_xyz
  1  'x, y, z'
loop_
 _atom_site_type_symbol
 _atom_site_label
 _atom_site_symmetry_multiplicity
 _atom_site_fract_x
 _atom_site_fract_y
 _atom_site_fract_z
 _atom_site_occupancy
  Ho  Ho0  1  0.350738  0.350477  0.350477  1
  Ho  Ho1  1  0.350738  0.350477  0.948306  1
  Ho  Ho2  1  0.350738  0.948306  0.350477  1
  Tm  Tm3  1  0.946817  0.351061  0.351061  1
  Tm  Tm4  1  0.811572  0.188296  0.188296  1
  Tm  Tm5  1  0.187055  0.812408  0.812408  1
  Tm  Tm6  1  0.187055  0.812408  0.188130  1
  Tm  Tm7  1  0.811572  0.188296  0.811836  1
  Tm  Tm8  1  0.187055  0.188130  0.812408  1
  Tm  Tm9  1  0.811572  0.811836  0.188296  1
  Tm  Tm10  1  0.936550  0.563957  0.563957  1
  Tm  Tm11  1  0.565754  0.934933  0.934933  1
  Tm  Tm12  1  0.565754  0.934933  0.564381  1
  Tm  Tm13  1  0.936550  0.563957  0.935538  1
  Tm  Tm14  1  0.565754  0.564381  0.934933  1
  Tm  Tm15  1  0.936550  0.935538  0.563957  1
  Ni  Ni16  1  0.141337  0.144069  0.144069  1
  Ni  Ni17  1  0.141337  0.144069  0.570526  1
  Ni  Ni18  1  0.141337  0.570526  0.144069  1
  Ni  Ni19  1  0.571992  0.142670  0.142670  1
  Ag  Ag20  1  0.582927  0.582375  0.582375  1
  Ag  Ag21  1  0.582927  0.582375  0.252323  1
  Ag  Ag22  1  0.582927  0.252323  0.582375  1
  Ag  Ag23  1  0.253396  0.582201  0.582201  1
