# generated using pymatgen
data_LuTh2(MgPt)3
_symmetry_space_group_name_H-M   'P 1'
_cell_length_a   7.59478948
_cell_length_b   7.54464374
_cell_length_c   4.02110000
_cell_angle_alpha   90.00000000
_cell_angle_beta   90.00000000
_cell_angle_gamma   119.78183240
_symmetry_Int_Tables_number   1
_chemical_formula_structural   LuTh2(MgPt)3
_chemical_formula_sum   'Lu1 Th2 Mg3 Pt3'
_cell_volume   199.97722807
_cell_formula_units_Z   1
loop_
 _symmetry_equiv_pos_site_id
 _symmetry_equiv_pos_as_xyz
  1  'x, y, z'
loop_
 _atom_site_type_symbol
 _atom_site_label
 _atom_site_symmetry_multiplicity
 _atom_site_fract_x
 _atom_site_fract_y
 _atom_site_fract_z
 _atom_site_occupancy
  Lu  Lu0  1  0.000000  0.591245  0.000000  1
  Th  Th1  1  0.418308  0.416466  0.000000  1
  Th  Th2  1  0.581692  0.998156  0.000000  1
  Mg  Mg3  1  0.000000  0.251070  0.500000  1
  Mg  Mg4  1  0.767667  0.758351  0.500000  1
  Mg  Mg5  1  0.232333  0.990685  0.500000  1
  Pt  Pt6  1  0.658540  0.325161  0.500000  1
  Pt  Pt7  1  0.000000  0.002243  0.000000  1
  Pt  Pt8  1  0.341460  0.666623  0.500000  1
