# generated using pymatgen
data_Ho12InCo2Cu3
_symmetry_space_group_name_H-M   'P 1'
_cell_length_a   8.33094632
_cell_length_b   8.33276036
_cell_length_c   8.33094562
_cell_angle_alpha   112.30618825
_cell_angle_beta   110.19663482
_cell_angle_gamma   105.96548910
_symmetry_Int_Tables_number   1
_chemical_formula_structural   Ho12InCo2Cu3
_chemical_formula_sum   'Ho12 In1 Co2 Cu3'
_cell_volume   443.84912775
_cell_formula_units_Z   1
loop_
 _symmetry_equiv_pos_site_id
 _symmetry_equiv_pos_as_xyz
  1  'x, y, z'
loop_
 _atom_site_type_symbol
 _atom_site_label
 _atom_site_symmetry_multiplicity
 _atom_site_fract_x
 _atom_site_fract_y
 _atom_site_fract_z
 _atom_site_occupancy
  Ho  Ho0  1  0.819656  0.712695  0.532314  1
  Ho  Ho1  1  0.180344  0.287305  0.467686  1
  Ho  Ho2  1  0.180382  0.712695  0.893039  1
  Ho  Ho3  1  0.819618  0.287305  0.106961  1
  Ho  Ho4  1  0.689033  0.379761  0.690729  1
  Ho  Ho5  1  0.310967  0.620239  0.309271  1
  Ho  Ho6  1  0.689038  0.998295  0.309256  1
  Ho  Ho7  1  0.310962  0.001705  0.690744  1
  Ho  Ho8  1  0.577423  0.768338  0.809052  1
  Ho  Ho9  1  0.422577  0.231662  0.190948  1
  Ho  Ho10  1  0.959286  0.768338  0.190915  1
  Ho  Ho11  1  0.040714  0.231662  0.809085  1
  In  In12  1  0.500000  0.500000  0.000000  1
  Co  Co13  1  0.112682  0.612691  0.500009  1
  Co  Co14  1  0.887318  0.387309  0.499991  1
  Cu  Cu15  1  0.644247  0.000000  0.644247  1
  Cu  Cu16  1  0.355753  0.000000  0.355753  1
  Cu  Cu17  1  0.000000  0.000000  0.000000  1
