# generated using pymatgen
data_Ho3Tm2ReRuO12
_symmetry_space_group_name_H-M   'P 1'
_cell_length_a   6.79712684
_cell_length_b   6.79475673
_cell_length_c   7.44443032
_cell_angle_alpha   73.85379886
_cell_angle_beta   73.85706451
_cell_angle_gamma   49.09880774
_symmetry_Int_Tables_number   1
_chemical_formula_structural   Ho3Tm2ReRuO12
_chemical_formula_sum   'Ho3 Tm2 Re1 Ru1 O12'
_cell_volume   247.43232616
_cell_formula_units_Z   1
loop_
 _symmetry_equiv_pos_site_id
 _symmetry_equiv_pos_as_xyz
  1  'x, y, z'
loop_
 _atom_site_type_symbol
 _atom_site_label
 _atom_site_symmetry_multiplicity
 _atom_site_fract_x
 _atom_site_fract_y
 _atom_site_fract_z
 _atom_site_occupancy
  Ho  Ho0  1  0.818026  0.786670  0.358417  1
  Ho  Ho1  1  0.213625  0.181566  0.642871  1
  Ho  Ho2  1  0.190877  0.179754  0.174682  1
  Tm  Tm3  1  0.820443  0.808980  0.824768  1
  Tm  Tm4  1  0.511120  0.488687  0.500405  1
  Re  Re5  1  0.701270  0.298716  0.999644  1
  Ru  Ru6  1  0.267037  0.733015  0.999583  1
  O  O7  1  0.416255  0.934298  0.913414  1
  O  O8  1  0.062250  0.588059  0.084043  1
  O  O9  1  0.588597  0.092661  0.085739  1
  O  O10  1  0.905782  0.413326  0.912620  1
  O  O11  1  0.611155  0.090580  0.569099  1
  O  O12  1  0.908503  0.390193  0.433075  1
  O  O13  1  0.412700  0.896062  0.424630  1
  O  O14  1  0.984687  0.014583  0.822328  1
  O  O15  1  0.984433  0.014678  0.176863  1
  O  O16  1  0.497225  0.497055  0.795445  1
  O  O17  1  0.503135  0.502538  0.204432  1
  O  O18  1  0.102884  0.588577  0.577943  1
