# generated using pymatgen
data_Sm3Dy(AuBr6)4
_symmetry_space_group_name_H-M   'P 1'
_cell_length_a   8.32587523
_cell_length_b   10.51213686
_cell_length_c   14.98202010
_cell_angle_alpha   103.15631333
_cell_angle_beta   96.43882271
_cell_angle_gamma   112.59560575
_symmetry_Int_Tables_number   1
_chemical_formula_structural   Sm3Dy(AuBr6)4
_chemical_formula_sum   'Sm3 Dy1 Au4 Br24'
_cell_volume   1149.41826807
_cell_formula_units_Z   1
loop_
 _symmetry_equiv_pos_site_id
 _symmetry_equiv_pos_as_xyz
  1  'x, y, z'
loop_
 _atom_site_type_symbol
 _atom_site_label
 _atom_site_symmetry_multiplicity
 _atom_site_fract_x
 _atom_site_fract_y
 _atom_site_fract_z
 _atom_site_occupancy
  Sm  Sm0  1  0.420565  0.076952  0.378136  1
  Sm  Sm1  1  0.975095  0.312409  0.870675  1
  Sm  Sm2  1  0.024698  0.687251  0.128951  1
  Dy  Dy3  1  0.580020  0.924384  0.622038  1
  Au  Au4  1  0.294092  0.631937  0.762457  1
  Au  Au5  1  0.706178  0.368253  0.237407  1
  Au  Au6  1  0.500143  0.500500  0.500193  1
  Au  Au7  1  0.999951  0.999975  0.999964  1
  Br  Br8  1  0.608400  0.737398  0.748091  1
  Br  Br9  1  0.390967  0.264676  0.250444  1
  Br  Br10  1  0.278495  0.848590  0.732547  1
  Br  Br11  1  0.723872  0.151603  0.266617  1
  Br  Br12  1  0.976277  0.531023  0.771438  1
  Br  Br13  1  0.023773  0.469096  0.228692  1
  Br  Br14  1  0.310319  0.411253  0.787363  1
  Br  Br15  1  0.689678  0.588651  0.212661  1
  Br  Br16  1  0.688769  0.366938  0.506357  1
  Br  Br17  1  0.315355  0.637218  0.495514  1
  Br  Br18  1  0.762268  0.732246  0.528321  1
  Br  Br19  1  0.236455  0.269132  0.472498  1
  Br  Br20  1  0.789428  0.111091  0.978715  1
  Br  Br21  1  0.210580  0.888934  0.021279  1
  Br  Br22  1  0.768285  0.792519  0.031544  1
  Br  Br23  1  0.231380  0.207315  0.968132  1
  Br  Br24  1  0.617444  0.189174  0.743496  1
  Br  Br25  1  0.381787  0.806504  0.254560  1
  Br  Br26  1  0.942795  0.053103  0.726604  1
  Br  Br27  1  0.051820  0.944668  0.271862  1
  Br  Br28  1  0.723552  0.046920  0.483664  1
  Br  Br29  1  0.277886  0.950705  0.520173  1
  Br  Br30  1  0.763257  0.434928  0.976865  1
  Br  Br31  1  0.236417  0.564654  0.022743  1
