# generated using pymatgen
data_Dy3Th(Sc3Ga4)2
_symmetry_space_group_name_H-M   'P 1'
_cell_length_a   7.30257555
_cell_length_b   7.58918217
_cell_length_c   14.49413000
_cell_angle_alpha   90.02387959
_cell_angle_beta   90.07066081
_cell_angle_gamma   90.07501418
_symmetry_Int_Tables_number   1
_chemical_formula_structural   Dy3Th(Sc3Ga4)2
_chemical_formula_sum   'Dy6 Th2 Sc12 Ga16'
_cell_volume   803.27166613
_cell_formula_units_Z   2
loop_
 _symmetry_equiv_pos_site_id
 _symmetry_equiv_pos_as_xyz
  1  'x, y, z'
loop_
 _atom_site_type_symbol
 _atom_site_label
 _atom_site_symmetry_multiplicity
 _atom_site_fract_x
 _atom_site_fract_y
 _atom_site_fract_z
 _atom_site_occupancy
  Dy  Dy0  1  0.489598  0.679151  0.904807  1
  Dy  Dy1  1  0.988816  0.820318  0.594403  1
  Dy  Dy2  1  0.510402  0.320849  0.095193  1
  Dy  Dy3  1  0.011184  0.179682  0.405597  1
  Dy  Dy4  1  0.511727  0.319863  0.406472  1
  Dy  Dy5  1  0.488273  0.680137  0.593528  1
  Th  Th6  1  0.011353  0.179118  0.095081  1
  Th  Th7  1  0.988647  0.820882  0.904919  1
  Sc  Sc8  1  0.164027  0.501953  0.748880  1
  Sc  Sc9  1  0.835973  0.498047  0.251120  1
  Sc  Sc10  1  0.338406  0.002270  0.251205  1
  Sc  Sc11  1  0.661594  0.997730  0.748795  1
  Sc  Sc12  1  0.329497  0.171329  0.623787  1
  Sc  Sc13  1  0.670503  0.828671  0.376213  1
  Sc  Sc14  1  0.171368  0.671975  0.376207  1
  Sc  Sc15  1  0.669540  0.827907  0.124905  1
  Sc  Sc16  1  0.828632  0.328025  0.623793  1
  Sc  Sc17  1  0.330460  0.172093  0.875095  1
  Sc  Sc18  1  0.828547  0.328377  0.874996  1
  Sc  Sc19  1  0.171453  0.671623  0.125004  1
  Ga  Ga20  1  0.030366  0.117834  0.749344  1
  Ga  Ga21  1  0.969634  0.882166  0.250656  1
  Ga  Ga22  1  0.469171  0.617537  0.250039  1
  Ga  Ga23  1  0.530829  0.382463  0.749961  1
  Ga  Ga24  1  0.286024  0.871862  0.748818  1
  Ga  Ga25  1  0.713976  0.128138  0.251182  1
  Ga  Ga26  1  0.217644  0.372382  0.250453  1
  Ga  Ga27  1  0.782356  0.627618  0.749547  1
  Ga  Ga28  1  0.161401  0.465558  0.540556  1
  Ga  Ga29  1  0.838599  0.534442  0.459444  1
  Ga  Ga30  1  0.338177  0.965029  0.459365  1
  Ga  Ga31  1  0.835400  0.536326  0.040804  1
  Ga  Ga32  1  0.661823  0.034971  0.540635  1
  Ga  Ga33  1  0.164600  0.463674  0.959196  1
  Ga  Ga34  1  0.657346  0.036860  0.959563  1
  Ga  Ga35  1  0.342654  0.963140  0.040437  1
