# generated using pymatgen
data_Y3Pt2Au
_symmetry_space_group_name_H-M   'P 1'
_cell_length_a   4.62311700
_cell_length_b   5.63145315
_cell_length_c   10.63330200
_cell_angle_alpha   83.15924250
_cell_angle_beta   90.00000000
_cell_angle_gamma   90.00000000
_symmetry_Int_Tables_number   1
_chemical_formula_structural   Y3Pt2Au
_chemical_formula_sum   'Y6 Pt4 Au2'
_cell_volume   274.86580948
_cell_formula_units_Z   2
loop_
 _symmetry_equiv_pos_site_id
 _symmetry_equiv_pos_as_xyz
  1  'x, y, z'
loop_
 _atom_site_type_symbol
 _atom_site_label
 _atom_site_symmetry_multiplicity
 _atom_site_fract_x
 _atom_site_fract_y
 _atom_site_fract_z
 _atom_site_occupancy
  Y  Y0  1  0.250000  0.406796  0.794257  1
  Y  Y1  1  0.750000  0.593204  0.205743  1
  Y  Y2  1  0.250000  0.118533  0.117897  1
  Y  Y3  1  0.750000  0.881467  0.882103  1
  Y  Y4  1  0.250000  0.248390  0.451935  1
  Y  Y5  1  0.750000  0.751610  0.548065  1
  Pt  Pt6  1  0.250000  0.650266  0.028214  1
  Pt  Pt7  1  0.750000  0.349734  0.971786  1
  Pt  Pt8  1  0.250000  0.911629  0.695279  1
  Pt  Pt9  1  0.750000  0.088371  0.304721  1
  Au  Au10  1  0.250000  0.764279  0.359333  1
  Au  Au11  1  0.750000  0.235721  0.640667  1
