# generated using pymatgen
data_YbEr(AgO2)4
_symmetry_space_group_name_H-M   'P 1'
_cell_length_a   6.58915835
_cell_length_b   6.58915791
_cell_length_c   6.58915789
_cell_angle_alpha   126.26984195
_cell_angle_beta   126.26982688
_cell_angle_gamma   79.44510070
_symmetry_Int_Tables_number   1
_chemical_formula_structural   YbEr(AgO2)4
_chemical_formula_sum   'Yb1 Er1 Ag4 O8'
_cell_volume   179.73282330
_cell_formula_units_Z   1
loop_
 _symmetry_equiv_pos_site_id
 _symmetry_equiv_pos_as_xyz
  1  'x, y, z'
loop_
 _atom_site_type_symbol
 _atom_site_label
 _atom_site_symmetry_multiplicity
 _atom_site_fract_x
 _atom_site_fract_y
 _atom_site_fract_z
 _atom_site_occupancy
  Yb  Yb0  1  0.000000  0.000000  0.000000  1
  Er  Er1  1  0.750000  0.250000  0.500000  1
  Ag  Ag2  1  0.370188  0.125590  0.744616  1
  Ag  Ag3  1  0.380974  0.625572  0.255384  1
  Ag  Ag4  1  0.874410  0.619026  0.244598  1
  Ag  Ag5  1  0.374428  0.629812  0.755402  1
  O  O6  1  0.031917  0.004341  0.643711  1
  O  O7  1  0.611795  0.968083  0.972426  1
  O  O8  1  0.995659  0.639369  0.027574  1
  O  O9  1  0.408254  0.870456  0.166195  1
  O  O10  1  0.757940  0.591746  0.462202  1
  O  O11  1  0.129544  0.295740  0.537798  1
  O  O12  1  0.360631  0.388205  0.356289  1
  O  O13  1  0.704260  0.242060  0.833805  1
