# generated using pymatgen
data_Pr4Nd8IrOs3
_symmetry_space_group_name_H-M   'P 1'
_cell_length_a   6.57489444
_cell_length_b   7.51506536
_cell_length_c   9.76756981
_cell_angle_alpha   90.02032101
_cell_angle_beta   89.95789925
_cell_angle_gamma   90.01358544
_symmetry_Int_Tables_number   1
_chemical_formula_structural   Pr4Nd8IrOs3
_chemical_formula_sum   'Pr4 Nd8 Ir1 Os3'
_cell_volume   482.62288799
_cell_formula_units_Z   1
loop_
 _symmetry_equiv_pos_site_id
 _symmetry_equiv_pos_as_xyz
  1  'x, y, z'
loop_
 _atom_site_type_symbol
 _atom_site_label
 _atom_site_symmetry_multiplicity
 _atom_site_fract_x
 _atom_site_fract_y
 _atom_site_fract_z
 _atom_site_occupancy
  Pr  Pr0  1  0.171758  0.177411  0.065638  1
  Pr  Pr1  1  0.856846  0.538534  0.250074  1
  Pr  Pr2  1  0.642117  0.041331  0.250177  1
  Pr  Pr3  1  0.355920  0.960330  0.749900  1
  Nd  Nd4  1  0.330290  0.674317  0.066455  1
  Nd  Nd5  1  0.171755  0.177090  0.434061  1
  Nd  Nd6  1  0.672471  0.324090  0.567974  1
  Nd  Nd7  1  0.826292  0.824135  0.930922  1
  Nd  Nd8  1  0.672526  0.324113  0.931892  1
  Nd  Nd9  1  0.826471  0.824310  0.569006  1
  Nd  Nd10  1  0.330228  0.674255  0.433537  1
  Nd  Nd11  1  0.142771  0.461152  0.749879  1
  Ir  Ir12  1  0.054823  0.884271  0.250479  1
  Os  Os13  1  0.445497  0.385303  0.250386  1
  Os  Os14  1  0.948371  0.114663  0.749600  1
  Os  Os15  1  0.551865  0.614697  0.750020  1
