# generated using pymatgen
data_Sc22FeIr7
_symmetry_space_group_name_H-M   'P 1'
_cell_length_a   9.43184666
_cell_length_b   9.43184669
_cell_length_c   9.43184700
_cell_angle_alpha   60.00000241
_cell_angle_beta   60.00000231
_cell_angle_gamma   60.00000569
_symmetry_Int_Tables_number   1
_chemical_formula_structural   Sc22FeIr7
_chemical_formula_sum   'Sc22 Fe1 Ir7'
_cell_volume   593.30122873
_cell_formula_units_Z   1
loop_
 _symmetry_equiv_pos_site_id
 _symmetry_equiv_pos_as_xyz
  1  'x, y, z'
loop_
 _atom_site_type_symbol
 _atom_site_label
 _atom_site_symmetry_multiplicity
 _atom_site_fract_x
 _atom_site_fract_y
 _atom_site_fract_z
 _atom_site_occupancy
  Sc  Sc0  1  0.801596  0.801596  0.198404  1
  Sc  Sc1  1  0.198404  0.801596  0.198404  1
  Sc  Sc2  1  0.801596  0.198404  0.198404  1
  Sc  Sc3  1  0.198404  0.198404  0.801596  1
  Sc  Sc4  1  0.801596  0.198404  0.801596  1
  Sc  Sc5  1  0.198404  0.801596  0.801596  1
  Sc  Sc6  1  0.614945  0.614945  0.155165  1
  Sc  Sc7  1  0.614945  0.155165  0.614945  1
  Sc  Sc8  1  0.155165  0.614945  0.614945  1
  Sc  Sc9  1  0.614945  0.614945  0.614945  1
  Sc  Sc10  1  0.385055  0.385055  0.844835  1
  Sc  Sc11  1  0.385055  0.844835  0.385055  1
  Sc  Sc12  1  0.844835  0.385055  0.385055  1
  Sc  Sc13  1  0.385055  0.385055  0.385055  1
  Sc  Sc14  1  0.842739  0.842739  0.471783  1
  Sc  Sc15  1  0.842739  0.471783  0.842739  1
  Sc  Sc16  1  0.471783  0.842739  0.842739  1
  Sc  Sc17  1  0.842739  0.842739  0.842739  1
  Sc  Sc18  1  0.157261  0.157261  0.528217  1
  Sc  Sc19  1  0.157261  0.528217  0.157261  1
  Sc  Sc20  1  0.528217  0.157261  0.157261  1
  Sc  Sc21  1  0.157261  0.157261  0.157261  1
  Fe  Fe22  1  0.500000  0.500000  0.500000  1
  Ir  Ir23  1  0.000000  0.000000  0.000000  1
  Ir  Ir24  1  0.000000  0.000000  0.500000  1
  Ir  Ir25  1  0.500000  0.000000  0.500000  1
  Ir  Ir26  1  0.000000  0.500000  0.500000  1
  Ir  Ir27  1  0.500000  0.500000  0.000000  1
  Ir  Ir28  1  0.000000  0.500000  0.000000  1
  Ir  Ir29  1  0.500000  0.000000  0.000000  1
