# generated using pymatgen
data_MnNb8NiTe8
_symmetry_space_group_name_H-M   'P 1'
_cell_length_a   4.87432700
_cell_length_b   11.28832700
_cell_length_c   19.97003100
_cell_angle_alpha   90.00000000
_cell_angle_beta   90.00000000
_cell_angle_gamma   90.00000000
_symmetry_Int_Tables_number   1
_chemical_formula_structural   MnNb8NiTe8
_chemical_formula_sum   'Mn2 Nb16 Ni2 Te16'
_cell_volume   1098.81095742
_cell_formula_units_Z   2
loop_
 _symmetry_equiv_pos_site_id
 _symmetry_equiv_pos_as_xyz
  1  'x, y, z'
loop_
 _atom_site_type_symbol
 _atom_site_label
 _atom_site_symmetry_multiplicity
 _atom_site_fract_x
 _atom_site_fract_y
 _atom_site_fract_z
 _atom_site_occupancy
  Mn  Mn0  1  0.249758  0.500000  0.500000  1
  Mn  Mn1  1  0.750242  0.000000  0.000000  1
  Nb  Nb2  1  0.502681  0.562666  0.388455  1
  Nb  Nb3  1  0.502681  0.437334  0.611545  1
  Nb  Nb4  1  0.497319  0.062666  0.111545  1
  Nb  Nb5  1  0.497319  0.937334  0.888455  1
  Nb  Nb6  1  0.502489  0.697467  0.535047  1
  Nb  Nb7  1  0.502489  0.302533  0.464953  1
  Nb  Nb8  1  0.497511  0.197467  0.964953  1
  Nb  Nb9  1  0.497511  0.802533  0.035047  1
  Nb  Nb10  1  0.998204  0.683844  0.445918  1
  Nb  Nb11  1  0.998204  0.316156  0.554082  1
  Nb  Nb12  1  0.001796  0.183844  0.054082  1
  Nb  Nb13  1  0.001796  0.816156  0.945918  1
  Nb  Nb14  1  0.997843  0.404841  0.396294  1
  Nb  Nb15  1  0.997843  0.595159  0.603706  1
  Nb  Nb16  1  0.002157  0.904841  0.103706  1
  Nb  Nb17  1  0.002157  0.095159  0.896294  1
  Ni  Ni18  1  0.749775  0.500000  0.500000  1
  Ni  Ni19  1  0.250225  0.000000  0.000000  1
  Te  Te20  1  0.999904  0.835946  0.560161  1
  Te  Te21  1  0.999904  0.164054  0.439839  1
  Te  Te22  1  0.000096  0.335946  0.939839  1
  Te  Te23  1  0.000096  0.664054  0.060161  1
  Te  Te24  1  0.500307  0.337490  0.323570  1
  Te  Te25  1  0.500307  0.662510  0.676430  1
  Te  Te26  1  0.499693  0.837490  0.176430  1
  Te  Te27  1  0.499693  0.162510  0.823570  1
  Te  Te28  1  0.501109  0.813323  0.407993  1
  Te  Te29  1  0.501109  0.186677  0.592007  1
  Te  Te30  1  0.498891  0.313323  0.092007  1
  Te  Te31  1  0.498891  0.686677  0.907993  1
  Te  Te32  1  0.000221  0.606272  0.309923  1
  Te  Te33  1  0.000221  0.393728  0.690077  1
  Te  Te34  1  0.999779  0.106272  0.190077  1
  Te  Te35  1  0.999779  0.893728  0.809923  1
