# generated using pymatgen
data_ErTm7(Si3Rh)4
_symmetry_space_group_name_H-M   'P 1'
_cell_length_a   8.12711700
_cell_length_b   8.12711744
_cell_length_c   7.77563200
_cell_angle_alpha   90.00000000
_cell_angle_beta   90.00000000
_cell_angle_gamma   120.00000228
_symmetry_Int_Tables_number   1
_chemical_formula_structural   ErTm7(Si3Rh)4
_chemical_formula_sum   'Er1 Tm7 Si12 Rh4'
_cell_volume   444.77397510
_cell_formula_units_Z   1
loop_
 _symmetry_equiv_pos_site_id
 _symmetry_equiv_pos_as_xyz
  1  'x, y, z'
loop_
 _atom_site_type_symbol
 _atom_site_label
 _atom_site_symmetry_multiplicity
 _atom_site_fract_x
 _atom_site_fract_y
 _atom_site_fract_z
 _atom_site_occupancy
  Er  Er0  1  0.000000  0.000000  0.250000  1
  Tm  Tm1  1  0.981958  0.490980  0.250000  1
  Tm  Tm2  1  0.509020  0.490980  0.250000  1
  Tm  Tm3  1  0.490980  0.981958  0.750000  1
  Tm  Tm4  1  0.018042  0.509020  0.750000  1
  Tm  Tm5  1  0.490980  0.509020  0.750000  1
  Tm  Tm6  1  0.509020  0.018042  0.250000  1
  Tm  Tm7  1  0.000000  0.000000  0.750000  1
  Si  Si8  1  0.166877  0.833123  0.499778  1
  Si  Si9  1  0.166877  0.333752  0.499778  1
  Si  Si10  1  0.666248  0.833123  0.499778  1
  Si  Si11  1  0.333762  0.166881  0.999617  1
  Si  Si12  1  0.833119  0.666238  0.500383  1
  Si  Si13  1  0.833119  0.166881  0.999617  1
  Si  Si14  1  0.833119  0.666238  0.999617  1
  Si  Si15  1  0.166877  0.333752  0.000222  1
  Si  Si16  1  0.666248  0.833123  0.000222  1
  Si  Si17  1  0.333762  0.166881  0.500383  1
  Si  Si18  1  0.833119  0.166881  0.500383  1
  Si  Si19  1  0.166877  0.833123  0.000222  1
  Rh  Rh20  1  0.333333  0.666667  0.033609  1
  Rh  Rh21  1  0.666667  0.333333  0.966307  1
  Rh  Rh22  1  0.666667  0.333333  0.533693  1
  Rh  Rh23  1  0.333333  0.666667  0.466391  1
