# generated using pymatgen
data_Er4Al18AgIr5
_symmetry_space_group_name_H-M   'P 1'
_cell_length_a   7.58693929
_cell_length_b   7.58694010
_cell_length_c   9.45705100
_cell_angle_alpha   89.98423164
_cell_angle_beta   89.98423164
_cell_angle_gamma   119.59824494
_symmetry_Int_Tables_number   1
_chemical_formula_structural   Er4Al18AgIr5
_chemical_formula_sum   'Er4 Al18 Ag1 Ir5'
_cell_volume   473.32946556
_cell_formula_units_Z   1
loop_
 _symmetry_equiv_pos_site_id
 _symmetry_equiv_pos_as_xyz
  1  'x, y, z'
loop_
 _atom_site_type_symbol
 _atom_site_label
 _atom_site_symmetry_multiplicity
 _atom_site_fract_x
 _atom_site_fract_y
 _atom_site_fract_z
 _atom_site_occupancy
  Er  Er0  1  0.995903  0.673398  0.251509  1
  Er  Er1  1  0.004097  0.326602  0.748491  1
  Er  Er2  1  0.673398  0.995903  0.251509  1
  Er  Er3  1  0.326602  0.004097  0.748491  1
  Al  Al4  1  0.134781  0.134781  0.256071  1
  Al  Al5  1  0.865219  0.865219  0.743929  1
  Al  Al6  1  0.001349  0.344405  0.079718  1
  Al  Al7  1  0.998651  0.655595  0.920282  1
  Al  Al8  1  0.000269  0.664575  0.574321  1
  Al  Al9  1  0.335425  0.999731  0.425679  1
  Al  Al10  1  0.999731  0.335425  0.425679  1
  Al  Al11  1  0.664575  0.000269  0.574321  1
  Al  Al12  1  0.655595  0.998651  0.920282  1
  Al  Al13  1  0.344405  0.001349  0.079718  1
  Al  Al14  1  0.332881  0.332881  0.553484  1
  Al  Al15  1  0.667119  0.667119  0.446516  1
  Al  Al16  1  0.657952  0.657952  0.060349  1
  Al  Al17  1  0.342048  0.342048  0.939651  1
  Al  Al18  1  0.339088  0.550536  0.251233  1
  Al  Al19  1  0.660912  0.449464  0.748767  1
  Al  Al20  1  0.550536  0.339088  0.251233  1
  Al  Al21  1  0.449464  0.660912  0.748767  1
  Ag  Ag22  1  0.000000  0.000000  0.000000  1
  Ir  Ir23  1  0.671856  0.328144  0.000000  1
  Ir  Ir24  1  0.328144  0.671856  0.000000  1
  Ir  Ir25  1  0.327750  0.672250  0.500000  1
  Ir  Ir26  1  0.672250  0.327750  0.500000  1
  Ir  Ir27  1  0.000000  0.000000  0.500000  1
