# generated using pymatgen
data_ErTm(Sb5O13)2
_symmetry_space_group_name_H-M   'P 1'
_cell_length_a   7.41736409
_cell_length_b   7.34978070
_cell_length_c   10.30303800
_cell_angle_alpha   88.82531139
_cell_angle_beta   89.94770481
_cell_angle_gamma   89.94671315
_symmetry_Int_Tables_number   1
_chemical_formula_structural   ErTm(Sb5O13)2
_chemical_formula_sum   'Er1 Tm1 Sb10 O26'
_cell_volume   561.56190245
_cell_formula_units_Z   1
loop_
 _symmetry_equiv_pos_site_id
 _symmetry_equiv_pos_as_xyz
  1  'x, y, z'
loop_
 _atom_site_type_symbol
 _atom_site_label
 _atom_site_symmetry_multiplicity
 _atom_site_fract_x
 _atom_site_fract_y
 _atom_site_fract_z
 _atom_site_occupancy
  Er  Er0  1  0.500000  0.500000  0.000000  1
  Tm  Tm1  1  0.000000  0.500000  0.000000  1
  Sb  Sb2  1  0.250206  0.727441  0.732417  1
  Sb  Sb3  1  0.749794  0.272559  0.267583  1
  Sb  Sb4  1  0.500000  0.000000  0.000000  1
  Sb  Sb5  1  0.750167  0.757037  0.749384  1
  Sb  Sb6  1  0.249799  0.747325  0.251237  1
  Sb  Sb7  1  0.500000  0.500000  0.500000  1
  Sb  Sb8  1  0.000000  0.500000  0.500000  1
  Sb  Sb9  1  0.750201  0.252675  0.748763  1
  Sb  Sb10  1  0.249833  0.242963  0.250616  1
  Sb  Sb11  1  0.000000  0.000000  0.000000  1
  O  O12  1  0.447964  0.690153  0.371706  1
  O  O13  1  0.751010  0.457308  0.124585  1
  O  O14  1  0.249554  0.493450  0.158917  1
  O  O15  1  0.454332  0.308899  0.365791  1
  O  O16  1  0.556802  0.217377  0.885842  1
  O  O17  1  0.943177  0.217733  0.886062  1
  O  O18  1  0.449552  0.208952  0.120524  1
  O  O19  1  0.749956  0.999276  0.072601  1
  O  O20  1  0.250044  0.000724  0.927399  1
  O  O21  1  0.749891  0.004246  0.685521  1
  O  O22  1  0.550448  0.791048  0.879476  1
  O  O23  1  0.949238  0.790678  0.879859  1
  O  O24  1  0.443198  0.782623  0.114158  1
  O  O25  1  0.051939  0.690307  0.371816  1
  O  O26  1  0.545668  0.691101  0.634209  1
  O  O27  1  0.954157  0.691480  0.633731  1
  O  O28  1  0.250016  0.518438  0.581310  1
  O  O29  1  0.750446  0.506550  0.841083  1
  O  O30  1  0.749984  0.481562  0.418690  1
  O  O31  1  0.045843  0.308520  0.366269  1
  O  O32  1  0.552036  0.309847  0.628294  1
  O  O33  1  0.948061  0.309693  0.628184  1
  O  O34  1  0.050762  0.209322  0.120141  1
  O  O35  1  0.250109  0.995754  0.314479  1
  O  O36  1  0.056823  0.782267  0.113938  1
  O  O37  1  0.248990  0.542692  0.875415  1
