# generated using pymatgen
data_Tb8GaAsI12
_symmetry_space_group_name_H-M   'P 1'
_cell_length_a   4.27988200
_cell_length_b   14.00788865
_cell_length_c   14.82642828
_cell_angle_alpha   90.14133624
_cell_angle_beta   90.00000000
_cell_angle_gamma   90.00000000
_symmetry_Int_Tables_number   1
_chemical_formula_structural   Tb8GaAsI12
_chemical_formula_sum   'Tb8 Ga1 As1 I12'
_cell_volume   888.87296217
_cell_formula_units_Z   1
loop_
 _symmetry_equiv_pos_site_id
 _symmetry_equiv_pos_as_xyz
  1  'x, y, z'
loop_
 _atom_site_type_symbol
 _atom_site_label
 _atom_site_symmetry_multiplicity
 _atom_site_fract_x
 _atom_site_fract_y
 _atom_site_fract_z
 _atom_site_occupancy
  Tb  Tb0  1  0.500000  0.115359  0.346085  1
  Tb  Tb1  1  0.500000  0.884641  0.653915  1
  Tb  Tb2  1  0.500000  0.615090  0.153954  1
  Tb  Tb3  1  0.500000  0.384910  0.846046  1
  Tb  Tb4  1  0.000000  0.112015  0.574993  1
  Tb  Tb5  1  0.000000  0.887985  0.425007  1
  Tb  Tb6  1  0.000000  0.609497  0.926850  1
  Tb  Tb7  1  0.000000  0.390503  0.073150  1
  Ga  Ga8  1  0.500000  0.000000  0.500000  1
  As  As9  1  0.500000  0.500000  0.000000  1
  I  I10  1  0.500000  0.249429  0.160315  1
  I  I11  1  0.500000  0.750571  0.839685  1
  I  I12  1  0.500000  0.745703  0.335101  1
  I  I13  1  0.500000  0.254297  0.664899  1
  I  I14  1  0.000000  0.260862  0.414625  1
  I  I15  1  0.000000  0.739138  0.585375  1
  I  I16  1  0.000000  0.757608  0.085597  1
  I  I17  1  0.000000  0.242392  0.914403  1
  I  I18  1  0.000000  0.999565  0.238387  1
  I  I19  1  0.000000  0.000435  0.761613  1
  I  I20  1  0.000000  0.499787  0.258250  1
  I  I21  1  0.000000  0.500213  0.741750  1
