# generated using pymatgen
data_TbYMoWC3
_symmetry_space_group_name_H-M   'P 1'
_cell_length_a   6.15185700
_cell_length_b   6.15185710
_cell_length_c   5.74770485
_cell_angle_alpha   68.12240859
_cell_angle_beta   68.12240848
_cell_angle_gamma   31.61447604
_symmetry_Int_Tables_number   1
_chemical_formula_structural   TbYMoWC3
_chemical_formula_sum   'Tb1 Y1 Mo1 W1 C3'
_cell_volume   105.12836361
_cell_formula_units_Z   1
loop_
 _symmetry_equiv_pos_site_id
 _symmetry_equiv_pos_as_xyz
  1  'x, y, z'
loop_
 _atom_site_type_symbol
 _atom_site_label
 _atom_site_symmetry_multiplicity
 _atom_site_fract_x
 _atom_site_fract_y
 _atom_site_fract_z
 _atom_site_occupancy
  Tb  Tb0  1  0.390508  0.390508  0.819761  1
  Y  Y1  1  0.609955  0.609955  0.175615  1
  Mo  Mo2  1  0.156506  0.156506  0.675653  1
  W  W3  1  0.842231  0.842231  0.327112  1
  C  C4  1  0.751346  0.751346  0.732611  1
  C  C5  1  0.250160  0.250160  0.265829  1
  C  C6  1  0.999295  0.999295  0.003417  1
