# generated using pymatgen
data_SmDy15CdHg3Rh4
_symmetry_space_group_name_H-M   'P 1'
_cell_length_a   9.61080428
_cell_length_b   9.62597083
_cell_length_c   9.62651500
_cell_angle_alpha   59.99812652
_cell_angle_beta   59.94590659
_cell_angle_gamma   59.87785089
_symmetry_Int_Tables_number   1
_chemical_formula_structural   SmDy15CdHg3Rh4
_chemical_formula_sum   'Sm1 Dy15 Cd1 Hg3 Rh4'
_cell_volume   628.88637234
_cell_formula_units_Z   1
loop_
 _symmetry_equiv_pos_site_id
 _symmetry_equiv_pos_as_xyz
  1  'x, y, z'
loop_
 _atom_site_type_symbol
 _atom_site_label
 _atom_site_symmetry_multiplicity
 _atom_site_fract_x
 _atom_site_fract_y
 _atom_site_fract_z
 _atom_site_occupancy
  Sm  Sm0  1  0.563199  0.563620  0.936591  1
  Dy  Dy1  1  0.146470  0.555206  0.149163  1
  Dy  Dy2  1  0.689620  0.311670  0.310834  1
  Dy  Dy3  1  0.938561  0.563449  0.561513  1
  Dy  Dy4  1  0.938561  0.563449  0.936477  1
  Dy  Dy5  1  0.689724  0.689861  0.310208  1
  Dy  Dy6  1  0.562478  0.939127  0.936268  1
  Dy  Dy7  1  0.149411  0.148841  0.151159  1
  Dy  Dy8  1  0.310424  0.690456  0.310440  1
  Dy  Dy9  1  0.552386  0.146769  0.150422  1
  Dy  Dy10  1  0.310663  0.311571  0.688883  1
  Dy  Dy11  1  0.310424  0.690456  0.688680  1
  Dy  Dy12  1  0.149411  0.148841  0.550589  1
  Dy  Dy13  1  0.689620  0.311670  0.687876  1
  Dy  Dy14  1  0.936498  0.937449  0.563026  1
  Dy  Dy15  1  0.562478  0.939127  0.562126  1
  Cd  Cd16  1  0.921126  0.240528  0.919173  1
  Hg  Hg17  1  0.913959  0.915957  0.914022  1
  Hg  Hg18  1  0.254698  0.918159  0.913571  1
  Hg  Hg19  1  0.913959  0.915957  0.256060  1
  Rh  Rh20  1  0.356149  0.356815  0.927365  1
  Rh  Rh21  1  0.356149  0.356815  0.359670  1
  Rh  Rh22  1  0.927694  0.356677  0.357814  1
  Rh  Rh23  1  0.356336  0.927528  0.358068  1
