# generated using pymatgen
data_Yb4Tm5Lu(CuPb3)2
_symmetry_space_group_name_H-M   'P 1'
_cell_length_a   9.10277118
_cell_length_b   9.10277014
_cell_length_c   6.82522700
_cell_angle_alpha   90.00000000
_cell_angle_beta   90.00000000
_cell_angle_gamma   119.97725904
_symmetry_Int_Tables_number   1
_chemical_formula_structural   Yb4Tm5Lu(CuPb3)2
_chemical_formula_sum   'Yb4 Tm5 Lu1 Cu2 Pb6'
_cell_volume   489.88530061
_cell_formula_units_Z   1
loop_
 _symmetry_equiv_pos_site_id
 _symmetry_equiv_pos_as_xyz
  1  'x, y, z'
loop_
 _atom_site_type_symbol
 _atom_site_label
 _atom_site_symmetry_multiplicity
 _atom_site_fract_x
 _atom_site_fract_y
 _atom_site_fract_z
 _atom_site_occupancy
  Yb  Yb0  1  0.333278  0.666458  0.499935  1
  Yb  Yb1  1  0.666458  0.333278  0.499935  1
  Yb  Yb2  1  0.666458  0.333278  0.000065  1
  Yb  Yb3  1  0.333278  0.666458  0.000065  1
  Tm  Tm4  1  0.252018  0.000130  0.750000  1
  Tm  Tm5  1  0.748055  0.999971  0.250000  1
  Tm  Tm6  1  0.000130  0.252018  0.750000  1
  Tm  Tm7  1  0.999971  0.748055  0.250000  1
  Tm  Tm8  1  0.748192  0.748192  0.750000  1
  Lu  Lu9  1  0.251241  0.251241  0.250000  1
  Cu  Cu10  1  0.000523  0.000523  0.499694  1
  Cu  Cu11  1  0.000523  0.000523  0.000306  1
  Pb  Pb12  1  0.608373  0.000067  0.750000  1
  Pb  Pb13  1  0.391439  0.000427  0.250000  1
  Pb  Pb14  1  0.000067  0.608373  0.750000  1
  Pb  Pb15  1  0.000427  0.391439  0.250000  1
  Pb  Pb16  1  0.391488  0.391488  0.750000  1
  Pb  Pb17  1  0.608085  0.608085  0.250000  1
