# generated using pymatgen
data_Ho5ScAl17Si7Os8
_symmetry_space_group_name_H-M   'P 1'
_cell_length_a   8.66474157
_cell_length_b   8.66738581
_cell_length_c   9.45481500
_cell_angle_alpha   90.00000000
_cell_angle_beta   90.00000000
_cell_angle_gamma   120.07946919
_symmetry_Int_Tables_number   1
_chemical_formula_structural   Ho5ScAl17Si7Os8
_chemical_formula_sum   'Ho5 Sc1 Al17 Si7 Os8'
_cell_volume   614.43942816
_cell_formula_units_Z   1
loop_
 _symmetry_equiv_pos_site_id
 _symmetry_equiv_pos_as_xyz
  1  'x, y, z'
loop_
 _atom_site_type_symbol
 _atom_site_label
 _atom_site_symmetry_multiplicity
 _atom_site_fract_x
 _atom_site_fract_y
 _atom_site_fract_z
 _atom_site_occupancy
  Ho  Ho0  1  0.192651  0.387983  0.250000  1
  Ho  Ho1  1  0.612325  0.808170  0.250000  1
  Ho  Ho2  1  0.386175  0.190457  0.750000  1
  Ho  Ho3  1  0.195257  0.806182  0.250000  1
  Ho  Ho4  1  0.803253  0.190703  0.750000  1
  Sc  Sc5  1  0.803270  0.607591  0.750000  1
  Al  Al6  1  0.164769  0.330459  0.578806  1
  Al  Al7  1  0.834539  0.671478  0.423657  1
  Al  Al8  1  0.672398  0.834378  0.578767  1
  Al  Al9  1  0.834539  0.671478  0.076343  1
  Al  Al10  1  0.330853  0.166596  0.422473  1
  Al  Al11  1  0.164769  0.330459  0.921194  1
  Al  Al12  1  0.161747  0.833547  0.577539  1
  Al  Al13  1  0.330853  0.166596  0.077527  1
  Al  Al14  1  0.835251  0.164661  0.422033  1
  Al  Al15  1  0.672398  0.834378  0.921233  1
  Al  Al16  1  0.835251  0.164661  0.077967  1
  Al  Al17  1  0.161747  0.833547  0.922461  1
  Al  Al18  1  0.122389  0.565210  0.750000  1
  Al  Al19  1  0.565694  0.436312  0.250000  1
  Al  Al20  1  0.441182  0.566167  0.750000  1
  Al  Al21  1  0.000054  0.999646  0.250000  1
  Al  Al22  1  0.993907  0.989126  0.750000  1
  Si  Si23  1  0.333849  0.665462  0.039208  1
  Si  Si24  1  0.668164  0.338794  0.956001  1
  Si  Si25  1  0.668164  0.338794  0.543999  1
  Si  Si26  1  0.333849  0.665462  0.460792  1
  Si  Si27  1  0.565189  0.124887  0.250000  1
  Si  Si28  1  0.435733  0.872159  0.750000  1
  Si  Si29  1  0.874546  0.435416  0.250000  1
  Os  Os30  1  0.501339  0.001939  0.999895  1
  Os  Os31  1  0.998106  0.499919  0.005792  1
  Os  Os32  1  0.501339  0.001939  0.500105  1
  Os  Os33  1  0.501690  0.500845  0.999607  1
  Os  Os34  1  0.998106  0.499919  0.494208  1
  Os  Os35  1  0.501690  0.500845  0.500393  1
  Os  Os36  1  0.001483  0.001914  0.999957  1
  Os  Os37  1  0.001483  0.001914  0.500043  1
