# generated using pymatgen
data_Ho7Np(Si4W3)4
_symmetry_space_group_name_H-M   'P 1'
_cell_length_a   6.76299454
_cell_length_b   6.92224562
_cell_length_c   12.93566444
_cell_angle_alpha   90.00807834
_cell_angle_beta   90.02953210
_cell_angle_gamma   90.25131242
_symmetry_Int_Tables_number   1
_chemical_formula_structural   Ho7Np(Si4W3)4
_chemical_formula_sum   'Ho7 Np1 Si16 W12'
_cell_volume   605.57863340
_cell_formula_units_Z   1
loop_
 _symmetry_equiv_pos_site_id
 _symmetry_equiv_pos_as_xyz
  1  'x, y, z'
loop_
 _atom_site_type_symbol
 _atom_site_label
 _atom_site_symmetry_multiplicity
 _atom_site_fract_x
 _atom_site_fract_y
 _atom_site_fract_z
 _atom_site_occupancy
  Ho  Ho0  1  0.995441  0.168011  0.406559  1
  Ho  Ho1  1  0.503183  0.668196  0.593758  1
  Ho  Ho2  1  0.002775  0.831195  0.906333  1
  Ho  Ho3  1  0.505745  0.665079  0.907875  1
  Ho  Ho4  1  0.003387  0.833160  0.593773  1
  Ho  Ho5  1  0.494479  0.333388  0.406597  1
  Ho  Ho6  1  0.997053  0.168574  0.092646  1
  Np  Np7  1  0.492221  0.328565  0.098725  1
  Si  Si8  1  0.802771  0.633494  0.749943  1
  Si  Si9  1  0.303065  0.866223  0.751062  1
  Si  Si10  1  0.196624  0.367699  0.250579  1
  Si  Si11  1  0.698253  0.134180  0.249538  1
  Si  Si12  1  0.537514  0.371516  0.749742  1
  Si  Si13  1  0.037132  0.128163  0.749963  1
  Si  Si14  1  0.462924  0.627869  0.249034  1
  Si  Si15  1  0.964335  0.870828  0.248060  1
  Si  Si16  1  0.661365  0.042059  0.545426  1
  Si  Si17  1  0.162706  0.457732  0.955047  1
  Si  Si18  1  0.339185  0.956384  0.045717  1
  Si  Si19  1  0.837785  0.542168  0.453335  1
  Si  Si20  1  0.338726  0.958603  0.453855  1
  Si  Si21  1  0.834008  0.540588  0.044717  1
  Si  Si22  1  0.663370  0.044309  0.956273  1
  Si  Si23  1  0.160476  0.458863  0.545619  1
  W  W24  1  0.664430  0.001686  0.751367  1
  W  W25  1  0.166210  0.497971  0.750278  1
  W  W26  1  0.335948  0.002937  0.247345  1
  W  W27  1  0.830915  0.498559  0.247370  1
  W  W28  1  0.832694  0.335470  0.624698  1
  W  W29  1  0.335155  0.167463  0.877104  1
  W  W30  1  0.169433  0.658360  0.125081  1
  W  W31  1  0.665883  0.835175  0.373960  1
  W  W32  1  0.165761  0.666054  0.374476  1
  W  W33  1  0.669888  0.838180  0.124985  1
  W  W34  1  0.835430  0.335649  0.873950  1
  W  W35  1  0.333731  0.165651  0.625211  1
