# generated using pymatgen
data_SmNp7F30
_symmetry_space_group_name_H-M   'P 1'
_cell_length_a   8.69264589
_cell_length_b   8.69662158
_cell_length_c   8.69264695
_cell_angle_alpha   100.57354206
_cell_angle_beta   100.33227268
_cell_angle_gamma   100.57353948
_symmetry_Int_Tables_number   1
_chemical_formula_structural   SmNp7F30
_chemical_formula_sum   'Sm1 Np7 F30'
_cell_volume   619.38603764
_cell_formula_units_Z   1
loop_
 _symmetry_equiv_pos_site_id
 _symmetry_equiv_pos_as_xyz
  1  'x, y, z'
loop_
 _atom_site_type_symbol
 _atom_site_label
 _atom_site_symmetry_multiplicity
 _atom_site_fract_x
 _atom_site_fract_y
 _atom_site_fract_z
 _atom_site_occupancy
  Sm  Sm0  1  0.823119  0.250000  0.676881  1
  Np  Np1  1  0.250441  0.250000  0.249559  1
  Np  Np2  1  0.177697  0.750000  0.322303  1
  Np  Np3  1  0.247856  0.677258  0.822736  1
  Np  Np4  1  0.677264  0.822742  0.252144  1
  Np  Np5  1  0.749743  0.750000  0.750257  1
  Np  Np6  1  0.323433  0.179016  0.747908  1
  Np  Np7  1  0.752092  0.320984  0.176567  1
  F  F8  1  0.969113  0.530749  0.252017  1
  F  F9  1  0.816233  0.338665  0.439615  1
  F  F10  1  0.487855  0.716624  0.718461  1
  F  F11  1  0.342761  0.449384  0.825877  1
  F  F12  1  0.012556  0.784515  0.784216  1
  F  F13  1  0.752210  0.027506  0.463103  1
  F  F14  1  0.945953  0.837618  0.321690  1
  F  F15  1  0.218994  0.218901  0.989790  1
  F  F16  1  0.780322  0.006894  0.778908  1
  F  F17  1  0.323792  0.946975  0.838086  1
  F  F18  1  0.282449  0.285760  0.512368  1
  F  F19  1  0.447181  0.824598  0.342151  1
  F  F20  1  0.529879  0.250000  0.970121  1
  F  F21  1  0.283113  0.512654  0.281375  1
  F  F22  1  0.157849  0.675402  0.052819  1
  F  F23  1  0.840188  0.321080  0.951837  1
  F  F24  1  0.721092  0.493106  0.719678  1
  F  F25  1  0.465250  0.750000  0.034750  1
  F  F26  1  0.548163  0.178920  0.659812  1
  F  F27  1  0.715784  0.715485  0.487444  1
  F  F28  1  0.674123  0.050616  0.157239  1
  F  F29  1  0.218625  0.987346  0.216887  1
  F  F30  1  0.781539  0.783376  0.012145  1
  F  F31  1  0.060385  0.161335  0.683767  1
  F  F32  1  0.247983  0.969251  0.530887  1
  F  F33  1  0.987632  0.214240  0.217551  1
  F  F34  1  0.661914  0.553025  0.176208  1
  F  F35  1  0.510210  0.281099  0.281006  1
  F  F36  1  0.178310  0.662382  0.554047  1
  F  F37  1  0.036897  0.472494  0.747790  1
