# generated using pymatgen
data_Pm8Si3GeO20
_symmetry_space_group_name_H-M   'P 1'
_cell_length_a   6.98074977
_cell_length_b   8.25741702
_cell_length_c   9.99587050
_cell_angle_alpha   90.25251977
_cell_angle_beta   110.60410938
_cell_angle_gamma   115.23264955
_symmetry_Int_Tables_number   1
_chemical_formula_structural   Pm8Si3GeO20
_chemical_formula_sum   'Pm8 Si3 Ge1 O20'
_cell_volume   479.69157546
_cell_formula_units_Z   1
loop_
 _symmetry_equiv_pos_site_id
 _symmetry_equiv_pos_as_xyz
  1  'x, y, z'
loop_
 _atom_site_type_symbol
 _atom_site_label
 _atom_site_symmetry_multiplicity
 _atom_site_fract_x
 _atom_site_fract_y
 _atom_site_fract_z
 _atom_site_occupancy
  Pm  Pm0  1  0.327049  0.104584  0.034279  1
  Pm  Pm1  1  0.929671  0.452618  0.166281  1
  Pm  Pm2  1  0.820972  0.054249  0.335761  1
  Pm  Pm3  1  0.677502  0.385222  0.465998  1
  Pm  Pm4  1  0.317444  0.608740  0.538970  1
  Pm  Pm5  1  0.190293  0.954502  0.664075  1
  Pm  Pm6  1  0.057537  0.551272  0.830775  1
  Pm  Pm7  1  0.676485  0.892532  0.962531  1
  Si  Si8  1  0.219233  0.944937  0.306983  1
  Si  Si9  1  0.787232  0.054178  0.692160  1
  Si  Si10  1  0.535074  0.448351  0.810342  1
  Ge  Ge11  1  0.458250  0.553865  0.190769  1
  O  O12  1  0.177959  0.455616  0.053743  1
  O  O13  1  0.718447  0.138195  0.103618  1
  O  O14  1  0.057394  0.959448  0.145166  1
  O  O15  1  0.620353  0.775122  0.172046  1
  O  O16  1  0.584240  0.408070  0.183670  1
  O  O17  1  0.484854  0.077082  0.318656  1
  O  O18  1  0.179310  0.737894  0.327037  1
  O  O19  1  0.435661  0.527631  0.361674  1
  O  O20  1  0.970975  0.364287  0.398423  1
  O  O21  1  0.176372  0.037652  0.433608  1
  O  O22  1  0.834595  0.968001  0.565037  1
  O  O23  1  0.023465  0.639554  0.601453  1
  O  O24  1  0.561115  0.465226  0.651842  1
  O  O25  1  0.824052  0.261116  0.674640  1
  O  O26  1  0.521692  0.920408  0.681360  1
  O  O27  1  0.408097  0.577629  0.816416  1
  O  O28  1  0.389598  0.239163  0.827514  1
  O  O29  1  0.949112  0.036449  0.852571  1
  O  O30  1  0.289225  0.863166  0.893620  1
  O  O31  1  0.796746  0.543244  0.938985  1
