# generated using pymatgen
data_Pr3Th(B2Ir5)2
_symmetry_space_group_name_H-M   'P 1'
_cell_length_a   11.19625010
_cell_length_b   11.19624995
_cell_length_c   11.19625130
_cell_angle_alpha   28.72336888
_cell_angle_beta   28.72337015
_cell_angle_gamma   28.72336997
_symmetry_Int_Tables_number   1
_chemical_formula_structural   Pr3Th(B2Ir5)2
_chemical_formula_sum   'Pr3 Th1 B4 Ir10'
_cell_volume   286.59775142
_cell_formula_units_Z   1
loop_
 _symmetry_equiv_pos_site_id
 _symmetry_equiv_pos_as_xyz
  1  'x, y, z'
loop_
 _atom_site_type_symbol
 _atom_site_label
 _atom_site_symmetry_multiplicity
 _atom_site_fract_x
 _atom_site_fract_y
 _atom_site_fract_z
 _atom_site_occupancy
  Pr  Pr0  1  0.153476  0.153476  0.153476  1
  Pr  Pr1  1  0.948994  0.948994  0.948994  1
  Pr  Pr2  1  0.847917  0.847917  0.847917  1
  Th  Th3  1  0.050555  0.050555  0.050555  1
  B  B4  1  0.618121  0.618121  0.618121  1
  B  B5  1  0.716501  0.716501  0.716501  1
  B  B6  1  0.381601  0.381601  0.381601  1
  B  B7  1  0.283156  0.283156  0.283156  1
  Ir  Ir8  1  0.409152  0.897867  0.409152  1
  Ir  Ir9  1  0.897867  0.409152  0.409152  1
  Ir  Ir10  1  0.500010  0.500010  0.000109  1
  Ir  Ir11  1  0.500010  0.000109  0.500010  1
  Ir  Ir12  1  0.000109  0.500010  0.500010  1
  Ir  Ir13  1  0.500009  0.500009  0.500009  1
  Ir  Ir14  1  0.590763  0.101842  0.590763  1
  Ir  Ir15  1  0.590763  0.590763  0.101842  1
  Ir  Ir16  1  0.101842  0.590763  0.590763  1
  Ir  Ir17  1  0.409152  0.409152  0.897867  1
