# generated using pymatgen
data_RbBaAsO3
_symmetry_space_group_name_H-M   'P 1'
_cell_length_a   8.16538562
_cell_length_b   8.07166400
_cell_length_c   8.33484125
_cell_angle_alpha   89.99975691
_cell_angle_beta   99.66721002
_cell_angle_gamma   90.00037126
_symmetry_Int_Tables_number   1
_chemical_formula_structural   RbBaAsO3
_chemical_formula_sum   'Rb4 Ba4 As4 O12'
_cell_volume   541.53409277
_cell_formula_units_Z   4
loop_
 _symmetry_equiv_pos_site_id
 _symmetry_equiv_pos_as_xyz
  1  'x, y, z'
loop_
 _atom_site_type_symbol
 _atom_site_label
 _atom_site_symmetry_multiplicity
 _atom_site_fract_x
 _atom_site_fract_y
 _atom_site_fract_z
 _atom_site_occupancy
  Rb  Rb0  1  0.131037  0.447093  0.210026  1
  Rb  Rb1  1  0.868960  0.947100  0.289973  1
  Rb  Rb2  1  0.131034  0.052903  0.710022  1
  Rb  Rb3  1  0.868956  0.552908  0.789975  1
  Ba  Ba4  1  0.559917  0.268139  0.000558  1
  Ba  Ba5  1  0.440079  0.768141  0.499443  1
  Ba  Ba6  1  0.559922  0.231858  0.500554  1
  Ba  Ba7  1  0.440083  0.731853  0.999446  1
  As  As8  1  0.257191  0.022769  0.206681  1
  As  As9  1  0.742821  0.522775  0.293320  1
  As  As10  1  0.257178  0.477228  0.706677  1
  As  As11  1  0.742814  0.977228  0.793326  1
  O  O12  1  0.217908  0.804052  0.206912  1
  O  O13  1  0.736401  0.573810  0.082590  1
  O  O14  1  0.479528  0.017368  0.203191  1
  O  O15  1  0.520497  0.517375  0.296820  1
  O  O16  1  0.263600  0.073815  0.417398  1
  O  O17  1  0.782098  0.304057  0.293082  1
  O  O18  1  0.217893  0.695952  0.706917  1
  O  O19  1  0.736404  0.926190  0.582596  1
  O  O20  1  0.479490  0.482622  0.703179  1
  O  O21  1  0.520503  0.982624  0.796821  1
  O  O22  1  0.263592  0.426190  0.917408  1
  O  O23  1  0.782096  0.195951  0.793084  1
