# generated using pymatgen
data_Ti8Al14GeOs7
_symmetry_space_group_name_H-M   'P 1'
_cell_length_a   8.67376380
_cell_length_b   8.67376553
_cell_length_c   8.67376449
_cell_angle_alpha   120.15225709
_cell_angle_beta   119.98647460
_cell_angle_gamma   89.87995076
_symmetry_Int_Tables_number   1
_chemical_formula_structural   Ti8Al14GeOs7
_chemical_formula_sum   'Ti8 Al14 Ge1 Os7'
_cell_volume   460.94612459
_cell_formula_units_Z   1
loop_
 _symmetry_equiv_pos_site_id
 _symmetry_equiv_pos_as_xyz
  1  'x, y, z'
loop_
 _atom_site_type_symbol
 _atom_site_label
 _atom_site_symmetry_multiplicity
 _atom_site_fract_x
 _atom_site_fract_y
 _atom_site_fract_z
 _atom_site_occupancy
  Ti  Ti0  1  0.792370  0.287020  0.071176  1
  Ti  Ti1  1  0.215844  0.287020  0.494650  1
  Ti  Ti2  1  0.211219  0.711219  0.500000  1
  Ti  Ti3  1  0.215844  0.721194  0.928824  1
  Ti  Ti4  1  0.792370  0.721194  0.505350  1
  Ti  Ti5  1  0.781012  0.281012  0.500000  1
  Ti  Ti6  1  0.378596  0.119716  0.741120  1
  Ti  Ti7  1  0.378596  0.637477  0.258880  1
  Al  Al8  1  0.158934  0.340932  0.181998  1
  Al  Al9  1  0.158934  0.976936  0.818002  1
  Al  Al10  1  0.156098  0.343227  0.812870  1
  Al  Al11  1  0.530356  0.343227  0.187130  1
  Al  Al12  1  0.843045  0.656832  0.813788  1
  Al  Al13  1  0.843045  0.029256  0.186212  1
  Al  Al14  1  0.840658  0.658015  0.182644  1
  Al  Al15  1  0.475370  0.658015  0.817356  1
  Al  Al16  1  0.379570  0.120638  0.258931  1
  Al  Al17  1  0.861708  0.120638  0.741069  1
  Al  Al18  1  0.619225  0.876733  0.257508  1
  Al  Al19  1  0.619225  0.361716  0.742492  1
  Al  Al20  1  0.619759  0.878793  0.740967  1
  Al  Al21  1  0.137825  0.878793  0.259033  1
  Ge  Ge22  1  0.996952  0.496952  0.500000  1
  Os  Os23  1  0.998894  0.999039  0.500297  1
  Os  Os24  1  0.498742  0.999039  0.000145  1
  Os  Os25  1  0.498558  0.498558  0.000000  1
  Os  Os26  1  0.498742  0.498597  0.499703  1
  Os  Os27  1  0.998894  0.498597  0.999855  1
  Os  Os28  1  0.000241  0.000241  0.000000  1
  Os  Os29  1  0.499373  0.999373  0.500000  1
