# generated using pymatgen
data_Dy3YTm4Tc(B8Rh)3
_symmetry_space_group_name_H-M   'P 1'
_cell_length_a   3.64047400
_cell_length_b   9.13546601
_cell_length_c   11.47819600
_cell_angle_alpha   89.99758536
_cell_angle_beta   90.00000000
_cell_angle_gamma   90.00000000
_symmetry_Int_Tables_number   1
_chemical_formula_structural   Dy3YTm4Tc(B8Rh)3
_chemical_formula_sum   'Dy3 Y1 Tm4 Tc1 B24 Rh3'
_cell_volume   381.73525926
_cell_formula_units_Z   1
loop_
 _symmetry_equiv_pos_site_id
 _symmetry_equiv_pos_as_xyz
  1  'x, y, z'
loop_
 _atom_site_type_symbol
 _atom_site_label
 _atom_site_symmetry_multiplicity
 _atom_site_fract_x
 _atom_site_fract_y
 _atom_site_fract_z
 _atom_site_occupancy
  Dy  Dy0  1  0.500000  0.677796  0.585674  1
  Dy  Dy1  1  0.500000  0.178329  0.917502  1
  Dy  Dy2  1  0.500000  0.824850  0.086893  1
  Y  Y3  1  0.500000  0.318876  0.410921  1
  Tm  Tm4  1  0.500000  0.442930  0.126335  1
  Tm  Tm5  1  0.500000  0.556271  0.872551  1
  Tm  Tm6  1  0.500000  0.056043  0.628009  1
  Tm  Tm7  1  0.500000  0.946264  0.372569  1
  Tc  Tc8  1  0.500000  0.138967  0.179551  1
  B  B9  1  0.000000  0.105728  0.472232  1
  B  B10  1  0.000000  0.893624  0.529475  1
  B  B11  1  0.000000  0.394472  0.970208  1
  B  B12  1  0.000000  0.607380  0.028511  1
  B  B13  1  0.000000  0.131673  0.315196  1
  B  B14  1  0.000000  0.867054  0.683468  1
  B  B15  1  0.000000  0.368489  0.816650  1
  B  B16  1  0.000000  0.632393  0.183164  1
  B  B17  1  0.000000  0.054147  0.066858  1
  B  B18  1  0.000000  0.945653  0.933496  1
  B  B19  1  0.000000  0.444903  0.565974  1
  B  B20  1  0.000000  0.554087  0.433596  1
  B  B21  1  0.000000  0.483668  0.286175  1
  B  B22  1  0.000000  0.516962  0.713310  1
  B  B23  1  0.000000  0.016863  0.786929  1
  B  B24  1  0.000000  0.983639  0.213637  1
  B  B25  1  0.000000  0.249685  0.080667  1
  B  B26  1  0.000000  0.750154  0.919984  1
  B  B27  1  0.000000  0.249380  0.579711  1
  B  B28  1  0.000000  0.750252  0.420204  1
  B  B29  1  0.000000  0.293060  0.234395  1
  B  B30  1  0.000000  0.705776  0.764022  1
  B  B31  1  0.000000  0.206935  0.735842  1
  B  B32  1  0.000000  0.792891  0.265398  1
  Rh  Rh33  1  0.500000  0.861013  0.820837  1
  Rh  Rh34  1  0.500000  0.360202  0.679543  1
  Rh  Rh35  1  0.500000  0.639593  0.320513  1
