# generated using pymatgen
data_Ta2In(Ni10B3)2
_symmetry_space_group_name_H-M   'P 1'
_cell_length_a   7.51819983
_cell_length_b   7.51820022
_cell_length_c   7.51820000
_cell_angle_alpha   60.00000095
_cell_angle_beta   59.99999927
_cell_angle_gamma   60.00000373
_symmetry_Int_Tables_number   1
_chemical_formula_structural   Ta2In(Ni10B3)2
_chemical_formula_sum   'Ta2 In1 Ni20 B6'
_cell_volume   300.48766031
_cell_formula_units_Z   1
loop_
 _symmetry_equiv_pos_site_id
 _symmetry_equiv_pos_as_xyz
  1  'x, y, z'
loop_
 _atom_site_type_symbol
 _atom_site_label
 _atom_site_symmetry_multiplicity
 _atom_site_fract_x
 _atom_site_fract_y
 _atom_site_fract_z
 _atom_site_occupancy
  Ta  Ta0  1  0.000000  0.000000  0.000000  1
  Ta  Ta1  1  0.250000  0.250000  0.250000  1
  In  In2  1  0.750000  0.750000  0.750000  1
  Ni  Ni3  1  0.612546  0.612546  0.162361  1
  Ni  Ni4  1  0.612546  0.162361  0.612546  1
  Ni  Ni5  1  0.162361  0.612546  0.612546  1
  Ni  Ni6  1  0.612546  0.612546  0.612546  1
  Ni  Ni7  1  0.383364  0.383364  0.849909  1
  Ni  Ni8  1  0.383364  0.849909  0.383364  1
  Ni  Ni9  1  0.849909  0.383364  0.383364  1
  Ni  Ni10  1  0.383364  0.383364  0.383364  1
  Ni  Ni11  1  0.002803  0.002803  0.338833  1
  Ni  Ni12  1  0.655560  0.002803  0.338833  1
  Ni  Ni13  1  0.002803  0.655560  0.338833  1
  Ni  Ni14  1  0.655560  0.338833  0.002803  1
  Ni  Ni15  1  0.002803  0.338833  0.002803  1
  Ni  Ni16  1  0.002803  0.338833  0.655560  1
  Ni  Ni17  1  0.338833  0.655560  0.002803  1
  Ni  Ni18  1  0.338833  0.002803  0.655560  1
  Ni  Ni19  1  0.338833  0.002803  0.002803  1
  Ni  Ni20  1  0.002803  0.002803  0.655560  1
  Ni  Ni21  1  0.002803  0.655560  0.002803  1
  Ni  Ni22  1  0.655560  0.002803  0.002803  1
  B  B23  1  0.730494  0.730494  0.269506  1
  B  B24  1  0.269506  0.730494  0.269506  1
  B  B25  1  0.730494  0.269506  0.269506  1
  B  B26  1  0.269506  0.269506  0.730494  1
  B  B27  1  0.730494  0.269506  0.730494  1
  B  B28  1  0.269506  0.730494  0.730494  1
