# generated using pymatgen
data_Li8Pr8Pt7Se
_symmetry_space_group_name_H-M   'P 1'
_cell_length_a   9.63792241
_cell_length_b   9.63792223
_cell_length_c   7.40009000
_cell_angle_alpha   90.92699947
_cell_angle_beta   89.07300055
_cell_angle_gamma   128.76177343
_symmetry_Int_Tables_number   1
_chemical_formula_structural   Li8Pr8Pt7Se
_chemical_formula_sum   'Li8 Pr8 Pt7 Se1'
_cell_volume   535.91087263
_cell_formula_units_Z   1
loop_
 _symmetry_equiv_pos_site_id
 _symmetry_equiv_pos_as_xyz
  1  'x, y, z'
loop_
 _atom_site_type_symbol
 _atom_site_label
 _atom_site_symmetry_multiplicity
 _atom_site_fract_x
 _atom_site_fract_y
 _atom_site_fract_z
 _atom_site_occupancy
  Li  Li0  1  0.844867  0.155133  0.869268  1
  Li  Li1  1  0.840137  0.645200  0.629902  1
  Li  Li2  1  0.354800  0.159863  0.629902  1
  Li  Li3  1  0.155017  0.844983  0.370665  1
  Li  Li4  1  0.159549  0.355882  0.130009  1
  Li  Li5  1  0.644118  0.840451  0.130009  1
  Li  Li6  1  0.650784  0.349216  0.373163  1
  Li  Li7  1  0.347737  0.652263  0.881294  1
  Pr  Pr8  1  0.465947  0.534053  0.453816  1
  Pr  Pr9  1  0.527467  0.960997  0.555655  1
  Pr  Pr10  1  0.039003  0.472533  0.555655  1
  Pr  Pr11  1  0.534216  0.465784  0.957323  1
  Pr  Pr12  1  0.459193  0.026767  0.040295  1
  Pr  Pr13  1  0.973233  0.540807  0.040295  1
  Pr  Pr14  1  0.974066  0.025934  0.467554  1
  Pr  Pr15  1  0.029427  0.970573  0.958109  1
  Pt  Pt16  1  0.815247  0.686423  0.247790  1
  Pt  Pt17  1  0.313577  0.184753  0.247790  1
  Pt  Pt18  1  0.182772  0.817228  0.754824  1
  Pt  Pt19  1  0.184742  0.317719  0.752882  1
  Pt  Pt20  1  0.682281  0.815258  0.752882  1
  Pt  Pt21  1  0.688343  0.311657  0.754958  1
  Pt  Pt22  1  0.311798  0.688202  0.261436  1
  Se  Se23  1  0.821675  0.178325  0.242529  1
