# generated using pymatgen
data_Dy16Ho4Ir5Rh7
_symmetry_space_group_name_H-M   'P 1'
_cell_length_a   10.87118611
_cell_length_b   10.87118521
_cell_length_c   6.36585100
_cell_angle_alpha   89.99194987
_cell_angle_beta   89.99194971
_cell_angle_gamma   90.05791037
_symmetry_Int_Tables_number   1
_chemical_formula_structural   Dy16Ho4Ir5Rh7
_chemical_formula_sum   'Dy16 Ho4 Ir5 Rh7'
_cell_volume   752.33291756
_cell_formula_units_Z   1
loop_
 _symmetry_equiv_pos_site_id
 _symmetry_equiv_pos_as_xyz
  1  'x, y, z'
loop_
 _atom_site_type_symbol
 _atom_site_label
 _atom_site_symmetry_multiplicity
 _atom_site_fract_x
 _atom_site_fract_y
 _atom_site_fract_z
 _atom_site_occupancy
  Dy  Dy0  1  0.290614  0.088167  0.378076  1
  Dy  Dy1  1  0.290580  0.909876  0.879448  1
  Dy  Dy2  1  0.708828  0.089740  0.878874  1
  Dy  Dy3  1  0.708606  0.910205  0.378239  1
  Dy  Dy4  1  0.587536  0.789817  0.879372  1
  Dy  Dy5  1  0.587328  0.210091  0.379170  1
  Dy  Dy6  1  0.410956  0.790167  0.379321  1
  Dy  Dy7  1  0.412345  0.210006  0.879043  1
  Dy  Dy8  1  0.210183  0.412464  0.620628  1
  Dy  Dy9  1  0.209833  0.589044  0.120679  1
  Dy  Dy10  1  0.789909  0.412672  0.120830  1
  Dy  Dy11  1  0.789994  0.587655  0.620957  1
  Dy  Dy12  1  0.911833  0.709386  0.121924  1
  Dy  Dy13  1  0.910260  0.291172  0.621126  1
  Dy  Dy14  1  0.090124  0.709420  0.620552  1
  Dy  Dy15  1  0.089795  0.291394  0.121761  1
  Ho  Ho16  1  0.000089  0.999752  0.500142  1
  Ho  Ho17  1  0.000248  0.999911  0.999858  1
  Ho  Ho18  1  0.499893  0.499767  0.000133  1
  Ho  Ho19  1  0.500233  0.500107  0.499867  1
  Ir  Ir20  1  0.152981  0.847019  0.250000  1
  Ir  Ir21  1  0.654277  0.345723  0.750000  1
  Ir  Ir22  1  0.654464  0.654110  0.249772  1
  Ir  Ir23  1  0.345890  0.345536  0.250228  1
  Ir  Ir24  1  0.346397  0.653603  0.750000  1
  Rh  Rh25  1  0.846900  0.153100  0.250000  1
  Rh  Rh26  1  0.846158  0.846831  0.749874  1
  Rh  Rh27  1  0.153169  0.153842  0.750126  1
  Rh  Rh28  1  0.500605  0.000240  0.122396  1
  Rh  Rh29  1  0.500434  0.000224  0.622965  1
  Rh  Rh30  1  0.999776  0.499566  0.877035  1
  Rh  Rh31  1  0.999760  0.499395  0.377604  1
