# generated using pymatgen
data_Tb7SmHf12Si15Au
_symmetry_space_group_name_H-M   'P 1'
_cell_length_a   7.29983057
_cell_length_b   7.34649750
_cell_length_c   13.45460780
_cell_angle_alpha   89.90873366
_cell_angle_beta   89.94020739
_cell_angle_gamma   90.00612456
_symmetry_Int_Tables_number   1
_chemical_formula_structural   Tb7SmHf12Si15Au
_chemical_formula_sum   'Tb7 Sm1 Hf12 Si15 Au1'
_cell_volume   721.54491174
_cell_formula_units_Z   1
loop_
 _symmetry_equiv_pos_site_id
 _symmetry_equiv_pos_as_xyz
  1  'x, y, z'
loop_
 _atom_site_type_symbol
 _atom_site_label
 _atom_site_symmetry_multiplicity
 _atom_site_fract_x
 _atom_site_fract_y
 _atom_site_fract_z
 _atom_site_occupancy
  Tb  Tb0  1  0.004433  0.655319  0.715303  1
  Tb  Tb1  1  0.154832  0.498788  0.467072  1
  Tb  Tb2  1  0.504256  0.842822  0.033302  1
  Tb  Tb3  1  0.843923  0.502650  0.964568  1
  Tb  Tb4  1  0.497191  0.154008  0.537838  1
  Tb  Tb5  1  0.343180  0.997721  0.784893  1
  Tb  Tb6  1  0.661775  0.997032  0.283704  1
  Sm  Sm7  1  0.990624  0.345947  0.214351  1
  Hf  Hf8  1  0.175172  0.176286  0.998654  1
  Hf  Hf9  1  0.826124  0.825077  0.500742  1
  Hf  Hf10  1  0.325743  0.680966  0.249094  1
  Hf  Hf11  1  0.675513  0.324465  0.750292  1
  Hf  Hf12  1  0.147225  0.996586  0.375091  1
  Hf  Hf13  1  0.851193  0.003839  0.874258  1
  Hf  Hf14  1  0.504898  0.650220  0.624970  1
  Hf  Hf15  1  0.351296  0.495124  0.874722  1
  Hf  Hf16  1  0.494640  0.350371  0.121397  1
  Hf  Hf17  1  0.652091  0.510851  0.380566  1
  Hf  Hf18  1  0.995626  0.148584  0.626674  1
  Hf  Hf19  1  0.001691  0.848923  0.123517  1
  Si  Si20  1  0.637299  0.705884  0.817962  1
  Si  Si21  1  0.204642  0.863138  0.567903  1
  Si  Si22  1  0.137559  0.795655  0.932065  1
  Si  Si23  1  0.794382  0.136169  0.065407  1
  Si  Si24  1  0.860597  0.200556  0.435603  1
  Si  Si25  1  0.295773  0.363195  0.682987  1
  Si  Si26  1  0.703222  0.639006  0.181925  1
  Si  Si27  1  0.292586  0.044659  0.181718  1
  Si  Si28  1  0.705636  0.950644  0.685858  1
  Si  Si29  1  0.448705  0.794868  0.435737  1
  Si  Si30  1  0.205809  0.550682  0.063243  1
  Si  Si31  1  0.548564  0.204904  0.934466  1
  Si  Si32  1  0.794443  0.449791  0.566790  1
  Si  Si33  1  0.048157  0.295285  0.814916  1
  Si  Si34  1  0.951306  0.706163  0.313993  1
  Au  Au35  1  0.369897  0.293819  0.318419  1
