# generated using pymatgen
data_CdPPd3PtAu
_symmetry_space_group_name_H-M   'P 1'
_cell_length_a   3.96091400
_cell_length_b   4.10035600
_cell_length_c   7.08414300
_cell_angle_alpha   90.00000000
_cell_angle_beta   90.00000000
_cell_angle_gamma   90.00000000
_symmetry_Int_Tables_number   1
_chemical_formula_structural   CdPPd3PtAu
_chemical_formula_sum   'Cd1 P1 Pd3 Pt1 Au1'
_cell_volume   115.05468211
_cell_formula_units_Z   1
loop_
 _symmetry_equiv_pos_site_id
 _symmetry_equiv_pos_as_xyz
  1  'x, y, z'
loop_
 _atom_site_type_symbol
 _atom_site_label
 _atom_site_symmetry_multiplicity
 _atom_site_fract_x
 _atom_site_fract_y
 _atom_site_fract_z
 _atom_site_occupancy
  Cd  Cd0  1  0.500000  0.500000  0.000711  1
  P  P1  1  0.000000  0.000000  0.501767  1
  Pd  Pd2  1  0.000000  0.500000  0.698875  1
  Pd  Pd3  1  0.500000  0.000000  0.298485  1
  Pd  Pd4  1  0.000000  0.500000  0.304281  1
  Pt  Pt5  1  0.500000  0.000000  0.695630  1
  Au  Au6  1  0.000000  0.000000  0.000252  1
