# generated using pymatgen
data_Lu5Zr4Sc3Pb10
_symmetry_space_group_name_H-M   'P 1'
_cell_length_a   6.22321322
_cell_length_b   9.21213178
_cell_length_c   11.33061968
_cell_angle_alpha   113.92212032
_cell_angle_beta   105.93932733
_cell_angle_gamma   90.00000275
_symmetry_Int_Tables_number   1
_chemical_formula_structural   Lu5Zr4Sc3Pb10
_chemical_formula_sum   'Lu5 Zr4 Sc3 Pb10'
_cell_volume   566.34431204
_cell_formula_units_Z   1
loop_
 _symmetry_equiv_pos_site_id
 _symmetry_equiv_pos_as_xyz
  1  'x, y, z'
loop_
 _atom_site_type_symbol
 _atom_site_label
 _atom_site_symmetry_multiplicity
 _atom_site_fract_x
 _atom_site_fract_y
 _atom_site_fract_z
 _atom_site_occupancy
  Lu  Lu0  1  0.062355  0.798515  0.124710  1
  Lu  Lu1  1  0.145543  0.258385  0.291087  1
  Lu  Lu2  1  0.854777  0.741528  0.709553  1
  Lu  Lu3  1  0.645373  0.032247  0.290747  1
  Lu  Lu4  1  0.354927  0.968318  0.709854  1
  Zr  Zr5  1  0.557344  0.307464  0.615137  1
  Zr  Zr6  1  0.442260  0.691909  0.384626  1
  Zr  Zr7  1  0.942366  0.691909  0.384626  1
  Zr  Zr8  1  0.057793  0.307464  0.615137  1
  Sc  Sc9  1  0.437712  0.673335  0.875423  1
  Sc  Sc10  1  0.562321  0.327080  0.124641  1
  Sc  Sc11  1  0.937602  0.202261  0.875203  1
  Pb  Pb12  1  0.292158  0.593188  0.584315  1
  Pb  Pb13  1  0.707861  0.406934  0.415723  1
  Pb  Pb14  1  0.792143  0.990938  0.584284  1
  Pb  Pb15  1  0.209973  0.011226  0.419947  1
  Pb  Pb16  1  0.250894  0.001614  0.998687  1
  Pb  Pb17  1  0.747793  0.001614  0.998687  1
  Pb  Pb18  1  0.071252  0.466661  0.142506  1
  Pb  Pb19  1  0.927294  0.527393  0.854587  1
  Pb  Pb20  1  0.571268  0.672702  0.142538  1
  Pb  Pb21  1  0.428992  0.327313  0.857982  1
