# generated using pymatgen
data_ErTm3Lu2FeBi2
_symmetry_space_group_name_H-M   'P 1'
_cell_length_a   8.17656055
_cell_length_b   8.17656163
_cell_length_c   4.12144800
_cell_angle_alpha   90.00000000
_cell_angle_beta   90.00000000
_cell_angle_gamma   120.06015918
_symmetry_Int_Tables_number   1
_chemical_formula_structural   ErTm3Lu2FeBi2
_chemical_formula_sum   'Er1 Tm3 Lu2 Fe1 Bi2'
_cell_volume   238.48344572
_cell_formula_units_Z   1
loop_
 _symmetry_equiv_pos_site_id
 _symmetry_equiv_pos_as_xyz
  1  'x, y, z'
loop_
 _atom_site_type_symbol
 _atom_site_label
 _atom_site_symmetry_multiplicity
 _atom_site_fract_x
 _atom_site_fract_y
 _atom_site_fract_z
 _atom_site_occupancy
  Er  Er0  1  0.384496  0.384496  0.000000  1
  Tm  Tm1  1  0.771157  0.771157  0.500000  1
  Tm  Tm2  1  0.613654  0.999839  0.000000  1
  Tm  Tm3  1  0.999839  0.613654  0.000000  1
  Lu  Lu4  1  0.229121  0.999685  0.500000  1
  Lu  Lu5  1  0.999685  0.229121  0.500000  1
  Fe  Fe6  1  0.002936  0.002936  0.000000  1
  Bi  Bi7  1  0.332327  0.666785  0.500000  1
  Bi  Bi8  1  0.666785  0.332327  0.500000  1
