# generated using pymatgen
data_Li4B4Os3Ru
_symmetry_space_group_name_H-M   'P 1'
_cell_length_a   6.76148716
_cell_length_b   6.04231725
_cell_length_c   5.56385109
_cell_angle_alpha   71.12788953
_cell_angle_beta   57.73604604
_cell_angle_gamma   50.95237780
_symmetry_Int_Tables_number   1
_chemical_formula_structural   Li4B4Os3Ru
_chemical_formula_sum   'Li4 B4 Os3 Ru1'
_cell_volume   149.24927467
_cell_formula_units_Z   1
loop_
 _symmetry_equiv_pos_site_id
 _symmetry_equiv_pos_as_xyz
  1  'x, y, z'
loop_
 _atom_site_type_symbol
 _atom_site_label
 _atom_site_symmetry_multiplicity
 _atom_site_fract_x
 _atom_site_fract_y
 _atom_site_fract_z
 _atom_site_occupancy
  Li  Li0  1  0.124090  0.625546  0.623687  1
  Li  Li1  1  0.627049  0.623220  0.624844  1
  Li  Li2  1  0.623220  0.627049  0.124885  1
  Li  Li3  1  0.625546  0.124090  0.626676  1
  B  B4  1  0.435245  0.064253  0.434642  1
  B  B5  1  0.175570  0.822044  0.188175  1
  B  B6  1  0.064253  0.435245  0.065860  1
  B  B7  1  0.822044  0.175570  0.814210  1
  Os  Os8  1  0.863454  0.863454  0.136546  1
  Os  Os9  1  0.136021  0.136021  0.863979  1
  Os  Os10  1  0.115638  0.115638  0.384362  1
  Ru  Ru11  1  0.387868  0.387868  0.112132  1
