# generated using pymatgen
data_Th6Sb8(IrAu)3
_symmetry_space_group_name_H-M   'P 1'
_cell_length_a   8.66419248
_cell_length_b   8.66419371
_cell_length_c   8.67714139
_cell_angle_alpha   109.17665090
_cell_angle_beta   109.89873776
_cell_angle_gamma   109.27848343
_symmetry_Int_Tables_number   1
_chemical_formula_structural   Th6Sb8(IrAu)3
_chemical_formula_sum   'Th6 Sb8 Ir3 Au3'
_cell_volume   501.78293750
_cell_formula_units_Z   1
loop_
 _symmetry_equiv_pos_site_id
 _symmetry_equiv_pos_as_xyz
  1  'x, y, z'
loop_
 _atom_site_type_symbol
 _atom_site_label
 _atom_site_symmetry_multiplicity
 _atom_site_fract_x
 _atom_site_fract_y
 _atom_site_fract_z
 _atom_site_occupancy
  Th  Th0  1  0.378351  0.258635  0.632387  1
  Th  Th1  1  0.736129  0.865408  0.111681  1
  Th  Th2  1  0.253727  0.624448  0.388319  1
  Th  Th3  1  0.620227  0.370227  0.250000  1
  Th  Th4  1  0.880797  0.130797  0.750000  1
  Th  Th5  1  0.126249  0.745964  0.867613  1
  Sb  Sb6  1  0.000916  0.329511  0.508045  1
  Sb  Sb7  1  0.824499  0.498882  0.989923  1
  Sb  Sb8  1  0.490326  0.994088  0.822081  1
  Sb  Sb9  1  0.672007  0.668245  0.677919  1
  Sb  Sb10  1  0.175251  0.173633  0.165110  1
  Sb  Sb11  1  0.321467  0.492870  0.991955  1
  Sb  Sb12  1  0.508522  0.010141  0.334890  1
  Sb  Sb13  1  0.008960  0.834577  0.510077  1
  Ir  Ir14  1  0.253231  0.128196  0.876744  1
  Ir  Ir15  1  0.751452  0.376488  0.623256  1
  Ir  Ir16  1  0.375586  0.625586  0.750000  1
  Au  Au17  1  0.125438  0.875438  0.250000  1
  Au  Au18  1  0.624053  0.747628  0.374816  1
  Au  Au19  1  0.872812  0.249237  0.125184  1
