# generated using pymatgen
data_Yb11Ho8LuSn16
_symmetry_space_group_name_H-M   'P 1'
_cell_length_a   7.81728306
_cell_length_b   8.40950434
_cell_length_c   15.93991900
_cell_angle_alpha   90.00000000
_cell_angle_beta   90.00000000
_cell_angle_gamma   89.88430735
_symmetry_Int_Tables_number   1
_chemical_formula_structural   Yb11Ho8LuSn16
_chemical_formula_sum   'Yb11 Ho8 Lu1 Sn16'
_cell_volume   1047.87978407
_cell_formula_units_Z   1
loop_
 _symmetry_equiv_pos_site_id
 _symmetry_equiv_pos_as_xyz
  1  'x, y, z'
loop_
 _atom_site_type_symbol
 _atom_site_label
 _atom_site_symmetry_multiplicity
 _atom_site_fract_x
 _atom_site_fract_y
 _atom_site_fract_z
 _atom_site_occupancy
  Yb  Yb0  1  0.503884  0.687336  0.593525  1
  Yb  Yb1  1  0.003868  0.815125  0.908362  1
  Yb  Yb2  1  0.494370  0.312007  0.092251  1
  Yb  Yb3  1  0.995802  0.187169  0.408147  1
  Yb  Yb4  1  0.494370  0.312007  0.407749  1
  Yb  Yb5  1  0.995802  0.187169  0.091853  1
  Yb  Yb6  1  0.503884  0.687336  0.906475  1
  Yb  Yb7  1  0.003868  0.815125  0.591638  1
  Yb  Yb8  1  0.336191  0.989728  0.750000  1
  Yb  Yb9  1  0.163679  0.488139  0.250000  1
  Yb  Yb10  1  0.663477  0.009605  0.250000  1
  Ho  Ho11  1  0.674165  0.163911  0.622184  1
  Ho  Ho12  1  0.175275  0.334970  0.877220  1
  Ho  Ho13  1  0.326128  0.833229  0.122023  1
  Ho  Ho14  1  0.826356  0.664236  0.378258  1
  Ho  Ho15  1  0.326128  0.833229  0.377977  1
  Ho  Ho16  1  0.826356  0.664236  0.121742  1
  Ho  Ho17  1  0.674165  0.163911  0.877816  1
  Ho  Ho18  1  0.175275  0.334970  0.622780  1
  Lu  Lu19  1  0.837944  0.509993  0.750000  1
  Sn  Sn20  1  0.671836  0.962658  0.459230  1
  Sn  Sn21  1  0.171544  0.536587  0.040123  1
  Sn  Sn22  1  0.328748  0.037001  0.959229  1
  Sn  Sn23  1  0.828753  0.465561  0.544044  1
  Sn  Sn24  1  0.328748  0.037001  0.540771  1
  Sn  Sn25  1  0.828753  0.465561  0.955956  1
  Sn  Sn26  1  0.671836  0.962658  0.040770  1
  Sn  Sn27  1  0.171544  0.536587  0.459877  1
  Sn  Sn28  1  0.476265  0.380068  0.750000  1
  Sn  Sn29  1  0.971650  0.132554  0.750000  1
  Sn  Sn30  1  0.527956  0.624975  0.250000  1
  Sn  Sn31  1  0.027369  0.872218  0.250000  1
  Sn  Sn32  1  0.721879  0.864884  0.750000  1
  Sn  Sn33  1  0.209545  0.631090  0.750000  1
  Sn  Sn34  1  0.280731  0.126378  0.250000  1
  Sn  Sn35  1  0.781858  0.370783  0.250000  1
