# generated using pymatgen
data_TbPa(IN)2
_symmetry_space_group_name_H-M   'P 1'
_cell_length_a   3.99337300
_cell_length_b   3.99337300
_cell_length_c   9.81178400
_cell_angle_alpha   90.00000000
_cell_angle_beta   90.00000000
_cell_angle_gamma   90.00000000
_symmetry_Int_Tables_number   1
_chemical_formula_structural   TbPa(IN)2
_chemical_formula_sum   'Tb1 Pa1 I2 N2'
_cell_volume   156.46879336
_cell_formula_units_Z   1
loop_
 _symmetry_equiv_pos_site_id
 _symmetry_equiv_pos_as_xyz
  1  'x, y, z'
loop_
 _atom_site_type_symbol
 _atom_site_label
 _atom_site_symmetry_multiplicity
 _atom_site_fract_x
 _atom_site_fract_y
 _atom_site_fract_z
 _atom_site_occupancy
  Tb  Tb0  1  0.000000  0.500000  0.882818  1
  Pa  Pa1  1  0.500000  0.000000  0.101714  1
  I  I2  1  0.000000  0.500000  0.310321  1
  I  I3  1  0.500000  0.000000  0.690612  1
  N  N4  1  0.000000  0.000000  0.007268  1
  N  N5  1  0.500000  0.500000  0.007268  1
