# generated using pymatgen
data_Hf12Ga10Ir7
_symmetry_space_group_name_H-M   'P 1'
_cell_length_a   9.04661038
_cell_length_b   8.99620328
_cell_length_c   8.99620339
_cell_angle_alpha   59.52642391
_cell_angle_beta   59.81447703
_cell_angle_gamma   59.81447384
_symmetry_Int_Tables_number   1
_chemical_formula_structural   Hf12Ga10Ir7
_chemical_formula_sum   'Hf12 Ga10 Ir7'
_cell_volume   514.39418561
_cell_formula_units_Z   1
loop_
 _symmetry_equiv_pos_site_id
 _symmetry_equiv_pos_as_xyz
  1  'x, y, z'
loop_
 _atom_site_type_symbol
 _atom_site_label
 _atom_site_symmetry_multiplicity
 _atom_site_fract_x
 _atom_site_fract_y
 _atom_site_fract_z
 _atom_site_occupancy
  Hf  Hf0  1  0.680335  0.690223  0.316112  1
  Hf  Hf1  1  0.313331  0.690223  0.316112  1
  Hf  Hf2  1  0.688074  0.311926  0.311926  1
  Hf  Hf3  1  0.313331  0.316112  0.690223  1
  Hf  Hf4  1  0.680335  0.316112  0.690223  1
  Hf  Hf5  1  0.316762  0.683238  0.683238  1
  Hf  Hf6  1  0.875326  0.882564  0.366786  1
  Hf  Hf7  1  0.875326  0.366786  0.882564  1
  Hf  Hf8  1  0.374151  0.877986  0.877986  1
  Hf  Hf9  1  0.869877  0.877986  0.877986  1
  Hf  Hf10  1  0.126252  0.126269  0.621227  1
  Hf  Hf11  1  0.126252  0.621227  0.126269  1
  Ga  Ga12  1  0.641398  0.119801  0.119801  1
  Ga  Ga13  1  0.118998  0.119801  0.119801  1
  Ga  Ga14  1  0.653829  0.651102  0.041240  1
  Ga  Ga15  1  0.653829  0.041240  0.651102  1
  Ga  Ga16  1  0.035842  0.654292  0.654292  1
  Ga  Ga17  1  0.655572  0.654292  0.654292  1
  Ga  Ga18  1  0.343658  0.337728  0.974958  1
  Ga  Ga19  1  0.343658  0.974958  0.337728  1
  Ga  Ga20  1  0.957639  0.345913  0.345913  1
  Ga  Ga21  1  0.350536  0.345913  0.345913  1
  Ir  Ir22  1  0.009429  0.990571  0.990571  1
  Ir  Ir23  1  0.000014  0.999462  0.501981  1
  Ir  Ir24  1  0.498542  0.999462  0.501981  1
  Ir  Ir25  1  0.998692  0.501308  0.501308  1
  Ir  Ir26  1  0.498542  0.501981  0.999462  1
  Ir  Ir27  1  0.000014  0.501981  0.999462  1
  Ir  Ir28  1  0.500455  0.999545  0.999545  1
