# generated using pymatgen
data_Cs4(AlAu3)5
_symmetry_space_group_name_H-M   'P 1'
_cell_length_a   5.73985900
_cell_length_b   7.35016881
_cell_length_c   13.82691304
_cell_angle_alpha   89.03718933
_cell_angle_beta   89.76989049
_cell_angle_gamma   89.82937323
_symmetry_Int_Tables_number   1
_chemical_formula_structural   Cs4(AlAu3)5
_chemical_formula_sum   'Cs4 Al5 Au15'
_cell_volume   583.25316663
_cell_formula_units_Z   1
loop_
 _symmetry_equiv_pos_site_id
 _symmetry_equiv_pos_as_xyz
  1  'x, y, z'
loop_
 _atom_site_type_symbol
 _atom_site_label
 _atom_site_symmetry_multiplicity
 _atom_site_fract_x
 _atom_site_fract_y
 _atom_site_fract_z
 _atom_site_occupancy
  Cs  Cs0  1  0.244553  0.103823  0.071411  1
  Cs  Cs1  1  0.266333  0.403653  0.575395  1
  Cs  Cs2  1  0.740458  0.896424  0.925990  1
  Cs  Cs3  1  0.754045  0.598712  0.429580  1
  Al  Al4  1  0.998020  0.899908  0.652807  1
  Al  Al5  1  0.500351  0.604927  0.158836  1
  Al  Al6  1  0.493141  0.099008  0.347260  1
  Al  Al7  1  0.003914  0.394523  0.844956  1
  Al  Al8  1  0.992528  0.103626  0.343192  1
  Au  Au9  1  0.503943  0.385346  0.842453  1
  Au  Au10  1  0.499109  0.894444  0.651343  1
  Au  Au11  1  0.998533  0.610058  0.156292  1
  Au  Au12  1  0.218973  0.100835  0.785328  1
  Au  Au13  1  0.252207  0.376262  0.288407  1
  Au  Au14  1  0.730456  0.899072  0.224708  1
  Au  Au15  1  0.782817  0.605223  0.713471  1
  Au  Au16  1  0.232698  0.701424  0.792426  1
  Au  Au17  1  0.255502  0.808446  0.290240  1
  Au  Au18  1  0.730569  0.298335  0.215343  1
  Au  Au19  1  0.773472  0.202607  0.703255  1
  Au  Au20  1  0.280742  0.578904  0.992825  1
  Au  Au21  1  0.223162  0.930064  0.486338  1
  Au  Au22  1  0.776136  0.421004  0.008392  1
  Au  Au23  1  0.748336  0.083371  0.499754  1
