# generated using pymatgen
data_Ac3Mg2ScGa2Au
_symmetry_space_group_name_H-M   'P 1'
_cell_length_a   7.82958508
_cell_length_b   7.77331379
_cell_length_c   4.75266800
_cell_angle_alpha   90.00000000
_cell_angle_beta   90.00000000
_cell_angle_gamma   119.76254947
_symmetry_Int_Tables_number   1
_chemical_formula_structural   Ac3Mg2ScGa2Au
_chemical_formula_sum   'Ac3 Mg2 Sc1 Ga2 Au1'
_cell_volume   251.10030002
_cell_formula_units_Z   1
loop_
 _symmetry_equiv_pos_site_id
 _symmetry_equiv_pos_as_xyz
  1  'x, y, z'
loop_
 _atom_site_type_symbol
 _atom_site_label
 _atom_site_symmetry_multiplicity
 _atom_site_fract_x
 _atom_site_fract_y
 _atom_site_fract_z
 _atom_site_occupancy
  Ac  Ac0  1  0.000000  0.411596  0.000000  1
  Ac  Ac1  1  0.580721  0.582849  0.000000  1
  Ac  Ac2  1  0.419279  0.002128  0.000000  1
  Mg  Mg3  1  0.239417  0.240876  0.500000  1
  Mg  Mg4  1  0.760583  0.001458  0.500000  1
  Sc  Sc5  1  0.000000  0.767082  0.500000  1
  Ga  Ga6  1  0.326569  0.666023  0.500000  1
  Ga  Ga7  1  0.673431  0.339454  0.500000  1
  Au  Au8  1  0.000000  0.988533  0.000000  1
