# generated using pymatgen
data_LaNp9O20
_symmetry_space_group_name_H-M   'P 1'
_cell_length_a   6.63873876
_cell_length_b   7.66908809
_cell_length_c   8.57404165
_cell_angle_alpha   103.03108710
_cell_angle_beta   97.42220023
_cell_angle_gamma   106.72965681
_symmetry_Int_Tables_number   1
_chemical_formula_structural   LaNp9O20
_chemical_formula_sum   'La1 Np9 O20'
_cell_volume   398.37860203
_cell_formula_units_Z   1
loop_
 _symmetry_equiv_pos_site_id
 _symmetry_equiv_pos_as_xyz
  1  'x, y, z'
loop_
 _atom_site_type_symbol
 _atom_site_label
 _atom_site_symmetry_multiplicity
 _atom_site_fract_x
 _atom_site_fract_y
 _atom_site_fract_z
 _atom_site_occupancy
  La  La0  1  0.000000  0.500000  0.000000  1
  Np  Np1  1  0.797869  0.599739  0.598550  1
  Np  Np2  1  0.601237  0.199469  0.200640  1
  Np  Np3  1  0.398763  0.800531  0.799360  1
  Np  Np4  1  0.798955  0.098903  0.598675  1
  Np  Np5  1  0.202131  0.400261  0.401450  1
  Np  Np6  1  0.600735  0.701272  0.200237  1
  Np  Np7  1  0.000000  0.000000  0.000000  1
  Np  Np8  1  0.399265  0.298728  0.799763  1
  Np  Np9  1  0.201045  0.901097  0.401325  1
  O  O10  1  0.646888  0.926085  0.049108  1
  O  O11  1  0.444504  0.525051  0.646108  1
  O  O12  1  0.735050  0.367567  0.738450  1
  O  O13  1  0.259710  0.126445  0.251063  1
  O  O14  1  0.635764  0.420615  0.054766  1
  O  O15  1  0.556060  0.978903  0.351601  1
  O  O16  1  0.443940  0.021097  0.648399  1
  O  O17  1  0.047711  0.735453  0.842814  1
  O  O18  1  0.740290  0.873555  0.748937  1
  O  O19  1  0.364236  0.579385  0.945234  1
  O  O20  1  0.854179  0.326221  0.451883  1
  O  O21  1  0.264950  0.632433  0.261550  1
  O  O22  1  0.555496  0.474949  0.353892  1
  O  O23  1  0.150903  0.174128  0.545981  1
  O  O24  1  0.051756  0.210499  0.841410  1
  O  O25  1  0.353112  0.073915  0.950892  1
  O  O26  1  0.849097  0.825872  0.454019  1
  O  O27  1  0.948244  0.789501  0.158590  1
  O  O28  1  0.145821  0.673779  0.548117  1
  O  O29  1  0.952289  0.264547  0.157186  1
