# generated using pymatgen
data_Nd2Si5Ir2Ru
_symmetry_space_group_name_H-M   'P 1'
_cell_length_a   8.23789195
_cell_length_b   8.23789228
_cell_length_c   5.94660921
_cell_angle_alpha   68.88135854
_cell_angle_beta   68.88136199
_cell_angle_gamma   90.80275774
_symmetry_Int_Tables_number   1
_chemical_formula_structural   Nd2Si5Ir2Ru
_chemical_formula_sum   'Nd4 Si10 Ir4 Ru2'
_cell_volume   346.33618619
_cell_formula_units_Z   2
loop_
 _symmetry_equiv_pos_site_id
 _symmetry_equiv_pos_as_xyz
  1  'x, y, z'
loop_
 _atom_site_type_symbol
 _atom_site_label
 _atom_site_symmetry_multiplicity
 _atom_site_fract_x
 _atom_site_fract_y
 _atom_site_fract_z
 _atom_site_occupancy
  Nd  Nd0  1  0.861332  0.600676  0.769174  1
  Nd  Nd1  1  0.399324  0.138668  0.730826  1
  Nd  Nd2  1  0.138668  0.399324  0.230826  1
  Nd  Nd3  1  0.600676  0.861332  0.269174  1
  Si  Si4  1  0.047537  0.253529  0.849501  1
  Si  Si5  1  0.746471  0.952463  0.650499  1
  Si  Si6  1  0.952463  0.746471  0.150499  1
  Si  Si7  1  0.253529  0.047537  0.349501  1
  Si  Si8  1  0.224001  0.775999  0.750000  1
  Si  Si9  1  0.775999  0.224001  0.250000  1
  Si  Si10  1  0.500407  0.499593  0.750000  1
  Si  Si11  1  0.499593  0.500407  0.250000  1
  Si  Si12  1  0.775482  0.224518  0.750000  1
  Si  Si13  1  0.224518  0.775482  0.250000  1
  Ir  Ir14  1  0.247373  0.527952  0.612876  1
  Ir  Ir15  1  0.472048  0.752627  0.887124  1
  Ir  Ir16  1  0.752627  0.472048  0.387124  1
  Ir  Ir17  1  0.527952  0.247373  0.112876  1
  Ru  Ru18  1  0.999974  0.000026  0.750000  1
  Ru  Ru19  1  0.000026  0.999974  0.250000  1
