# generated using pymatgen
data_AcRh2F12
_symmetry_space_group_name_H-M   'P 1'
_cell_length_a   7.47018076
_cell_length_b   7.47018199
_cell_length_c   10.27453100
_cell_angle_alpha   65.97201167
_cell_angle_beta   65.97199908
_cell_angle_gamma   74.54920532
_symmetry_Int_Tables_number   1
_chemical_formula_structural   AcRh2F12
_chemical_formula_sum   'Ac2 Rh4 F24'
_cell_volume   474.80313756
_cell_formula_units_Z   2
loop_
 _symmetry_equiv_pos_site_id
 _symmetry_equiv_pos_as_xyz
  1  'x, y, z'
loop_
 _atom_site_type_symbol
 _atom_site_label
 _atom_site_symmetry_multiplicity
 _atom_site_fract_x
 _atom_site_fract_y
 _atom_site_fract_z
 _atom_site_occupancy
  Ac  Ac0  1  0.232594  0.767406  0.750000  1
  Ac  Ac1  1  0.767406  0.232594  0.250000  1
  Rh  Rh2  1  0.241190  0.265239  0.359768  1
  Rh  Rh3  1  0.265239  0.241190  0.859768  1
  Rh  Rh4  1  0.758810  0.734761  0.640232  1
  Rh  Rh5  1  0.734761  0.758810  0.140232  1
  F  F6  1  0.823623  0.922009  0.205719  1
  F  F7  1  0.176377  0.077991  0.794281  1
  F  F8  1  0.298724  0.991359  0.483624  1
  F  F9  1  0.022891  0.292737  0.528078  1
  F  F10  1  0.292737  0.022891  0.028078  1
  F  F11  1  0.423374  0.336970  0.418273  1
  F  F12  1  0.336970  0.423374  0.918273  1
  F  F13  1  0.922009  0.823623  0.705719  1
  F  F14  1  0.788631  0.525234  0.303528  1
  F  F15  1  0.008641  0.701276  0.016376  1
  F  F16  1  0.701276  0.008641  0.516376  1
  F  F17  1  0.991359  0.298724  0.983624  1
  F  F18  1  0.524425  0.205536  0.733379  1
  F  F19  1  0.576626  0.663030  0.581727  1
  F  F20  1  0.211369  0.474766  0.696472  1
  F  F21  1  0.663030  0.576626  0.081727  1
  F  F22  1  0.525234  0.788631  0.803528  1
  F  F23  1  0.794464  0.475575  0.766621  1
  F  F24  1  0.474766  0.211369  0.196472  1
  F  F25  1  0.475575  0.794464  0.266621  1
  F  F26  1  0.205536  0.524425  0.233379  1
  F  F27  1  0.707263  0.977109  0.971922  1
  F  F28  1  0.077991  0.176377  0.294281  1
  F  F29  1  0.977109  0.707263  0.471922  1
