# generated using pymatgen
data_YEr3Mn4(Co4P3)4
_symmetry_space_group_name_H-M   'P 1'
_cell_length_a   3.63831400
_cell_length_b   10.28717816
_cell_length_c   11.77508718
_cell_angle_alpha   90.02006569
_cell_angle_beta   90.00000000
_cell_angle_gamma   90.00000000
_symmetry_Int_Tables_number   1
_chemical_formula_structural   YEr3Mn4(Co4P3)4
_chemical_formula_sum   'Y1 Er3 Mn4 Co16 P12'
_cell_volume   440.71775123
_cell_formula_units_Z   1
loop_
 _symmetry_equiv_pos_site_id
 _symmetry_equiv_pos_as_xyz
  1  'x, y, z'
loop_
 _atom_site_type_symbol
 _atom_site_label
 _atom_site_symmetry_multiplicity
 _atom_site_fract_x
 _atom_site_fract_y
 _atom_site_fract_z
 _atom_site_occupancy
  Y  Y0  1  0.250000  0.581991  0.704127  1
  Er  Er1  1  0.250000  0.918242  0.204112  1
  Er  Er2  1  0.750000  0.081854  0.795883  1
  Er  Er3  1  0.750000  0.418032  0.295995  1
  Mn  Mn4  1  0.250000  0.789745  0.488529  1
  Mn  Mn5  1  0.750000  0.210375  0.510957  1
  Mn  Mn6  1  0.750000  0.290001  0.011234  1
  Mn  Mn7  1  0.250000  0.710201  0.989056  1
  Co  Co8  1  0.250000  0.093301  0.987442  1
  Co  Co9  1  0.750000  0.906747  0.012692  1
  Co  Co10  1  0.750000  0.593244  0.511294  1
  Co  Co11  1  0.250000  0.406329  0.487183  1
  Co  Co12  1  0.250000  0.278447  0.676542  1
  Co  Co13  1  0.750000  0.721495  0.323134  1
  Co  Co14  1  0.750000  0.779344  0.823491  1
  Co  Co15  1  0.250000  0.221206  0.176930  1
  Co  Co16  1  0.250000  0.616488  0.199391  1
  Co  Co17  1  0.750000  0.382555  0.801261  1
  Co  Co18  1  0.750000  0.116383  0.300733  1
  Co  Co19  1  0.250000  0.884184  0.699155  1
  Co  Co20  1  0.250000  0.034266  0.432063  1
  Co  Co21  1  0.750000  0.966216  0.567571  1
  Co  Co22  1  0.750000  0.534219  0.068199  1
  Co  Co23  1  0.250000  0.465400  0.932944  1
  P  P24  1  0.250000  0.081143  0.612881  1
  P  P25  1  0.750000  0.919228  0.386800  1
  P  P26  1  0.750000  0.580884  0.887878  1
  P  P27  1  0.250000  0.419138  0.113611  1
  P  P28  1  0.250000  0.230930  0.367935  1
  P  P29  1  0.750000  0.770173  0.631668  1
  P  P30  1  0.750000  0.731257  0.132288  1
  P  P31  1  0.250000  0.268736  0.867571  1
  P  P32  1  0.250000  0.900312  0.891069  1
  P  P33  1  0.750000  0.099375  0.109195  1
  P  P34  1  0.750000  0.398791  0.608274  1
  P  P35  1  0.250000  0.599770  0.390909  1
