# generated using pymatgen
data_ScCrNi4P3
_symmetry_space_group_name_H-M   'P 1'
_cell_length_a   3.59763100
_cell_length_b   10.33617200
_cell_length_c   11.83464800
_cell_angle_alpha   90.00000000
_cell_angle_beta   90.00000000
_cell_angle_gamma   90.00000000
_symmetry_Int_Tables_number   1
_chemical_formula_structural   ScCrNi4P3
_chemical_formula_sum   'Sc4 Cr4 Ni16 P12'
_cell_volume   440.08005841
_cell_formula_units_Z   4
loop_
 _symmetry_equiv_pos_site_id
 _symmetry_equiv_pos_as_xyz
  1  'x, y, z'
loop_
 _atom_site_type_symbol
 _atom_site_label
 _atom_site_symmetry_multiplicity
 _atom_site_fract_x
 _atom_site_fract_y
 _atom_site_fract_z
 _atom_site_occupancy
  Sc  Sc0  1  0.250000  0.583458  0.706815  1
  Sc  Sc1  1  0.250000  0.916542  0.206815  1
  Sc  Sc2  1  0.750000  0.416542  0.293185  1
  Sc  Sc3  1  0.750000  0.083458  0.793185  1
  Cr  Cr4  1  0.250000  0.711121  0.987365  1
  Cr  Cr5  1  0.250000  0.788879  0.487365  1
  Cr  Cr6  1  0.750000  0.288879  0.012635  1
  Cr  Cr7  1  0.750000  0.211121  0.512635  1
  Ni  Ni8  1  0.250000  0.410603  0.485287  1
  Ni  Ni9  1  0.250000  0.089397  0.985287  1
  Ni  Ni10  1  0.750000  0.589397  0.514713  1
  Ni  Ni11  1  0.750000  0.910603  0.014713  1
  Ni  Ni12  1  0.250000  0.220947  0.178577  1
  Ni  Ni13  1  0.250000  0.279054  0.678577  1
  Ni  Ni14  1  0.750000  0.779054  0.821423  1
  Ni  Ni15  1  0.750000  0.720946  0.321423  1
  Ni  Ni16  1  0.250000  0.883347  0.702393  1
  Ni  Ni17  1  0.250000  0.616653  0.202393  1
  Ni  Ni18  1  0.750000  0.116653  0.297607  1
  Ni  Ni19  1  0.750000  0.383347  0.797607  1
  Ni  Ni20  1  0.250000  0.465538  0.929528  1
  Ni  Ni21  1  0.250000  0.034462  0.429528  1
  Ni  Ni22  1  0.750000  0.534462  0.070472  1
  Ni  Ni23  1  0.750000  0.965538  0.570472  1
  P  P24  1  0.250000  0.417544  0.114890  1
  P  P25  1  0.250000  0.082456  0.614890  1
  P  P26  1  0.750000  0.582456  0.885110  1
  P  P27  1  0.750000  0.917544  0.385110  1
  P  P28  1  0.250000  0.262869  0.870044  1
  P  P29  1  0.250000  0.237131  0.370044  1
  P  P30  1  0.750000  0.737131  0.129956  1
  P  P31  1  0.750000  0.762869  0.629956  1
  P  P32  1  0.250000  0.597724  0.389073  1
  P  P33  1  0.250000  0.902276  0.889073  1
  P  P34  1  0.750000  0.402276  0.610927  1
  P  P35  1  0.750000  0.097724  0.110927  1
