# generated using pymatgen
data_Ba5Ta2Br2O9
_symmetry_space_group_name_H-M   'P 1'
_cell_length_a   6.05265600
_cell_length_b   6.05265526
_cell_length_c   25.85762300
_cell_angle_alpha   90.00000000
_cell_angle_beta   90.00000000
_cell_angle_gamma   120.00000405
_symmetry_Int_Tables_number   1
_chemical_formula_structural   Ba5Ta2Br2O9
_chemical_formula_sum   'Ba10 Ta4 Br4 O18'
_cell_volume   820.37259355
_cell_formula_units_Z   2
loop_
 _symmetry_equiv_pos_site_id
 _symmetry_equiv_pos_as_xyz
  1  'x, y, z'
loop_
 _atom_site_type_symbol
 _atom_site_label
 _atom_site_symmetry_multiplicity
 _atom_site_fract_x
 _atom_site_fract_y
 _atom_site_fract_z
 _atom_site_occupancy
  Ba  Ba0  1  0.333333  0.666667  0.913518  1
  Ba  Ba1  1  0.666667  0.333333  0.413518  1
  Ba  Ba2  1  0.666667  0.333333  0.086482  1
  Ba  Ba3  1  0.333333  0.666667  0.174656  1
  Ba  Ba4  1  0.666667  0.333333  0.674656  1
  Ba  Ba5  1  0.333333  0.666667  0.325344  1
  Ba  Ba6  1  0.666667  0.333333  0.825344  1
  Ba  Ba7  1  0.666667  0.333333  0.250000  1
  Ba  Ba8  1  0.333333  0.666667  0.586482  1
  Ba  Ba9  1  0.333333  0.666667  0.750000  1
  Ta  Ta10  1  0.000000  0.000000  0.808546  1
  Ta  Ta11  1  0.000000  0.000000  0.308546  1
  Ta  Ta12  1  0.000000  0.000000  0.691454  1
  Ta  Ta13  1  0.000000  0.000000  0.191454  1
  Br  Br14  1  0.333333  0.666667  0.453437  1
  Br  Br15  1  0.333333  0.666667  0.046563  1
  Br  Br16  1  0.666667  0.333333  0.546563  1
  Br  Br17  1  0.666667  0.333333  0.953437  1
  O  O18  1  0.161857  0.838143  0.658028  1
  O  O19  1  0.676287  0.838143  0.841972  1
  O  O20  1  0.161857  0.323713  0.658028  1
  O  O21  1  0.852145  0.147855  0.750000  1
  O  O22  1  0.295710  0.147855  0.750000  1
  O  O23  1  0.147855  0.295710  0.250000  1
  O  O24  1  0.147855  0.852145  0.250000  1
  O  O25  1  0.704290  0.852145  0.250000  1
  O  O26  1  0.838143  0.161857  0.341972  1
  O  O27  1  0.323713  0.161857  0.158028  1
  O  O28  1  0.852145  0.704290  0.750000  1
  O  O29  1  0.838143  0.676287  0.158028  1
  O  O30  1  0.323713  0.161857  0.341972  1
  O  O31  1  0.838143  0.161857  0.158028  1
  O  O32  1  0.161857  0.323713  0.841972  1
  O  O33  1  0.838143  0.676287  0.341972  1
  O  O34  1  0.676287  0.838143  0.658028  1
  O  O35  1  0.161857  0.838143  0.841972  1
