# generated using pymatgen
data_Yb2Pa(Ga2Co3)3
_symmetry_space_group_name_H-M   'P 1'
_cell_length_a   4.16705300
_cell_length_b   8.61615149
_cell_length_c   8.61615305
_cell_angle_alpha   60.00996733
_cell_angle_beta   90.00000000
_cell_angle_gamma   90.00000000
_symmetry_Int_Tables_number   1
_chemical_formula_structural   Yb2Pa(Ga2Co3)3
_chemical_formula_sum   'Yb2 Pa1 Ga6 Co9'
_cell_volume   267.93533857
_cell_formula_units_Z   1
loop_
 _symmetry_equiv_pos_site_id
 _symmetry_equiv_pos_as_xyz
  1  'x, y, z'
loop_
 _atom_site_type_symbol
 _atom_site_label
 _atom_site_symmetry_multiplicity
 _atom_site_fract_x
 _atom_site_fract_y
 _atom_site_fract_z
 _atom_site_occupancy
  Yb  Yb0  1  0.500000  0.333373  0.333346  1
  Yb  Yb1  1  0.500000  0.666654  0.666627  1
  Pa  Pa2  1  0.000000  0.999946  0.000054  1
  Ga  Ga3  1  0.000000  0.494225  0.505775  1
  Ga  Ga4  1  0.000000  0.505803  0.000013  1
  Ga  Ga5  1  0.000000  0.999987  0.494197  1
  Ga  Ga6  1  0.500000  0.721118  0.278882  1
  Ga  Ga7  1  0.500000  0.278983  0.999983  1
  Ga  Ga8  1  0.500000  0.000017  0.721017  1
  Co  Co9  1  0.000000  0.172742  0.172751  1
  Co  Co10  1  0.000000  0.172751  0.654469  1
  Co  Co11  1  0.000000  0.654390  0.172856  1
  Co  Co12  1  0.000000  0.827249  0.827258  1
  Co  Co13  1  0.000000  0.345531  0.827249  1
  Co  Co14  1  0.000000  0.827144  0.345610  1
  Co  Co15  1  0.500000  0.296136  0.703864  1
  Co  Co16  1  0.500000  0.703838  0.999984  1
  Co  Co17  1  0.500000  0.000016  0.296162  1
