# generated using pymatgen
data_Eu20Zn3(CdPd2)3
_symmetry_space_group_name_H-M   'P 1'
_cell_length_a   8.12904180
_cell_length_b   8.12904209
_cell_length_c   15.17441100
_cell_angle_alpha   90.02544430
_cell_angle_beta   90.02544430
_cell_angle_gamma   89.17518445
_symmetry_Int_Tables_number   1
_chemical_formula_structural   Eu20Zn3(CdPd2)3
_chemical_formula_sum   'Eu20 Zn3 Cd3 Pd6'
_cell_volume   1002.64105706
_cell_formula_units_Z   1
loop_
 _symmetry_equiv_pos_site_id
 _symmetry_equiv_pos_as_xyz
  1  'x, y, z'
loop_
 _atom_site_type_symbol
 _atom_site_label
 _atom_site_symmetry_multiplicity
 _atom_site_fract_x
 _atom_site_fract_y
 _atom_site_fract_z
 _atom_site_occupancy
  Eu  Eu0  1  0.672861  0.170363  0.110515  1
  Eu  Eu1  1  0.169417  0.673550  0.613234  1
  Eu  Eu2  1  0.321726  0.835151  0.110587  1
  Eu  Eu3  1  0.825280  0.331706  0.613365  1
  Eu  Eu4  1  0.840829  0.666355  0.111496  1
  Eu  Eu5  1  0.337966  0.162963  0.614107  1
  Eu  Eu6  1  0.164307  0.328413  0.112228  1
  Eu  Eu7  1  0.667351  0.831461  0.615027  1
  Eu  Eu8  1  0.829637  0.327139  0.889485  1
  Eu  Eu9  1  0.326450  0.830583  0.386766  1
  Eu  Eu10  1  0.164849  0.678274  0.889413  1
  Eu  Eu11  1  0.668294  0.174720  0.386635  1
  Eu  Eu12  1  0.671587  0.835693  0.887772  1
  Eu  Eu13  1  0.168539  0.332649  0.384973  1
  Eu  Eu14  1  0.333645  0.159171  0.888504  1
  Eu  Eu15  1  0.837037  0.662034  0.385893  1
  Eu  Eu16  1  0.504609  0.502402  0.753738  1
  Eu  Eu17  1  0.004219  0.002368  0.250405  1
  Eu  Eu18  1  0.997632  0.995781  0.749595  1
  Eu  Eu19  1  0.497598  0.495391  0.246262  1
  Zn  Zn20  1  0.118536  0.382562  0.751382  1
  Zn  Zn21  1  0.617438  0.881464  0.248618  1
  Zn  Zn22  1  0.999684  0.000316  0.000000  1
  Cd  Cd23  1  0.498997  0.501003  0.500000  1
  Cd  Cd24  1  0.498889  0.501111  0.000000  1
  Cd  Cd25  1  0.998969  0.001031  0.500000  1
  Pd  Pd26  1  0.626690  0.126891  0.751441  1
  Pd  Pd27  1  0.126821  0.626863  0.248619  1
  Pd  Pd28  1  0.873109  0.373310  0.248559  1
  Pd  Pd29  1  0.373137  0.873179  0.751381  1
  Pd  Pd30  1  0.881818  0.617919  0.751461  1
  Pd  Pd31  1  0.382081  0.118182  0.248539  1
