# generated using pymatgen
data_Er10Ga3PtPb2
_symmetry_space_group_name_H-M   'P 1'
_cell_length_a   8.74423977
_cell_length_b   8.74423952
_cell_length_c   8.70009517
_cell_angle_alpha   126.11149065
_cell_angle_beta   126.11149795
_cell_angle_gamma   80.05129833
_symmetry_Int_Tables_number   1
_chemical_formula_structural   Er10Ga3PtPb2
_chemical_formula_sum   'Er10 Ga3 Pt1 Pb2'
_cell_volume   418.34282021
_cell_formula_units_Z   1
loop_
 _symmetry_equiv_pos_site_id
 _symmetry_equiv_pos_as_xyz
  1  'x, y, z'
loop_
 _atom_site_type_symbol
 _atom_site_label
 _atom_site_symmetry_multiplicity
 _atom_site_fract_x
 _atom_site_fract_y
 _atom_site_fract_z
 _atom_site_occupancy
  Er  Er0  1  0.002269  0.995964  0.998234  1
  Er  Er1  1  0.495964  0.502269  0.998234  1
  Er  Er2  1  0.802490  0.302490  0.818751  1
  Er  Er3  1  0.298275  0.490854  0.506361  1
  Er  Er4  1  0.990854  0.798275  0.506361  1
  Er  Er5  1  0.708086  0.515507  0.506361  1
  Er  Er6  1  0.015507  0.208086  0.506361  1
  Er  Er7  1  0.516261  0.016261  0.818751  1
  Er  Er8  1  0.195949  0.695949  0.167198  1
  Er  Er9  1  0.471249  0.971249  0.167198  1
  Ga  Ga10  1  0.863281  0.363281  0.226561  1
  Ga  Ga11  1  0.366920  0.138487  0.505407  1
  Ga  Ga12  1  0.638487  0.866920  0.505407  1
  Pt  Pt13  1  0.127088  0.627088  0.754176  1
  Pb  Pb14  1  0.253660  0.253660  0.007320  1
  Pb  Pb15  1  0.753660  0.753660  0.007320  1
