# generated using pymatgen
data_Li2HoTmPb2
_symmetry_space_group_name_H-M   'P 1'
_cell_length_a   4.74849300
_cell_length_b   4.74849276
_cell_length_c   7.25028800
_cell_angle_alpha   90.00000000
_cell_angle_beta   90.00000000
_cell_angle_gamma   120.00000865
_symmetry_Int_Tables_number   1
_chemical_formula_structural   Li2HoTmPb2
_chemical_formula_sum   'Li2 Ho1 Tm1 Pb2'
_cell_volume   141.57854155
_cell_formula_units_Z   1
loop_
 _symmetry_equiv_pos_site_id
 _symmetry_equiv_pos_as_xyz
  1  'x, y, z'
loop_
 _atom_site_type_symbol
 _atom_site_label
 _atom_site_symmetry_multiplicity
 _atom_site_fract_x
 _atom_site_fract_y
 _atom_site_fract_z
 _atom_site_occupancy
  Li  Li0  1  0.666667  0.333333  0.299060  1
  Li  Li1  1  0.333333  0.666667  0.803777  1
  Ho  Ho2  1  0.000000  0.000000  0.522924  1
  Tm  Tm3  1  0.000000  0.000000  0.022738  1
  Pb  Pb4  1  0.333333  0.666667  0.253530  1
  Pb  Pb5  1  0.666667  0.333333  0.757770  1
