# generated using pymatgen
data_Ta5Ti4Si6W
_symmetry_space_group_name_H-M   'P 1'
_cell_length_a   7.50928371
_cell_length_b   7.50645810
_cell_length_c   7.50520305
_cell_angle_alpha   128.91919484
_cell_angle_beta   128.93111178
_cell_angle_gamma   75.01537881
_symmetry_Int_Tables_number   1
_chemical_formula_structural   Ta5Ti4Si6W
_chemical_formula_sum   'Ta5 Ti4 Si6 W1'
_cell_volume   249.47824947
_cell_formula_units_Z   1
loop_
 _symmetry_equiv_pos_site_id
 _symmetry_equiv_pos_as_xyz
  1  'x, y, z'
loop_
 _atom_site_type_symbol
 _atom_site_label
 _atom_site_symmetry_multiplicity
 _atom_site_fract_x
 _atom_site_fract_y
 _atom_site_fract_z
 _atom_site_occupancy
  Ta  Ta0  1  0.185794  0.687235  0.172749  1
  Ta  Ta1  1  0.985562  0.814857  0.499719  1
  Ta  Ta2  1  0.312895  0.483990  0.496434  1
  Ta  Ta3  1  0.484625  0.986519  0.171701  1
  Ta  Ta4  1  0.815607  0.314248  0.830911  1
  Ti  Ti5  1  0.013429  0.185543  0.498247  1
  Ti  Ti6  1  0.687333  0.515006  0.501923  1
  Ti  Ti7  1  0.515659  0.013061  0.827430  1
  Ti  Ti8  1  0.501554  0.502721  0.001394  1
  Si  Si9  1  0.749679  0.753471  0.998129  1
  Si  Si10  1  0.254732  0.251061  0.997488  1
  Si  Si11  1  0.368848  0.133839  0.507627  1
  Si  Si12  1  0.630175  0.864795  0.499665  1
  Si  Si13  1  0.862163  0.366063  0.236298  1
  Si  Si14  1  0.129693  0.626074  0.758991  1
  W  W15  1  0.002251  0.001515  0.001292  1
