# generated using pymatgen
data_Tb4PrSmRuBr10
_symmetry_space_group_name_H-M   'P 1'
_cell_length_a   7.48530644
_cell_length_b   9.40873242
_cell_length_c   9.33807175
_cell_angle_alpha   107.73584611
_cell_angle_beta   95.85948585
_cell_angle_gamma   106.30603873
_symmetry_Int_Tables_number   1
_chemical_formula_structural   Tb4PrSmRuBr10
_chemical_formula_sum   'Tb4 Pr1 Sm1 Ru1 Br10'
_cell_volume   588.40249557
_cell_formula_units_Z   1
loop_
 _symmetry_equiv_pos_site_id
 _symmetry_equiv_pos_as_xyz
  1  'x, y, z'
loop_
 _atom_site_type_symbol
 _atom_site_label
 _atom_site_symmetry_multiplicity
 _atom_site_fract_x
 _atom_site_fract_y
 _atom_site_fract_z
 _atom_site_occupancy
  Tb  Tb0  1  0.976431  0.303939  0.096208  1
  Tb  Tb1  1  0.024450  0.696076  0.902120  1
  Tb  Tb2  1  0.366767  0.139518  0.180510  1
  Tb  Tb3  1  0.633729  0.860949  0.818768  1
  Pr  Pr4  1  0.876620  0.953441  0.239437  1
  Sm  Sm5  1  0.121385  0.045679  0.763520  1
  Ru  Ru6  1  0.999472  0.999554  0.000232  1
  Br  Br7  1  0.546727  0.173623  0.916583  1
  Br  Br8  1  0.447204  0.824058  0.079955  1
  Br  Br9  1  0.354687  0.453011  0.272089  1
  Br  Br10  1  0.645255  0.547229  0.728105  1
  Br  Br11  1  0.262032  0.086847  0.453521  1
  Br  Br12  1  0.745259  0.915758  0.551409  1
  Br  Br13  1  0.787803  0.264131  0.344174  1
  Br  Br14  1  0.210863  0.741561  0.655956  1
  Br  Br15  1  0.087661  0.371415  0.831524  1
  Br  Br16  1  0.913653  0.623211  0.165889  1
