# generated using pymatgen
data_Tb2Er8In8Pt3Rh
_symmetry_space_group_name_H-M   'P 1'
_cell_length_a   3.63155200
_cell_length_b   8.07744793
_cell_length_c   18.18247504
_cell_angle_alpha   90.05466526
_cell_angle_beta   90.00000000
_cell_angle_gamma   90.00000000
_symmetry_Int_Tables_number   1
_chemical_formula_structural   Tb2Er8In8Pt3Rh
_chemical_formula_sum   'Tb2 Er8 In8 Pt3 Rh1'
_cell_volume   533.35851972
_cell_formula_units_Z   1
loop_
 _symmetry_equiv_pos_site_id
 _symmetry_equiv_pos_as_xyz
  1  'x, y, z'
loop_
 _atom_site_type_symbol
 _atom_site_label
 _atom_site_symmetry_multiplicity
 _atom_site_fract_x
 _atom_site_fract_y
 _atom_site_fract_z
 _atom_site_occupancy
  Tb  Tb0  1  0.000000  0.999989  0.000214  1
  Tb  Tb1  1  0.000000  0.500534  0.499746  1
  Er  Er2  1  0.000000  0.115142  0.411674  1
  Er  Er3  1  0.000000  0.882746  0.586105  1
  Er  Er4  1  0.000000  0.383301  0.914010  1
  Er  Er5  1  0.000000  0.617406  0.087150  1
  Er  Er6  1  0.000000  0.240347  0.221670  1
  Er  Er7  1  0.000000  0.756970  0.778781  1
  Er  Er8  1  0.000000  0.256514  0.721077  1
  Er  Er9  1  0.000000  0.748429  0.279251  1
  In  In10  1  0.500000  0.422555  0.351006  1
  In  In11  1  0.500000  0.575514  0.648905  1
  In  In12  1  0.500000  0.075923  0.851258  1
  In  In13  1  0.500000  0.927318  0.150181  1
  In  In14  1  0.500000  0.294100  0.066947  1
  In  In15  1  0.500000  0.706310  0.933181  1
  In  In16  1  0.500000  0.205494  0.566217  1
  In  In17  1  0.500000  0.794910  0.431531  1
  Pt  Pt18  1  0.500000  0.975860  0.696153  1
  Pt  Pt19  1  0.500000  0.475885  0.804086  1
  Pt  Pt20  1  0.500000  0.522195  0.196116  1
  Rh  Rh21  1  0.500000  0.022558  0.304740  1
