# generated using pymatgen
data_Tb4Dy3Co2Sn23Os4
_symmetry_space_group_name_H-M   'P 1'
_cell_length_a   9.80976191
_cell_length_b   9.85293480
_cell_length_c   10.07219004
_cell_angle_alpha   90.00160833
_cell_angle_beta   89.82057646
_cell_angle_gamma   120.14262056
_symmetry_Int_Tables_number   1
_chemical_formula_structural   Tb4Dy3Co2Sn23Os4
_chemical_formula_sum   'Tb4 Dy3 Co2 Sn23 Os4'
_cell_volume   841.87935533
_cell_formula_units_Z   1
loop_
 _symmetry_equiv_pos_site_id
 _symmetry_equiv_pos_as_xyz
  1  'x, y, z'
loop_
 _atom_site_type_symbol
 _atom_site_label
 _atom_site_symmetry_multiplicity
 _atom_site_fract_x
 _atom_site_fract_y
 _atom_site_fract_z
 _atom_site_occupancy
  Tb  Tb0  1  0.000023  0.000084  0.999943  1
  Tb  Tb1  1  0.483661  0.518820  0.305581  1
  Tb  Tb2  1  0.516349  0.481258  0.694450  1
  Tb  Tb3  1  0.483667  0.964840  0.305601  1
  Dy  Dy4  1  0.515789  0.034454  0.694632  1
  Dy  Dy5  1  0.034602  0.517274  0.303890  1
  Dy  Dy6  1  0.965464  0.482752  0.696116  1
  Co  Co7  1  0.338737  0.169383  0.199681  1
  Co  Co8  1  0.661124  0.830807  0.800275  1
  Sn  Sn9  1  0.349172  0.002743  0.004866  1
  Sn  Sn10  1  0.650878  0.997423  0.995110  1
  Sn  Sn11  1  0.999950  0.349426  0.999972  1
  Sn  Sn12  1  0.000168  0.650708  0.999854  1
  Sn  Sn13  1  0.650938  0.653657  0.995147  1
  Sn  Sn14  1  0.349043  0.346341  0.004826  1
  Sn  Sn15  1  0.336071  0.668059  0.822586  1
  Sn  Sn16  1  0.664000  0.331992  0.177354  1
  Sn  Sn17  1  0.000026  0.000049  0.500034  1
  Sn  Sn18  1  0.780869  0.220736  0.461997  1
  Sn  Sn19  1  0.219226  0.779375  0.538372  1
  Sn  Sn20  1  0.781211  0.560248  0.461688  1
  Sn  Sn21  1  0.218813  0.439803  0.538316  1
  Sn  Sn22  1  0.437479  0.218546  0.455388  1
  Sn  Sn23  1  0.562489  0.781712  0.545048  1
  Sn  Sn24  1  0.334486  0.667236  0.123910  1
  Sn  Sn25  1  0.665151  0.331988  0.875628  1
  Sn  Sn26  1  0.120457  0.889087  0.276387  1
  Sn  Sn27  1  0.879220  0.110953  0.723506  1
  Sn  Sn28  1  0.120370  0.231303  0.276427  1
  Sn  Sn29  1  0.879780  0.768749  0.723601  1
  Sn  Sn30  1  0.765113  0.882599  0.277048  1
  Sn  Sn31  1  0.235284  0.117527  0.722872  1
  Os  Os32  1  0.829638  0.168789  0.201118  1
  Os  Os33  1  0.170800  0.831436  0.798858  1
  Os  Os34  1  0.829695  0.660904  0.201037  1
  Os  Os35  1  0.170258  0.338936  0.798880  1
