# generated using pymatgen
data_Tb2Pr6NdRh6
_symmetry_space_group_name_H-M   'P 1'
_cell_length_a   7.63286025
_cell_length_b   7.63285970
_cell_length_c   7.63285986
_cell_angle_alpha   70.98829761
_cell_angle_beta   70.98830367
_cell_angle_gamma   70.98829130
_symmetry_Int_Tables_number   1
_chemical_formula_structural   Tb2Pr6NdRh6
_chemical_formula_sum   'Tb2 Pr6 Nd1 Rh6'
_cell_volume   385.31669716
_cell_formula_units_Z   1
loop_
 _symmetry_equiv_pos_site_id
 _symmetry_equiv_pos_as_xyz
  1  'x, y, z'
loop_
 _atom_site_type_symbol
 _atom_site_label
 _atom_site_symmetry_multiplicity
 _atom_site_fract_x
 _atom_site_fract_y
 _atom_site_fract_z
 _atom_site_occupancy
  Tb  Tb0  1  0.000154  0.000154  0.000154  1
  Tb  Tb1  1  0.199125  0.199125  0.199125  1
  Pr  Pr2  1  0.163818  0.387747  0.666641  1
  Pr  Pr3  1  0.666641  0.163818  0.387747  1
  Pr  Pr4  1  0.387747  0.666641  0.163818  1
  Pr  Pr5  1  0.839357  0.608884  0.332565  1
  Pr  Pr6  1  0.332565  0.839357  0.608884  1
  Pr  Pr7  1  0.608884  0.332565  0.839357  1
  Nd  Nd8  1  0.799258  0.799258  0.799258  1
  Rh  Rh9  1  0.962138  0.159735  0.589610  1
  Rh  Rh10  1  0.589610  0.962138  0.159735  1
  Rh  Rh11  1  0.159735  0.589610  0.962138  1
  Rh  Rh12  1  0.041338  0.848293  0.401335  1
  Rh  Rh13  1  0.401335  0.041338  0.848293  1
  Rh  Rh14  1  0.848293  0.401335  0.041338  1
