# generated using pymatgen
data_La16Cd4CoIr3
_symmetry_space_group_name_H-M   'P 1'
_cell_length_a   10.07543340
_cell_length_b   10.07543390
_cell_length_c   10.07543414
_cell_angle_alpha   60.23989352
_cell_angle_beta   60.23989321
_cell_angle_gamma   60.23990489
_symmetry_Int_Tables_number   1
_chemical_formula_structural   La16Cd4CoIr3
_chemical_formula_sum   'La16 Cd4 Co1 Ir3'
_cell_volume   727.15742544
_cell_formula_units_Z   1
loop_
 _symmetry_equiv_pos_site_id
 _symmetry_equiv_pos_as_xyz
  1  'x, y, z'
loop_
 _atom_site_type_symbol
 _atom_site_label
 _atom_site_symmetry_multiplicity
 _atom_site_fract_x
 _atom_site_fract_y
 _atom_site_fract_z
 _atom_site_occupancy
  La  La0  1  0.939899  0.939899  0.559426  1
  La  La1  1  0.560345  0.939477  0.560345  1
  La  La2  1  0.559426  0.939899  0.939899  1
  La  La3  1  0.690608  0.690608  0.309408  1
  La  La4  1  0.155553  0.155553  0.540223  1
  La  La5  1  0.309408  0.690608  0.690608  1
  La  La6  1  0.153045  0.153045  0.153045  1
  La  La7  1  0.540223  0.155553  0.155553  1
  La  La8  1  0.310537  0.684248  0.310537  1
  La  La9  1  0.310537  0.310537  0.684248  1
  La  La10  1  0.690608  0.309408  0.690608  1
  La  La11  1  0.939477  0.560345  0.560345  1
  La  La12  1  0.560345  0.560345  0.939477  1
  La  La13  1  0.155553  0.540223  0.155553  1
  La  La14  1  0.684248  0.310537  0.310537  1
  La  La15  1  0.939899  0.559426  0.939899  1
  Cd  Cd16  1  0.237339  0.920709  0.920709  1
  Cd  Cd17  1  0.921298  0.921298  0.921298  1
  Cd  Cd18  1  0.920709  0.920709  0.237339  1
  Cd  Cd19  1  0.920709  0.237339  0.920709  1
  Co  Co20  1  0.359883  0.359883  0.359883  1
  Ir  Ir21  1  0.922729  0.358809  0.358809  1
  Ir  Ir22  1  0.358809  0.358809  0.922729  1
  Ir  Ir23  1  0.358809  0.922729  0.358809  1
