# generated using pymatgen
data_La4HoCo2
_symmetry_space_group_name_H-M   'P 1'
_cell_length_a   9.12676859
_cell_length_b   9.12676899
_cell_length_c   6.99766550
_cell_angle_alpha   85.77296004
_cell_angle_beta   85.77295261
_cell_angle_gamma   42.28648123
_symmetry_Int_Tables_number   1
_chemical_formula_structural   La4HoCo2
_chemical_formula_sum   'La8 Ho2 Co4'
_cell_volume   390.96448673
_cell_formula_units_Z   2
loop_
 _symmetry_equiv_pos_site_id
 _symmetry_equiv_pos_as_xyz
  1  'x, y, z'
loop_
 _atom_site_type_symbol
 _atom_site_label
 _atom_site_symmetry_multiplicity
 _atom_site_fract_x
 _atom_site_fract_y
 _atom_site_fract_z
 _atom_site_occupancy
  La  La0  1  0.017250  0.796831  0.899670  1
  La  La1  1  0.203169  0.982750  0.600330  1
  La  La2  1  0.982750  0.203169  0.100330  1
  La  La3  1  0.796831  0.017250  0.399670  1
  La  La4  1  0.363227  0.218956  0.833404  1
  La  La5  1  0.781044  0.636773  0.666596  1
  La  La6  1  0.636773  0.781044  0.166596  1
  La  La7  1  0.218956  0.363227  0.333404  1
  Ho  Ho8  1  0.567869  0.432131  0.750000  1
  Ho  Ho9  1  0.432131  0.567869  0.250000  1
  Co  Co10  1  0.185996  0.603296  0.578596  1
  Co  Co11  1  0.396704  0.814004  0.921404  1
  Co  Co12  1  0.814004  0.396704  0.421404  1
  Co  Co13  1  0.603296  0.185996  0.078596  1
