# generated using pymatgen
data_La5CeBiO12
_symmetry_space_group_name_H-M   'P 1'
_cell_length_a   6.87870531
_cell_length_b   6.90868494
_cell_length_c   6.84892583
_cell_angle_alpha   99.30210579
_cell_angle_beta   98.48425087
_cell_angle_gamma   98.63658699
_symmetry_Int_Tables_number   1
_chemical_formula_structural   La5CeBiO12
_chemical_formula_sum   'La5 Ce1 Bi1 O12'
_cell_volume   312.59534060
_cell_formula_units_Z   1
loop_
 _symmetry_equiv_pos_site_id
 _symmetry_equiv_pos_as_xyz
  1  'x, y, z'
loop_
 _atom_site_type_symbol
 _atom_site_label
 _atom_site_symmetry_multiplicity
 _atom_site_fract_x
 _atom_site_fract_y
 _atom_site_fract_z
 _atom_site_occupancy
  La  La0  1  0.603364  0.141870  0.303730  1
  La  La1  1  0.395379  0.861446  0.696325  1
  La  La2  1  0.697021  0.395056  0.858312  1
  La  La3  1  0.857642  0.695877  0.393135  1
  La  La4  1  0.140449  0.302113  0.605944  1
  Ce  Ce5  1  0.309463  0.603386  0.142767  1
  Bi  Bi6  1  0.002430  0.999121  0.002666  1
  O  O7  1  0.439148  0.179088  0.595057  1
  O  O8  1  0.935647  0.692625  0.045636  1
  O  O9  1  0.185704  0.588233  0.419333  1
  O  O10  1  0.824636  0.412247  0.561474  1
  O  O11  1  0.553232  0.816495  0.393721  1
  O  O12  1  0.573489  0.440473  0.177428  1
  O  O13  1  0.400310  0.569016  0.838698  1
  O  O14  1  0.954377  0.067808  0.307340  1
  O  O15  1  0.045292  0.933578  0.693785  1
  O  O16  1  0.698064  0.046690  0.929295  1
  O  O17  1  0.079037  0.310073  0.966022  1
  O  O18  1  0.305315  0.944806  0.069333  1
