# generated using pymatgen
data_Ho2Er4TcRu
_symmetry_space_group_name_H-M   'P 1'
_cell_length_a   6.24727700
_cell_length_b   7.32501500
_cell_length_c   9.04152900
_cell_angle_alpha   90.00000000
_cell_angle_beta   90.00000000
_cell_angle_gamma   90.00000000
_symmetry_Int_Tables_number   1
_chemical_formula_structural   Ho2Er4TcRu
_chemical_formula_sum   'Ho4 Er8 Tc2 Ru2'
_cell_volume   413.75300469
_cell_formula_units_Z   2
loop_
 _symmetry_equiv_pos_site_id
 _symmetry_equiv_pos_as_xyz
  1  'x, y, z'
loop_
 _atom_site_type_symbol
 _atom_site_label
 _atom_site_symmetry_multiplicity
 _atom_site_fract_x
 _atom_site_fract_y
 _atom_site_fract_z
 _atom_site_occupancy
  Ho  Ho0  1  0.874896  0.539310  0.250000  1
  Ho  Ho1  1  0.625104  0.039310  0.250000  1
  Ho  Ho2  1  0.130955  0.457347  0.750000  1
  Ho  Ho3  1  0.369045  0.957347  0.750000  1
  Er  Er4  1  0.334410  0.676326  0.063454  1
  Er  Er5  1  0.165590  0.176326  0.436546  1
  Er  Er6  1  0.664065  0.324219  0.562618  1
  Er  Er7  1  0.835935  0.824219  0.937382  1
  Er  Er8  1  0.664065  0.324219  0.937382  1
  Er  Er9  1  0.835935  0.824219  0.562618  1
  Er  Er10  1  0.334410  0.676326  0.436546  1
  Er  Er11  1  0.165590  0.176326  0.063454  1
  Tc  Tc12  1  0.038533  0.885851  0.250000  1
  Tc  Tc13  1  0.461467  0.385851  0.250000  1
  Ru  Ru14  1  0.960352  0.116404  0.750000  1
  Ru  Ru15  1  0.539648  0.616404  0.750000  1
