# generated using pymatgen
data_OsF18
_symmetry_space_group_name_H-M   'P 1'
_cell_length_a   5.85743597
_cell_length_b   9.37752285
_cell_length_c   13.56166100
_cell_angle_alpha   101.85032987
_cell_angle_beta   93.26313484
_cell_angle_gamma   102.74165111
_symmetry_Int_Tables_number   1
_chemical_formula_structural   OsF18
_chemical_formula_sum   'Os2 F36'
_cell_volume   707.00074063
_cell_formula_units_Z   2
loop_
 _symmetry_equiv_pos_site_id
 _symmetry_equiv_pos_as_xyz
  1  'x, y, z'
loop_
 _atom_site_type_symbol
 _atom_site_label
 _atom_site_symmetry_multiplicity
 _atom_site_fract_x
 _atom_site_fract_y
 _atom_site_fract_z
 _atom_site_occupancy
  Os  Os0  1  0.166442  0.990344  0.283117  1
  Os  Os1  1  0.833558  0.009656  0.716883  1
  F  F2  1  0.657585  0.643110  0.372319  1
  F  F3  1  0.342415  0.356890  0.627681  1
  F  F4  1  0.015945  0.385884  0.366727  1
  F  F5  1  0.984055  0.614116  0.633273  1
  F  F6  1  0.208210  0.889089  0.939361  1
  F  F7  1  0.791790  0.110911  0.060639  1
  F  F8  1  0.905320  0.069116  0.313267  1
  F  F9  1  0.094680  0.930884  0.686733  1
  F  F10  1  0.991143  0.799899  0.287500  1
  F  F11  1  0.008857  0.200101  0.712500  1
  F  F12  1  0.585565  0.511932  0.411153  1
  F  F13  1  0.414435  0.488068  0.588847  1
  F  F14  1  0.068859  0.951941  0.144500  1
  F  F15  1  0.931141  0.048059  0.855500  1
  F  F16  1  0.260320  0.035318  0.422534  1
  F  F17  1  0.739680  0.964682  0.577466  1
  F  F18  1  0.083423  0.407748  0.270461  1
  F  F19  1  0.916577  0.592252  0.729539  1
  F  F20  1  0.720326  0.670869  0.068147  1
  F  F21  1  0.279674  0.329131  0.931853  1
  F  F22  1  0.866232  0.595449  0.006718  1
  F  F23  1  0.133768  0.404551  0.993282  1
  F  F24  1  0.543063  0.579481  0.852557  1
  F  F25  1  0.456937  0.420519  0.147443  1
  F  F26  1  0.345809  0.178984  0.277779  1
  F  F27  1  0.654191  0.821016  0.722221  1
  F  F28  1  0.292853  0.800943  0.502298  1
  F  F29  1  0.707147  0.199057  0.497702  1
  F  F30  1  0.368344  0.833559  0.995762  1
  F  F31  1  0.631656  0.166441  0.004238  1
  F  F32  1  0.422397  0.906213  0.251845  1
  F  F33  1  0.577603  0.093787  0.748155  1
  F  F34  1  0.681059  0.409984  0.188445  1
  F  F35  1  0.318941  0.590016  0.811555  1
  F  F36  1  0.172081  0.647422  0.464623  1
  F  F37  1  0.827919  0.352578  0.535377  1
