# generated using pymatgen
data_Y8Re3B24Rh
_symmetry_space_group_name_H-M   'P 1'
_cell_length_a   3.68532300
_cell_length_b   9.18717278
_cell_length_c   11.57177633
_cell_angle_alpha   89.83273931
_cell_angle_beta   90.00000000
_cell_angle_gamma   90.00000000
_symmetry_Int_Tables_number   1
_chemical_formula_structural   Y8Re3B24Rh
_chemical_formula_sum   'Y8 Re3 B24 Rh1'
_cell_volume   391.79205237
_cell_formula_units_Z   1
loop_
 _symmetry_equiv_pos_site_id
 _symmetry_equiv_pos_as_xyz
  1  'x, y, z'
loop_
 _atom_site_type_symbol
 _atom_site_label
 _atom_site_symmetry_multiplicity
 _atom_site_fract_x
 _atom_site_fract_y
 _atom_site_fract_z
 _atom_site_occupancy
  Y  Y0  1  0.000000  0.818388  0.084597  1
  Y  Y1  1  0.000000  0.178120  0.908797  1
  Y  Y2  1  0.000000  0.327392  0.418508  1
  Y  Y3  1  0.000000  0.677517  0.587340  1
  Y  Y4  1  0.000000  0.442901  0.129861  1
  Y  Y5  1  0.000000  0.556001  0.871396  1
  Y  Y6  1  0.000000  0.941306  0.371127  1
  Y  Y7  1  0.000000  0.057072  0.628107  1
  Re  Re8  1  0.000000  0.862791  0.822408  1
  Re  Re9  1  0.000000  0.638017  0.320122  1
  Re  Re10  1  0.000000  0.362154  0.678994  1
  B  B11  1  0.500000  0.053572  0.066451  1
  B  B12  1  0.500000  0.946730  0.933168  1
  B  B13  1  0.500000  0.553577  0.433355  1
  B  B14  1  0.500000  0.447632  0.567636  1
  B  B15  1  0.500000  0.248139  0.079803  1
  B  B16  1  0.500000  0.751206  0.918935  1
  B  B17  1  0.500000  0.748704  0.418538  1
  B  B18  1  0.500000  0.252743  0.581223  1
  B  B19  1  0.500000  0.290281  0.234713  1
  B  B20  1  0.500000  0.709009  0.766186  1
  B  B21  1  0.500000  0.791085  0.264968  1
  B  B22  1  0.500000  0.208809  0.733878  1
  B  B23  1  0.500000  0.131805  0.315522  1
  B  B24  1  0.500000  0.869491  0.686190  1
  B  B25  1  0.500000  0.630549  0.185480  1
  B  B26  1  0.500000  0.368464  0.814250  1
  B  B27  1  0.500000  0.482996  0.288279  1
  B  B28  1  0.500000  0.517479  0.713051  1
  B  B29  1  0.500000  0.983072  0.211877  1
  B  B30  1  0.500000  0.018114  0.787592  1
  B  B31  1  0.500000  0.105119  0.470090  1
  B  B32  1  0.500000  0.896532  0.528212  1
  B  B33  1  0.500000  0.602357  0.029395  1
  B  B34  1  0.500000  0.393690  0.971491  1
  Rh  Rh35  1  0.000000  0.137183  0.178460  1
