# generated using pymatgen
data_TiMnBiO5
_symmetry_space_group_name_H-M   'P 1'
_cell_length_a   5.92913500
_cell_length_b   7.76206600
_cell_length_c   8.71302200
_cell_angle_alpha   90.00000000
_cell_angle_beta   90.00000000
_cell_angle_gamma   90.00000000
_symmetry_Int_Tables_number   1
_chemical_formula_structural   TiMnBiO5
_chemical_formula_sum   'Ti4 Mn4 Bi4 O20'
_cell_volume   400.99363645
_cell_formula_units_Z   4
loop_
 _symmetry_equiv_pos_site_id
 _symmetry_equiv_pos_as_xyz
  1  'x, y, z'
loop_
 _atom_site_type_symbol
 _atom_site_label
 _atom_site_symmetry_multiplicity
 _atom_site_fract_x
 _atom_site_fract_y
 _atom_site_fract_z
 _atom_site_occupancy
  Ti  Ti0  1  0.260957  0.500000  0.000000  1
  Ti  Ti1  1  0.739043  0.000000  0.500000  1
  Ti  Ti2  1  0.739043  0.500000  0.000000  1
  Ti  Ti3  1  0.260957  0.000000  0.500000  1
  Mn  Mn4  1  0.500000  0.904562  0.147762  1
  Mn  Mn5  1  0.500000  0.095438  0.852238  1
  Mn  Mn6  1  0.500000  0.404562  0.352238  1
  Mn  Mn7  1  0.500000  0.595438  0.647762  1
  Bi  Bi8  1  0.000000  0.660380  0.335407  1
  Bi  Bi9  1  0.000000  0.339620  0.664593  1
  Bi  Bi10  1  0.000000  0.160380  0.164593  1
  Bi  Bi11  1  0.000000  0.839620  0.835407  1
  O  O12  1  0.000000  0.659178  0.053221  1
  O  O13  1  0.000000  0.340822  0.946779  1
  O  O14  1  0.000000  0.159178  0.446779  1
  O  O15  1  0.000000  0.840822  0.553221  1
  O  O16  1  0.285541  0.500000  0.500000  1
  O  O17  1  0.714459  0.000000  0.000000  1
  O  O18  1  0.714459  0.500000  0.500000  1
  O  O19  1  0.285541  0.000000  0.000000  1
  O  O20  1  0.500000  0.640922  0.081306  1
  O  O21  1  0.500000  0.359078  0.918694  1
  O  O22  1  0.500000  0.140922  0.418694  1
  O  O23  1  0.500000  0.859078  0.581306  1
  O  O24  1  0.253006  0.882011  0.298137  1
  O  O25  1  0.253006  0.117989  0.701863  1
  O  O26  1  0.746994  0.382011  0.201863  1
  O  O27  1  0.746994  0.617989  0.798137  1
  O  O28  1  0.746994  0.117989  0.701863  1
  O  O29  1  0.746994  0.882011  0.298137  1
  O  O30  1  0.253006  0.617989  0.798137  1
  O  O31  1  0.253006  0.382011  0.201863  1
