# generated using pymatgen
data_Pr4YSi2Hg
_symmetry_space_group_name_H-M   'P 1'
_cell_length_a   7.70359704
_cell_length_b   7.70359648
_cell_length_c   9.41244121
_cell_angle_alpha   114.15611239
_cell_angle_beta   114.15611168
_cell_angle_gamma   90.00001189
_symmetry_Int_Tables_number   1
_chemical_formula_structural   Pr4YSi2Hg
_chemical_formula_sum   'Pr8 Y2 Si4 Hg2'
_cell_volume   455.53668593
_cell_formula_units_Z   2
loop_
 _symmetry_equiv_pos_site_id
 _symmetry_equiv_pos_as_xyz
  1  'x, y, z'
loop_
 _atom_site_type_symbol
 _atom_site_label
 _atom_site_symmetry_multiplicity
 _atom_site_fract_x
 _atom_site_fract_y
 _atom_site_fract_z
 _atom_site_occupancy
  Pr  Pr0  1  0.962869  0.813589  0.276458  1
  Pr  Pr1  1  0.313589  0.462869  0.276458  1
  Pr  Pr2  1  0.813589  0.313589  0.276458  1
  Pr  Pr3  1  0.462869  0.962869  0.276458  1
  Pr  Pr4  1  0.037131  0.186411  0.723542  1
  Pr  Pr5  1  0.686411  0.537131  0.723542  1
  Pr  Pr6  1  0.186411  0.686411  0.723542  1
  Pr  Pr7  1  0.537131  0.037131  0.723542  1
  Y  Y8  1  0.500000  0.500000  0.000000  1
  Y  Y9  1  0.000000  0.000000  0.000000  1
  Si  Si10  1  0.619251  0.880749  0.000000  1
  Si  Si11  1  0.380749  0.119251  0.000000  1
  Si  Si12  1  0.880749  0.380749  0.000000  1
  Si  Si13  1  0.119251  0.619251  0.000000  1
  Hg  Hg14  1  0.750000  0.750000  0.500000  1
  Hg  Hg15  1  0.250000  0.250000  0.500000  1
