# generated using pymatgen
data_Lu3Mg(AlPt)4
_symmetry_space_group_name_H-M   'P 1'
_cell_length_a   4.31172700
_cell_length_b   6.72483067
_cell_length_c   7.70297451
_cell_angle_alpha   91.74703299
_cell_angle_beta   90.00000000
_cell_angle_gamma   90.00000000
_symmetry_Int_Tables_number   1
_chemical_formula_structural   Lu3Mg(AlPt)4
_chemical_formula_sum   'Lu3 Mg1 Al4 Pt4'
_cell_volume   223.24880863
_cell_formula_units_Z   1
loop_
 _symmetry_equiv_pos_site_id
 _symmetry_equiv_pos_as_xyz
  1  'x, y, z'
loop_
 _atom_site_type_symbol
 _atom_site_label
 _atom_site_symmetry_multiplicity
 _atom_site_fract_x
 _atom_site_fract_y
 _atom_site_fract_z
 _atom_site_occupancy
  Lu  Lu0  1  0.250000  0.529050  0.819451  1
  Lu  Lu1  1  0.750000  0.971882  0.329913  1
  Lu  Lu2  1  0.750000  0.469759  0.177900  1
  Mg  Mg3  1  0.250000  0.028999  0.676351  1
  Al  Al4  1  0.250000  0.139224  0.053784  1
  Al  Al5  1  0.250000  0.647236  0.442565  1
  Al  Al6  1  0.750000  0.859556  0.939011  1
  Al  Al7  1  0.750000  0.355484  0.561511  1
  Pt  Pt8  1  0.250000  0.268893  0.376581  1
  Pt  Pt9  1  0.250000  0.769338  0.126949  1
  Pt  Pt10  1  0.750000  0.731500  0.622632  1
  Pt  Pt11  1  0.750000  0.229077  0.873352  1
