# generated using pymatgen
data_Ho3Tm7In8CuPt3
_symmetry_space_group_name_H-M   'P 1'
_cell_length_a   3.58970100
_cell_length_b   8.08142137
_cell_length_c   18.08095324
_cell_angle_alpha   89.94606989
_cell_angle_beta   90.00000000
_cell_angle_gamma   90.00000000
_symmetry_Int_Tables_number   1
_chemical_formula_structural   Ho3Tm7In8CuPt3
_chemical_formula_sum   'Ho3 Tm7 In8 Cu1 Pt3'
_cell_volume   524.52616682
_cell_formula_units_Z   1
loop_
 _symmetry_equiv_pos_site_id
 _symmetry_equiv_pos_as_xyz
  1  'x, y, z'
loop_
 _atom_site_type_symbol
 _atom_site_label
 _atom_site_symmetry_multiplicity
 _atom_site_fract_x
 _atom_site_fract_y
 _atom_site_fract_z
 _atom_site_occupancy
  Ho  Ho0  1  0.000000  0.736706  0.280275  1
  Ho  Ho1  1  0.000000  0.999013  0.000215  1
  Ho  Ho2  1  0.000000  0.498922  0.499507  1
  Tm  Tm3  1  0.000000  0.117912  0.414629  1
  Tm  Tm4  1  0.000000  0.884235  0.584585  1
  Tm  Tm5  1  0.000000  0.384225  0.915198  1
  Tm  Tm6  1  0.000000  0.617335  0.084877  1
  Tm  Tm7  1  0.000000  0.246168  0.220126  1
  Tm  Tm8  1  0.000000  0.756844  0.779508  1
  Tm  Tm9  1  0.000000  0.256902  0.720608  1
  In  In10  1  0.500000  0.417941  0.351772  1
  In  In11  1  0.500000  0.578260  0.648189  1
  In  In12  1  0.500000  0.077603  0.851563  1
  In  In13  1  0.500000  0.924849  0.151501  1
  In  In14  1  0.500000  0.293097  0.066769  1
  In  In15  1  0.500000  0.707618  0.933538  1
  In  In16  1  0.500000  0.207799  0.566264  1
  In  In17  1  0.500000  0.795169  0.432083  1
  Cu  Cu18  1  0.500000  0.025541  0.302335  1
  Pt  Pt19  1  0.500000  0.974806  0.695941  1
  Pt  Pt20  1  0.500000  0.474813  0.803595  1
  Pt  Pt21  1  0.500000  0.524241  0.196922  1
