# generated using pymatgen
data_Ca19Cd(InN)7
_symmetry_space_group_name_H-M   'P 1'
_cell_length_a   10.42677265
_cell_length_b   10.42677327
_cell_length_c   10.47461991
_cell_angle_alpha   60.15098799
_cell_angle_beta   60.15098871
_cell_angle_gamma   60.00000117
_symmetry_Int_Tables_number   1
_chemical_formula_structural   Ca19Cd(InN)7
_chemical_formula_sum   'Ca19 Cd1 In7 N7'
_cell_volume   807.06867991
_cell_formula_units_Z   1
loop_
 _symmetry_equiv_pos_site_id
 _symmetry_equiv_pos_as_xyz
  1  'x, y, z'
loop_
 _atom_site_type_symbol
 _atom_site_label
 _atom_site_symmetry_multiplicity
 _atom_site_fract_x
 _atom_site_fract_y
 _atom_site_fract_z
 _atom_site_occupancy
  Ca  Ca0  1  0.173950  0.499944  0.826161  1
  Ca  Ca1  1  0.499267  0.827591  0.173875  1
  Ca  Ca2  1  0.827432  0.173800  0.499157  1
  Ca  Ca3  1  0.166798  0.833987  0.165228  1
  Ca  Ca4  1  0.827591  0.499267  0.173875  1
  Ca  Ca5  1  0.173800  0.827432  0.499157  1
  Ca  Ca6  1  0.166408  0.166408  0.833677  1
  Ca  Ca7  1  0.173800  0.499609  0.499157  1
  Ca  Ca8  1  0.833987  0.833987  0.165228  1
  Ca  Ca9  1  0.833506  0.166408  0.833677  1
  Ca  Ca10  1  0.499609  0.827432  0.499157  1
  Ca  Ca11  1  0.500184  0.500184  0.499446  1
  Ca  Ca12  1  0.499267  0.499267  0.173875  1
  Ca  Ca13  1  0.166408  0.833506  0.833677  1
  Ca  Ca14  1  0.499944  0.173950  0.826161  1
  Ca  Ca15  1  0.499609  0.173800  0.499157  1
  Ca  Ca16  1  0.827432  0.499609  0.499157  1
  Ca  Ca17  1  0.833987  0.166798  0.165228  1
  Ca  Ca18  1  0.499944  0.499944  0.826161  1
  Cd  Cd19  1  0.174041  0.174041  0.477877  1
  In  In20  1  0.825037  0.523847  0.826082  1
  In  In21  1  0.475491  0.174422  0.175665  1
  In  In22  1  0.174422  0.475491  0.175665  1
  In  In23  1  0.523847  0.825037  0.826082  1
  In  In24  1  0.174422  0.174422  0.175665  1
  In  In25  1  0.825037  0.825037  0.826082  1
  In  In26  1  0.823317  0.823317  0.530048  1
  N  N27  1  0.675297  0.326165  0.672372  1
  N  N28  1  0.674475  0.325355  0.325696  1
  N  N29  1  0.326165  0.675297  0.672372  1
  N  N30  1  0.325355  0.674475  0.325696  1
  N  N31  1  0.326165  0.326165  0.672372  1
  N  N32  1  0.674475  0.674475  0.325696  1
  N  N33  1  0.999528  0.999528  0.001416  1
