# generated using pymatgen
data_Er5TmAl18
_symmetry_space_group_name_H-M   'P 1'
_cell_length_a   14.48990546
_cell_length_b   14.48990582
_cell_length_c   14.48990717
_cell_angle_alpha   24.43504832
_cell_angle_beta   24.43504417
_cell_angle_gamma   24.43504776
_symmetry_Int_Tables_number   1
_chemical_formula_structural   Er5TmAl18
_chemical_formula_sum   'Er5 Tm1 Al18'
_cell_volume   457.66351529
_cell_formula_units_Z   1
loop_
 _symmetry_equiv_pos_site_id
 _symmetry_equiv_pos_as_xyz
  1  'x, y, z'
loop_
 _atom_site_type_symbol
 _atom_site_label
 _atom_site_symmetry_multiplicity
 _atom_site_fract_x
 _atom_site_fract_y
 _atom_site_fract_z
 _atom_site_occupancy
  Er  Er0  1  0.890788  0.890788  0.890788  1
  Er  Er1  1  0.390700  0.390700  0.390700  1
  Er  Er2  1  0.999808  0.999808  0.999808  1
  Er  Er3  1  0.500124  0.500124  0.500124  1
  Er  Er4  1  0.609301  0.609301  0.609301  1
  Tm  Tm5  1  0.109271  0.109271  0.109271  1
  Al  Al6  1  0.921644  0.371939  0.371939  1
  Al  Al7  1  0.421237  0.871988  0.871988  1
  Al  Al8  1  0.371939  0.371939  0.921644  1
  Al  Al9  1  0.871988  0.871988  0.421237  1
  Al  Al10  1  0.371939  0.921644  0.371939  1
  Al  Al11  1  0.871988  0.421237  0.871988  1
  Al  Al12  1  0.578341  0.128175  0.128175  1
  Al  Al13  1  0.077942  0.628387  0.628387  1
  Al  Al14  1  0.128175  0.128175  0.578341  1
  Al  Al15  1  0.628387  0.628387  0.077942  1
  Al  Al16  1  0.128175  0.578341  0.128175  1
  Al  Al17  1  0.628387  0.077942  0.628387  1
  Al  Al18  1  0.499962  0.499962  0.999981  1
  Al  Al19  1  0.000334  0.000334  0.499292  1
  Al  Al20  1  0.499962  0.999981  0.499962  1
  Al  Al21  1  0.000334  0.499292  0.000334  1
  Al  Al22  1  0.999981  0.499962  0.499962  1
  Al  Al23  1  0.499292  0.000334  0.000334  1
