# generated using pymatgen
data_Er4Hf3ReF28
_symmetry_space_group_name_H-M   'P 1'
_cell_length_a   5.62926705
_cell_length_b   8.94051771
_cell_length_c   12.00193300
_cell_angle_alpha   62.72349700
_cell_angle_beta   89.99254956
_cell_angle_gamma   89.98929905
_symmetry_Int_Tables_number   1
_chemical_formula_structural   Er4Hf3ReF28
_chemical_formula_sum   'Er4 Hf3 Re1 F28'
_cell_volume   536.87393641
_cell_formula_units_Z   1
loop_
 _symmetry_equiv_pos_site_id
 _symmetry_equiv_pos_as_xyz
  1  'x, y, z'
loop_
 _atom_site_type_symbol
 _atom_site_label
 _atom_site_symmetry_multiplicity
 _atom_site_fract_x
 _atom_site_fract_y
 _atom_site_fract_z
 _atom_site_occupancy
  Er  Er0  1  0.756874  0.813993  0.766718  1
  Er  Er1  1  0.256249  0.184637  0.732324  1
  Er  Er2  1  0.242612  0.185791  0.236320  1
  Er  Er3  1  0.743413  0.815693  0.266528  1
  Hf  Hf4  1  0.755580  0.273068  0.955805  1
  Hf  Hf5  1  0.254801  0.726243  0.543851  1
  Hf  Hf6  1  0.245010  0.725811  0.045664  1
  Re  Re7  1  0.743956  0.273223  0.455522  1
  F  F8  1  0.462823  0.706579  0.921247  1
  F  F9  1  0.951362  0.292322  0.581475  1
  F  F10  1  0.535450  0.291179  0.079560  1
  F  F11  1  0.035335  0.709913  0.419314  1
  F  F12  1  0.452392  0.280627  0.546931  1
  F  F13  1  0.949488  0.720628  0.952252  1
  F  F14  1  0.547638  0.717857  0.450260  1
  F  F15  1  0.048746  0.278144  0.050566  1
  F  F16  1  0.772614  0.523985  0.857654  1
  F  F17  1  0.266795  0.475197  0.641805  1
  F  F18  1  0.226788  0.475123  0.143222  1
  F  F19  1  0.733807  0.521436  0.357202  1
  F  F20  1  0.758002  0.022445  0.057461  1
  F  F21  1  0.260387  0.976792  0.442920  1
  F  F22  1  0.243159  0.975930  0.942095  1
  F  F23  1  0.743965  0.025482  0.551550  1
  F  F24  1  0.978843  0.735295  0.645811  1
  F  F25  1  0.482752  0.266497  0.850770  1
  F  F26  1  0.025668  0.270017  0.357969  1
  F  F27  1  0.520014  0.730606  0.149777  1
  F  F28  1  0.037611  0.748224  0.174093  1
  F  F29  1  0.543431  0.255430  0.325589  1
  F  F30  1  0.965994  0.251178  0.827750  1
  F  F31  1  0.465037  0.749333  0.671332  1
  F  F32  1  0.425460  0.974426  0.234212  1
  F  F33  1  0.925247  0.028972  0.267176  1
  F  F34  1  0.570629  0.025449  0.764403  1
  F  F35  1  0.072070  0.972477  0.732875  1
