# generated using pymatgen
data_Er3Tm13In2(AgIr2)2
_symmetry_space_group_name_H-M   'P 1'
_cell_length_a   9.48259195
_cell_length_b   9.50160159
_cell_length_c   9.48259189
_cell_angle_alpha   59.93045495
_cell_angle_beta   59.93476683
_cell_angle_gamma   59.93045467
_symmetry_Int_Tables_number   1
_chemical_formula_structural   Er3Tm13In2(AgIr2)2
_chemical_formula_sum   'Er3 Tm13 In2 Ag2 Ir4'
_cell_volume   603.20440844
_cell_formula_units_Z   1
loop_
 _symmetry_equiv_pos_site_id
 _symmetry_equiv_pos_as_xyz
  1  'x, y, z'
loop_
 _atom_site_type_symbol
 _atom_site_label
 _atom_site_symmetry_multiplicity
 _atom_site_fract_x
 _atom_site_fract_y
 _atom_site_fract_z
 _atom_site_occupancy
  Er  Er0  1  0.058223  0.438130  0.437305  1
  Er  Er1  1  0.437305  0.438130  0.058223  1
  Er  Er2  1  0.060841  0.438613  0.060841  1
  Tm  Tm3  1  0.058249  0.064638  0.437469  1
  Tm  Tm4  1  0.648820  0.049838  0.648820  1
  Tm  Tm5  1  0.191858  0.808992  0.191858  1
  Tm  Tm6  1  0.436808  0.061548  0.436808  1
  Tm  Tm7  1  0.190524  0.189249  0.811343  1
  Tm  Tm8  1  0.650128  0.652769  0.650128  1
  Tm  Tm9  1  0.049832  0.650384  0.649157  1
  Tm  Tm10  1  0.437469  0.064638  0.058249  1
  Tm  Tm11  1  0.649157  0.650384  0.049832  1
  Tm  Tm12  1  0.191276  0.810480  0.809699  1
  Tm  Tm13  1  0.810424  0.190144  0.810424  1
  Tm  Tm14  1  0.811343  0.189249  0.190524  1
  Tm  Tm15  1  0.809699  0.810480  0.191276  1
  In  In16  1  0.421015  0.743277  0.421015  1
  In  In17  1  0.421373  0.416535  0.421373  1
  Ag  Ag18  1  0.749752  0.416299  0.417268  1
  Ag  Ag19  1  0.417268  0.416299  0.749752  1
  Ir  Ir20  1  0.857831  0.858796  0.857831  1
  Ir  Ir21  1  0.424884  0.857724  0.858548  1
  Ir  Ir22  1  0.858548  0.857724  0.424884  1
  Ir  Ir23  1  0.857374  0.425682  0.857374  1
