# generated using pymatgen
data_La2TcO5
_symmetry_space_group_name_H-M   'P 1'
_cell_length_a   7.03504117
_cell_length_b   7.03504113
_cell_length_c   7.03504146
_cell_angle_alpha   100.43552321
_cell_angle_beta   100.43552294
_cell_angle_gamma   129.62366541
_symmetry_Int_Tables_number   1
_chemical_formula_structural   La2TcO5
_chemical_formula_sum   'La4 Tc2 O10'
_cell_volume   242.68300088
_cell_formula_units_Z   2
loop_
 _symmetry_equiv_pos_site_id
 _symmetry_equiv_pos_as_xyz
  1  'x, y, z'
loop_
 _atom_site_type_symbol
 _atom_site_label
 _atom_site_symmetry_multiplicity
 _atom_site_fract_x
 _atom_site_fract_y
 _atom_site_fract_z
 _atom_site_occupancy
  La  La0  1  0.816460  0.396488  0.212948  1
  La  La1  1  0.396488  0.183540  0.580029  1
  La  La2  1  0.603512  0.816460  0.419971  1
  La  La3  1  0.183540  0.603512  0.787052  1
  Tc  Tc4  1  0.186293  0.186293  0.000000  1
  Tc  Tc5  1  0.813707  0.813707  0.000000  1
  O  O6  1  0.351050  0.068031  0.907587  1
  O  O7  1  0.068031  0.160444  0.716980  1
  O  O8  1  0.443464  0.351050  0.283020  1
  O  O9  1  0.160444  0.443464  0.092413  1
  O  O10  1  0.648950  0.931969  0.092413  1
  O  O11  1  0.931969  0.839556  0.283020  1
  O  O12  1  0.250000  0.750000  0.500000  1
  O  O13  1  0.750000  0.250000  0.500000  1
  O  O14  1  0.839556  0.556536  0.907587  1
  O  O15  1  0.556536  0.648950  0.716980  1
