# generated using pymatgen
data_LiErTm5Co17P12
_symmetry_space_group_name_H-M   'P 1'
_cell_length_a   3.69271300
_cell_length_b   10.51800700
_cell_length_c   12.13429100
_cell_angle_alpha   90.00000000
_cell_angle_beta   90.00000000
_cell_angle_gamma   90.00000000
_symmetry_Int_Tables_number   1
_chemical_formula_structural   LiErTm5Co17P12
_chemical_formula_sum   'Li1 Er1 Tm5 Co17 P12'
_cell_volume   471.29563411
_cell_formula_units_Z   1
loop_
 _symmetry_equiv_pos_site_id
 _symmetry_equiv_pos_as_xyz
  1  'x, y, z'
loop_
 _atom_site_type_symbol
 _atom_site_label
 _atom_site_symmetry_multiplicity
 _atom_site_fract_x
 _atom_site_fract_y
 _atom_site_fract_z
 _atom_site_occupancy
  Li  Li0  1  0.500000  0.500000  0.152074  1
  Er  Er1  1  0.000000  0.500000  0.523112  1
  Tm  Tm2  1  0.500000  0.000000  0.477354  1
  Tm  Tm3  1  0.500000  0.820047  0.206600  1
  Tm  Tm4  1  0.500000  0.179953  0.206600  1
  Tm  Tm5  1  0.000000  0.681550  0.794469  1
  Tm  Tm6  1  0.000000  0.318450  0.794469  1
  Co  Co7  1  0.000000  0.000000  0.839069  1
  Co  Co8  1  0.500000  0.500000  0.704407  1
  Co  Co9  1  0.000000  0.000000  0.296952  1
  Co  Co10  1  0.000000  0.500000  0.986340  1
  Co  Co11  1  0.500000  0.000000  0.012490  1
  Co  Co12  1  0.500000  0.330603  0.994835  1
  Co  Co13  1  0.500000  0.669397  0.994835  1
  Co  Co14  1  0.000000  0.164808  0.003240  1
  Co  Co15  1  0.000000  0.835192  0.003240  1
  Co  Co16  1  0.500000  0.295910  0.432414  1
  Co  Co17  1  0.500000  0.704090  0.432414  1
  Co  Co18  1  0.000000  0.201961  0.570459  1
  Co  Co19  1  0.000000  0.798039  0.570459  1
  Co  Co20  1  0.500000  0.878993  0.708772  1
  Co  Co21  1  0.500000  0.121007  0.708772  1
  Co  Co22  1  0.000000  0.623061  0.293054  1
  Co  Co23  1  0.000000  0.376939  0.293054  1
  P  P24  1  0.500000  0.500000  0.883998  1
  P  P25  1  0.000000  0.000000  0.117537  1
  P  P26  1  0.500000  0.500000  0.346214  1
  P  P27  1  0.000000  0.000000  0.654121  1
  P  P28  1  0.500000  0.311136  0.617645  1
  P  P29  1  0.500000  0.688864  0.617645  1
  P  P30  1  0.000000  0.188370  0.384650  1
  P  P31  1  0.000000  0.811630  0.384650  1
  P  P32  1  0.500000  0.847368  0.890675  1
  P  P33  1  0.500000  0.152632  0.890675  1
  P  P34  1  0.000000  0.658154  0.106352  1
  P  P35  1  0.000000  0.341846  0.106352  1
