# generated using pymatgen
data_SrDyTm2(Pt2O7)2
_symmetry_space_group_name_H-M   'P 1'
_cell_length_a   7.31518984
_cell_length_b   7.28734606
_cell_length_c   7.28352400
_cell_angle_alpha   60.01734810
_cell_angle_beta   60.14309186
_cell_angle_gamma   60.06621366
_symmetry_Int_Tables_number   1
_chemical_formula_structural   SrDyTm2(Pt2O7)2
_chemical_formula_sum   'Sr1 Dy1 Tm2 Pt4 O14'
_cell_volume   275.01945614
_cell_formula_units_Z   1
loop_
 _symmetry_equiv_pos_site_id
 _symmetry_equiv_pos_as_xyz
  1  'x, y, z'
loop_
 _atom_site_type_symbol
 _atom_site_label
 _atom_site_symmetry_multiplicity
 _atom_site_fract_x
 _atom_site_fract_y
 _atom_site_fract_z
 _atom_site_occupancy
  Sr  Sr0  1  0.125000  0.625000  0.625000  1
  Dy  Dy1  1  0.625000  0.125000  0.625000  1
  Tm  Tm2  1  0.625000  0.625000  0.125000  1
  Tm  Tm3  1  0.625000  0.625000  0.625000  1
  Pt  Pt4  1  0.125000  0.125000  0.125000  1
  Pt  Pt5  1  0.625000  0.125000  0.125000  1
  Pt  Pt6  1  0.125000  0.625000  0.125000  1
  Pt  Pt7  1  0.125000  0.125000  0.625000  1
  O  O8  1  0.024035  0.459851  0.459529  1
  O  O9  1  0.784930  0.786564  0.214254  1
  O  O10  1  0.784974  0.216154  0.211987  1
  O  O11  1  0.465026  0.033846  0.463115  1
  O  O12  1  0.026764  0.054964  0.459136  1
  O  O13  1  0.024035  0.459851  0.056584  1
  O  O14  1  0.725949  0.753669  0.760191  1
  O  O15  1  0.524051  0.496331  0.489809  1
  O  O16  1  0.784974  0.216154  0.786885  1
  O  O17  1  0.225965  0.790149  0.193416  1
  O  O18  1  0.223236  0.195036  0.790864  1
  O  O19  1  0.465026  0.033846  0.038013  1
  O  O20  1  0.465070  0.463436  0.035746  1
  O  O21  1  0.225965  0.790149  0.790471  1
