# generated using pymatgen
data_Tb4GaTc6Ir
_symmetry_space_group_name_H-M   'P 1'
_cell_length_a   5.28486900
_cell_length_b   5.28486841
_cell_length_c   9.24198600
_cell_angle_alpha   90.00000000
_cell_angle_beta   90.00000000
_cell_angle_gamma   119.99998488
_symmetry_Int_Tables_number   1
_chemical_formula_structural   Tb4GaTc6Ir
_chemical_formula_sum   'Tb4 Ga1 Tc6 Ir1'
_cell_volume   223.54471625
_cell_formula_units_Z   1
loop_
 _symmetry_equiv_pos_site_id
 _symmetry_equiv_pos_as_xyz
  1  'x, y, z'
loop_
 _atom_site_type_symbol
 _atom_site_label
 _atom_site_symmetry_multiplicity
 _atom_site_fract_x
 _atom_site_fract_y
 _atom_site_fract_z
 _atom_site_occupancy
  Tb  Tb0  1  0.333333  0.666667  0.429267  1
  Tb  Tb1  1  0.666667  0.333333  0.570733  1
  Tb  Tb2  1  0.666667  0.333333  0.934839  1
  Tb  Tb3  1  0.333333  0.666667  0.065161  1
  Ga  Ga4  1  0.000000  0.000000  0.500000  1
  Tc  Tc5  1  0.828960  0.171040  0.251716  1
  Tc  Tc6  1  0.828960  0.657920  0.251716  1
  Tc  Tc7  1  0.342080  0.171040  0.251716  1
  Tc  Tc8  1  0.171040  0.828960  0.748284  1
  Tc  Tc9  1  0.171040  0.342080  0.748284  1
  Tc  Tc10  1  0.657920  0.828960  0.748284  1
  Ir  Ir11  1  0.000000  0.000000  0.000000  1
