# generated using pymatgen
data_LiDy8Si16Tc11
_symmetry_space_group_name_H-M   'P 1'
_cell_length_a   6.79482266
_cell_length_b   6.80123291
_cell_length_c   12.72172291
_cell_angle_alpha   89.61280519
_cell_angle_beta   90.30303222
_cell_angle_gamma   90.28309942
_symmetry_Int_Tables_number   1
_chemical_formula_structural   LiDy8Si16Tc11
_chemical_formula_sum   'Li1 Dy8 Si16 Tc11'
_cell_volume   587.88244231
_cell_formula_units_Z   1
loop_
 _symmetry_equiv_pos_site_id
 _symmetry_equiv_pos_as_xyz
  1  'x, y, z'
loop_
 _atom_site_type_symbol
 _atom_site_label
 _atom_site_symmetry_multiplicity
 _atom_site_fract_x
 _atom_site_fract_y
 _atom_site_fract_z
 _atom_site_occupancy
  Li  Li0  1  0.688789  0.495318  0.873214  1
  Dy  Dy1  1  0.003977  0.660374  0.031954  1
  Dy  Dy2  1  0.997640  0.338250  0.530295  1
  Dy  Dy3  1  0.661115  0.002992  0.969339  1
  Dy  Dy4  1  0.158231  0.494859  0.781186  1
  Dy  Dy5  1  0.832858  0.506540  0.280535  1
  Dy  Dy6  1  0.492551  0.162503  0.219150  1
  Dy  Dy7  1  0.506406  0.832769  0.719531  1
  Dy  Dy8  1  0.336281  0.998658  0.469774  1
  Si  Si9  1  0.023681  0.724304  0.434693  1
  Si  Si10  1  0.986978  0.264901  0.939214  1
  Si  Si11  1  0.720788  0.025572  0.564616  1
  Si  Si12  1  0.217354  0.476339  0.188621  1
  Si  Si13  1  0.777499  0.526486  0.680725  1
  Si  Si14  1  0.471006  0.219335  0.812342  1
  Si  Si15  1  0.522909  0.782656  0.316771  1
  Si  Si16  1  0.268249  0.976826  0.062022  1
  Si  Si17  1  0.805567  0.887109  0.186825  1
  Si  Si18  1  0.305365  0.619552  0.562320  1
  Si  Si19  1  0.690796  0.387981  0.063577  1
  Si  Si20  1  0.618044  0.306764  0.437800  1
  Si  Si21  1  0.390636  0.690878  0.941648  1
  Si  Si22  1  0.114957  0.194661  0.314329  1
  Si  Si23  1  0.195969  0.115427  0.687049  1
  Si  Si24  1  0.883404  0.813641  0.809006  1
  Tc  Tc25  1  0.326438  0.482140  0.378432  1
  Tc  Tc26  1  0.818391  0.021768  0.374466  1
  Tc  Tc27  1  0.985885  0.187883  0.132680  1
  Tc  Tc28  1  0.020170  0.824521  0.622802  1
  Tc  Tc29  1  0.479627  0.327393  0.621701  1
  Tc  Tc30  1  0.188946  0.977287  0.869797  1
  Tc  Tc31  1  0.666600  0.667498  0.497946  1
  Tc  Tc32  1  0.836833  0.163286  0.746607  1
  Tc  Tc33  1  0.159632  0.836049  0.253064  1
  Tc  Tc34  1  0.337077  0.331950  0.995596  1
  Tc  Tc35  1  0.509351  0.675531  0.130368  1
