# generated using pymatgen
data_Ac4Al14NiIr
_symmetry_space_group_name_H-M   'P 1'
_cell_length_a   6.31473562
_cell_length_b   6.31177428
_cell_length_c   11.79688393
_cell_angle_alpha   74.48332934
_cell_angle_beta   74.47586635
_cell_angle_gamma   90.00000412
_symmetry_Int_Tables_number   1
_chemical_formula_structural   Ac4Al14NiIr
_chemical_formula_sum   'Ac4 Al14 Ni1 Ir1'
_cell_volume   435.22490158
_cell_formula_units_Z   1
loop_
 _symmetry_equiv_pos_site_id
 _symmetry_equiv_pos_as_xyz
  1  'x, y, z'
loop_
 _atom_site_type_symbol
 _atom_site_label
 _atom_site_symmetry_multiplicity
 _atom_site_fract_x
 _atom_site_fract_y
 _atom_site_fract_z
 _atom_site_occupancy
  Ac  Ac0  1  0.996223  0.996223  0.007555  1
  Ac  Ac1  1  0.499707  0.499707  0.000585  1
  Ac  Ac2  1  0.750405  0.250405  0.499190  1
  Ac  Ac3  1  0.245823  0.745823  0.508356  1
  Al  Al4  1  0.199849  0.199849  0.600303  1
  Al  Al5  1  0.812895  0.812895  0.374210  1
  Al  Al6  1  0.603597  0.130506  0.253041  1
  Al  Al7  1  0.143361  0.616453  0.253041  1
  Al  Al8  1  0.603597  0.616453  0.253041  1
  Al  Al9  1  0.143361  0.130506  0.253041  1
  Al  Al10  1  0.858621  0.347690  0.755908  1
  Al  Al11  1  0.385471  0.896400  0.755908  1
  Al  Al12  1  0.858621  0.896400  0.755908  1
  Al  Al13  1  0.385471  0.347690  0.755908  1
  Al  Al14  1  0.691399  0.691399  0.617201  1
  Al  Al15  1  0.063621  0.563621  0.872756  1
  Al  Al16  1  0.452754  0.952754  0.094491  1
  Al  Al17  1  0.942792  0.442792  0.114414  1
  Ni  Ni18  1  0.563744  0.063744  0.872514  1
  Ir  Ir19  1  0.313519  0.313519  0.372963  1
