# generated using pymatgen
data_Dy7Y13(FeHg3)2
_symmetry_space_group_name_H-M   'P 1'
_cell_length_a   9.62528418
_cell_length_b   9.62528538
_cell_length_c   9.66207755
_cell_angle_alpha   89.94367399
_cell_angle_beta   90.05632438
_cell_angle_gamma   120.00724795
_symmetry_Int_Tables_number   1
_chemical_formula_structural   Dy7Y13(FeHg3)2
_chemical_formula_sum   'Dy7 Y13 Fe2 Hg6'
_cell_volume   775.16886899
_cell_formula_units_Z   1
loop_
 _symmetry_equiv_pos_site_id
 _symmetry_equiv_pos_as_xyz
  1  'x, y, z'
loop_
 _atom_site_type_symbol
 _atom_site_label
 _atom_site_symmetry_multiplicity
 _atom_site_fract_x
 _atom_site_fract_y
 _atom_site_fract_z
 _atom_site_occupancy
  Dy  Dy0  1  0.212214  0.787786  0.435869  1
  Dy  Dy1  1  0.212194  0.424462  0.435897  1
  Dy  Dy2  1  0.575538  0.787806  0.435897  1
  Dy  Dy3  1  0.787882  0.212118  0.564295  1
  Dy  Dy4  1  0.787651  0.575346  0.564192  1
  Dy  Dy5  1  0.424654  0.212349  0.564192  1
  Dy  Dy6  1  0.787653  0.212347  0.935201  1
  Y  Y7  1  0.000009  0.999991  0.500011  1
  Y  Y8  1  0.999791  0.000209  0.999870  1
  Y  Y9  1  0.541748  0.458252  0.250635  1
  Y  Y10  1  0.541873  0.083647  0.250480  1
  Y  Y11  1  0.916353  0.458127  0.250480  1
  Y  Y12  1  0.458218  0.541782  0.749365  1
  Y  Y13  1  0.458445  0.916723  0.749470  1
  Y  Y14  1  0.083277  0.541555  0.749470  1
  Y  Y15  1  0.788269  0.576417  0.936078  1
  Y  Y16  1  0.423583  0.211731  0.936078  1
  Y  Y17  1  0.211730  0.788270  0.064012  1
  Y  Y18  1  0.211561  0.423439  0.063914  1
  Y  Y19  1  0.576561  0.788439  0.063914  1
  Fe  Fe20  1  0.333344  0.666656  0.252374  1
  Fe  Fe21  1  0.667370  0.332630  0.748286  1
  Hg  Hg22  1  0.881841  0.118159  0.249837  1
  Hg  Hg23  1  0.881815  0.763588  0.249840  1
  Hg  Hg24  1  0.236412  0.118185  0.249840  1
  Hg  Hg25  1  0.118209  0.881791  0.750265  1
  Hg  Hg26  1  0.118228  0.236425  0.750120  1
  Hg  Hg27  1  0.763575  0.881772  0.750120  1
