# generated using pymatgen
data_Nd10Be3Si15Au2
_symmetry_space_group_name_H-M   'P 1'
_cell_length_a   4.17194151
_cell_length_b   4.17771299
_cell_length_c   35.10164411
_cell_angle_alpha   86.58838938
_cell_angle_beta   86.59310261
_cell_angle_gamma   89.99999694
_symmetry_Int_Tables_number   1
_chemical_formula_structural   Nd10Be3Si15Au2
_chemical_formula_sum   'Nd10 Be3 Si15 Au2'
_cell_volume   609.62528978
_cell_formula_units_Z   1
loop_
 _symmetry_equiv_pos_site_id
 _symmetry_equiv_pos_as_xyz
  1  'x, y, z'
loop_
 _atom_site_type_symbol
 _atom_site_label
 _atom_site_symmetry_multiplicity
 _atom_site_fract_x
 _atom_site_fract_y
 _atom_site_fract_z
 _atom_site_occupancy
  Nd  Nd0  1  0.948324  0.448324  0.103352  1
  Nd  Nd1  1  0.350705  0.850705  0.298592  1
  Nd  Nd2  1  0.753227  0.253227  0.493546  1
  Nd  Nd3  1  0.149896  0.649896  0.700208  1
  Nd  Nd4  1  0.546182  0.046182  0.907637  1
  Nd  Nd5  1  0.997598  0.997598  0.004805  1
  Nd  Nd6  1  0.399643  0.399643  0.200714  1
  Nd  Nd7  1  0.801861  0.801861  0.396278  1
  Nd  Nd8  1  0.203656  0.203656  0.592689  1
  Nd  Nd9  1  0.600718  0.600718  0.798564  1
  Be  Be10  1  0.465289  0.965289  0.069422  1
  Be  Be11  1  0.867508  0.367508  0.264982  1
  Be  Be12  1  0.269895  0.769895  0.460211  1
  Si  Si13  1  0.667469  0.167469  0.665062  1
  Si  Si14  1  0.064048  0.564048  0.871904  1
  Si  Si15  1  0.916002  0.916002  0.167998  1
  Si  Si16  1  0.318357  0.318357  0.363285  1
  Si  Si17  1  0.720393  0.720393  0.559214  1
  Si  Si18  1  0.116766  0.116766  0.766468  1
  Si  Si19  1  0.513608  0.513608  0.972783  1
  Si  Si20  1  0.433435  0.933435  0.133130  1
  Si  Si21  1  0.835784  0.335784  0.328434  1
  Si  Si22  1  0.238068  0.738068  0.523866  1
  Si  Si23  1  0.633964  0.133964  0.732071  1
  Si  Si24  1  0.030648  0.530648  0.938705  1
  Si  Si25  1  0.479956  0.479956  0.040087  1
  Si  Si26  1  0.882327  0.882327  0.235347  1
  Si  Si27  1  0.284691  0.284691  0.430618  1
  Au  Au28  1  0.685379  0.685379  0.629241  1
  Au  Au29  1  0.081805  0.081805  0.836389  1
