# generated using pymatgen
data_Hf4Tc2NiRu
_symmetry_space_group_name_H-M   'P 1'
_cell_length_a   6.46052800
_cell_length_b   6.46108800
_cell_length_c   6.53252700
_cell_angle_alpha   89.99998236
_cell_angle_beta   90.00063502
_cell_angle_gamma   89.99991132
_symmetry_Int_Tables_number   1
_chemical_formula_structural   Hf4Tc2NiRu
_chemical_formula_sum   'Hf8 Tc4 Ni2 Ru2'
_cell_volume   272.68100290
_cell_formula_units_Z   2
loop_
 _symmetry_equiv_pos_site_id
 _symmetry_equiv_pos_as_xyz
  1  'x, y, z'
loop_
 _atom_site_type_symbol
 _atom_site_label
 _atom_site_symmetry_multiplicity
 _atom_site_fract_x
 _atom_site_fract_y
 _atom_site_fract_z
 _atom_site_occupancy
  Hf  Hf0  1  0.499864  0.999994  0.250689  1
  Hf  Hf1  1  0.499862  0.499961  0.250689  1
  Hf  Hf2  1  0.999868  0.000012  0.250713  1
  Hf  Hf3  1  0.999866  0.500031  0.250713  1
  Hf  Hf4  1  0.000131  0.999988  0.749288  1
  Hf  Hf5  1  0.000133  0.499968  0.749288  1
  Hf  Hf6  1  0.500136  0.000006  0.749311  1
  Hf  Hf7  1  0.500138  0.500038  0.749311  1
  Tc  Tc8  1  0.749981  0.250000  0.000187  1
  Tc  Tc9  1  0.249975  0.750000  0.499813  1
  Tc  Tc10  1  0.750026  0.250000  0.500187  1
  Tc  Tc11  1  0.250020  0.750000  0.999813  1
  Ni  Ni12  1  0.249942  0.250000  0.000000  1
  Ni  Ni13  1  0.750057  0.750000  0.000000  1
  Ru  Ru14  1  0.749955  0.750000  0.499943  1
  Ru  Ru15  1  0.250045  0.250000  0.500057  1
