# generated using pymatgen
data_BaSm2(H6Rh)2
_symmetry_space_group_name_H-M   'P 1'
_cell_length_a   5.03265800
_cell_length_b   5.03265878
_cell_length_c   8.74364700
_cell_angle_alpha   90.00000000
_cell_angle_beta   90.00000000
_cell_angle_gamma   120.00000802
_symmetry_Int_Tables_number   1
_chemical_formula_structural   BaSm2(H6Rh)2
_chemical_formula_sum   'Ba1 Sm2 H12 Rh2'
_cell_volume   191.78653669
_cell_formula_units_Z   1
loop_
 _symmetry_equiv_pos_site_id
 _symmetry_equiv_pos_as_xyz
  1  'x, y, z'
loop_
 _atom_site_type_symbol
 _atom_site_label
 _atom_site_symmetry_multiplicity
 _atom_site_fract_x
 _atom_site_fract_y
 _atom_site_fract_z
 _atom_site_occupancy
  Ba  Ba0  1  0.000000  0.000000  0.000000  1
  Sm  Sm1  1  0.666667  0.333333  0.364831  1
  Sm  Sm2  1  0.333333  0.666667  0.635169  1
  H  H3  1  0.173011  0.826989  0.381088  1
  H  H4  1  0.653977  0.826989  0.381088  1
  H  H5  1  0.173011  0.346023  0.381088  1
  H  H6  1  0.826989  0.173011  0.618912  1
  H  H7  1  0.346023  0.173011  0.618912  1
  H  H8  1  0.826989  0.653977  0.618912  1
  H  H9  1  0.506396  0.012791  0.845239  1
  H  H10  1  0.506396  0.493604  0.845239  1
  H  H11  1  0.987209  0.493604  0.845239  1
  H  H12  1  0.493604  0.987209  0.154761  1
  H  H13  1  0.493604  0.506396  0.154761  1
  H  H14  1  0.012791  0.506396  0.154761  1
  Rh  Rh15  1  0.666667  0.333333  0.731412  1
  Rh  Rh16  1  0.333333  0.666667  0.268588  1
