# generated using pymatgen
data_SrEr(Si2Rh3)2
_symmetry_space_group_name_H-M   'P 1'
_cell_length_a   6.68660214
_cell_length_b   6.68660187
_cell_length_c   6.68660152
_cell_angle_alpha   130.13811968
_cell_angle_beta   115.40379080
_cell_angle_gamma   85.77764718
_symmetry_Int_Tables_number   1
_chemical_formula_structural   SrEr(Si2Rh3)2
_chemical_formula_sum   'Sr1 Er1 Si4 Rh6'
_cell_volume   197.34088240
_cell_formula_units_Z   1
loop_
 _symmetry_equiv_pos_site_id
 _symmetry_equiv_pos_as_xyz
  1  'x, y, z'
loop_
 _atom_site_type_symbol
 _atom_site_label
 _atom_site_symmetry_multiplicity
 _atom_site_fract_x
 _atom_site_fract_y
 _atom_site_fract_z
 _atom_site_occupancy
  Sr  Sr0  1  0.750000  0.030921  0.280921  1
  Er  Er1  1  0.250000  0.943147  0.693147  1
  Si  Si2  1  0.578977  0.380125  0.801149  1
  Si  Si3  1  0.921023  0.722172  0.801149  1
  Si  Si4  1  0.423689  0.618067  0.194378  1
  Si  Si5  1  0.076311  0.270689  0.194378  1
  Rh  Rh6  1  0.220768  0.511988  0.723109  1
  Rh  Rh7  1  0.788880  0.511988  0.291220  1
  Rh  Rh8  1  0.491990  0.503110  0.495100  1
  Rh  Rh9  1  0.008010  0.503110  0.011120  1
  Rh  Rh10  1  0.711120  0.002341  0.723109  1
  Rh  Rh11  1  0.279232  0.002341  0.291220  1
