# generated using pymatgen
data_Lu4ReI4
_symmetry_space_group_name_H-M   'P 1'
_cell_length_a   16.37243700
_cell_length_b   16.37243700
_cell_length_c   5.87235300
_cell_angle_alpha   90.00000000
_cell_angle_beta   90.00000000
_cell_angle_gamma   90.00000000
_symmetry_Int_Tables_number   1
_chemical_formula_structural   Lu4ReI4
_chemical_formula_sum   'Lu16 Re4 I16'
_cell_volume   1574.12352718
_cell_formula_units_Z   4
loop_
 _symmetry_equiv_pos_site_id
 _symmetry_equiv_pos_as_xyz
  1  'x, y, z'
loop_
 _atom_site_type_symbol
 _atom_site_label
 _atom_site_symmetry_multiplicity
 _atom_site_fract_x
 _atom_site_fract_y
 _atom_site_fract_z
 _atom_site_occupancy
  Lu  Lu0  1  0.136613  0.056948  0.000895  1
  Lu  Lu1  1  0.556948  0.363387  0.000895  1
  Lu  Lu2  1  0.443052  0.636613  0.000895  1
  Lu  Lu3  1  0.863387  0.943053  0.000895  1
  Lu  Lu4  1  0.056948  0.136613  0.499106  1
  Lu  Lu5  1  0.636613  0.443052  0.499106  1
  Lu  Lu6  1  0.363387  0.556948  0.499106  1
  Lu  Lu7  1  0.943053  0.863387  0.499106  1
  Lu  Lu8  1  0.863387  0.056948  0.500894  1
  Lu  Lu9  1  0.443052  0.363387  0.500894  1
  Lu  Lu10  1  0.556948  0.636613  0.500894  1
  Lu  Lu11  1  0.136613  0.943053  0.500894  1
  Lu  Lu12  1  0.943053  0.136613  0.999105  1
  Lu  Lu13  1  0.363387  0.443052  0.999105  1
  Lu  Lu14  1  0.636613  0.556948  0.999105  1
  Lu  Lu15  1  0.056948  0.863387  0.999105  1
  Re  Re16  1  0.000000  0.000000  0.250000  1
  Re  Re17  1  0.500000  0.500000  0.250000  1
  Re  Re18  1  0.000000  0.000000  0.749999  1
  Re  Re19  1  0.500000  0.500000  0.749999  1
  I  I20  1  0.100344  0.246287  0.012927  1
  I  I21  1  0.746287  0.399656  0.012927  1
  I  I22  1  0.253714  0.600344  0.012927  1
  I  I23  1  0.899656  0.753714  0.012927  1
  I  I24  1  0.246287  0.100344  0.487072  1
  I  I25  1  0.600344  0.253714  0.487072  1
  I  I26  1  0.399656  0.746287  0.487072  1
  I  I27  1  0.753714  0.899656  0.487072  1
  I  I28  1  0.899656  0.246287  0.512928  1
  I  I29  1  0.253714  0.399656  0.512928  1
  I  I30  1  0.746287  0.600344  0.512928  1
  I  I31  1  0.100344  0.753714  0.512928  1
  I  I32  1  0.753714  0.100344  0.987073  1
  I  I33  1  0.399656  0.253714  0.987073  1
  I  I34  1  0.600344  0.746287  0.987073  1
  I  I35  1  0.246287  0.899656  0.987073  1
