# generated using pymatgen
data_Pr4Hg2PtAu3
_symmetry_space_group_name_H-M   'P 1'
_cell_length_a   8.15480334
_cell_length_b   8.15480412
_cell_length_c   3.87772500
_cell_angle_alpha   90.00000000
_cell_angle_beta   90.00000000
_cell_angle_gamma   90.29452507
_symmetry_Int_Tables_number   1
_chemical_formula_structural   Pr4Hg2PtAu3
_chemical_formula_sum   'Pr4 Hg2 Pt1 Au3'
_cell_volume   257.86850003
_cell_formula_units_Z   1
loop_
 _symmetry_equiv_pos_site_id
 _symmetry_equiv_pos_as_xyz
  1  'x, y, z'
loop_
 _atom_site_type_symbol
 _atom_site_label
 _atom_site_symmetry_multiplicity
 _atom_site_fract_x
 _atom_site_fract_y
 _atom_site_fract_z
 _atom_site_occupancy
  Pr  Pr0  1  0.671829  0.171829  0.500000  1
  Pr  Pr1  1  0.317387  0.817387  0.500000  1
  Pr  Pr2  1  0.178045  0.339789  0.500000  1
  Pr  Pr3  1  0.839789  0.678045  0.500000  1
  Hg  Hg4  1  0.000899  0.999384  0.000000  1
  Hg  Hg5  1  0.499384  0.500899  0.000000  1
  Pt  Pt6  1  0.122614  0.622614  0.000000  1
  Au  Au7  1  0.874239  0.374239  0.000000  1
  Au  Au8  1  0.623206  0.872606  0.000000  1
  Au  Au9  1  0.372606  0.123206  0.000000  1
