# generated using pymatgen
data_Ho6Al7Pd3Pt13
_symmetry_space_group_name_H-M   'P 1'
_cell_length_a   8.96851143
_cell_length_b   8.96846965
_cell_length_c   8.96850197
_cell_angle_alpha   59.93753933
_cell_angle_beta   59.93805777
_cell_angle_gamma   59.93798601
_symmetry_Int_Tables_number   1
_chemical_formula_structural   Ho6Al7Pd3Pt13
_chemical_formula_sum   'Ho6 Al7 Pd3 Pt13'
_cell_volume   509.36733940
_cell_formula_units_Z   1
loop_
 _symmetry_equiv_pos_site_id
 _symmetry_equiv_pos_as_xyz
  1  'x, y, z'
loop_
 _atom_site_type_symbol
 _atom_site_label
 _atom_site_symmetry_multiplicity
 _atom_site_fract_x
 _atom_site_fract_y
 _atom_site_fract_z
 _atom_site_occupancy
  Ho  Ho0  1  0.712990  0.287076  0.287075  1
  Ho  Ho1  1  0.712709  0.287459  0.712703  1
  Ho  Ho2  1  0.712707  0.712707  0.287458  1
  Ho  Ho3  1  0.287455  0.712706  0.712709  1
  Ho  Ho4  1  0.287074  0.712990  0.287076  1
  Ho  Ho5  1  0.287075  0.287076  0.712987  1
  Al  Al6  1  0.000159  0.000159  0.000159  1
  Al  Al7  1  0.499278  0.000249  0.000248  1
  Al  Al8  1  0.499883  0.999826  0.499883  1
  Al  Al9  1  0.499883  0.499882  0.999825  1
  Al  Al10  1  0.999825  0.499884  0.499884  1
  Al  Al11  1  0.000248  0.499277  0.000248  1
  Al  Al12  1  0.000248  0.000248  0.499277  1
  Pd  Pd13  1  0.643819  0.118630  0.118634  1
  Pd  Pd14  1  0.118635  0.643816  0.118630  1
  Pd  Pd15  1  0.118632  0.118626  0.643820  1
  Pt  Pt16  1  0.118661  0.118665  0.118668  1
  Pt  Pt17  1  0.357227  0.880625  0.880626  1
  Pt  Pt18  1  0.880624  0.357229  0.880626  1
  Pt  Pt19  1  0.880620  0.880628  0.357229  1
  Pt  Pt20  1  0.881100  0.881099  0.881099  1
  Pt  Pt21  1  0.987008  0.337940  0.337936  1
  Pt  Pt22  1  0.337937  0.987010  0.337935  1
  Pt  Pt23  1  0.337939  0.337938  0.987008  1
  Pt  Pt24  1  0.337621  0.337623  0.337621  1
  Pt  Pt25  1  0.014454  0.662018  0.662016  1
  Pt  Pt26  1  0.662020  0.014452  0.662017  1
  Pt  Pt27  1  0.662017  0.662014  0.014453  1
  Pt  Pt28  1  0.662149  0.662148  0.662149  1
