# generated using pymatgen
data_Yb3HoAs6Rh7
_symmetry_space_group_name_H-M   'P 1'
_cell_length_a   7.24275249
_cell_length_b   7.24275212
_cell_length_c   7.23553300
_cell_angle_alpha   109.45102809
_cell_angle_beta   109.45102704
_cell_angle_gamma   109.49140377
_symmetry_Int_Tables_number   1
_chemical_formula_structural   Yb3HoAs6Rh7
_chemical_formula_sum   'Yb3 Ho1 As6 Rh7'
_cell_volume   292.25643752
_cell_formula_units_Z   1
loop_
 _symmetry_equiv_pos_site_id
 _symmetry_equiv_pos_as_xyz
  1  'x, y, z'
loop_
 _atom_site_type_symbol
 _atom_site_label
 _atom_site_symmetry_multiplicity
 _atom_site_fract_x
 _atom_site_fract_y
 _atom_site_fract_z
 _atom_site_occupancy
  Yb  Yb0  1  0.500000  0.500000  0.500000  1
  Yb  Yb1  1  0.000000  0.500000  0.000000  1
  Yb  Yb2  1  0.500000  0.000000  0.000000  1
  Ho  Ho3  1  0.000000  0.000000  0.500000  1
  As  As4  1  0.679665  0.000000  0.680949  1
  As  As5  1  0.679665  0.679665  0.998716  1
  As  As6  1  0.320335  0.320335  0.001284  1
  As  As7  1  0.000000  0.679665  0.680949  1
  As  As8  1  0.000000  0.320335  0.319051  1
  As  As9  1  0.320335  0.000000  0.319051  1
  Rh  Rh10  1  0.500971  0.750486  0.250486  1
  Rh  Rh11  1  0.750486  0.249514  0.500000  1
  Rh  Rh12  1  0.249514  0.750486  0.500000  1
  Rh  Rh13  1  0.249514  0.499029  0.749514  1
  Rh  Rh14  1  0.000000  0.000000  0.000000  1
  Rh  Rh15  1  0.499029  0.249514  0.749514  1
  Rh  Rh16  1  0.750486  0.500971  0.250486  1
