# generated using pymatgen
data_UNbTlO6
_symmetry_space_group_name_H-M   'P 1'
_cell_length_a   7.26393396
_cell_length_b   8.73677900
_cell_length_c   10.72639100
_cell_angle_alpha   90.00000000
_cell_angle_beta   105.52117742
_cell_angle_gamma   90.00000000
_symmetry_Int_Tables_number   1
_chemical_formula_structural   UNbTlO6
_chemical_formula_sum   'U4 Nb4 Tl4 O24'
_cell_volume   655.90785076
_cell_formula_units_Z   4
loop_
 _symmetry_equiv_pos_site_id
 _symmetry_equiv_pos_as_xyz
  1  'x, y, z'
loop_
 _atom_site_type_symbol
 _atom_site_label
 _atom_site_symmetry_multiplicity
 _atom_site_fract_x
 _atom_site_fract_y
 _atom_site_fract_z
 _atom_site_occupancy
  U  U0  1  0.985410  0.482164  0.177705  1
  U  U1  1  0.014591  0.982164  0.322295  1
  U  U2  1  0.985409  0.017836  0.677705  1
  U  U3  1  0.014591  0.517836  0.822295  1
  Nb  Nb4  1  0.123250  0.150173  0.056641  1
  Nb  Nb5  1  0.876748  0.650173  0.443359  1
  Nb  Nb6  1  0.123251  0.349826  0.556641  1
  Nb  Nb7  1  0.876749  0.849826  0.943359  1
  Tl  Tl8  1  0.468743  0.774255  0.138936  1
  Tl  Tl9  1  0.531258  0.274255  0.361064  1
  Tl  Tl10  1  0.468743  0.725745  0.638936  1
  Tl  Tl11  1  0.531257  0.225745  0.861064  1
  O  O12  1  0.962384  0.645801  0.004454  1
  O  O13  1  0.372624  0.135619  0.067823  1
  O  O14  1  0.040048  0.939606  0.112224  1
  O  O15  1  0.731030  0.436853  0.120879  1
  O  O16  1  0.086674  0.212417  0.224708  1
  O  O17  1  0.241150  0.524063  0.234760  1
  O  O18  1  0.758850  0.024063  0.265240  1
  O  O19  1  0.913327  0.712417  0.275292  1
  O  O20  1  0.268970  0.936853  0.379121  1
  O  O21  1  0.959953  0.439606  0.387777  1
  O  O22  1  0.627376  0.635619  0.432177  1
  O  O23  1  0.037616  0.145801  0.495546  1
  O  O24  1  0.962385  0.854199  0.504454  1
  O  O25  1  0.372623  0.364381  0.567823  1
  O  O26  1  0.040048  0.560394  0.612224  1
  O  O27  1  0.731031  0.063147  0.620879  1
  O  O28  1  0.086674  0.287583  0.724708  1
  O  O29  1  0.241151  0.975937  0.734760  1
  O  O30  1  0.758849  0.475937  0.765240  1
  O  O31  1  0.913326  0.787583  0.775292  1
  O  O32  1  0.268969  0.563147  0.879121  1
  O  O33  1  0.959952  0.060394  0.887777  1
  O  O34  1  0.627377  0.864381  0.932177  1
  O  O35  1  0.037615  0.354199  0.995546  1
