# generated using pymatgen
data_K4Ba2ZrSbAs3
_symmetry_space_group_name_H-M   'P 1'
_cell_length_a   10.67221999
_cell_length_b   10.67222026
_cell_length_c   8.43046306
_cell_angle_alpha   89.02494842
_cell_angle_beta   89.02493793
_cell_angle_gamma   119.87551171
_symmetry_Int_Tables_number   1
_chemical_formula_structural   K4Ba2ZrSbAs3
_chemical_formula_sum   'K8 Ba4 Zr2 Sb2 As6'
_cell_volume   832.11682919
_cell_formula_units_Z   2
loop_
 _symmetry_equiv_pos_site_id
 _symmetry_equiv_pos_as_xyz
  1  'x, y, z'
loop_
 _atom_site_type_symbol
 _atom_site_label
 _atom_site_symmetry_multiplicity
 _atom_site_fract_x
 _atom_site_fract_y
 _atom_site_fract_z
 _atom_site_occupancy
  K  K0  1  0.475195  0.946848  0.374308  1
  K  K1  1  0.946848  0.475195  0.874308  1
  K  K2  1  0.868212  0.727706  0.185914  1
  K  K3  1  0.268378  0.126200  0.234142  1
  K  K4  1  0.856292  0.135870  0.210548  1
  K  K5  1  0.126200  0.268378  0.734142  1
  K  K6  1  0.727706  0.868212  0.685914  1
  K  K7  1  0.135870  0.856292  0.710548  1
  Ba  Ba8  1  0.053509  0.529043  0.379021  1
  Ba  Ba9  1  0.479911  0.530337  0.368512  1
  Ba  Ba10  1  0.529043  0.053509  0.879021  1
  Ba  Ba11  1  0.530337  0.479911  0.868512  1
  Zr  Zr12  1  0.664366  0.331834  0.504992  1
  Zr  Zr13  1  0.331834  0.664366  0.004992  1
  Sb  Sb14  1  0.656431  0.332517  0.163783  1
  Sb  Sb15  1  0.332517  0.656431  0.663783  1
  As  As16  1  0.205920  0.397869  0.120080  1
  As  As17  1  0.607545  0.799273  0.079189  1
  As  As18  1  0.202537  0.804016  0.097179  1
  As  As19  1  0.799273  0.607545  0.579189  1
  As  As20  1  0.397869  0.205920  0.620080  1
  As  As21  1  0.804016  0.202537  0.597179  1
