# generated using pymatgen
data_Eu20PtAu15
_symmetry_space_group_name_H-M   'P 1'
_cell_length_a   8.12317300
_cell_length_b   8.27214377
_cell_length_c   15.74783300
_cell_angle_alpha   90.00000000
_cell_angle_beta   90.00000000
_cell_angle_gamma   89.76978822
_symmetry_Int_Tables_number   1
_chemical_formula_structural   Eu20PtAu15
_chemical_formula_sum   'Eu20 Pt1 Au15'
_cell_volume   1058.18370983
_cell_formula_units_Z   1
loop_
 _symmetry_equiv_pos_site_id
 _symmetry_equiv_pos_as_xyz
  1  'x, y, z'
loop_
 _atom_site_type_symbol
 _atom_site_label
 _atom_site_symmetry_multiplicity
 _atom_site_fract_x
 _atom_site_fract_y
 _atom_site_fract_z
 _atom_site_occupancy
  Eu  Eu0  1  0.644592  0.162313  0.619132  1
  Eu  Eu1  1  0.145576  0.337173  0.880581  1
  Eu  Eu2  1  0.353597  0.839645  0.121631  1
  Eu  Eu3  1  0.853456  0.654987  0.376588  1
  Eu  Eu4  1  0.353597  0.839645  0.378369  1
  Eu  Eu5  1  0.853456  0.654987  0.123412  1
  Eu  Eu6  1  0.644592  0.162313  0.880868  1
  Eu  Eu7  1  0.145576  0.337173  0.619419  1
  Eu  Eu8  1  0.487373  0.678319  0.597588  1
  Eu  Eu9  1  0.987868  0.820324  0.904209  1
  Eu  Eu10  1  0.521729  0.325048  0.104330  1
  Eu  Eu11  1  0.007015  0.185680  0.397074  1
  Eu  Eu12  1  0.521729  0.325048  0.395670  1
  Eu  Eu13  1  0.007015  0.185680  0.102926  1
  Eu  Eu14  1  0.487373  0.678319  0.902412  1
  Eu  Eu15  1  0.987868  0.820324  0.595791  1
  Eu  Eu16  1  0.808020  0.506072  0.750000  1
  Eu  Eu17  1  0.307456  0.992600  0.750000  1
  Eu  Eu18  1  0.184921  0.493124  0.250000  1
  Eu  Eu19  1  0.693833  0.012214  0.250000  1
  Pt  Pt20  1  0.818540  0.363404  0.250000  1
  Au  Au21  1  0.693509  0.967114  0.453787  1
  Au  Au22  1  0.197278  0.530303  0.046034  1
  Au  Au23  1  0.307693  0.026998  0.954280  1
  Au  Au24  1  0.807329  0.471393  0.545340  1
  Au  Au25  1  0.307693  0.026998  0.545720  1
  Au  Au26  1  0.807329  0.471393  0.954660  1
  Au  Au27  1  0.693509  0.967114  0.046213  1
  Au  Au28  1  0.197278  0.530303  0.453966  1
  Au  Au29  1  0.442374  0.377087  0.750000  1
  Au  Au30  1  0.942292  0.122553  0.750000  1
  Au  Au31  1  0.554216  0.618773  0.250000  1
  Au  Au32  1  0.054675  0.877821  0.250000  1
  Au  Au33  1  0.683220  0.863636  0.750000  1
  Au  Au34  1  0.180999  0.636360  0.750000  1
  Au  Au35  1  0.315421  0.137762  0.250000  1
