# generated using pymatgen
data_Ho7Lu3Pt8
_symmetry_space_group_name_H-M   'P 1'
_cell_length_a   7.41055300
_cell_length_b   7.51090389
_cell_length_c   14.59242773
_cell_angle_alpha   90.05580990
_cell_angle_beta   90.00000000
_cell_angle_gamma   90.00000000
_symmetry_Int_Tables_number   1
_chemical_formula_structural   Ho7Lu3Pt8
_chemical_formula_sum   'Ho14 Lu6 Pt16'
_cell_volume   812.21343241
_cell_formula_units_Z   2
loop_
 _symmetry_equiv_pos_site_id
 _symmetry_equiv_pos_as_xyz
  1  'x, y, z'
loop_
 _atom_site_type_symbol
 _atom_site_label
 _atom_site_symmetry_multiplicity
 _atom_site_fract_x
 _atom_site_fract_y
 _atom_site_fract_z
 _atom_site_occupancy
  Ho  Ho0  1  0.342999  0.832073  0.122554  1
  Ho  Ho1  1  0.842999  0.667927  0.377446  1
  Ho  Ho2  1  0.343156  0.832141  0.377465  1
  Ho  Ho3  1  0.843156  0.667859  0.122535  1
  Ho  Ho4  1  0.656993  0.168045  0.877192  1
  Ho  Ho5  1  0.156993  0.331955  0.622808  1
  Ho  Ho6  1  0.501728  0.679960  0.593066  1
  Ho  Ho7  1  0.001728  0.820040  0.906934  1
  Ho  Ho8  1  0.498582  0.320187  0.092891  1
  Ho  Ho9  1  0.998582  0.179813  0.407109  1
  Ho  Ho10  1  0.498725  0.319952  0.407395  1
  Ho  Ho11  1  0.998725  0.180048  0.092605  1
  Ho  Ho12  1  0.501028  0.679252  0.906771  1
  Ho  Ho13  1  0.001028  0.820748  0.593229  1
  Lu  Lu14  1  0.656893  0.167963  0.623011  1
  Lu  Lu15  1  0.156893  0.332037  0.876989  1
  Lu  Lu16  1  0.818928  0.511436  0.750004  1
  Lu  Lu17  1  0.318928  0.988564  0.749996  1
  Lu  Lu18  1  0.181326  0.487689  0.250020  1
  Lu  Lu19  1  0.681326  0.012311  0.249980  1
  Pt  Pt20  1  0.683334  0.968729  0.458606  1
  Pt  Pt21  1  0.183334  0.531271  0.041394  1
  Pt  Pt22  1  0.315720  0.033747  0.957571  1
  Pt  Pt23  1  0.815720  0.466253  0.542429  1
  Pt  Pt24  1  0.317640  0.032612  0.542358  1
  Pt  Pt25  1  0.817640  0.467388  0.957642  1
  Pt  Pt26  1  0.683228  0.967803  0.042033  1
  Pt  Pt27  1  0.183228  0.532197  0.457967  1
  Pt  Pt28  1  0.454526  0.386855  0.749973  1
  Pt  Pt29  1  0.954526  0.113145  0.750027  1
  Pt  Pt30  1  0.545165  0.612145  0.250008  1
  Pt  Pt31  1  0.045165  0.887855  0.249992  1
  Pt  Pt32  1  0.682620  0.856619  0.749650  1
  Pt  Pt33  1  0.182620  0.643381  0.750350  1
  Pt  Pt34  1  0.317409  0.144174  0.250030  1
  Pt  Pt35  1  0.817409  0.355826  0.249970  1
