# generated using pymatgen
data_Dy3Al12(IrOs)2
_symmetry_space_group_name_H-M   'P 1'
_cell_length_a   8.78001100
_cell_length_b   8.83618724
_cell_length_c   9.56142400
_cell_angle_alpha   90.00000000
_cell_angle_beta   90.00000000
_cell_angle_gamma   119.78991310
_symmetry_Int_Tables_number   1
_chemical_formula_structural   Dy3Al12(IrOs)2
_chemical_formula_sum   'Dy6 Al24 Ir4 Os4'
_cell_volume   643.76695789
_cell_formula_units_Z   2
loop_
 _symmetry_equiv_pos_site_id
 _symmetry_equiv_pos_as_xyz
  1  'x, y, z'
loop_
 _atom_site_type_symbol
 _atom_site_label
 _atom_site_symmetry_multiplicity
 _atom_site_fract_x
 _atom_site_fract_y
 _atom_site_fract_z
 _atom_site_occupancy
  Dy  Dy0  1  0.191838  0.383677  0.250000  1
  Dy  Dy1  1  0.808162  0.616323  0.750000  1
  Dy  Dy2  1  0.613594  0.811867  0.250000  1
  Dy  Dy3  1  0.386406  0.188133  0.750000  1
  Dy  Dy4  1  0.198272  0.811867  0.250000  1
  Dy  Dy5  1  0.801728  0.188133  0.750000  1
  Al  Al6  1  0.333942  0.667884  0.024303  1
  Al  Al7  1  0.666058  0.332116  0.975697  1
  Al  Al8  1  0.666058  0.332116  0.524303  1
  Al  Al9  1  0.333942  0.667884  0.475697  1
  Al  Al10  1  0.162915  0.325833  0.577046  1
  Al  Al11  1  0.837085  0.674167  0.422954  1
  Al  Al12  1  0.672321  0.836681  0.576423  1
  Al  Al13  1  0.837085  0.674167  0.077046  1
  Al  Al14  1  0.327679  0.163319  0.423577  1
  Al  Al15  1  0.162915  0.325833  0.922954  1
  Al  Al16  1  0.164359  0.836681  0.576423  1
  Al  Al17  1  0.327679  0.163319  0.076423  1
  Al  Al18  1  0.835641  0.163319  0.423577  1
  Al  Al19  1  0.672321  0.836681  0.923577  1
  Al  Al20  1  0.835641  0.163319  0.076423  1
  Al  Al21  1  0.164359  0.836681  0.923577  1
  Al  Al22  1  0.563278  0.126556  0.250000  1
  Al  Al23  1  0.436722  0.873444  0.750000  1
  Al  Al24  1  0.877265  0.439626  0.250000  1
  Al  Al25  1  0.122735  0.560374  0.750000  1
  Al  Al26  1  0.562361  0.439626  0.250000  1
  Al  Al27  1  0.437639  0.560374  0.750000  1
  Al  Al28  1  0.001112  0.002224  0.250000  1
  Al  Al29  1  0.998888  0.997776  0.750000  1
  Ir  Ir30  1  0.000000  0.500000  0.000000  1
  Ir  Ir31  1  0.500000  0.500000  0.000000  1
  Ir  Ir32  1  0.000000  0.500000  0.500000  1
  Ir  Ir33  1  0.500000  0.500000  0.500000  1
  Os  Os34  1  0.500000  0.000000  0.000000  1
  Os  Os35  1  0.500000  0.000000  0.500000  1
  Os  Os36  1  0.000000  0.000000  0.000000  1
  Os  Os37  1  0.000000  0.000000  0.500000  1
