# generated using pymatgen
data_Ho4Al2Si8(IrRh)3
_symmetry_space_group_name_H-M   'P 1'
_cell_length_a   8.35909312
_cell_length_b   8.33976013
_cell_length_c   8.15706793
_cell_angle_alpha   139.67007420
_cell_angle_beta   106.13606610
_cell_angle_gamma   89.02610759
_symmetry_Int_Tables_number   1
_chemical_formula_structural   Ho4Al2Si8(IrRh)3
_chemical_formula_sum   'Ho4 Al2 Si8 Ir3 Rh3'
_cell_volume   335.71027384
_cell_formula_units_Z   1
loop_
 _symmetry_equiv_pos_site_id
 _symmetry_equiv_pos_as_xyz
  1  'x, y, z'
loop_
 _atom_site_type_symbol
 _atom_site_label
 _atom_site_symmetry_multiplicity
 _atom_site_fract_x
 _atom_site_fract_y
 _atom_site_fract_z
 _atom_site_occupancy
  Ho  Ho0  1  0.632710  0.875337  0.775966  1
  Ho  Ho1  1  0.367464  0.123079  0.222505  1
  Ho  Ho2  1  0.098904  0.356666  0.724137  1
  Ho  Ho3  1  0.900813  0.644644  0.277689  1
  Al  Al4  1  0.272735  0.022645  0.749233  1
  Al  Al5  1  0.727392  0.975306  0.249410  1
  Si  Si6  1  0.710582  0.464821  0.753107  1
  Si  Si7  1  0.288741  0.540447  0.250430  1
  Si  Si8  1  0.439702  0.599990  0.835192  1
  Si  Si9  1  0.561023  0.398832  0.164366  1
  Si  Si10  1  0.765778  0.105395  0.665561  1
  Si  Si11  1  0.233880  0.896825  0.334666  1
  Si  Si12  1  0.018336  0.766608  0.748161  1
  Si  Si13  1  0.981942  0.232553  0.251310  1
  Ir  Ir14  1  0.240795  0.598662  0.565032  1
  Ir  Ir15  1  0.759857  0.399727  0.434526  1
  Ir  Ir16  1  0.034289  0.174901  0.935421  1
  Rh  Rh17  1  0.965280  0.824644  0.062935  1
  Rh  Rh18  1  0.494440  0.744341  0.250132  1
  Rh  Rh19  1  0.505337  0.254575  0.750219  1
