# generated using pymatgen
data_Rb2Mn(CO3)2
_symmetry_space_group_name_H-M   'P 1'
_cell_length_a   6.86249207
_cell_length_b   7.11330437
_cell_length_c   9.69096789
_cell_angle_alpha   99.83381460
_cell_angle_beta   69.26376013
_cell_angle_gamma   118.84032096
_symmetry_Int_Tables_number   1
_chemical_formula_structural   Rb2Mn(CO3)2
_chemical_formula_sum   'Rb4 Mn2 C4 O12'
_cell_volume   387.54512214
_cell_formula_units_Z   2
loop_
 _symmetry_equiv_pos_site_id
 _symmetry_equiv_pos_as_xyz
  1  'x, y, z'
loop_
 _atom_site_type_symbol
 _atom_site_label
 _atom_site_symmetry_multiplicity
 _atom_site_fract_x
 _atom_site_fract_y
 _atom_site_fract_z
 _atom_site_occupancy
  Rb  Rb0  1  0.696342  0.369930  0.112424  1
  Rb  Rb1  1  0.058767  0.869929  0.387576  1
  Rb  Rb2  1  0.576412  0.130071  0.612424  1
  Rb  Rb3  1  0.438837  0.630072  0.887577  1
  Mn  Mn4  1  0.928525  0.000000  0.000000  1
  Mn  Mn5  1  0.178526  0.500001  0.500000  1
  C  C6  1  0.099272  0.337618  0.246747  1
  C  C7  1  0.596020  0.837619  0.253254  1
  C  C8  1  0.011654  0.162381  0.746747  1
  C  C9  1  0.008400  0.662381  0.753253  1
  O  O10  1  0.094421  0.291666  0.111856  1
  O  O11  1  0.553584  0.912860  0.159483  1
  O  O12  1  0.787048  0.816015  0.208600  1
  O  O13  1  0.245647  0.316014  0.291400  1
  O  O14  1  0.963066  0.412859  0.340517  1
  O  O15  1  0.456276  0.791667  0.388144  1
  O  O16  1  0.052753  0.208334  0.611856  1
  O  O17  1  0.890723  0.587141  0.659483  1
  O  O18  1  0.221033  0.683986  0.708600  1
  O  O19  1  0.179633  0.183985  0.791400  1
  O  O20  1  0.800206  0.087140  0.840518  1
  O  O21  1  0.914609  0.708333  0.888144  1
