# generated using pymatgen
data_Er11Tm9(Bi2Ir)4
_symmetry_space_group_name_H-M   'P 1'
_cell_length_a   7.90666051
_cell_length_b   8.98926300
_cell_length_c   12.38557402
_cell_angle_alpha   90.00000000
_cell_angle_beta   89.97601051
_cell_angle_gamma   90.00000000
_symmetry_Int_Tables_number   1
_chemical_formula_structural   Er11Tm9(Bi2Ir)4
_chemical_formula_sum   'Er11 Tm9 Bi8 Ir4'
_cell_volume   880.30522534
_cell_formula_units_Z   1
loop_
 _symmetry_equiv_pos_site_id
 _symmetry_equiv_pos_as_xyz
  1  'x, y, z'
loop_
 _atom_site_type_symbol
 _atom_site_label
 _atom_site_symmetry_multiplicity
 _atom_site_fract_x
 _atom_site_fract_y
 _atom_site_fract_z
 _atom_site_occupancy
  Er  Er0  1  0.341807  0.250000  0.294303  1
  Er  Er1  1  0.158470  0.250000  0.794128  1
  Er  Er2  1  0.841717  0.750000  0.205780  1
  Er  Er3  1  0.123720  0.750000  0.808991  1
  Er  Er4  1  0.876184  0.250000  0.190983  1
  Er  Er5  1  0.623898  0.250000  0.691005  1
  Er  Er6  1  0.376013  0.750000  0.308962  1
  Er  Er7  1  0.555217  0.750000  0.998304  1
  Er  Er8  1  0.444954  0.250000  0.001424  1
  Er  Er9  1  0.055170  0.250000  0.501656  1
  Er  Er10  1  0.944597  0.750000  0.498543  1
  Tm  Tm11  1  0.657892  0.750000  0.705166  1
  Tm  Tm12  1  0.825428  0.458706  0.934041  1
  Tm  Tm13  1  0.174612  0.541260  0.065942  1
  Tm  Tm14  1  0.325471  0.541505  0.566143  1
  Tm  Tm15  1  0.174612  0.958740  0.065942  1
  Tm  Tm16  1  0.674568  0.458615  0.434164  1
  Tm  Tm17  1  0.825428  0.041294  0.934041  1
  Tm  Tm18  1  0.674568  0.041385  0.434164  1
  Tm  Tm19  1  0.325471  0.958495  0.566143  1
  Bi  Bi20  1  0.933110  0.008022  0.672717  1
  Bi  Bi21  1  0.066584  0.991757  0.327485  1
  Bi  Bi22  1  0.433763  0.991441  0.827218  1
  Bi  Bi23  1  0.066584  0.508243  0.327485  1
  Bi  Bi24  1  0.566507  0.008220  0.172563  1
  Bi  Bi25  1  0.933110  0.491978  0.672717  1
  Bi  Bi26  1  0.566507  0.491780  0.172563  1
  Bi  Bi27  1  0.433763  0.508559  0.827218  1
  Ir  Ir28  1  0.931235  0.750000  0.991892  1
  Ir  Ir29  1  0.068959  0.250000  0.008087  1
  Ir  Ir30  1  0.431061  0.250000  0.508260  1
  Ir  Ir31  1  0.569018  0.750000  0.491970  1
