# generated using pymatgen
data_Pr2SiIrCl2
_symmetry_space_group_name_H-M   'P 1'
_cell_length_a   4.12351600
_cell_length_b   4.12351584
_cell_length_c   11.05618300
_cell_angle_alpha   90.00000000
_cell_angle_beta   90.00000000
_cell_angle_gamma   119.99998525
_symmetry_Int_Tables_number   1
_chemical_formula_structural   Pr2SiIrCl2
_chemical_formula_sum   'Pr2 Si1 Ir1 Cl2'
_cell_volume   162.80632224
_cell_formula_units_Z   1
loop_
 _symmetry_equiv_pos_site_id
 _symmetry_equiv_pos_as_xyz
  1  'x, y, z'
loop_
 _atom_site_type_symbol
 _atom_site_label
 _atom_site_symmetry_multiplicity
 _atom_site_fract_x
 _atom_site_fract_y
 _atom_site_fract_z
 _atom_site_occupancy
  Pr  Pr0  1  0.000000  0.000000  0.186051  1
  Pr  Pr1  1  0.000000  0.000000  0.813808  1
  Si  Si2  1  0.666667  0.333333  0.996445  1
  Ir  Ir3  1  0.333333  0.666667  0.004688  1
  Cl  Cl4  1  0.333333  0.666667  0.655556  1
  Cl  Cl5  1  0.666667  0.333333  0.343452  1
