# generated using pymatgen
data_Sc4Cr3Co17(SiP)6
_symmetry_space_group_name_H-M   'P 1'
_cell_length_a   3.60626600
_cell_length_b   10.25821819
_cell_length_c   11.79976600
_cell_angle_alpha   90.19722775
_cell_angle_beta   90.00000000
_cell_angle_gamma   90.00000000
_symmetry_Int_Tables_number   1
_chemical_formula_structural   Sc4Cr3Co17(SiP)6
_chemical_formula_sum   'Sc4 Cr3 Co17 Si6 P6'
_cell_volume   436.51634651
_cell_formula_units_Z   1
loop_
 _symmetry_equiv_pos_site_id
 _symmetry_equiv_pos_as_xyz
  1  'x, y, z'
loop_
 _atom_site_type_symbol
 _atom_site_label
 _atom_site_symmetry_multiplicity
 _atom_site_fract_x
 _atom_site_fract_y
 _atom_site_fract_z
 _atom_site_occupancy
  Sc  Sc0  1  0.250000  0.583775  0.706040  1
  Sc  Sc1  1  0.250000  0.917319  0.203249  1
  Sc  Sc2  1  0.750000  0.419414  0.293740  1
  Sc  Sc3  1  0.750000  0.078046  0.795470  1
  Cr  Cr4  1  0.250000  0.702341  0.990948  1
  Cr  Cr5  1  0.250000  0.793235  0.491879  1
  Cr  Cr6  1  0.750000  0.293832  0.010493  1
  Co  Co7  1  0.750000  0.213529  0.510583  1
  Co  Co8  1  0.250000  0.407663  0.492080  1
  Co  Co9  1  0.250000  0.092399  0.992033  1
  Co  Co10  1  0.750000  0.595900  0.516120  1
  Co  Co11  1  0.750000  0.903858  0.017418  1
  Co  Co12  1  0.250000  0.213426  0.176132  1
  Co  Co13  1  0.250000  0.287308  0.673229  1
  Co  Co14  1  0.750000  0.777967  0.825570  1
  Co  Co15  1  0.750000  0.722123  0.324505  1
  Co  Co16  1  0.250000  0.880072  0.697483  1
  Co  Co17  1  0.250000  0.621064  0.196532  1
  Co  Co18  1  0.750000  0.112849  0.299400  1
  Co  Co19  1  0.750000  0.385801  0.797284  1
  Co  Co20  1  0.250000  0.467578  0.930050  1
  Co  Co21  1  0.250000  0.031292  0.429523  1
  Co  Co22  1  0.750000  0.536718  0.064502  1
  Co  Co23  1  0.750000  0.963600  0.565172  1
  Si  Si24  1  0.250000  0.416883  0.116107  1
  Si  Si25  1  0.250000  0.084851  0.613508  1
  Si  Si26  1  0.250000  0.262245  0.865430  1
  Si  Si27  1  0.250000  0.235371  0.369172  1
  Si  Si28  1  0.250000  0.593829  0.387521  1
  Si  Si29  1  0.250000  0.904330  0.890075  1
  P  P30  1  0.750000  0.579401  0.882726  1
  P  P31  1  0.750000  0.920246  0.383439  1
  P  P32  1  0.750000  0.733766  0.135643  1
  P  P33  1  0.750000  0.767664  0.637082  1
  P  P34  1  0.750000  0.404080  0.608989  1
  P  P35  1  0.750000  0.096226  0.110875  1
