# generated using pymatgen
data_RbPa2I11
_symmetry_space_group_name_H-M   'P 1'
_cell_length_a   8.60340532
_cell_length_b   8.67058886
_cell_length_c   20.91355200
_cell_angle_alpha   79.31884880
_cell_angle_beta   79.22158187
_cell_angle_gamma   87.94962314
_symmetry_Int_Tables_number   1
_chemical_formula_structural   RbPa2I11
_chemical_formula_sum   'Rb2 Pa4 I22'
_cell_volume   1506.00202373
_cell_formula_units_Z   2
loop_
 _symmetry_equiv_pos_site_id
 _symmetry_equiv_pos_as_xyz
  1  'x, y, z'
loop_
 _atom_site_type_symbol
 _atom_site_label
 _atom_site_symmetry_multiplicity
 _atom_site_fract_x
 _atom_site_fract_y
 _atom_site_fract_z
 _atom_site_occupancy
  Rb  Rb0  1  0.747258  0.753271  0.506011  1
  Rb  Rb1  1  0.252742  0.246729  0.493989  1
  Pa  Pa2  1  0.315999  0.815863  0.354126  1
  Pa  Pa3  1  0.684001  0.184137  0.645874  1
  Pa  Pa4  1  0.835284  0.331895  0.086049  1
  Pa  Pa5  1  0.164716  0.668105  0.913951  1
  I  I6  1  0.244558  0.779256  0.502322  1
  I  I7  1  0.755442  0.220744  0.497678  1
  I  I8  1  0.583728  0.020539  0.353911  1
  I  I9  1  0.416272  0.979461  0.646089  1
  I  I10  1  0.529995  0.540236  0.366643  1
  I  I11  1  0.470005  0.459764  0.633357  1
  I  I12  1  0.380752  0.850546  0.211524  1
  I  I13  1  0.619248  0.149454  0.788476  1
  I  I14  1  0.044680  0.601899  0.366659  1
  I  I15  1  0.955320  0.398101  0.633341  1
  I  I16  1  0.104056  0.090613  0.346969  1
  I  I17  1  0.895944  0.909387  0.653031  1
  I  I18  1  0.894371  0.019887  0.153388  1
  I  I19  1  0.105629  0.980113  0.846612  1
  I  I20  1  0.518216  0.375797  0.155092  1
  I  I21  1  0.481784  0.624203  0.844908  1
  I  I22  1  0.716499  0.210400  0.984080  1
  I  I23  1  0.283501  0.789600  0.015920  1
  I  I24  1  0.971709  0.473883  0.177937  1
  I  I25  1  0.028291  0.526117  0.822063  1
  I  I26  1  0.173474  0.333081  0.999510  1
  I  I27  1  0.826526  0.666919  0.000490  1
