# generated using pymatgen
data_Ac4B4Br5
_symmetry_space_group_name_H-M   'P 1'
_cell_length_a   9.74504293
_cell_length_b   9.74504270
_cell_length_c   20.43767042
_cell_angle_alpha   64.19451731
_cell_angle_beta   64.19451852
_cell_angle_gamma   26.04746400
_symmetry_Int_Tables_number   1
_chemical_formula_structural   Ac4B4Br5
_chemical_formula_sum   'Ac8 B8 Br10'
_cell_volume   762.46599210
_cell_formula_units_Z   2
loop_
 _symmetry_equiv_pos_site_id
 _symmetry_equiv_pos_as_xyz
  1  'x, y, z'
loop_
 _atom_site_type_symbol
 _atom_site_label
 _atom_site_symmetry_multiplicity
 _atom_site_fract_x
 _atom_site_fract_y
 _atom_site_fract_z
 _atom_site_occupancy
  Ac  Ac0  1  0.612020  0.612020  0.726463  1
  Ac  Ac1  1  0.387980  0.387980  0.273537  1
  Ac  Ac2  1  0.994016  0.994016  0.628211  1
  Ac  Ac3  1  0.005984  0.005984  0.371789  1
  Ac  Ac4  1  0.312357  0.312357  0.802813  1
  Ac  Ac5  1  0.687643  0.687643  0.197187  1
  Ac  Ac6  1  0.930567  0.930567  0.910400  1
  Ac  Ac7  1  0.069433  0.069433  0.089600  1
  B  B8  1  0.145252  0.776517  0.769458  1
  B  B9  1  0.223483  0.854748  0.230542  1
  B  B10  1  0.854748  0.223483  0.230542  1
  B  B11  1  0.776517  0.145252  0.769458  1
  B  B12  1  0.449844  0.449844  0.819637  1
  B  B13  1  0.550156  0.550156  0.180363  1
  B  B14  1  0.471822  0.471822  0.718698  1
  B  B15  1  0.528178  0.528178  0.281302  1
  Br  Br16  1  0.171916  0.171916  0.598683  1
  Br  Br17  1  0.828084  0.828084  0.401317  1
  Br  Br18  1  0.124019  0.124019  0.834708  1
  Br  Br19  1  0.875981  0.875981  0.165292  1
  Br  Br20  1  0.743256  0.743256  0.930313  1
  Br  Br21  1  0.256744  0.256744  0.069687  1
  Br  Br22  1  0.806606  0.806606  0.686732  1
  Br  Br23  1  0.193394  0.193394  0.313268  1
  Br  Br24  1  0.500000  0.500000  0.500000  1
  Br  Br25  1  0.500000  0.500000  0.000000  1
