# generated using pymatgen
data_Er6Fe6Co16W
_symmetry_space_group_name_H-M   'P 1'
_cell_length_a   8.34977279
_cell_length_b   8.34977321
_cell_length_c   8.34977300
_cell_angle_alpha   59.99999686
_cell_angle_beta   59.99999520
_cell_angle_gamma   59.99999618
_symmetry_Int_Tables_number   1
_chemical_formula_structural   Er6Fe6Co16W
_chemical_formula_sum   'Er6 Fe6 Co16 W1'
_cell_volume   411.63184877
_cell_formula_units_Z   1
loop_
 _symmetry_equiv_pos_site_id
 _symmetry_equiv_pos_as_xyz
  1  'x, y, z'
loop_
 _atom_site_type_symbol
 _atom_site_label
 _atom_site_symmetry_multiplicity
 _atom_site_fract_x
 _atom_site_fract_y
 _atom_site_fract_z
 _atom_site_occupancy
  Er  Er0  1  0.712477  0.712477  0.287523  1
  Er  Er1  1  0.287523  0.712477  0.287523  1
  Er  Er2  1  0.712477  0.287523  0.287523  1
  Er  Er3  1  0.287523  0.287523  0.712477  1
  Er  Er4  1  0.712477  0.287523  0.712477  1
  Er  Er5  1  0.287523  0.712477  0.712477  1
  Fe  Fe6  1  0.000000  0.000000  0.500000  1
  Fe  Fe7  1  0.500000  0.000000  0.500000  1
  Fe  Fe8  1  0.000000  0.500000  0.500000  1
  Fe  Fe9  1  0.500000  0.500000  0.000000  1
  Fe  Fe10  1  0.000000  0.500000  0.000000  1
  Fe  Fe11  1  0.500000  0.000000  0.000000  1
  Co  Co12  1  0.877007  0.877007  0.368977  1
  Co  Co13  1  0.877007  0.368977  0.877007  1
  Co  Co14  1  0.368977  0.877007  0.877007  1
  Co  Co15  1  0.877007  0.877007  0.877007  1
  Co  Co16  1  0.122993  0.122993  0.631023  1
  Co  Co17  1  0.122993  0.631023  0.122993  1
  Co  Co18  1  0.631023  0.122993  0.122993  1
  Co  Co19  1  0.122993  0.122993  0.122993  1
  Co  Co20  1  0.676730  0.676730  0.969810  1
  Co  Co21  1  0.676730  0.969810  0.676730  1
  Co  Co22  1  0.969810  0.676730  0.676730  1
  Co  Co23  1  0.676730  0.676730  0.676730  1
  Co  Co24  1  0.323270  0.323270  0.030190  1
  Co  Co25  1  0.323270  0.030190  0.323270  1
  Co  Co26  1  0.030190  0.323270  0.323270  1
  Co  Co27  1  0.323270  0.323270  0.323270  1
  W  W28  1  0.000000  0.000000  0.000000  1
