# generated using pymatgen
data_Th2Ge5Rh3
_symmetry_space_group_name_H-M   'P 1'
_cell_length_a   6.16144536
_cell_length_b   8.45642586
_cell_length_c   8.45642649
_cell_angle_alpha   90.71433797
_cell_angle_beta   111.36484432
_cell_angle_gamma   111.36484271
_symmetry_Int_Tables_number   1
_chemical_formula_structural   Th2Ge5Rh3
_chemical_formula_sum   'Th4 Ge10 Rh6'
_cell_volume   376.74218210
_cell_formula_units_Z   2
loop_
 _symmetry_equiv_pos_site_id
 _symmetry_equiv_pos_as_xyz
  1  'x, y, z'
loop_
 _atom_site_type_symbol
 _atom_site_label
 _atom_site_symmetry_multiplicity
 _atom_site_fract_x
 _atom_site_fract_y
 _atom_site_fract_z
 _atom_site_occupancy
  Th  Th0  1  0.768691  0.402326  0.135057  1
  Th  Th1  1  0.268691  0.135057  0.402326  1
  Th  Th2  1  0.731308  0.864943  0.597674  1
  Th  Th3  1  0.231308  0.597674  0.864943  1
  Ge  Ge4  1  0.157928  0.258599  0.057257  1
  Ge  Ge5  1  0.250000  0.776224  0.223777  1
  Ge  Ge6  1  0.750000  0.776224  0.223777  1
  Ge  Ge7  1  0.657928  0.057257  0.258599  1
  Ge  Ge8  1  0.250000  0.500000  0.500000  1
  Ge  Ge9  1  0.750000  0.500000  0.500000  1
  Ge  Ge10  1  0.342072  0.942743  0.741401  1
  Ge  Ge11  1  0.250000  0.223777  0.776224  1
  Ge  Ge12  1  0.750000  0.223777  0.776224  1
  Ge  Ge13  1  0.842072  0.741401  0.942743  1
  Rh  Rh14  1  0.250000  0.000000  0.000000  1
  Rh  Rh15  1  0.750000  0.000000  0.000000  1
  Rh  Rh16  1  0.391573  0.532296  0.250850  1
  Rh  Rh17  1  0.108428  0.749151  0.467705  1
  Rh  Rh18  1  0.891573  0.250850  0.532296  1
  Rh  Rh19  1  0.608428  0.467705  0.749151  1
