# generated using pymatgen
data_Ho4Ti(ReN4)3
_symmetry_space_group_name_H-M   'P 1'
_cell_length_a   7.32003465
_cell_length_b   7.40178477
_cell_length_c   6.27224570
_cell_angle_alpha   72.58039766
_cell_angle_beta   73.81535321
_cell_angle_gamma   82.01383992
_symmetry_Int_Tables_number   1
_chemical_formula_structural   Ho4Ti(ReN4)3
_chemical_formula_sum   'Ho4 Ti1 Re3 N12'
_cell_volume   310.83070218
_cell_formula_units_Z   1
loop_
 _symmetry_equiv_pos_site_id
 _symmetry_equiv_pos_as_xyz
  1  'x, y, z'
loop_
 _atom_site_type_symbol
 _atom_site_label
 _atom_site_symmetry_multiplicity
 _atom_site_fract_x
 _atom_site_fract_y
 _atom_site_fract_z
 _atom_site_occupancy
  Ho  Ho0  1  0.906373  0.084417  0.766904  1
  Ho  Ho1  1  0.091770  0.903935  0.262114  1
  Ho  Ho2  1  0.708381  0.277291  0.242482  1
  Ho  Ho3  1  0.300566  0.720660  0.737758  1
  Ti  Ti4  1  0.618969  0.801314  0.274595  1
  Re  Re5  1  0.200238  0.378255  0.216065  1
  Re  Re6  1  0.378796  0.205466  0.719832  1
  Re  Re7  1  0.794053  0.617887  0.783165  1
  N  N8  1  0.658544  0.621418  0.073684  1
  N  N9  1  0.369036  0.878633  0.355079  1
  N  N10  1  0.361228  0.331965  0.419492  1
  N  N11  1  0.125698  0.622915  0.161183  1
  N  N12  1  0.002532  0.224152  0.336389  1
  N  N13  1  0.790830  0.000919  0.148825  1
  N  N14  1  0.225976  0.006507  0.842582  1
  N  N15  1  0.626471  0.132018  0.658934  1
  N  N16  1  0.333839  0.368018  0.914954  1
  N  N17  1  0.884255  0.376073  0.829342  1
  N  N18  1  0.632120  0.665458  0.591049  1
  N  N19  1  0.990327  0.782699  0.665572  1
