# generated using pymatgen
data_YTm7Re2(OsC4)2
_symmetry_space_group_name_H-M   'P 1'
_cell_length_a   5.04631400
_cell_length_b   6.47857584
_cell_length_c   9.70739602
_cell_angle_alpha   89.60609109
_cell_angle_beta   90.00000000
_cell_angle_gamma   90.00000000
_symmetry_Int_Tables_number   1
_chemical_formula_structural   YTm7Re2(OsC4)2
_chemical_formula_sum   'Y1 Tm7 Re2 Os2 C8'
_cell_volume   317.35569872
_cell_formula_units_Z   1
loop_
 _symmetry_equiv_pos_site_id
 _symmetry_equiv_pos_as_xyz
  1  'x, y, z'
loop_
 _atom_site_type_symbol
 _atom_site_label
 _atom_site_symmetry_multiplicity
 _atom_site_fract_x
 _atom_site_fract_y
 _atom_site_fract_z
 _atom_site_occupancy
  Y  Y0  1  0.250000  0.031388  0.286273  1
  Tm  Tm1  1  0.250000  0.676233  0.555655  1
  Tm  Tm2  1  0.750000  0.324388  0.444956  1
  Tm  Tm3  1  0.750000  0.821492  0.056114  1
  Tm  Tm4  1  0.250000  0.177713  0.943183  1
  Tm  Tm5  1  0.250000  0.532094  0.217307  1
  Tm  Tm6  1  0.750000  0.467448  0.782511  1
  Tm  Tm7  1  0.750000  0.969049  0.714790  1
  Re  Re8  1  0.250000  0.718311  0.867735  1
  Re  Re9  1  0.750000  0.281567  0.131388  1
  Os  Os10  1  0.750000  0.779063  0.367882  1
  Os  Os11  1  0.250000  0.220325  0.632602  1
  C  C12  1  0.250000  0.452671  0.759922  1
  C  C13  1  0.750000  0.546794  0.240178  1
  C  C14  1  0.750000  0.046458  0.258000  1
  C  C15  1  0.250000  0.953129  0.741349  1
  C  C16  1  0.250000  0.824128  0.053743  1
  C  C17  1  0.750000  0.174209  0.945122  1
  C  C18  1  0.750000  0.672588  0.554436  1
  C  C19  1  0.250000  0.330952  0.446855  1
