# generated using pymatgen
data_Dy10(TlSb)3
_symmetry_space_group_name_H-M   'P 1'
_cell_length_a   6.52180100
_cell_length_b   8.98349254
_cell_length_c   8.98349300
_cell_angle_alpha   60.00172529
_cell_angle_beta   90.00151985
_cell_angle_gamma   89.99848298
_symmetry_Int_Tables_number   1
_chemical_formula_structural   Dy10(TlSb)3
_chemical_formula_sum   'Dy10 Tl3 Sb3'
_cell_volume   455.82293127
_cell_formula_units_Z   1
loop_
 _symmetry_equiv_pos_site_id
 _symmetry_equiv_pos_as_xyz
  1  'x, y, z'
loop_
 _atom_site_type_symbol
 _atom_site_label
 _atom_site_symmetry_multiplicity
 _atom_site_fract_x
 _atom_site_fract_y
 _atom_site_fract_z
 _atom_site_occupancy
  Dy  Dy0  1  0.500632  0.333275  0.333306  1
  Dy  Dy1  1  0.500632  0.666696  0.666727  1
  Dy  Dy2  1  0.999350  0.666629  0.666658  1
  Dy  Dy3  1  0.999349  0.333342  0.333373  1
  Dy  Dy4  1  0.749988  0.239192  0.760808  1
  Dy  Dy5  1  0.750023  0.760761  0.000041  1
  Dy  Dy6  1  0.750021  0.999957  0.239240  1
  Dy  Dy7  1  0.250056  0.761098  0.238901  1
  Dy  Dy8  1  0.250000  0.238951  0.000011  1
  Dy  Dy9  1  0.250001  0.999989  0.761048  1
  Tl  Tl10  1  0.749899  0.606271  0.393727  1
  Tl  Tl11  1  0.750043  0.393761  0.999949  1
  Tl  Tl12  1  0.750043  0.000047  0.606240  1
  Sb  Sb13  1  0.250066  0.393563  0.606436  1
  Sb  Sb14  1  0.249950  0.606431  0.999963  1
  Sb  Sb15  1  0.249949  0.000035  0.393570  1
