# generated using pymatgen
data_DyEr2Pa(Al3Rh)6
_symmetry_space_group_name_H-M   'P 1'
_cell_length_a   7.56510825
_cell_length_b   7.55904446
_cell_length_c   9.41187700
_cell_angle_alpha   90.00000000
_cell_angle_beta   90.00000000
_cell_angle_gamma   119.49633208
_symmetry_Int_Tables_number   1
_chemical_formula_structural   DyEr2Pa(Al3Rh)6
_chemical_formula_sum   'Dy1 Er2 Pa1 Al18 Rh6'
_cell_volume   468.45814432
_cell_formula_units_Z   1
loop_
 _symmetry_equiv_pos_site_id
 _symmetry_equiv_pos_as_xyz
  1  'x, y, z'
loop_
 _atom_site_type_symbol
 _atom_site_label
 _atom_site_symmetry_multiplicity
 _atom_site_fract_x
 _atom_site_fract_y
 _atom_site_fract_z
 _atom_site_occupancy
  Dy  Dy0  1  0.672739  0.994736  0.750000  1
  Er  Er1  1  0.005433  0.328706  0.250000  1
  Er  Er2  1  0.328741  0.004718  0.250000  1
  Pa  Pa3  1  0.995570  0.671619  0.750000  1
  Al  Al4  1  0.131463  0.129809  0.750000  1
  Al  Al5  1  0.873774  0.875045  0.250000  1
  Al  Al6  1  0.000773  0.333036  0.574650  1
  Al  Al7  1  0.999469  0.664410  0.420336  1
  Al  Al8  1  0.999469  0.664410  0.079664  1
  Al  Al9  1  0.338405  0.003184  0.924993  1
  Al  Al10  1  0.000773  0.333036  0.925350  1
  Al  Al11  1  0.664819  0.000640  0.077255  1
  Al  Al12  1  0.664819  0.000640  0.422745  1
  Al  Al13  1  0.338405  0.003184  0.575007  1
  Al  Al14  1  0.332102  0.332170  0.055233  1
  Al  Al15  1  0.663710  0.665904  0.950359  1
  Al  Al16  1  0.663710  0.665904  0.549641  1
  Al  Al17  1  0.332102  0.332170  0.444767  1
  Al  Al18  1  0.338793  0.548154  0.750000  1
  Al  Al19  1  0.659137  0.448072  0.250000  1
  Al  Al20  1  0.548334  0.342104  0.750000  1
  Al  Al21  1  0.449416  0.660438  0.250000  1
  Rh  Rh22  1  0.673556  0.329491  0.501498  1
  Rh  Rh23  1  0.326028  0.672064  0.501435  1
  Rh  Rh24  1  0.326028  0.672064  0.998565  1
  Rh  Rh25  1  0.673556  0.329491  0.998502  1
  Rh  Rh26  1  0.999436  0.997403  0.502412  1
  Rh  Rh27  1  0.999436  0.997403  0.997588  1
