# generated using pymatgen
data_Pr11In(Hg2Pd)4
_symmetry_space_group_name_H-M   'P 1'
_cell_length_a   13.53798627
_cell_length_b   13.53798581
_cell_length_c   3.83927100
_cell_angle_alpha   90.00000000
_cell_angle_beta   90.00000000
_cell_angle_gamma   112.58742444
_symmetry_Int_Tables_number   1
_chemical_formula_structural   Pr11In(Hg2Pd)4
_chemical_formula_sum   'Pr11 In1 Hg8 Pd4'
_cell_volume   649.67650385
_cell_formula_units_Z   1
loop_
 _symmetry_equiv_pos_site_id
 _symmetry_equiv_pos_as_xyz
  1  'x, y, z'
loop_
 _atom_site_type_symbol
 _atom_site_label
 _atom_site_symmetry_multiplicity
 _atom_site_fract_x
 _atom_site_fract_y
 _atom_site_fract_z
 _atom_site_occupancy
  Pr  Pr0  1  0.416485  0.074491  0.000000  1
  Pr  Pr1  1  0.583515  0.925509  0.000000  1
  Pr  Pr2  1  0.074491  0.416485  0.000000  1
  Pr  Pr3  1  0.925509  0.583515  0.000000  1
  Pr  Pr4  1  0.166769  0.833231  0.000000  1
  Pr  Pr5  1  0.833231  0.166769  0.000000  1
  Pr  Pr6  1  0.370445  0.629555  0.000000  1
  Pr  Pr7  1  0.629555  0.370445  0.000000  1
  Pr  Pr8  1  0.299595  0.299595  0.000000  1
  Pr  Pr9  1  0.700405  0.700405  0.000000  1
  Pr  Pr10  1  0.000000  0.000000  0.000000  1
  In  In11  1  0.500000  0.500000  0.500000  1
  Hg  Hg12  1  0.369332  0.842762  0.500000  1
  Hg  Hg13  1  0.630668  0.157238  0.500000  1
  Hg  Hg14  1  0.842764  0.369332  0.500000  1
  Hg  Hg15  1  0.157236  0.630668  0.500000  1
  Hg  Hg16  1  0.214456  0.065432  0.500000  1
  Hg  Hg17  1  0.785544  0.934568  0.500000  1
  Hg  Hg18  1  0.065431  0.214455  0.500000  1
  Hg  Hg19  1  0.934569  0.785545  0.500000  1
  Pd  Pd20  1  0.449502  0.252148  0.500000  1
  Pd  Pd21  1  0.550498  0.747852  0.500000  1
  Pd  Pd22  1  0.252149  0.449502  0.500000  1
  Pd  Pd23  1  0.747851  0.550498  0.500000  1
