# generated using pymatgen
data_Tb5Dy3(ErIn3)2
_symmetry_space_group_name_H-M   'P 1'
_cell_length_a   9.15901819
_cell_length_b   9.15901744
_cell_length_c   9.16048824
_cell_angle_alpha   96.46138085
_cell_angle_beta   96.41551741
_cell_angle_gamma   140.86786648
_symmetry_Int_Tables_number   1
_chemical_formula_structural   Tb5Dy3(ErIn3)2
_chemical_formula_sum   'Tb5 Dy3 Er2 In6'
_cell_volume   456.98269865
_cell_formula_units_Z   1
loop_
 _symmetry_equiv_pos_site_id
 _symmetry_equiv_pos_as_xyz
  1  'x, y, z'
loop_
 _atom_site_type_symbol
 _atom_site_label
 _atom_site_symmetry_multiplicity
 _atom_site_fract_x
 _atom_site_fract_y
 _atom_site_fract_z
 _atom_site_occupancy
  Tb  Tb0  1  0.717577  0.417547  0.135125  1
  Tb  Tb1  1  0.282409  0.582170  0.864579  1
  Tb  Tb2  1  0.582332  0.717763  0.300095  1
  Tb  Tb3  1  0.217690  0.082230  0.299920  1
  Tb  Tb4  1  0.917563  0.217732  0.135293  1
  Dy  Dy5  1  0.782549  0.917667  0.700217  1
  Dy  Dy6  1  0.417730  0.282590  0.700321  1
  Dy  Dy7  1  0.082157  0.782540  0.864697  1
  Er  Er8  1  0.750044  0.250032  0.500164  1
  Er  Er9  1  0.250132  0.750118  0.500164  1
  In  In10  1  0.839575  0.660999  0.500575  1
  In  In11  1  0.339258  0.839393  0.178651  1
  In  In12  1  0.750060  0.749755  0.999450  1
  In  In13  1  0.660401  0.160602  0.821003  1
  In  In14  1  0.160828  0.339471  0.500299  1
  In  In15  1  0.249695  0.249389  0.999450  1
