# generated using pymatgen
data_TbTh3(ZnCo)4
_symmetry_space_group_name_H-M   'P 1'
_cell_length_a   3.83039000
_cell_length_b   6.89487684
_cell_length_c   8.28017819
_cell_angle_alpha   90.83029690
_cell_angle_beta   90.00000000
_cell_angle_gamma   90.00000000
_symmetry_Int_Tables_number   1
_chemical_formula_structural   TbTh3(ZnCo)4
_chemical_formula_sum   'Tb1 Th3 Zn4 Co4'
_cell_volume   218.65710223
_cell_formula_units_Z   1
loop_
 _symmetry_equiv_pos_site_id
 _symmetry_equiv_pos_as_xyz
  1  'x, y, z'
loop_
 _atom_site_type_symbol
 _atom_site_label
 _atom_site_symmetry_multiplicity
 _atom_site_fract_x
 _atom_site_fract_y
 _atom_site_fract_z
 _atom_site_occupancy
  Tb  Tb0  1  0.750000  0.949327  0.686731  1
  Th  Th1  1  0.250000  0.543012  0.183575  1
  Th  Th2  1  0.750000  0.451480  0.810619  1
  Th  Th3  1  0.250000  0.045047  0.320898  1
  Zn  Zn4  1  0.250000  0.118076  0.941629  1
  Zn  Zn5  1  0.750000  0.874270  0.050929  1
  Zn  Zn6  1  0.250000  0.637087  0.554611  1
  Zn  Zn7  1  0.750000  0.378136  0.446751  1
  Co  Co8  1  0.750000  0.760502  0.355861  1
  Co  Co9  1  0.250000  0.256107  0.637433  1
  Co  Co10  1  0.750000  0.255841  0.140401  1
  Co  Co11  1  0.250000  0.731114  0.870563  1
