# generated using pymatgen
data_LuFe4Si
_symmetry_space_group_name_H-M   'P 1'
_cell_length_a   4.91967342
_cell_length_b   4.91967252
_cell_length_c   3.93951000
_cell_angle_alpha   90.00000000
_cell_angle_beta   90.00000000
_cell_angle_gamma   119.63611760
_symmetry_Int_Tables_number   1
_chemical_formula_structural   LuFe4Si
_chemical_formula_sum   'Lu1 Fe4 Si1'
_cell_volume   82.87548735
_cell_formula_units_Z   1
loop_
 _symmetry_equiv_pos_site_id
 _symmetry_equiv_pos_as_xyz
  1  'x, y, z'
loop_
 _atom_site_type_symbol
 _atom_site_label
 _atom_site_symmetry_multiplicity
 _atom_site_fract_x
 _atom_site_fract_y
 _atom_site_fract_z
 _atom_site_occupancy
  Lu  Lu0  1  0.000000  0.000000  0.000000  1
  Fe  Fe1  1  0.332816  0.667184  0.000000  1
  Fe  Fe2  1  0.667184  0.332816  0.000000  1
  Fe  Fe3  1  0.500000  0.000000  0.500000  1
  Fe  Fe4  1  0.000000  0.500000  0.500000  1
  Si  Si5  1  0.500000  0.500000  0.500000  1
