# generated using pymatgen
data_YFe2GeP
_symmetry_space_group_name_H-M   'P 1'
_cell_length_a   5.59674019
_cell_length_b   5.59674055
_cell_length_c   5.59674069
_cell_angle_alpha   138.86455975
_cell_angle_beta   138.86456791
_cell_angle_gamma   59.58142653
_symmetry_Int_Tables_number   1
_chemical_formula_structural   YFe2GeP
_chemical_formula_sum   'Y1 Fe2 Ge1 P1'
_cell_volume   75.11030939
_cell_formula_units_Z   1
loop_
 _symmetry_equiv_pos_site_id
 _symmetry_equiv_pos_as_xyz
  1  'x, y, z'
loop_
 _atom_site_type_symbol
 _atom_site_label
 _atom_site_symmetry_multiplicity
 _atom_site_fract_x
 _atom_site_fract_y
 _atom_site_fract_z
 _atom_site_occupancy
  Y  Y0  1  0.003570  0.003570  0.000000  1
  Fe  Fe1  1  0.741958  0.241958  0.500000  1
  Fe  Fe2  1  0.241958  0.741958  0.500000  1
  Ge  Ge3  1  0.372557  0.372557  0.000000  1
  P  P4  1  0.639956  0.639956  0.000000  1
