# generated using pymatgen
data_LiSc(NiAs)2
_symmetry_space_group_name_H-M   'P 1'
_cell_length_a   3.95550800
_cell_length_b   6.32784189
_cell_length_c   7.08557479
_cell_angle_alpha   87.69940237
_cell_angle_beta   90.00000000
_cell_angle_gamma   90.00000000
_symmetry_Int_Tables_number   1
_chemical_formula_structural   LiSc(NiAs)2
_chemical_formula_sum   'Li2 Sc2 Ni4 As4'
_cell_volume   177.20777808
_cell_formula_units_Z   2
loop_
 _symmetry_equiv_pos_site_id
 _symmetry_equiv_pos_as_xyz
  1  'x, y, z'
loop_
 _atom_site_type_symbol
 _atom_site_label
 _atom_site_symmetry_multiplicity
 _atom_site_fract_x
 _atom_site_fract_y
 _atom_site_fract_z
 _atom_site_occupancy
  Li  Li0  1  0.250000  0.487821  0.183838  1
  Li  Li1  1  0.750000  0.512179  0.816162  1
  Sc  Sc2  1  0.750000  0.010654  0.698577  1
  Sc  Sc3  1  0.250000  0.989346  0.301423  1
  Ni  Ni4  1  0.250000  0.831766  0.934538  1
  Ni  Ni5  1  0.750000  0.168234  0.065462  1
  Ni  Ni6  1  0.750000  0.651601  0.437993  1
  Ni  Ni7  1  0.250000  0.348399  0.562007  1
  As  As8  1  0.250000  0.718596  0.616702  1
  As  As9  1  0.750000  0.281404  0.383298  1
  As  As10  1  0.750000  0.778304  0.108105  1
  As  As11  1  0.250000  0.221696  0.891895  1
