# generated using pymatgen
data_Dy15ThCd2(Co2Hg)2
_symmetry_space_group_name_H-M   'P 1'
_cell_length_a   9.47000292
_cell_length_b   9.49966716
_cell_length_c   9.46904564
_cell_angle_alpha   60.13218479
_cell_angle_beta   60.07060496
_cell_angle_gamma   60.12875386
_symmetry_Int_Tables_number   1
_chemical_formula_structural   Dy15ThCd2(Co2Hg)2
_chemical_formula_sum   'Dy15 Th1 Cd2 Co4 Hg2'
_cell_volume   603.85889021
_cell_formula_units_Z   1
loop_
 _symmetry_equiv_pos_site_id
 _symmetry_equiv_pos_as_xyz
  1  'x, y, z'
loop_
 _atom_site_type_symbol
 _atom_site_label
 _atom_site_symmetry_multiplicity
 _atom_site_fract_x
 _atom_site_fract_y
 _atom_site_fract_z
 _atom_site_occupancy
  Dy  Dy0  1  0.689895  0.312621  0.689950  1
  Dy  Dy1  1  0.689606  0.310654  0.312138  1
  Dy  Dy2  1  0.938480  0.562406  0.563091  1
  Dy  Dy3  1  0.545700  0.149448  0.150441  1
  Dy  Dy4  1  0.150466  0.149421  0.545731  1
  Dy  Dy5  1  0.938205  0.938087  0.561412  1
  Dy  Dy6  1  0.312437  0.689479  0.312444  1
  Dy  Dy7  1  0.561413  0.938060  0.938215  1
  Dy  Dy8  1  0.561214  0.940369  0.561218  1
  Dy  Dy9  1  0.687191  0.689298  0.314962  1
  Dy  Dy10  1  0.563087  0.562412  0.938499  1
  Dy  Dy11  1  0.937808  0.561761  0.937847  1
  Dy  Dy12  1  0.314954  0.689264  0.687234  1
  Dy  Dy13  1  0.153426  0.151886  0.153353  1
  Dy  Dy14  1  0.312130  0.310659  0.689644  1
  Th  Th15  1  0.155829  0.530052  0.155747  1
  Cd  Cd16  1  0.919652  0.920317  0.241854  1
  Cd  Cd17  1  0.241840  0.920320  0.919661  1
  Co  Co18  1  0.354599  0.360796  0.926669  1
  Co  Co19  1  0.357592  0.922764  0.357590  1
  Co  Co20  1  0.926715  0.360802  0.354555  1
  Co  Co21  1  0.356274  0.359056  0.356252  1
  Hg  Hg22  1  0.915820  0.253684  0.915816  1
  Hg  Hg23  1  0.915673  0.916384  0.915683  1
