# generated using pymatgen
data_Sc5Co16(TcP4)3
_symmetry_space_group_name_H-M   'P 1'
_cell_length_a   11.85315200
_cell_length_b   11.85315309
_cell_length_c   3.63076000
_cell_angle_alpha   90.00000000
_cell_angle_beta   90.00000000
_cell_angle_gamma   119.99999697
_symmetry_Int_Tables_number   1
_chemical_formula_structural   Sc5Co16(TcP4)3
_chemical_formula_sum   'Sc5 Co16 Tc3 P12'
_cell_volume   441.76970909
_cell_formula_units_Z   1
loop_
 _symmetry_equiv_pos_site_id
 _symmetry_equiv_pos_as_xyz
  1  'x, y, z'
loop_
 _atom_site_type_symbol
 _atom_site_label
 _atom_site_symmetry_multiplicity
 _atom_site_fract_x
 _atom_site_fract_y
 _atom_site_fract_z
 _atom_site_occupancy
  Sc  Sc0  1  0.666667  0.333333  0.000000  1
  Sc  Sc1  1  0.333333  0.666667  0.000000  1
  Sc  Sc2  1  0.819590  0.819590  0.500000  1
  Sc  Sc3  1  0.180410  0.000000  0.500000  1
  Sc  Sc4  1  0.000000  0.180410  0.500000  1
  Co  Co5  1  0.195372  0.372821  0.000000  1
  Co  Co6  1  0.177449  0.804628  0.000000  1
  Co  Co7  1  0.822551  0.627179  0.000000  1
  Co  Co8  1  0.804628  0.177449  0.000000  1
  Co  Co9  1  0.372821  0.195372  0.000000  1
  Co  Co10  1  0.128487  0.481709  0.500000  1
  Co  Co11  1  0.353223  0.871513  0.500000  1
  Co  Co12  1  0.518291  0.646777  0.500000  1
  Co  Co13  1  0.646777  0.518291  0.500000  1
  Co  Co14  1  0.871513  0.353223  0.500000  1
  Co  Co15  1  0.481709  0.128487  0.500000  1
  Co  Co16  1  0.000000  0.000000  0.000000  1
  Co  Co17  1  0.718110  0.000000  0.500000  1
  Co  Co18  1  0.000000  0.718110  0.500000  1
  Co  Co19  1  0.627179  0.822551  0.000000  1
  Co  Co20  1  0.281890  0.281890  0.500000  1
  Tc  Tc21  1  0.448335  0.448335  0.000000  1
  Tc  Tc22  1  0.551665  0.000000  0.000000  1
  Tc  Tc23  1  0.000000  0.551665  0.000000  1
  P  P24  1  0.643144  0.643144  0.000000  1
  P  P25  1  0.356856  0.000000  0.000000  1
  P  P26  1  0.000000  0.356856  0.000000  1
  P  P27  1  0.482870  0.316388  0.500000  1
  P  P28  1  0.683612  0.166483  0.500000  1
  P  P29  1  0.833517  0.517130  0.500000  1
  P  P30  1  0.517130  0.833517  0.500000  1
  P  P31  1  0.166483  0.683612  0.500000  1
  P  P32  1  0.824395  0.000000  0.000000  1
  P  P33  1  0.000000  0.824395  0.000000  1
  P  P34  1  0.316388  0.482870  0.500000  1
  P  P35  1  0.175605  0.175605  0.000000  1
