# generated using pymatgen
data_Sc2Co3P7IrRu8
_symmetry_space_group_name_H-M   'P 1'
_cell_length_a   9.25339263
_cell_length_b   9.28725138
_cell_length_c   3.78328900
_cell_angle_alpha   90.00000000
_cell_angle_beta   90.00000000
_cell_angle_gamma   119.83735082
_symmetry_Int_Tables_number   1
_chemical_formula_structural   Sc2Co3P7IrRu8
_chemical_formula_sum   'Sc2 Co3 P7 Ir1 Ru8'
_cell_volume   282.03161980
_cell_formula_units_Z   1
loop_
 _symmetry_equiv_pos_site_id
 _symmetry_equiv_pos_as_xyz
  1  'x, y, z'
loop_
 _atom_site_type_symbol
 _atom_site_label
 _atom_site_symmetry_multiplicity
 _atom_site_fract_x
 _atom_site_fract_y
 _atom_site_fract_z
 _atom_site_occupancy
  Sc  Sc0  1  0.667118  0.334488  0.500000  1
  Sc  Sc1  1  0.332834  0.665690  0.000000  1
  Co  Co2  1  0.726559  0.886944  0.000000  1
  Co  Co3  1  0.114993  0.841048  0.000000  1
  Co  Co4  1  0.157995  0.269780  0.000000  1
  P  P5  1  0.594868  0.715133  0.500000  1
  P  P6  1  0.999406  0.998692  0.000000  1
  P  P7  1  0.280776  0.874803  0.500000  1
  P  P8  1  0.117931  0.402842  0.500000  1
  P  P9  1  0.887237  0.586928  0.000000  1
  P  P10  1  0.413204  0.305017  0.000000  1
  P  P11  1  0.703715  0.112751  0.000000  1
  Ir  Ir12  1  0.433472  0.070369  0.000000  1
  Ru  Ru13  1  0.559379  0.945241  0.500000  1
  Ru  Ru14  1  0.383038  0.438374  0.500000  1
  Ru  Ru15  1  0.913122  0.121369  0.500000  1
  Ru  Ru16  1  0.213073  0.086423  0.500000  1
  Ru  Ru17  1  0.877929  0.793610  0.500000  1
  Ru  Ru18  1  0.934994  0.364155  0.000000  1
  Ru  Ru19  1  0.635954  0.571957  0.000000  1
  Ru  Ru20  1  0.052405  0.614385  0.500000  1
