# generated using pymatgen
data_Tb15DyCd3AgIr4
_symmetry_space_group_name_H-M   'P 1'
_cell_length_a   9.66364106
_cell_length_b   9.66364157
_cell_length_c   9.66364147
_cell_angle_alpha   60.03086871
_cell_angle_beta   60.03086913
_cell_angle_gamma   60.03087112
_symmetry_Int_Tables_number   1
_chemical_formula_structural   Tb15DyCd3AgIr4
_chemical_formula_sum   'Tb15 Dy1 Cd3 Ag1 Ir4'
_cell_volume   638.57396584
_cell_formula_units_Z   1
loop_
 _symmetry_equiv_pos_site_id
 _symmetry_equiv_pos_as_xyz
  1  'x, y, z'
loop_
 _atom_site_type_symbol
 _atom_site_label
 _atom_site_symmetry_multiplicity
 _atom_site_fract_x
 _atom_site_fract_y
 _atom_site_fract_z
 _atom_site_occupancy
  Tb  Tb0  1  0.600049  0.600049  0.202003  1
  Tb  Tb1  1  0.600049  0.202003  0.600049  1
  Tb  Tb2  1  0.202003  0.600049  0.600049  1
  Tb  Tb3  1  0.059694  0.439463  0.439463  1
  Tb  Tb4  1  0.438068  0.060235  0.060235  1
  Tb  Tb5  1  0.439463  0.059694  0.439463  1
  Tb  Tb6  1  0.060235  0.438068  0.060235  1
  Tb  Tb7  1  0.439463  0.439463  0.059694  1
  Tb  Tb8  1  0.060235  0.060235  0.438068  1
  Tb  Tb9  1  0.186013  0.811906  0.811906  1
  Tb  Tb10  1  0.811942  0.186961  0.186961  1
  Tb  Tb11  1  0.811906  0.186013  0.811906  1
  Tb  Tb12  1  0.186961  0.811942  0.186961  1
  Tb  Tb13  1  0.811906  0.811906  0.186013  1
  Tb  Tb14  1  0.186961  0.186961  0.811942  1
  Dy  Dy15  1  0.598276  0.598276  0.598276  1
  Cd  Cd16  1  0.831033  0.831033  0.508449  1
  Cd  Cd17  1  0.831033  0.508449  0.831033  1
  Cd  Cd18  1  0.508449  0.831033  0.831033  1
  Ag  Ag19  1  0.832879  0.832879  0.832879  1
  Ir  Ir20  1  0.391702  0.391702  0.391702  1
  Ir  Ir21  1  0.393065  0.393065  0.825551  1
  Ir  Ir22  1  0.393065  0.825551  0.393065  1
  Ir  Ir23  1  0.825551  0.393065  0.393065  1
