# generated using pymatgen
data_Tb2HoGa8Ag3
_symmetry_space_group_name_H-M   'P 1'
_cell_length_a   4.33735805
_cell_length_b   8.38006904
_cell_length_c   8.38006987
_cell_angle_alpha   69.33557419
_cell_angle_beta   75.00171923
_cell_angle_gamma   75.00171539
_symmetry_Int_Tables_number   1
_chemical_formula_structural   Tb2HoGa8Ag3
_chemical_formula_sum   'Tb2 Ho1 Ga8 Ag3'
_cell_volume   270.52104939
_cell_formula_units_Z   1
loop_
 _symmetry_equiv_pos_site_id
 _symmetry_equiv_pos_as_xyz
  1  'x, y, z'
loop_
 _atom_site_type_symbol
 _atom_site_label
 _atom_site_symmetry_multiplicity
 _atom_site_fract_x
 _atom_site_fract_y
 _atom_site_fract_z
 _atom_site_occupancy
  Tb  Tb0  1  0.500299  0.499701  0.499701  1
  Tb  Tb1  1  0.200418  0.799582  0.799582  1
  Ho  Ho2  1  0.799793  0.200207  0.200207  1
  Ga  Ga3  1  0.356701  0.360399  0.926198  1
  Ga  Ga4  1  0.643175  0.638973  0.074678  1
  Ga  Ga5  1  0.356701  0.926198  0.360399  1
  Ga  Ga6  1  0.643175  0.074678  0.638973  1
  Ga  Ga7  1  0.158387  0.472968  0.210256  1
  Ga  Ga8  1  0.842089  0.526461  0.789361  1
  Ga  Ga9  1  0.158387  0.210256  0.472968  1
  Ga  Ga10  1  0.842089  0.789361  0.526461  1
  Ag  Ag11  1  0.499586  0.000414  0.000414  1
  Ag  Ag12  1  0.999599  0.807211  0.193590  1
  Ag  Ag13  1  0.999599  0.193590  0.807211  1
