# generated using pymatgen
data_Ca2YbY(Ga2Ag)4
_symmetry_space_group_name_H-M   'P 1'
_cell_length_a   4.35468700
_cell_length_b   7.05762860
_cell_length_c   10.50132462
_cell_angle_alpha   88.77607528
_cell_angle_beta   90.00000000
_cell_angle_gamma   90.00000000
_symmetry_Int_Tables_number   1
_chemical_formula_structural   Ca2YbY(Ga2Ag)4
_chemical_formula_sum   'Ca2 Yb1 Y1 Ga8 Ag4'
_cell_volume   322.67159359
_cell_formula_units_Z   1
loop_
 _symmetry_equiv_pos_site_id
 _symmetry_equiv_pos_as_xyz
  1  'x, y, z'
loop_
 _atom_site_type_symbol
 _atom_site_label
 _atom_site_symmetry_multiplicity
 _atom_site_fract_x
 _atom_site_fract_y
 _atom_site_fract_z
 _atom_site_occupancy
  Ca  Ca0  1  0.250000  0.775556  0.823773  1
  Ca  Ca1  1  0.750000  0.224978  0.173499  1
  Yb  Yb2  1  0.250000  0.275791  0.672720  1
  Y  Y3  1  0.750000  0.719985  0.330208  1
  Ga  Ga4  1  0.250000  0.702898  0.532856  1
  Ga  Ga5  1  0.750000  0.300023  0.466924  1
  Ga  Ga6  1  0.750000  0.794935  0.036771  1
  Ga  Ga7  1  0.250000  0.200263  0.965803  1
  Ga  Ga8  1  0.250000  0.924844  0.154038  1
  Ga  Ga9  1  0.750000  0.074333  0.849437  1
  Ga  Ga10  1  0.750000  0.573999  0.645191  1
  Ga  Ga11  1  0.250000  0.426445  0.349352  1
  Ag  Ag12  1  0.250000  0.543113  0.097793  1
  Ag  Ag13  1  0.750000  0.456685  0.898666  1
  Ag  Ag14  1  0.750000  0.962557  0.600537  1
  Ag  Ag15  1  0.250000  0.043597  0.402429  1
