# generated using pymatgen
data_Lu5(Si7Ru2)2
_symmetry_space_group_name_H-M   'P 1'
_cell_length_a   7.88168769
_cell_length_b   7.95610700
_cell_length_c   12.55372100
_cell_angle_alpha   90.00000000
_cell_angle_beta   98.85926836
_cell_angle_gamma   90.00000000
_symmetry_Int_Tables_number   1
_chemical_formula_structural   Lu5(Si7Ru2)2
_chemical_formula_sum   'Lu10 Si28 Ru8'
_cell_volume   777.82132743
_cell_formula_units_Z   2
loop_
 _symmetry_equiv_pos_site_id
 _symmetry_equiv_pos_as_xyz
  1  'x, y, z'
loop_
 _atom_site_type_symbol
 _atom_site_label
 _atom_site_symmetry_multiplicity
 _atom_site_fract_x
 _atom_site_fract_y
 _atom_site_fract_z
 _atom_site_occupancy
  Lu  Lu0  1  0.657140  0.746710  0.635089  1
  Lu  Lu1  1  0.842860  0.246710  0.364911  1
  Lu  Lu2  1  0.157140  0.753290  0.635089  1
  Lu  Lu3  1  0.342860  0.253290  0.364911  1
  Lu  Lu4  1  0.839781  0.748913  0.365999  1
  Lu  Lu5  1  0.660219  0.248913  0.634001  1
  Lu  Lu6  1  0.160219  0.251087  0.634001  1
  Lu  Lu7  1  0.339781  0.751087  0.365999  1
  Lu  Lu8  1  0.500000  0.000000  0.000000  1
  Lu  Lu9  1  0.000000  0.500000  0.000000  1
  Si  Si10  1  0.176488  0.005054  0.819848  1
  Si  Si11  1  0.390394  0.000538  0.555932  1
  Si  Si12  1  0.109606  0.500538  0.444068  1
  Si  Si13  1  0.609606  0.999462  0.444068  1
  Si  Si14  1  0.666280  0.667677  0.999962  1
  Si  Si15  1  0.833720  0.167677  0.000038  1
  Si  Si16  1  0.333720  0.332323  0.000038  1
  Si  Si17  1  0.166280  0.832323  0.999962  1
  Si  Si18  1  0.950051  0.778077  0.820270  1
  Si  Si19  1  0.549949  0.278077  0.179730  1
  Si  Si20  1  0.049949  0.221923  0.179730  1
  Si  Si21  1  0.450051  0.721923  0.820270  1
  Si  Si22  1  0.960795  0.222200  0.820269  1
  Si  Si23  1  0.539205  0.722200  0.179731  1
  Si  Si24  1  0.039205  0.777800  0.179731  1
  Si  Si25  1  0.460795  0.277800  0.820269  1
  Si  Si26  1  0.735452  0.994662  0.819864  1
  Si  Si27  1  0.764548  0.494662  0.180136  1
  Si  Si28  1  0.264548  0.005338  0.180136  1
  Si  Si29  1  0.235452  0.505338  0.819864  1
  Si  Si30  1  0.676488  0.494946  0.819848  1
  Si  Si31  1  0.823512  0.994946  0.180152  1
  Si  Si32  1  0.323512  0.505054  0.180152  1
  Si  Si33  1  0.889969  0.000091  0.557943  1
  Si  Si34  1  0.389969  0.499909  0.557943  1
  Si  Si35  1  0.110031  0.999909  0.442057  1
  Si  Si36  1  0.610031  0.500091  0.442057  1
  Si  Si37  1  0.890394  0.499462  0.555932  1
  Ru  Ru38  1  0.871065  0.873645  0.000380  1
  Ru  Ru39  1  0.371065  0.626355  0.000380  1
  Ru  Ru40  1  0.628935  0.373645  0.999620  1
  Ru  Ru41  1  0.128935  0.126355  0.999620  1
  Ru  Ru42  1  0.437546  0.000063  0.745384  1
  Ru  Ru43  1  0.062454  0.500063  0.254616  1
  Ru  Ru44  1  0.562454  0.999937  0.254616  1
  Ru  Ru45  1  0.937546  0.499937  0.745384  1
