# generated using pymatgen
data_Ho5Er5(InSb)3
_symmetry_space_group_name_H-M   'P 1'
_cell_length_a   8.92343300
_cell_length_b   8.90117544
_cell_length_c   6.50504900
_cell_angle_alpha   90.00000000
_cell_angle_beta   90.00000000
_cell_angle_gamma   120.08273988
_symmetry_Int_Tables_number   1
_chemical_formula_structural   Ho5Er5(InSb)3
_chemical_formula_sum   'Ho5 Er5 In3 Sb3'
_cell_volume   447.09296727
_cell_formula_units_Z   1
loop_
 _symmetry_equiv_pos_site_id
 _symmetry_equiv_pos_as_xyz
  1  'x, y, z'
loop_
 _atom_site_type_symbol
 _atom_site_label
 _atom_site_symmetry_multiplicity
 _atom_site_fract_x
 _atom_site_fract_y
 _atom_site_fract_z
 _atom_site_occupancy
  Ho  Ho0  1  0.002917  0.763698  0.750000  1
  Ho  Ho1  1  0.003500  0.239068  0.250000  1
  Ho  Ho2  1  0.764432  0.760932  0.250000  1
  Ho  Ho3  1  0.761629  0.000000  0.750000  1
  Ho  Ho4  1  0.239218  0.236302  0.750000  1
  Er  Er5  1  0.237510  0.000000  0.250000  1
  Er  Er6  1  0.330655  0.666131  0.499012  1
  Er  Er7  1  0.664525  0.333869  0.000988  1
  Er  Er8  1  0.664525  0.333869  0.499012  1
  Er  Er9  1  0.330655  0.666131  0.000988  1
  In  In10  1  0.397529  0.000000  0.750000  1
  In  In11  1  0.395437  0.397501  0.250000  1
  In  In12  1  0.997936  0.602499  0.250000  1
  Sb  Sb13  1  0.997250  0.391778  0.750000  1
  Sb  Sb14  1  0.605472  0.608222  0.750000  1
  Sb  Sb15  1  0.606811  0.000000  0.250000  1
