# generated using pymatgen
data_Er3Tm5Sc12Si15Bi
_symmetry_space_group_name_H-M   'P 1'
_cell_length_a   7.13423406
_cell_length_b   7.37426861
_cell_length_c   13.99894653
_cell_angle_alpha   90.07491698
_cell_angle_beta   88.60380521
_cell_angle_gamma   90.16792583
_symmetry_Int_Tables_number   1
_chemical_formula_structural   Er3Tm5Sc12Si15Bi
_chemical_formula_sum   'Er3 Tm5 Sc12 Si15 Bi1'
_cell_volume   736.25881431
_cell_formula_units_Z   1
loop_
 _symmetry_equiv_pos_site_id
 _symmetry_equiv_pos_as_xyz
  1  'x, y, z'
loop_
 _atom_site_type_symbol
 _atom_site_label
 _atom_site_symmetry_multiplicity
 _atom_site_fract_x
 _atom_site_fract_y
 _atom_site_fract_z
 _atom_site_occupancy
  Er  Er0  1  0.012239  0.177323  0.096483  1
  Er  Er1  1  0.987869  0.824201  0.904470  1
  Er  Er2  1  0.489075  0.676108  0.904342  1
  Tm  Tm3  1  0.993124  0.831455  0.598218  1
  Tm  Tm4  1  0.511502  0.323619  0.097481  1
  Tm  Tm5  1  0.998610  0.170251  0.399005  1
  Tm  Tm6  1  0.511630  0.315914  0.397588  1
  Tm  Tm7  1  0.513273  0.687670  0.601093  1
  Sc  Sc8  1  0.164981  0.501269  0.755894  1
  Sc  Sc9  1  0.833991  0.498013  0.251691  1
  Sc  Sc10  1  0.334170  0.002550  0.250473  1
  Sc  Sc11  1  0.667718  0.998179  0.751004  1
  Sc  Sc12  1  0.349846  0.155549  0.631523  1
  Sc  Sc13  1  0.657671  0.827314  0.372604  1
  Sc  Sc14  1  0.153161  0.683410  0.368940  1
  Sc  Sc15  1  0.666960  0.822430  0.123915  1
  Sc  Sc16  1  0.827703  0.326365  0.625628  1
  Sc  Sc17  1  0.331149  0.175939  0.875522  1
  Sc  Sc18  1  0.831465  0.323546  0.875712  1
  Sc  Sc19  1  0.168421  0.676414  0.124915  1
  Si  Si20  1  0.037273  0.117777  0.751222  1
  Si  Si21  1  0.960200  0.886662  0.245950  1
  Si  Si22  1  0.460676  0.614450  0.247665  1
  Si  Si23  1  0.536306  0.386062  0.752686  1
  Si  Si24  1  0.289635  0.865832  0.752875  1
  Si  Si25  1  0.710401  0.128246  0.246439  1
  Si  Si26  1  0.209516  0.371463  0.249021  1
  Si  Si27  1  0.793776  0.630277  0.751541  1
  Si  Si28  1  0.810200  0.540349  0.456837  1
  Si  Si29  1  0.326896  0.963905  0.459757  1
  Si  Si30  1  0.842208  0.533665  0.039962  1
  Si  Si31  1  0.674380  0.038412  0.538434  1
  Si  Si32  1  0.156316  0.465694  0.961465  1
  Si  Si33  1  0.656060  0.034683  0.960523  1
  Si  Si34  1  0.342554  0.966803  0.040284  1
  Bi  Bi35  1  0.189038  0.458200  0.538835  1
