# generated using pymatgen
data_Dy2Y3IrOs
_symmetry_space_group_name_H-M   'P 1'
_cell_length_a   6.45706418
_cell_length_b   7.31987606
_cell_length_c   8.49041840
_cell_angle_alpha   96.78697396
_cell_angle_beta   112.34954897
_cell_angle_gamma   89.99998670
_symmetry_Int_Tables_number   1
_chemical_formula_structural   Dy2Y3IrOs
_chemical_formula_sum   'Dy4 Y6 Ir2 Os2'
_cell_volume   368.11142337
_cell_formula_units_Z   2
loop_
 _symmetry_equiv_pos_site_id
 _symmetry_equiv_pos_as_xyz
  1  'x, y, z'
loop_
 _atom_site_type_symbol
 _atom_site_label
 _atom_site_symmetry_multiplicity
 _atom_site_fract_x
 _atom_site_fract_y
 _atom_site_fract_z
 _atom_site_occupancy
  Dy  Dy0  1  0.789388  0.817685  0.436561  1
  Dy  Dy1  1  0.352828  0.682315  0.563439  1
  Dy  Dy2  1  0.426577  0.250000  0.000000  1
  Dy  Dy3  1  0.575347  0.750000  0.000000  1
  Y  Y4  1  0.791660  0.084540  0.818187  1
  Y  Y5  1  0.973473  0.415460  0.181813  1
  Y  Y6  1  0.208473  0.917767  0.185132  1
  Y  Y7  1  0.023340  0.582233  0.814868  1
  Y  Y8  1  0.210831  0.184702  0.561234  1
  Y  Y9  1  0.649598  0.315298  0.438766  1
  Ir  Ir10  1  0.395972  0.576216  0.221222  1
  Ir  Ir11  1  0.174750  0.923784  0.778778  1
  Os  Os12  1  0.604738  0.426615  0.781710  1
  Os  Os13  1  0.823027  0.073385  0.218290  1
