# generated using pymatgen
data_Dy3Mn(Co5B2)2
_symmetry_space_group_name_H-M   'P 1'
_cell_length_a   5.02846800
_cell_length_b   5.02846847
_cell_length_c   9.75594900
_cell_angle_alpha   90.00000000
_cell_angle_beta   90.00000000
_cell_angle_gamma   120.00001004
_symmetry_Int_Tables_number   1
_chemical_formula_structural   Dy3Mn(Co5B2)2
_chemical_formula_sum   'Dy3 Mn1 Co10 B4'
_cell_volume   213.63457030
_cell_formula_units_Z   1
loop_
 _symmetry_equiv_pos_site_id
 _symmetry_equiv_pos_as_xyz
  1  'x, y, z'
loop_
 _atom_site_type_symbol
 _atom_site_label
 _atom_site_symmetry_multiplicity
 _atom_site_fract_x
 _atom_site_fract_y
 _atom_site_fract_z
 _atom_site_occupancy
  Dy  Dy0  1  0.000000  0.000000  0.658335  1
  Dy  Dy1  1  0.000000  0.000000  0.341665  1
  Dy  Dy2  1  0.000000  0.000000  0.000000  1
  Mn  Mn3  1  0.333333  0.666667  0.000000  1
  Co  Co4  1  0.499843  0.500157  0.500000  1
  Co  Co5  1  0.000315  0.500157  0.500000  1
  Co  Co6  1  0.501008  0.002016  0.203601  1
  Co  Co7  1  0.501008  0.498992  0.203601  1
  Co  Co8  1  0.997984  0.498992  0.203601  1
  Co  Co9  1  0.501008  0.002016  0.796399  1
  Co  Co10  1  0.501008  0.498992  0.796399  1
  Co  Co11  1  0.997984  0.498992  0.796399  1
  Co  Co12  1  0.666667  0.333333  0.000000  1
  Co  Co13  1  0.499843  0.999685  0.500000  1
  B  B14  1  0.333333  0.666667  0.650696  1
  B  B15  1  0.666667  0.333333  0.649849  1
  B  B16  1  0.666667  0.333333  0.350151  1
  B  B17  1  0.333333  0.666667  0.349304  1
