# generated using pymatgen
data_La3Y13Cd4(IrPd)2
_symmetry_space_group_name_H-M   'P 1'
_cell_length_a   9.80608773
_cell_length_b   9.80158568
_cell_length_c   9.77280200
_cell_angle_alpha   60.09709566
_cell_angle_beta   60.11222227
_cell_angle_gamma   60.26130667
_symmetry_Int_Tables_number   1
_chemical_formula_structural   La3Y13Cd4(IrPd)2
_chemical_formula_sum   'La3 Y13 Cd4 Ir2 Pd2'
_cell_volume   666.55263700
_cell_formula_units_Z   1
loop_
 _symmetry_equiv_pos_site_id
 _symmetry_equiv_pos_as_xyz
  1  'x, y, z'
loop_
 _atom_site_type_symbol
 _atom_site_label
 _atom_site_symmetry_multiplicity
 _atom_site_fract_x
 _atom_site_fract_y
 _atom_site_fract_z
 _atom_site_occupancy
  La  La0  1  0.350922  0.352984  0.346841  1
  La  La1  1  0.350922  0.352984  0.949254  1
  La  La2  1  0.358354  0.939652  0.350996  1
  Y  Y3  1  0.936510  0.359671  0.351909  1
  Y  Y4  1  0.808050  0.188657  0.187831  1
  Y  Y5  1  0.188008  0.808711  0.816689  1
  Y  Y6  1  0.188008  0.808711  0.186591  1
  Y  Y7  1  0.808050  0.188657  0.815462  1
  Y  Y8  1  0.189049  0.188179  0.811386  1
  Y  Y9  1  0.814661  0.811785  0.186777  1
  Y  Y10  1  0.935718  0.567819  0.562130  1
  Y  Y11  1  0.569047  0.935212  0.932398  1
  Y  Y12  1  0.569047  0.935212  0.563343  1
  Y  Y13  1  0.935718  0.567819  0.934334  1
  Y  Y14  1  0.566746  0.566862  0.933196  1
  Y  Y15  1  0.935017  0.935633  0.564675  1
  Cd  Cd16  1  0.586155  0.579618  0.581875  1
  Cd  Cd17  1  0.586155  0.579618  0.252352  1
  Cd  Cd18  1  0.585088  0.253278  0.580817  1
  Cd  Cd19  1  0.252574  0.581453  0.582987  1
  Ir  Ir20  1  0.137324  0.573758  0.144460  1
  Ir  Ir21  1  0.575113  0.138997  0.142946  1
  Pd  Pd22  1  0.136880  0.142364  0.147161  1
  Pd  Pd23  1  0.136880  0.142364  0.573593  1
