# generated using pymatgen
data_Ca2Sm3Bi3O14
_symmetry_space_group_name_H-M   'P 1'
_cell_length_a   7.54359045
_cell_length_b   7.54357741
_cell_length_c   7.54358400
_cell_angle_alpha   117.04996008
_cell_angle_beta   62.95006490
_cell_angle_gamma   117.04981983
_symmetry_Int_Tables_number   1
_chemical_formula_structural   Ca2Sm3Bi3O14
_chemical_formula_sum   'Ca2 Sm3 Bi3 O14'
_cell_volume   323.42929679
_cell_formula_units_Z   1
loop_
 _symmetry_equiv_pos_site_id
 _symmetry_equiv_pos_as_xyz
  1  'x, y, z'
loop_
 _atom_site_type_symbol
 _atom_site_label
 _atom_site_symmetry_multiplicity
 _atom_site_fract_x
 _atom_site_fract_y
 _atom_site_fract_z
 _atom_site_occupancy
  Ca  Ca0  1  0.499974  0.499967  0.999998  1
  Ca  Ca1  1  0.000004  0.999984  0.499991  1
  Sm  Sm2  1  0.999978  0.499987  0.000025  1
  Sm  Sm3  1  0.500021  0.000016  0.000024  1
  Sm  Sm4  1  0.500027  0.499981  0.499981  1
  Bi  Bi5  1  0.499971  0.000062  0.499950  1
  Bi  Bi6  1  0.999930  0.500043  0.499934  1
  Bi  Bi7  1  0.999960  0.000048  0.999975  1
  O  O8  1  0.626386  0.373608  0.126388  1
  O  O9  1  0.373602  0.626392  0.873604  1
  O  O10  1  0.090341  0.330725  0.169278  1
  O  O11  1  0.669285  0.909692  0.169284  1
  O  O12  1  0.669277  0.330726  0.590348  1
  O  O13  1  0.909670  0.669272  0.830733  1
  O  O14  1  0.330739  0.090350  0.830738  1
  O  O15  1  0.330730  0.669273  0.409673  1
  O  O16  1  0.639361  0.897520  0.602484  1
  O  O17  1  0.102481  0.360624  0.602481  1
  O  O18  1  0.102484  0.897520  0.139346  1
  O  O19  1  0.360677  0.102456  0.397556  1
  O  O20  1  0.897545  0.639302  0.397548  1
  O  O21  1  0.897556  0.102455  0.860661  1
