# generated using pymatgen
data_Er20Si12O
_symmetry_space_group_name_H-M   'P 1'
_cell_length_a   6.24598149
_cell_length_b   8.31922245
_cell_length_c   14.49529700
_cell_angle_alpha   90.00000689
_cell_angle_beta   90.00000000
_cell_angle_gamma   89.94050145
_symmetry_Int_Tables_number   1
_chemical_formula_structural   Er20Si12O
_chemical_formula_sum   'Er20 Si12 O1'
_cell_volume   753.20000529
_cell_formula_units_Z   1
loop_
 _symmetry_equiv_pos_site_id
 _symmetry_equiv_pos_as_xyz
  1  'x, y, z'
loop_
 _atom_site_type_symbol
 _atom_site_label
 _atom_site_symmetry_multiplicity
 _atom_site_fract_x
 _atom_site_fract_y
 _atom_site_fract_z
 _atom_site_occupancy
  Er  Er0  1  0.499987  0.000009  0.334191  1
  Er  Er1  1  0.500000  0.499993  0.831104  1
  Er  Er2  1  0.500000  0.499993  0.168896  1
  Er  Er3  1  0.499987  0.000009  0.665809  1
  Er  Er4  1  0.000011  0.499997  0.163112  1
  Er  Er5  1  0.000012  0.999996  0.669342  1
  Er  Er6  1  0.000012  0.999996  0.330658  1
  Er  Er7  1  0.000011  0.499997  0.836888  1
  Er  Er8  1  0.735911  0.235178  0.000000  1
  Er  Er9  1  0.750345  0.744305  0.500000  1
  Er  Er10  1  0.751383  0.378207  0.378803  1
  Er  Er11  1  0.740168  0.880740  0.882207  1
  Er  Er12  1  0.740168  0.880740  0.117793  1
  Er  Er13  1  0.751383  0.378207  0.621197  1
  Er  Er14  1  0.264082  0.764788  0.000000  1
  Er  Er15  1  0.249613  0.255701  0.500000  1
  Er  Er16  1  0.259828  0.119258  0.117792  1
  Er  Er17  1  0.248624  0.621811  0.621200  1
  Er  Er18  1  0.248624  0.621811  0.378800  1
  Er  Er19  1  0.259828  0.119258  0.882208  1
  Si  Si20  1  0.742611  0.602397  0.000000  1
  Si  Si21  1  0.752553  0.105837  0.500000  1
  Si  Si22  1  0.748559  0.197111  0.197536  1
  Si  Si23  1  0.751974  0.697071  0.698029  1
  Si  Si24  1  0.751974  0.697071  0.301971  1
  Si  Si25  1  0.748559  0.197111  0.802464  1
  Si  Si26  1  0.257388  0.397594  0.000000  1
  Si  Si27  1  0.247467  0.894169  0.500000  1
  Si  Si28  1  0.248032  0.302935  0.301970  1
  Si  Si29  1  0.251438  0.802886  0.802465  1
  Si  Si30  1  0.251438  0.802886  0.197535  1
  Si  Si31  1  0.248032  0.302935  0.698030  1
  O  O32  1  0.499998  0.000000  0.000000  1
