# generated using pymatgen
data_Zr4Cd2IrPd3
_symmetry_space_group_name_H-M   'P 1'
_cell_length_a   7.60680668
_cell_length_b   7.60680696
_cell_length_c   6.77022337
_cell_angle_alpha   90.20176161
_cell_angle_beta   89.79823477
_cell_angle_gamma   89.65483722
_symmetry_Int_Tables_number   1
_chemical_formula_structural   Zr4Cd2IrPd3
_chemical_formula_sum   'Zr8 Cd4 Ir2 Pd6'
_cell_volume   391.73689178
_cell_formula_units_Z   2
loop_
 _symmetry_equiv_pos_site_id
 _symmetry_equiv_pos_as_xyz
  1  'x, y, z'
loop_
 _atom_site_type_symbol
 _atom_site_label
 _atom_site_symmetry_multiplicity
 _atom_site_fract_x
 _atom_site_fract_y
 _atom_site_fract_z
 _atom_site_occupancy
  Zr  Zr0  1  0.653682  0.653682  0.500000  1
  Zr  Zr1  1  0.812879  0.187121  0.494309  1
  Zr  Zr2  1  0.678201  0.678201  0.000000  1
  Zr  Zr3  1  0.840482  0.159518  0.007490  1
  Zr  Zr4  1  0.187121  0.812879  0.505691  1
  Zr  Zr5  1  0.321799  0.321799  0.000000  1
  Zr  Zr6  1  0.159518  0.840482  0.992510  1
  Zr  Zr7  1  0.346318  0.346318  0.500000  1
  Cd  Cd8  1  0.000794  0.500446  0.250491  1
  Cd  Cd9  1  0.500446  0.000794  0.749509  1
  Cd  Cd10  1  0.499554  0.999206  0.250491  1
  Cd  Cd11  1  0.999206  0.499554  0.749509  1
  Ir  Ir12  1  0.626286  0.373714  0.230711  1
  Ir  Ir13  1  0.373714  0.626286  0.769289  1
  Pd  Pd14  1  0.871469  0.871244  0.722467  1
  Pd  Pd15  1  0.634136  0.365864  0.781914  1
  Pd  Pd16  1  0.365864  0.634136  0.218086  1
  Pd  Pd17  1  0.128531  0.128756  0.277533  1
  Pd  Pd18  1  0.871244  0.871469  0.277533  1
  Pd  Pd19  1  0.128756  0.128531  0.722467  1
