# generated using pymatgen
data_La3Pr3(PtBr3)2
_symmetry_space_group_name_H-M   'P 1'
_cell_length_a   10.67441112
_cell_length_b   10.68346640
_cell_length_c   10.68346506
_cell_angle_alpha   109.20897089
_cell_angle_beta   109.47118313
_cell_angle_gamma   109.76858456
_symmetry_Int_Tables_number   1
_chemical_formula_structural   La3Pr3(PtBr3)2
_chemical_formula_sum   'La6 Pr6 Pt4 Br12'
_cell_volume   937.45500669
_cell_formula_units_Z   2
loop_
 _symmetry_equiv_pos_site_id
 _symmetry_equiv_pos_as_xyz
  1  'x, y, z'
loop_
 _atom_site_type_symbol
 _atom_site_label
 _atom_site_symmetry_multiplicity
 _atom_site_fract_x
 _atom_site_fract_y
 _atom_site_fract_z
 _atom_site_occupancy
  La  La0  1  0.471804  0.487193  0.235497  1
  La  La1  1  0.744030  0.232782  0.261407  1
  La  La2  1  0.755970  0.017377  0.488752  1
  La  La3  1  0.232105  0.469282  0.488416  1
  La  La4  1  0.267895  0.756312  0.237178  1
  La  La5  1  0.028196  0.263692  0.015388  1
  Pr  Pr6  1  0.014373  0.027958  0.262719  1
  Pr  Pr7  1  0.485627  0.748346  0.013584  1
  Pr  Pr8  1  0.481613  0.235456  0.467511  1
  Pr  Pr9  1  0.018387  0.485899  0.753843  1
  Pr  Pr10  1  0.263812  0.014227  0.028461  1
  Pr  Pr11  1  0.236188  0.264648  0.750416  1
  Pt  Pt12  1  0.248601  0.251191  0.248292  1
  Pt  Pt13  1  0.501166  0.999461  0.249450  1
  Pt  Pt14  1  0.998834  0.248284  0.498295  1
  Pt  Pt15  1  0.251399  0.499691  0.002590  1
  Br  Br16  1  0.250779  0.755631  0.749088  1
  Br  Br17  1  0.508155  0.502347  0.754172  1
  Br  Br18  1  0.991845  0.746016  0.994191  1
  Br  Br19  1  0.745128  0.252035  0.752025  1
  Br  Br20  1  0.999926  0.991911  0.748172  1
  Br  Br21  1  0.249221  0.998310  0.504852  1
  Br  Br22  1  0.754872  0.506895  0.506907  1
  Br  Br23  1  0.500074  0.248247  0.991984  1
  Br  Br24  1  0.755778  0.747567  0.247321  1
  Br  Br25  1  0.744222  0.991543  0.991790  1
  Br  Br26  1  0.995449  0.503085  0.250064  1
  Br  Br27  1  0.504551  0.754615  0.507635  1
