# generated using pymatgen
data_Pa3Cu2Sn4Rh
_symmetry_space_group_name_H-M   'P 1'
_cell_length_a   8.22203921
_cell_length_b   8.22628206
_cell_length_c   8.22003100
_cell_angle_alpha   109.23893244
_cell_angle_beta   109.90667006
_cell_angle_gamma   109.29399918
_symmetry_Int_Tables_number   1
_chemical_formula_structural   Pa3Cu2Sn4Rh
_chemical_formula_sum   'Pa6 Cu4 Sn8 Rh2'
_cell_volume   427.84054849
_cell_formula_units_Z   2
loop_
 _symmetry_equiv_pos_site_id
 _symmetry_equiv_pos_as_xyz
  1  'x, y, z'
loop_
 _atom_site_type_symbol
 _atom_site_label
 _atom_site_symmetry_multiplicity
 _atom_site_fract_x
 _atom_site_fract_y
 _atom_site_fract_z
 _atom_site_occupancy
  Pa  Pa0  1  0.868578  0.745346  0.126722  1
  Pa  Pa1  1  0.118128  0.374997  0.248165  1
  Pa  Pa2  1  0.626681  0.245307  0.368613  1
  Pa  Pa3  1  0.748194  0.875013  0.618135  1
  Pa  Pa4  1  0.381532  0.129593  0.756536  1
  Pa  Pa5  1  0.256470  0.629560  0.881443  1
  Cu  Cu6  1  0.250843  0.125613  0.375219  1
  Cu  Cu7  1  0.374100  0.749373  0.624707  1
  Cu  Cu8  1  0.875188  0.625564  0.750868  1
  Cu  Cu9  1  0.124790  0.249387  0.874132  1
  Sn  Sn10  1  0.166192  0.999919  0.000129  1
  Sn  Sn11  1  0.675205  0.994848  0.991646  1
  Sn  Sn12  1  0.491493  0.494744  0.175111  1
  Sn  Sn13  1  0.323706  0.829012  0.331200  1
  Sn  Sn14  1  0.004506  0.676461  0.508344  1
  Sn  Sn15  1  0.008374  0.176626  0.504429  1
  Sn  Sn16  1  0.499981  0.499933  0.666161  1
  Sn  Sn17  1  0.831465  0.329191  0.823897  1
  Rh  Rh18  1  0.750111  0.374792  0.124621  1
  Rh  Rh19  1  0.624463  0.874722  0.249922  1
