# generated using pymatgen
data_Zr19Si16Mo
_symmetry_space_group_name_H-M   'P 1'
_cell_length_a   7.13145314
_cell_length_b   7.13145313
_cell_length_c   13.01411604
_cell_angle_alpha   89.93419265
_cell_angle_beta   90.06580726
_cell_angle_gamma   90.02670486
_symmetry_Int_Tables_number   1
_chemical_formula_structural   Zr19Si16Mo
_chemical_formula_sum   'Zr19 Si16 Mo1'
_cell_volume   661.86607344
_cell_formula_units_Z   1
loop_
 _symmetry_equiv_pos_site_id
 _symmetry_equiv_pos_as_xyz
  1  'x, y, z'
loop_
 _atom_site_type_symbol
 _atom_site_label
 _atom_site_symmetry_multiplicity
 _atom_site_fract_x
 _atom_site_fract_y
 _atom_site_fract_z
 _atom_site_occupancy
  Zr  Zr0  1  0.356682  0.503634  0.379156  1
  Zr  Zr1  1  0.853952  0.997821  0.374222  1
  Zr  Zr2  1  0.001538  0.145953  0.127456  1
  Zr  Zr3  1  0.997821  0.853952  0.625778  1
  Zr  Zr4  1  0.644359  0.499490  0.874705  1
  Zr  Zr5  1  0.503634  0.356682  0.620844  1
  Zr  Zr6  1  0.499490  0.644359  0.125295  1
  Zr  Zr7  1  0.145953  0.001538  0.872544  1
  Zr  Zr8  1  0.998985  0.650222  0.035660  1
  Zr  Zr9  1  0.999740  0.348734  0.534242  1
  Zr  Zr10  1  0.650222  0.998985  0.964340  1
  Zr  Zr11  1  0.149767  0.502744  0.783551  1
  Zr  Zr12  1  0.849103  0.499196  0.286452  1
  Zr  Zr13  1  0.502744  0.149767  0.216449  1
  Zr  Zr14  1  0.499196  0.849103  0.713548  1
  Zr  Zr15  1  0.348734  0.999740  0.465758  1
  Zr  Zr16  1  0.823704  0.176947  0.748353  1
  Zr  Zr17  1  0.176947  0.823704  0.251647  1
  Zr  Zr18  1  0.323517  0.323517  0.000000  1
  Si  Si19  1  0.045059  0.698072  0.438033  1
  Si  Si20  1  0.947795  0.300730  0.937251  1
  Si  Si21  1  0.698072  0.045059  0.561967  1
  Si  Si22  1  0.199655  0.447928  0.188562  1
  Si  Si23  1  0.797305  0.555242  0.683596  1
  Si  Si24  1  0.447928  0.199655  0.811438  1
  Si  Si25  1  0.555242  0.797305  0.316404  1
  Si  Si26  1  0.300730  0.947795  0.062749  1
  Si  Si27  1  0.853367  0.795241  0.822089  1
  Si  Si28  1  0.148276  0.204828  0.323218  1
  Si  Si29  1  0.795241  0.853367  0.177911  1
  Si  Si30  1  0.297306  0.647498  0.572854  1
  Si  Si31  1  0.704936  0.353295  0.071734  1
  Si  Si32  1  0.647498  0.297306  0.427146  1
  Si  Si33  1  0.353295  0.704936  0.928266  1
  Si  Si34  1  0.204828  0.148276  0.676782  1
  Mo  Mo35  1  0.677379  0.677379  0.500000  1
