# generated using pymatgen
data_EuMo2O7F
_symmetry_space_group_name_H-M   'P 1'
_cell_length_a   6.75832100
_cell_length_b   4.40934994
_cell_length_c   11.59956923
_cell_angle_alpha   89.51733534
_cell_angle_beta   90.00000000
_cell_angle_gamma   90.00000000
_symmetry_Int_Tables_number   1
_chemical_formula_structural   EuMo2O7F
_chemical_formula_sum   'Eu2 Mo4 O14 F2'
_cell_volume   345.65260440
_cell_formula_units_Z   2
loop_
 _symmetry_equiv_pos_site_id
 _symmetry_equiv_pos_as_xyz
  1  'x, y, z'
loop_
 _atom_site_type_symbol
 _atom_site_label
 _atom_site_symmetry_multiplicity
 _atom_site_fract_x
 _atom_site_fract_y
 _atom_site_fract_z
 _atom_site_occupancy
  Eu  Eu0  1  0.804121  0.000000  0.750000  1
  Eu  Eu1  1  0.195879  0.000000  0.250000  1
  Mo  Mo2  1  0.335793  0.900948  0.594504  1
  Mo  Mo3  1  0.335793  0.099052  0.905496  1
  Mo  Mo4  1  0.664207  0.099052  0.405496  1
  Mo  Mo5  1  0.664207  0.900948  0.094504  1
  O  O6  1  0.343864  0.508156  0.597184  1
  O  O7  1  0.343864  0.491844  0.902816  1
  O  O8  1  0.656136  0.491844  0.402816  1
  O  O9  1  0.656136  0.508156  0.097184  1
  O  O10  1  0.085328  0.985357  0.625562  1
  O  O11  1  0.085328  0.014643  0.874438  1
  O  O12  1  0.914672  0.014643  0.374438  1
  O  O13  1  0.914672  0.985357  0.125562  1
  O  O14  1  0.646547  0.000540  0.565379  1
  O  O15  1  0.646547  0.999460  0.934621  1
  O  O16  1  0.353453  0.999460  0.434621  1
  O  O17  1  0.353453  0.000540  0.065379  1
  O  O18  1  0.437894  0.000000  0.750000  1
  O  O19  1  0.562106  0.000000  0.250000  1
  F  F20  1  0.803090  0.500000  0.750000  1
  F  F21  1  0.196910  0.500000  0.250000  1
