# generated using pymatgen
data_SrLi6ThNpN6
_symmetry_space_group_name_H-M   'P 1'
_cell_length_a   6.30383200
_cell_length_b   6.30383150
_cell_length_c   5.47647100
_cell_angle_alpha   90.00000000
_cell_angle_beta   90.00000000
_cell_angle_gamma   120.00000395
_symmetry_Int_Tables_number   1
_chemical_formula_structural   SrLi6ThNpN6
_chemical_formula_sum   'Sr1 Li6 Th1 Np1 N6'
_cell_volume   188.46930670
_cell_formula_units_Z   1
loop_
 _symmetry_equiv_pos_site_id
 _symmetry_equiv_pos_as_xyz
  1  'x, y, z'
loop_
 _atom_site_type_symbol
 _atom_site_label
 _atom_site_symmetry_multiplicity
 _atom_site_fract_x
 _atom_site_fract_y
 _atom_site_fract_z
 _atom_site_occupancy
  Sr  Sr0  1  0.000000  0.000000  0.990985  1
  Li  Li1  1  0.904340  0.588961  0.585913  1
  Li  Li2  1  0.411039  0.315379  0.585913  1
  Li  Li3  1  0.684621  0.095660  0.585913  1
  Li  Li4  1  0.063005  0.365510  0.405985  1
  Li  Li5  1  0.634490  0.697496  0.405985  1
  Li  Li6  1  0.302504  0.936995  0.405985  1
  Th  Th7  1  0.333333  0.666667  0.969318  1
  Np  Np8  1  0.666667  0.333333  0.025339  1
  N  N9  1  0.986944  0.619827  0.231907  1
  N  N10  1  0.380173  0.367118  0.231907  1
  N  N11  1  0.632882  0.013056  0.231907  1
  N  N12  1  0.959948  0.354134  0.780981  1
  N  N13  1  0.645866  0.605813  0.780981  1
  N  N14  1  0.394187  0.040052  0.780981  1
