# generated using pymatgen
data_Lu2Mn9V3P7
_symmetry_space_group_name_H-M   'P 1'
_cell_length_a   9.39300500
_cell_length_b   9.39300443
_cell_length_c   3.52270000
_cell_angle_alpha   90.00000000
_cell_angle_beta   90.00000000
_cell_angle_gamma   120.00000553
_symmetry_Int_Tables_number   1
_chemical_formula_structural   Lu2Mn9V3P7
_chemical_formula_sum   'Lu2 Mn9 V3 P7'
_cell_volume   269.16299216
_cell_formula_units_Z   1
loop_
 _symmetry_equiv_pos_site_id
 _symmetry_equiv_pos_as_xyz
  1  'x, y, z'
loop_
 _atom_site_type_symbol
 _atom_site_label
 _atom_site_symmetry_multiplicity
 _atom_site_fract_x
 _atom_site_fract_y
 _atom_site_fract_z
 _atom_site_occupancy
  Lu  Lu0  1  0.666667  0.333333  0.000000  1
  Lu  Lu1  1  0.000000  0.000000  0.500000  1
  Mn  Mn2  1  0.764684  0.716791  0.000000  1
  Mn  Mn3  1  0.283209  0.047895  0.000000  1
  Mn  Mn4  1  0.952105  0.235316  0.000000  1
  Mn  Mn5  1  0.494015  0.946739  0.000000  1
  Mn  Mn6  1  0.053261  0.547275  0.000000  1
  Mn  Mn7  1  0.452725  0.505985  0.000000  1
  Mn  Mn8  1  0.718296  0.099004  0.500000  1
  Mn  Mn9  1  0.900996  0.619293  0.500000  1
  Mn  Mn10  1  0.380707  0.281704  0.500000  1
  V  V11  1  0.550217  0.760440  0.500000  1
  V  V12  1  0.239560  0.789778  0.500000  1
  V  V13  1  0.210222  0.449783  0.500000  1
  P  P14  1  0.460054  0.084848  0.500000  1
  P  P15  1  0.915152  0.375205  0.500000  1
  P  P16  1  0.624795  0.539946  0.500000  1
  P  P17  1  0.746889  0.954347  0.000000  1
  P  P18  1  0.045653  0.792543  0.000000  1
  P  P19  1  0.207457  0.253111  0.000000  1
  P  P20  1  0.333333  0.666667  0.000000  1
