# generated using pymatgen
data_K4LiTl(TcH9)3
_symmetry_space_group_name_H-M   'P 1'
_cell_length_a   10.14947852
_cell_length_b   10.13248089
_cell_length_c   5.43333200
_cell_angle_alpha   90.00000000
_cell_angle_beta   90.00000000
_cell_angle_gamma   123.29721605
_symmetry_Int_Tables_number   1
_chemical_formula_structural   K4LiTl(TcH9)3
_chemical_formula_sum   'K4 Li1 Tl1 Tc3 H27'
_cell_volume   467.03111760
_cell_formula_units_Z   1
loop_
 _symmetry_equiv_pos_site_id
 _symmetry_equiv_pos_as_xyz
  1  'x, y, z'
loop_
 _atom_site_type_symbol
 _atom_site_label
 _atom_site_symmetry_multiplicity
 _atom_site_fract_x
 _atom_site_fract_y
 _atom_site_fract_z
 _atom_site_occupancy
  K  K0  1  0.261557  0.979091  0.500000  1
  K  K1  1  0.994817  0.272918  0.500000  1
  K  K2  1  0.767097  0.761140  0.500000  1
  K  K3  1  0.379383  0.407227  0.000000  1
  Li  Li4  1  0.724090  0.388931  0.000000  1
  Tl  Tl5  1  0.565646  0.925834  0.000000  1
  Tc  Tc6  1  0.009550  0.013549  0.000000  1
  Tc  Tc7  1  0.354356  0.663950  0.500000  1
  Tc  Tc8  1  0.673117  0.354474  0.500000  1
  H  H9  1  0.877829  0.014970  0.191357  1
  H  H10  1  0.016601  0.883398  0.182338  1
  H  H11  1  0.877829  0.014970  0.808643  1
  H  H12  1  0.016601  0.883398  0.817662  1
  H  H13  1  0.095317  0.097185  0.266908  1
  H  H14  1  0.095317  0.097185  0.733092  1
  H  H15  1  0.200779  0.070386  0.000000  1
  H  H16  1  0.061858  0.204740  0.000000  1
  H  H17  1  0.840788  0.836886  0.000000  1
  H  H18  1  0.250651  0.558519  0.256627  1
  H  H19  1  0.485409  0.674354  0.286356  1
  H  H20  1  0.250651  0.558519  0.743373  1
  H  H21  1  0.551527  0.240131  0.730533  1
  H  H22  1  0.323374  0.769741  0.295404  1
  H  H23  1  0.485409  0.674354  0.713644  1
  H  H24  1  0.684900  0.482785  0.715480  1
  H  H25  1  0.551527  0.240131  0.269467  1
  H  H26  1  0.323374  0.769741  0.704596  1
  H  H27  1  0.684900  0.482785  0.284520  1
  H  H28  1  0.794341  0.346302  0.705640  1
  H  H29  1  0.794341  0.346302  0.294360  1
  H  H30  1  0.329920  0.485127  0.500000  1
  H  H31  1  0.512813  0.849721  0.500000  1
  H  H32  1  0.506636  0.350508  0.500000  1
  H  H33  1  0.167198  0.607255  0.500000  1
  H  H34  1  0.850910  0.518932  0.500000  1
  H  H35  1  0.639590  0.174561  0.500000  1
