# generated using pymatgen
data_Tm4Zr2FeTe2
_symmetry_space_group_name_H-M   'P 1'
_cell_length_a   8.12920695
_cell_length_b   8.12920693
_cell_length_c   3.85896500
_cell_angle_alpha   90.00000000
_cell_angle_beta   90.00000000
_cell_angle_gamma   120.91111106
_symmetry_Int_Tables_number   1
_chemical_formula_structural   Tm4Zr2FeTe2
_chemical_formula_sum   'Tm4 Zr2 Fe1 Te2'
_cell_volume   218.79476286
_cell_formula_units_Z   1
loop_
 _symmetry_equiv_pos_site_id
 _symmetry_equiv_pos_as_xyz
  1  'x, y, z'
loop_
 _atom_site_type_symbol
 _atom_site_label
 _atom_site_symmetry_multiplicity
 _atom_site_fract_x
 _atom_site_fract_y
 _atom_site_fract_z
 _atom_site_occupancy
  Tm  Tm0  1  0.765177  0.765177  0.500000  1
  Tm  Tm1  1  0.003359  0.602308  0.000000  1
  Tm  Tm2  1  0.602308  0.003359  0.000000  1
  Tm  Tm3  1  0.380293  0.380293  0.000000  1
  Zr  Zr4  1  0.224319  0.991329  0.500000  1
  Zr  Zr5  1  0.991329  0.224319  0.500000  1
  Fe  Fe6  1  0.039305  0.039305  0.000000  1
  Te  Te7  1  0.664354  0.329556  0.500000  1
  Te  Te8  1  0.329556  0.664354  0.500000  1
