# generated using pymatgen
data_Sr2Yb(PrPt2)2
_symmetry_space_group_name_H-M   'P 1'
_cell_length_a   7.85683100
_cell_length_b   7.97680900
_cell_length_c   15.25981400
_cell_angle_alpha   90.00000000
_cell_angle_beta   90.00000000
_cell_angle_gamma   90.00000000
_symmetry_Int_Tables_number   1
_chemical_formula_structural   Sr2Yb(PrPt2)2
_chemical_formula_sum   'Sr8 Yb4 Pr8 Pt16'
_cell_volume   956.36978087
_cell_formula_units_Z   4
loop_
 _symmetry_equiv_pos_site_id
 _symmetry_equiv_pos_as_xyz
  1  'x, y, z'
loop_
 _atom_site_type_symbol
 _atom_site_label
 _atom_site_symmetry_multiplicity
 _atom_site_fract_x
 _atom_site_fract_y
 _atom_site_fract_z
 _atom_site_occupancy
  Sr  Sr0  1  0.497042  0.321243  0.901725  1
  Sr  Sr1  1  0.997042  0.178757  0.598275  1
  Sr  Sr2  1  0.502958  0.678757  0.401725  1
  Sr  Sr3  1  0.002958  0.821243  0.098275  1
  Sr  Sr4  1  0.502958  0.678757  0.098275  1
  Sr  Sr5  1  0.002958  0.821243  0.401725  1
  Sr  Sr6  1  0.497042  0.321243  0.598275  1
  Sr  Sr7  1  0.997042  0.178757  0.901725  1
  Yb  Yb8  1  0.178113  0.488736  0.750000  1
  Yb  Yb9  1  0.678113  0.011264  0.750000  1
  Yb  Yb10  1  0.821887  0.511264  0.250000  1
  Yb  Yb11  1  0.321887  0.988736  0.250000  1
  Pr  Pr12  1  0.340139  0.833093  0.876998  1
  Pr  Pr13  1  0.840139  0.666907  0.623002  1
  Pr  Pr14  1  0.659861  0.166907  0.376999  1
  Pr  Pr15  1  0.159861  0.333093  0.123001  1
  Pr  Pr16  1  0.659861  0.166907  0.123001  1
  Pr  Pr17  1  0.159861  0.333093  0.376999  1
  Pr  Pr18  1  0.340139  0.833093  0.623002  1
  Pr  Pr19  1  0.840139  0.666907  0.876998  1
  Pt  Pt20  1  0.333207  0.038769  0.044621  1
  Pt  Pt21  1  0.833207  0.461231  0.455379  1
  Pt  Pt22  1  0.666793  0.961231  0.544621  1
  Pt  Pt23  1  0.166793  0.538769  0.955379  1
  Pt  Pt24  1  0.666793  0.961231  0.955379  1
  Pt  Pt25  1  0.166793  0.538769  0.544621  1
  Pt  Pt26  1  0.333207  0.038769  0.455379  1
  Pt  Pt27  1  0.833207  0.461231  0.044621  1
  Pt  Pt28  1  0.541913  0.626259  0.750000  1
  Pt  Pt29  1  0.041913  0.873741  0.750000  1
  Pt  Pt30  1  0.458087  0.373741  0.250000  1
  Pt  Pt31  1  0.958087  0.126259  0.250000  1
  Pt  Pt32  1  0.303545  0.124339  0.750000  1
  Pt  Pt33  1  0.803545  0.375661  0.750000  1
  Pt  Pt34  1  0.696455  0.875661  0.250000  1
  Pt  Pt35  1  0.196455  0.624339  0.250000  1
