# generated using pymatgen
data_BaCeThS5
_symmetry_space_group_name_H-M   'P 1'
_cell_length_a   7.64725600
_cell_length_b   8.54969530
_cell_length_c   12.13775822
_cell_angle_alpha   90.34765152
_cell_angle_beta   90.00000000
_cell_angle_gamma   90.00000000
_symmetry_Int_Tables_number   1
_chemical_formula_structural   BaCeThS5
_chemical_formula_sum   'Ba4 Ce4 Th4 S20'
_cell_volume   793.57276376
_cell_formula_units_Z   4
loop_
 _symmetry_equiv_pos_site_id
 _symmetry_equiv_pos_as_xyz
  1  'x, y, z'
loop_
 _atom_site_type_symbol
 _atom_site_label
 _atom_site_symmetry_multiplicity
 _atom_site_fract_x
 _atom_site_fract_y
 _atom_site_fract_z
 _atom_site_occupancy
  Ba  Ba0  1  0.955343  0.507402  0.830586  1
  Ba  Ba1  1  0.455343  0.492598  0.669414  1
  Ba  Ba2  1  0.044657  0.492598  0.169414  1
  Ba  Ba3  1  0.544657  0.507402  0.330586  1
  Ce  Ce4  1  0.566475  0.246600  0.007796  1
  Ce  Ce5  1  0.933525  0.246600  0.507796  1
  Ce  Ce6  1  0.433525  0.753400  0.992204  1
  Ce  Ce7  1  0.066475  0.753400  0.492204  1
  Th  Th8  1  0.520297  0.001621  0.320988  1
  Th  Th9  1  0.020297  0.998379  0.179012  1
  Th  Th10  1  0.479703  0.998379  0.679012  1
  Th  Th11  1  0.979703  0.001621  0.820988  1
  S  S12  1  0.841510  0.959513  0.599683  1
  S  S13  1  0.833064  0.784099  0.313633  1
  S  S14  1  0.666936  0.784099  0.813633  1
  S  S15  1  0.166936  0.215901  0.686367  1
  S  S16  1  0.550815  0.211034  0.503141  1
  S  S17  1  0.050815  0.788966  0.996859  1
  S  S18  1  0.449185  0.788966  0.496859  1
  S  S19  1  0.949185  0.211034  0.003141  1
  S  S20  1  0.191846  0.774784  0.712735  1
  S  S21  1  0.691846  0.225216  0.787265  1
  S  S22  1  0.808154  0.225216  0.287265  1
  S  S23  1  0.658490  0.959513  0.099683  1
  S  S24  1  0.832509  0.534259  0.578075  1
  S  S25  1  0.332509  0.465741  0.921925  1
  S  S26  1  0.167491  0.465741  0.421925  1
  S  S27  1  0.667491  0.534259  0.078075  1
  S  S28  1  0.308154  0.774784  0.212735  1
  S  S29  1  0.341510  0.040487  0.900317  1
  S  S30  1  0.158490  0.040487  0.400317  1
  S  S31  1  0.333064  0.215901  0.186367  1
