# generated using pymatgen
data_Mn3Nb2Fe
_symmetry_space_group_name_H-M   'P 1'
_cell_length_a   4.77620300
_cell_length_b   4.77620264
_cell_length_c   7.99122300
_cell_angle_alpha   90.00000000
_cell_angle_beta   90.00000000
_cell_angle_gamma   119.99999560
_symmetry_Int_Tables_number   1
_chemical_formula_structural   Mn3Nb2Fe
_chemical_formula_sum   'Mn6 Nb4 Fe2'
_cell_volume   157.87356720
_cell_formula_units_Z   2
loop_
 _symmetry_equiv_pos_site_id
 _symmetry_equiv_pos_as_xyz
  1  'x, y, z'
loop_
 _atom_site_type_symbol
 _atom_site_label
 _atom_site_symmetry_multiplicity
 _atom_site_fract_x
 _atom_site_fract_y
 _atom_site_fract_z
 _atom_site_occupancy
  Mn  Mn0  1  0.828184  0.171816  0.250000  1
  Mn  Mn1  1  0.828184  0.656367  0.250000  1
  Mn  Mn2  1  0.343633  0.171816  0.250000  1
  Mn  Mn3  1  0.171816  0.828184  0.750000  1
  Mn  Mn4  1  0.171816  0.343633  0.750000  1
  Mn  Mn5  1  0.656367  0.828184  0.750000  1
  Nb  Nb6  1  0.333333  0.666667  0.435242  1
  Nb  Nb7  1  0.666667  0.333333  0.564758  1
  Nb  Nb8  1  0.666667  0.333333  0.935242  1
  Nb  Nb9  1  0.333333  0.666667  0.064758  1
  Fe  Fe10  1  0.000000  0.000000  0.500000  1
  Fe  Fe11  1  0.000000  0.000000  0.000000  1
