# generated using pymatgen
data_MgAlInF6
_symmetry_space_group_name_H-M   'P 1'
_cell_length_a   7.13391748
_cell_length_b   7.13391799
_cell_length_c   7.13391786
_cell_angle_alpha   120.13768601
_cell_angle_beta   118.79985327
_cell_angle_gamma   90.92644993
_symmetry_Int_Tables_number   1
_chemical_formula_structural   MgAlInF6
_chemical_formula_sum   'Mg2 Al2 In2 F12'
_cell_volume   258.70722197
_cell_formula_units_Z   2
loop_
 _symmetry_equiv_pos_site_id
 _symmetry_equiv_pos_as_xyz
  1  'x, y, z'
loop_
 _atom_site_type_symbol
 _atom_site_label
 _atom_site_symmetry_multiplicity
 _atom_site_fract_x
 _atom_site_fract_y
 _atom_site_fract_z
 _atom_site_occupancy
  Mg  Mg0  1  0.500000  0.500000  0.000000  1
  Mg  Mg1  1  0.000000  0.500000  0.500000  1
  Al  Al2  1  0.000000  0.500000  0.000000  1
  Al  Al3  1  0.000000  0.000000  0.500000  1
  In  In4  1  0.600983  0.850983  0.750000  1
  In  In5  1  0.399017  0.149017  0.250000  1
  F  F6  1  0.050591  0.800591  0.250000  1
  F  F7  1  0.660517  0.410517  0.250000  1
  F  F8  1  0.054450  0.831297  0.631684  1
  F  F9  1  0.699611  0.422765  0.868316  1
  F  F10  1  0.699611  0.831297  0.276846  1
  F  F11  1  0.054450  0.422765  0.223154  1
  F  F12  1  0.949409  0.199409  0.750000  1
  F  F13  1  0.339483  0.589483  0.750000  1
  F  F14  1  0.945550  0.168703  0.368316  1
  F  F15  1  0.300389  0.577235  0.131684  1
  F  F16  1  0.300389  0.168703  0.723154  1
  F  F17  1  0.945550  0.577235  0.776846  1
