# generated using pymatgen
data_Ba20Bi8As3Rh
_symmetry_space_group_name_H-M   'P 1'
_cell_length_a   9.22803749
_cell_length_b   10.54074200
_cell_length_c   14.23119859
_cell_angle_alpha   90.00000000
_cell_angle_beta   90.38790023
_cell_angle_gamma   90.00000000
_symmetry_Int_Tables_number   1
_chemical_formula_structural   Ba20Bi8As3Rh
_chemical_formula_sum   'Ba20 Bi8 As3 Rh1'
_cell_volume   1384.24211928
_cell_formula_units_Z   1
loop_
 _symmetry_equiv_pos_site_id
 _symmetry_equiv_pos_as_xyz
  1  'x, y, z'
loop_
 _atom_site_type_symbol
 _atom_site_label
 _atom_site_symmetry_multiplicity
 _atom_site_fract_x
 _atom_site_fract_y
 _atom_site_fract_z
 _atom_site_occupancy
  Ba  Ba0  1  0.049002  0.750000  0.497944  1
  Ba  Ba1  1  0.950185  0.250000  0.499793  1
  Ba  Ba2  1  0.544022  0.250000  0.999239  1
  Ba  Ba3  1  0.461407  0.750000  0.997333  1
  Ba  Ba4  1  0.870121  0.750000  0.809560  1
  Ba  Ba5  1  0.144051  0.250000  0.198823  1
  Ba  Ba6  1  0.353872  0.250000  0.701278  1
  Ba  Ba7  1  0.644822  0.750000  0.302073  1
  Ba  Ba8  1  0.684039  0.532016  0.579685  1
  Ba  Ba9  1  0.317117  0.469267  0.422324  1
  Ba  Ba10  1  0.179301  0.480422  0.927990  1
  Ba  Ba11  1  0.317117  0.030733  0.422324  1
  Ba  Ba12  1  0.815960  0.530157  0.074554  1
  Ba  Ba13  1  0.684039  0.967984  0.579685  1
  Ba  Ba14  1  0.815960  0.969843  0.074554  1
  Ba  Ba15  1  0.179301  0.019578  0.927990  1
  Ba  Ba16  1  0.332432  0.750000  0.713671  1
  Ba  Ba17  1  0.667334  0.250000  0.286682  1
  Ba  Ba18  1  0.834096  0.250000  0.789190  1
  Ba  Ba19  1  0.158638  0.750000  0.198615  1
  Bi  Bi20  1  0.564662  0.505642  0.828695  1
  Bi  Bi21  1  0.435416  0.493872  0.170320  1
  Bi  Bi22  1  0.062283  0.493023  0.671209  1
  Bi  Bi23  1  0.435416  0.006128  0.170320  1
  Bi  Bi24  1  0.937597  0.507159  0.327934  1
  Bi  Bi25  1  0.564662  0.994358  0.828695  1
  Bi  Bi26  1  0.937597  0.992841  0.327934  1
  Bi  Bi27  1  0.062283  0.006977  0.671209  1
  As  As28  1  0.935237  0.250000  0.011692  1
  As  As29  1  0.562891  0.250000  0.510832  1
  As  As30  1  0.435880  0.750000  0.490236  1
  Rh  Rh31  1  0.063257  0.750000  0.987620  1
