# generated using pymatgen
data_MnNi(AuO2)2
_symmetry_space_group_name_H-M   'P 1'
_cell_length_a   3.10505336
_cell_length_b   5.25572152
_cell_length_c   6.38281399
_cell_angle_alpha   82.82017764
_cell_angle_beta   75.85075647
_cell_angle_gamma   89.96571709
_symmetry_Int_Tables_number   1
_chemical_formula_structural   MnNi(AuO2)2
_chemical_formula_sum   'Mn1 Ni1 Au2 O4'
_cell_volume   100.16239013
_cell_formula_units_Z   1
loop_
 _symmetry_equiv_pos_site_id
 _symmetry_equiv_pos_as_xyz
  1  'x, y, z'
loop_
 _atom_site_type_symbol
 _atom_site_label
 _atom_site_symmetry_multiplicity
 _atom_site_fract_x
 _atom_site_fract_y
 _atom_site_fract_z
 _atom_site_occupancy
  Mn  Mn0  1  0.750066  0.249930  0.499968  1
  Ni  Ni1  1  0.249987  0.750039  0.500001  1
  Au  Au2  1  0.497959  0.494528  0.996804  1
  Au  Au3  1  0.002029  0.005474  0.003206  1
  O  O4  1  0.167232  0.066467  0.668339  1
  O  O5  1  0.667907  0.544869  0.662375  1
  O  O6  1  0.332749  0.433547  0.331668  1
  O  O7  1  0.832073  0.955145  0.337638  1
