# generated using pymatgen
data_ThVBr9
_symmetry_space_group_name_H-M   'P 1'
_cell_length_a   8.01030898
_cell_length_b   10.47395381
_cell_length_c   11.02923913
_cell_angle_alpha   102.29013436
_cell_angle_beta   96.01947550
_cell_angle_gamma   95.53980398
_symmetry_Int_Tables_number   1
_chemical_formula_structural   ThVBr9
_chemical_formula_sum   'Th2 V2 Br18'
_cell_volume   892.40452801
_cell_formula_units_Z   2
loop_
 _symmetry_equiv_pos_site_id
 _symmetry_equiv_pos_as_xyz
  1  'x, y, z'
loop_
 _atom_site_type_symbol
 _atom_site_label
 _atom_site_symmetry_multiplicity
 _atom_site_fract_x
 _atom_site_fract_y
 _atom_site_fract_z
 _atom_site_occupancy
  Th  Th0  1  0.383300  0.354496  0.315899  1
  Th  Th1  1  0.616700  0.645504  0.684101  1
  V  V2  1  0.054426  0.195454  0.778296  1
  V  V3  1  0.945574  0.804546  0.221704  1
  Br  Br4  1  0.958095  0.730103  0.768326  1
  Br  Br5  1  0.825082  0.607258  0.110281  1
  Br  Br6  1  0.368843  0.571403  0.201636  1
  Br  Br7  1  0.631157  0.428597  0.798364  1
  Br  Br8  1  0.411561  0.149546  0.441195  1
  Br  Br9  1  0.588439  0.850454  0.558805  1
  Br  Br10  1  0.041905  0.269897  0.231674  1
  Br  Br11  1  0.479311  0.786246  0.886053  1
  Br  Br12  1  0.520689  0.213754  0.113947  1
  Br  Br13  1  0.279135  0.518403  0.548000  1
  Br  Br14  1  0.149292  0.885160  0.123588  1
  Br  Br15  1  0.720865  0.481597  0.452000  1
  Br  Br16  1  0.943702  0.211542  0.587584  1
  Br  Br17  1  0.056298  0.788458  0.412416  1
  Br  Br18  1  0.253882  0.058704  0.760231  1
  Br  Br19  1  0.746118  0.941296  0.239769  1
  Br  Br20  1  0.850708  0.114840  0.876412  1
  Br  Br21  1  0.174918  0.392742  0.889719  1
