# generated using pymatgen
data_Sr7PaSb6
_symmetry_space_group_name_H-M   'P 1'
_cell_length_a   8.65139568
_cell_length_b   8.65139585
_cell_length_c   8.65139510
_cell_angle_alpha   109.81332093
_cell_angle_beta   109.81332620
_cell_angle_gamma   109.81332649
_symmetry_Int_Tables_number   1
_chemical_formula_structural   Sr7PaSb6
_chemical_formula_sum   'Sr7 Pa1 Sb6'
_cell_volume   492.05239120
_cell_formula_units_Z   1
loop_
 _symmetry_equiv_pos_site_id
 _symmetry_equiv_pos_as_xyz
  1  'x, y, z'
loop_
 _atom_site_type_symbol
 _atom_site_label
 _atom_site_symmetry_multiplicity
 _atom_site_fract_x
 _atom_site_fract_y
 _atom_site_fract_z
 _atom_site_occupancy
  Sr  Sr0  1  0.495909  0.003023  0.863058  1
  Sr  Sr1  1  0.863058  0.495909  0.003023  1
  Sr  Sr2  1  0.143130  0.143130  0.143130  1
  Sr  Sr3  1  0.003023  0.863058  0.495909  1
  Sr  Sr4  1  0.498084  0.999685  0.354596  1
  Sr  Sr5  1  0.999685  0.354596  0.498084  1
  Sr  Sr6  1  0.354596  0.498084  0.999685  1
  Pa  Pa7  1  0.647997  0.647997  0.647997  1
  Sb  Sb8  1  0.742623  0.862343  0.101700  1
  Sb  Sb9  1  0.390123  0.270112  0.627618  1
  Sb  Sb10  1  0.270112  0.627618  0.390123  1
  Sb  Sb11  1  0.862343  0.101700  0.742623  1
  Sb  Sb12  1  0.627618  0.390123  0.270112  1
  Sb  Sb13  1  0.101700  0.742623  0.862343  1
