# generated using pymatgen
data_Ga2Mo12Pt3Rh3N4
_symmetry_space_group_name_H-M   'P 1'
_cell_length_a   6.86945798
_cell_length_b   6.85657634
_cell_length_c   6.86623362
_cell_angle_alpha   89.55801046
_cell_angle_beta   89.95987890
_cell_angle_gamma   89.95338205
_symmetry_Int_Tables_number   1
_chemical_formula_structural   Ga2Mo12Pt3Rh3N4
_chemical_formula_sum   'Ga2 Mo12 Pt3 Rh3 N4'
_cell_volume   323.39640847
_cell_formula_units_Z   1
loop_
 _symmetry_equiv_pos_site_id
 _symmetry_equiv_pos_as_xyz
  1  'x, y, z'
loop_
 _atom_site_type_symbol
 _atom_site_label
 _atom_site_symmetry_multiplicity
 _atom_site_fract_x
 _atom_site_fract_y
 _atom_site_fract_z
 _atom_site_occupancy
  Ga  Ga0  1  0.684445  0.178216  0.934705  1
  Ga  Ga1  1  0.186719  0.824051  0.062077  1
  Mo  Mo2  1  0.619346  0.046877  0.544305  1
  Mo  Mo3  1  0.119923  0.955252  0.456398  1
  Mo  Mo4  1  0.868392  0.539168  0.944260  1
  Mo  Mo5  1  0.370670  0.459160  0.052799  1
  Mo  Mo6  1  0.204526  0.624316  0.701111  1
  Mo  Mo7  1  0.299813  0.122831  0.788727  1
  Mo  Mo8  1  0.798203  0.878401  0.211235  1
  Mo  Mo9  1  0.701994  0.375354  0.300863  1
  Mo  Mo10  1  0.046592  0.206160  0.127805  1
  Mo  Mo11  1  0.959104  0.300885  0.626354  1
  Mo  Mo12  1  0.548766  0.791476  0.870885  1
  Mo  Mo13  1  0.461218  0.697125  0.376111  1
  Pt  Pt14  1  0.810434  0.688044  0.567744  1
  Pt  Pt15  1  0.312835  0.311526  0.434524  1
  Pt  Pt16  1  0.062344  0.572432  0.298734  1
  Rh  Rh17  1  0.437439  0.060611  0.175203  1
  Rh  Rh18  1  0.561306  0.429228  0.700885  1
  Rh  Rh19  1  0.936408  0.939235  0.825548  1
  N  N20  1  0.375536  0.872060  0.619398  1
  N  N21  1  0.875097  0.127952  0.380576  1
  N  N22  1  0.129561  0.374704  0.875151  1
  N  N23  1  0.629330  0.624939  0.124602  1
