# generated using pymatgen
data_La9Y(Ga2Sn)2
_symmetry_space_group_name_H-M   'P 1'
_cell_length_a   8.23033100
_cell_length_b   8.23033100
_cell_length_c   14.61043000
_cell_angle_alpha   90.00000000
_cell_angle_beta   90.00000000
_cell_angle_gamma   90.00000000
_symmetry_Int_Tables_number   1
_chemical_formula_structural   La9Y(Ga2Sn)2
_chemical_formula_sum   'La18 Y2 Ga8 Sn4'
_cell_volume   989.68639717
_cell_formula_units_Z   2
loop_
 _symmetry_equiv_pos_site_id
 _symmetry_equiv_pos_as_xyz
  1  'x, y, z'
loop_
 _atom_site_type_symbol
 _atom_site_label
 _atom_site_symmetry_multiplicity
 _atom_site_fract_x
 _atom_site_fract_y
 _atom_site_fract_z
 _atom_site_occupancy
  La  La0  1  0.333999  0.322633  0.104611  1
  La  La1  1  0.833999  0.822633  0.895389  1
  La  La2  1  0.835044  0.172607  0.394054  1
  La  La3  1  0.166001  0.177367  0.895389  1
  La  La4  1  0.666001  0.677367  0.104611  1
  La  La5  1  0.000000  0.500000  0.721226  1
  La  La6  1  0.827393  0.835044  0.605946  1
  La  La7  1  0.327393  0.335044  0.394054  1
  La  La8  1  0.177367  0.833999  0.104611  1
  La  La9  1  0.172607  0.164956  0.605946  1
  La  La10  1  0.822633  0.166001  0.104611  1
  La  La11  1  0.335044  0.672607  0.605946  1
  La  La12  1  0.500000  0.000000  0.278774  1
  La  La13  1  0.677367  0.333999  0.895389  1
  La  La14  1  0.664956  0.327393  0.605946  1
  La  La15  1  0.322633  0.666001  0.895389  1
  La  La16  1  0.164956  0.827393  0.394054  1
  La  La17  1  0.672607  0.664956  0.394054  1
  Y  Y18  1  0.500000  0.000000  0.760461  1
  Y  Y19  1  0.000000  0.500000  0.239539  1
  Ga  Ga20  1  0.626015  0.379973  0.247372  1
  Ga  Ga21  1  0.873985  0.120027  0.752628  1
  Ga  Ga22  1  0.879973  0.873985  0.247372  1
  Ga  Ga23  1  0.126015  0.879973  0.752628  1
  Ga  Ga24  1  0.379973  0.373985  0.752628  1
  Ga  Ga25  1  0.120027  0.126015  0.247372  1
  Ga  Ga26  1  0.373985  0.620027  0.247372  1
  Ga  Ga27  1  0.620027  0.626015  0.752628  1
  Sn  Sn28  1  0.500000  0.000000  0.505756  1
  Sn  Sn29  1  0.000000  0.500000  0.009111  1
  Sn  Sn30  1  0.500000  0.000000  0.990889  1
  Sn  Sn31  1  0.000000  0.500000  0.494244  1
