# generated using pymatgen
data_Dy8Sc12GaSi14P
_symmetry_space_group_name_H-M   'P 1'
_cell_length_a   7.09279431
_cell_length_b   7.37368942
_cell_length_c   13.99199742
_cell_angle_alpha   89.95584195
_cell_angle_beta   89.99907742
_cell_angle_gamma   90.15117701
_symmetry_Int_Tables_number   1
_chemical_formula_structural   Dy8Sc12GaSi14P
_chemical_formula_sum   'Dy8 Sc12 Ga1 Si14 P1'
_cell_volume   731.77957302
_cell_formula_units_Z   1
loop_
 _symmetry_equiv_pos_site_id
 _symmetry_equiv_pos_as_xyz
  1  'x, y, z'
loop_
 _atom_site_type_symbol
 _atom_site_label
 _atom_site_symmetry_multiplicity
 _atom_site_fract_x
 _atom_site_fract_y
 _atom_site_fract_z
 _atom_site_occupancy
  Dy  Dy0  1  0.009906  0.174544  0.096634  1
  Dy  Dy1  1  0.991319  0.827741  0.901094  1
  Dy  Dy2  1  0.489634  0.675557  0.904466  1
  Dy  Dy3  1  0.990413  0.829229  0.600617  1
  Dy  Dy4  1  0.511532  0.323938  0.096094  1
  Dy  Dy5  1  0.009227  0.173436  0.401636  1
  Dy  Dy6  1  0.512757  0.323346  0.401753  1
  Dy  Dy7  1  0.491821  0.677918  0.597143  1
  Sc  Sc8  1  0.160288  0.502002  0.752128  1
  Sc  Sc9  1  0.838572  0.497664  0.249660  1
  Sc  Sc10  1  0.338689  0.002168  0.249337  1
  Sc  Sc11  1  0.663164  0.998462  0.750461  1
  Sc  Sc12  1  0.328953  0.169952  0.628595  1
  Sc  Sc13  1  0.667251  0.824457  0.374799  1
  Sc  Sc14  1  0.168843  0.677305  0.373399  1
  Sc  Sc15  1  0.668541  0.823826  0.124266  1
  Sc  Sc16  1  0.829993  0.324479  0.626854  1
  Sc  Sc17  1  0.326572  0.171648  0.873087  1
  Sc  Sc18  1  0.831858  0.323281  0.874049  1
  Sc  Sc19  1  0.167649  0.676838  0.124847  1
  Ga  Ga20  1  0.160223  0.461298  0.539556  1
  Si  Si21  1  0.964370  0.882579  0.249193  1
  Si  Si22  1  0.466864  0.615146  0.249416  1
  Si  Si23  1  0.530520  0.383392  0.750291  1
  Si  Si24  1  0.296380  0.862730  0.751008  1
  Si  Si25  1  0.713759  0.126218  0.248995  1
  Si  Si26  1  0.214239  0.372779  0.249035  1
  Si  Si27  1  0.787680  0.628840  0.751267  1
  Si  Si28  1  0.841907  0.536866  0.461040  1
  Si  Si29  1  0.340103  0.964675  0.460455  1
  Si  Si30  1  0.842231  0.535883  0.037919  1
  Si  Si31  1  0.658787  0.037511  0.539753  1
  Si  Si32  1  0.157189  0.463077  0.961177  1
  Si  Si33  1  0.659038  0.036821  0.959906  1
  Si  Si34  1  0.340442  0.964930  0.039317  1
  P  P35  1  0.029286  0.129463  0.750754  1
