# generated using pymatgen
data_Cs4Zn51
_symmetry_space_group_name_H-M   'P 1'
_cell_length_a   8.82168500
_cell_length_b   8.82168506
_cell_length_c   15.17387800
_cell_angle_alpha   73.10093810
_cell_angle_beta   90.00000000
_cell_angle_gamma   119.99999602
_symmetry_Int_Tables_number   1
_chemical_formula_structural   Cs4Zn51
_chemical_formula_sum   'Cs4 Zn51'
_cell_volume   963.32797191
_cell_formula_units_Z   1
loop_
 _symmetry_equiv_pos_site_id
 _symmetry_equiv_pos_as_xyz
  1  'x, y, z'
loop_
 _atom_site_type_symbol
 _atom_site_label
 _atom_site_symmetry_multiplicity
 _atom_site_fract_x
 _atom_site_fract_y
 _atom_site_fract_z
 _atom_site_occupancy
  Cs  Cs0  1  0.875538  0.751076  0.373385  1
  Cs  Cs1  1  0.374310  0.748620  0.877070  1
  Cs  Cs2  1  0.624462  0.248924  0.126615  1
  Cs  Cs3  1  0.125690  0.251380  0.622930  1
  Zn  Zn4  1  0.333241  0.437914  0.106138  1
  Zn  Zn5  1  0.841107  0.440130  0.600134  1
  Zn  Zn6  1  0.166759  0.562086  0.393862  1
  Zn  Zn7  1  0.658893  0.559870  0.899866  1
  Zn  Zn8  1  0.992718  0.211430  0.219013  1
  Zn  Zn9  1  0.483363  0.201918  0.719628  1
  Zn  Zn10  1  0.507282  0.788571  0.280987  1
  Zn  Zn11  1  0.016637  0.798082  0.780372  1
  Zn  Zn12  1  0.710343  0.058031  0.349376  1
  Zn  Zn13  1  0.210769  0.059752  0.850954  1
  Zn  Zn14  1  0.789657  0.941969  0.150624  1
  Zn  Zn15  1  0.289231  0.940248  0.649046  1
  Zn  Zn16  1  0.670557  0.701305  0.031336  1
  Zn  Zn17  1  0.171325  0.701461  0.529175  1
  Zn  Zn18  1  0.829443  0.298695  0.468664  1
  Zn  Zn19  1  0.328675  0.298539  0.970825  1
  Zn  Zn20  1  0.044051  0.210811  0.393862  1
  Zn  Zn21  1  0.540264  0.199157  0.899866  1
  Zn  Zn22  1  0.455949  0.789189  0.106138  1
  Zn  Zn23  1  0.959736  0.800843  0.600134  1
  Zn  Zn24  1  0.930443  0.437725  0.280987  1
  Zn  Zn25  1  0.421546  0.438184  0.780372  1
  Zn  Zn26  1  0.569557  0.562275  0.219013  1
  Zn  Zn27  1  0.078454  0.561816  0.719628  1
  Zn  Zn28  1  0.907407  0.697064  0.150624  1
  Zn  Zn29  1  0.410706  0.699937  0.649046  1
  Zn  Zn30  1  0.592593  0.302936  0.349376  1
  Zn  Zn31  1  0.089294  0.300063  0.850954  1
  Zn  Zn32  1  0.232641  0.062084  0.468664  1
  Zn  Zn33  1  0.730637  0.059312  0.970825  1
  Zn  Zn34  1  0.267359  0.937916  0.031336  1
  Zn  Zn35  1  0.769363  0.940688  0.529175  1
  Zn  Zn36  1  0.218711  0.788269  0.219013  1
  Zn  Zn37  1  0.718556  0.797009  0.719628  1
  Zn  Zn38  1  0.281289  0.211731  0.280987  1
  Zn  Zn39  1  0.781444  0.202991  0.780372  1
  Zn  Zn40  1  0.104673  0.560621  0.106138  1
  Zn  Zn41  1  0.599022  0.558758  0.600134  1
  Zn  Zn42  1  0.395327  0.439379  0.393862  1
  Zn  Zn43  1  0.900978  0.441242  0.899866  1
  Zn  Zn44  1  0.030748  0.298107  0.031336  1
  Zn  Zn45  1  0.530137  0.299499  0.529175  1
  Zn  Zn46  1  0.469252  0.701893  0.468664  1
  Zn  Zn47  1  0.969863  0.700501  0.970825  1
  Zn  Zn48  1  0.347688  0.940281  0.349376  1
  Zn  Zn49  1  0.848983  0.938277  0.850954  1
  Zn  Zn50  1  0.152312  0.059719  0.150624  1
  Zn  Zn51  1  0.651017  0.061723  0.649046  1
  Zn  Zn52  1  0.750000  0.500000  0.750000  1
  Zn  Zn53  1  0.999919  0.999837  0.000243  1
  Zn  Zn54  1  0.500081  0.000163  0.499757  1
