# generated using pymatgen
data_Ca4Pr15TmSn16
_symmetry_space_group_name_H-M   'P 1'
_cell_length_a   8.12961396
_cell_length_b   8.52351262
_cell_length_c   16.14068200
_cell_angle_alpha   90.30453207
_cell_angle_beta   89.75725238
_cell_angle_gamma   90.25295021
_symmetry_Int_Tables_number   1
_chemical_formula_structural   Ca4Pr15TmSn16
_chemical_formula_sum   'Ca4 Pr15 Tm1 Sn16'
_cell_volume   1118.39750953
_cell_formula_units_Z   1
loop_
 _symmetry_equiv_pos_site_id
 _symmetry_equiv_pos_as_xyz
  1  'x, y, z'
loop_
 _atom_site_type_symbol
 _atom_site_label
 _atom_site_symmetry_multiplicity
 _atom_site_fract_x
 _atom_site_fract_y
 _atom_site_fract_z
 _atom_site_occupancy
  Ca  Ca0  1  0.170275  0.496189  0.750841  1
  Ca  Ca1  1  0.671002  0.004136  0.750936  1
  Ca  Ca2  1  0.830370  0.504026  0.250035  1
  Ca  Ca3  1  0.330126  0.993541  0.248963  1
  Pr  Pr4  1  0.840725  0.671279  0.626415  1
  Pr  Pr5  1  0.656326  0.170606  0.375749  1
  Pr  Pr6  1  0.162209  0.326906  0.120586  1
  Pr  Pr7  1  0.662539  0.170174  0.122217  1
  Pr  Pr8  1  0.158277  0.328105  0.375722  1
  Pr  Pr9  1  0.343951  0.830041  0.625992  1
  Pr  Pr10  1  0.841094  0.673517  0.877077  1
  Pr  Pr11  1  0.495306  0.320565  0.904102  1
  Pr  Pr12  1  0.997726  0.181876  0.598381  1
  Pr  Pr13  1  0.505202  0.683466  0.404503  1
  Pr  Pr14  1  0.005292  0.813957  0.095645  1
  Pr  Pr15  1  0.502748  0.680156  0.093237  1
  Pr  Pr16  1  0.003833  0.818991  0.404137  1
  Pr  Pr17  1  0.495521  0.316608  0.598183  1
  Pr  Pr18  1  0.994303  0.184050  0.903277  1
  Tm  Tm19  1  0.335782  0.829936  0.873119  1
  Sn  Sn20  1  0.321487  0.032329  0.031987  1
  Sn  Sn21  1  0.820010  0.462354  0.463835  1
  Sn  Sn22  1  0.686422  0.960807  0.537139  1
  Sn  Sn23  1  0.186142  0.544602  0.960294  1
  Sn  Sn24  1  0.663673  0.961433  0.958819  1
  Sn  Sn25  1  0.180633  0.538578  0.538106  1
  Sn  Sn26  1  0.316866  0.039337  0.464511  1
  Sn  Sn27  1  0.821498  0.462598  0.036920  1
  Sn  Sn28  1  0.535048  0.610327  0.753630  1
  Sn  Sn29  1  0.041187  0.894914  0.754209  1
  Sn  Sn30  1  0.461936  0.394818  0.249381  1
  Sn  Sn31  1  0.962188  0.103199  0.248908  1
  Sn  Sn32  1  0.300205  0.139001  0.753010  1
  Sn  Sn33  1  0.797011  0.360597  0.752184  1
  Sn  Sn34  1  0.701500  0.857952  0.249103  1
  Sn  Sn35  1  0.201588  0.639034  0.248847  1
