# generated using pymatgen
data_AcAu6
_symmetry_space_group_name_H-M   'P 1'
_cell_length_a   5.75597613
_cell_length_b   5.75597680
_cell_length_c   9.17641579
_cell_angle_alpha   83.31107421
_cell_angle_beta   83.31107501
_cell_angle_gamma   89.75292777
_symmetry_Int_Tables_number   1
_chemical_formula_structural   AcAu6
_chemical_formula_sum   'Ac2 Au12'
_cell_volume   299.88824740
_cell_formula_units_Z   2
loop_
 _symmetry_equiv_pos_site_id
 _symmetry_equiv_pos_as_xyz
  1  'x, y, z'
loop_
 _atom_site_type_symbol
 _atom_site_label
 _atom_site_symmetry_multiplicity
 _atom_site_fract_x
 _atom_site_fract_y
 _atom_site_fract_z
 _atom_site_occupancy
  Ac  Ac0  1  0.692455  0.307545  0.250000  1
  Ac  Ac1  1  0.307545  0.692455  0.750000  1
  Au  Au2  1  0.221397  0.382531  0.083369  1
  Au  Au3  1  0.617469  0.778603  0.416631  1
  Au  Au4  1  0.963536  0.833519  0.137292  1
  Au  Au5  1  0.833519  0.963536  0.637292  1
  Au  Au6  1  0.036464  0.166481  0.862708  1
  Au  Au7  1  0.172584  0.539076  0.374898  1
  Au  Au8  1  0.460924  0.827416  0.125102  1
  Au  Au9  1  0.166481  0.036464  0.362708  1
  Au  Au10  1  0.382531  0.221397  0.583369  1
  Au  Au11  1  0.539076  0.172584  0.874898  1
  Au  Au12  1  0.778603  0.617469  0.916631  1
  Au  Au13  1  0.827416  0.460924  0.625102  1
