# generated using pymatgen
data_GdY3(In2Cl5)4
_symmetry_space_group_name_H-M   'P 1'
_cell_length_a   8.14277012
_cell_length_b   8.63084900
_cell_length_c   12.99995426
_cell_angle_alpha   90.00000000
_cell_angle_beta   90.63230930
_cell_angle_gamma   90.00000000
_symmetry_Int_Tables_number   1
_chemical_formula_structural   GdY3(In2Cl5)4
_chemical_formula_sum   'Gd1 Y3 In8 Cl20'
_cell_volume   913.56840212
_cell_formula_units_Z   1
loop_
 _symmetry_equiv_pos_site_id
 _symmetry_equiv_pos_as_xyz
  1  'x, y, z'
loop_
 _atom_site_type_symbol
 _atom_site_label
 _atom_site_symmetry_multiplicity
 _atom_site_fract_x
 _atom_site_fract_y
 _atom_site_fract_z
 _atom_site_occupancy
  Gd  Gd0  1  0.573278  0.750000  0.004450  1
  Y  Y1  1  0.927359  0.750000  0.503750  1
  Y  Y2  1  0.072411  0.250000  0.496266  1
  Y  Y3  1  0.427121  0.250000  0.995983  1
  In  In4  1  0.949217  0.006036  0.827216  1
  In  In5  1  0.051050  0.994485  0.172681  1
  In  In6  1  0.448792  0.994346  0.671850  1
  In  In7  1  0.051050  0.505515  0.172681  1
  In  In8  1  0.551115  0.005723  0.328074  1
  In  In9  1  0.949217  0.493964  0.827216  1
  In  In10  1  0.551115  0.494277  0.328074  1
  In  In11  1  0.448792  0.505654  0.671850  1
  Cl  Cl12  1  0.111969  0.750000  0.676631  1
  Cl  Cl13  1  0.888167  0.250000  0.323487  1
  Cl  Cl14  1  0.610940  0.250000  0.824677  1
  Cl  Cl15  1  0.386574  0.750000  0.177229  1
  Cl  Cl16  1  0.839624  0.043482  0.571197  1
  Cl  Cl17  1  0.160113  0.956466  0.428904  1
  Cl  Cl18  1  0.338096  0.958227  0.926628  1
  Cl  Cl19  1  0.160113  0.543534  0.428904  1
  Cl  Cl20  1  0.661826  0.045087  0.073407  1
  Cl  Cl21  1  0.839624  0.456518  0.571197  1
  Cl  Cl22  1  0.661826  0.454913  0.073407  1
  Cl  Cl23  1  0.338096  0.541773  0.926628  1
  Cl  Cl24  1  0.590947  0.750000  0.508506  1
  Cl  Cl25  1  0.408786  0.250000  0.491151  1
  Cl  Cl26  1  0.089952  0.250000  0.990878  1
  Cl  Cl27  1  0.912763  0.750000  0.008939  1
  Cl  Cl28  1  0.657464  0.750000  0.801479  1
  Cl  Cl29  1  0.342877  0.250000  0.196849  1
  Cl  Cl30  1  0.158299  0.250000  0.697817  1
  Cl  Cl31  1  0.841424  0.750000  0.301993  1
