# generated using pymatgen
data_DyHo3(GaCo)4
_symmetry_space_group_name_H-M   'P 1'
_cell_length_a   4.42994700
_cell_length_b   6.82792511
_cell_length_c   7.00524312
_cell_angle_alpha   90.02111204
_cell_angle_beta   90.00000000
_cell_angle_gamma   90.00000000
_symmetry_Int_Tables_number   1
_chemical_formula_structural   DyHo3(GaCo)4
_chemical_formula_sum   'Dy1 Ho3 Ga4 Co4'
_cell_volume   211.89000073
_cell_formula_units_Z   1
loop_
 _symmetry_equiv_pos_site_id
 _symmetry_equiv_pos_as_xyz
  1  'x, y, z'
loop_
 _atom_site_type_symbol
 _atom_site_label
 _atom_site_symmetry_multiplicity
 _atom_site_fract_x
 _atom_site_fract_y
 _atom_site_fract_z
 _atom_site_occupancy
  Dy  Dy0  1  0.750000  0.803914  0.476407  1
  Ho  Ho1  1  0.250000  0.196684  0.524252  1
  Ho  Ho2  1  0.250000  0.303677  0.024971  1
  Ho  Ho3  1  0.750000  0.696004  0.975999  1
  Ga  Ga4  1  0.250000  0.893712  0.193706  1
  Ga  Ga5  1  0.750000  0.392494  0.305698  1
  Ga  Ga6  1  0.250000  0.604834  0.696282  1
  Ga  Ga7  1  0.750000  0.108111  0.804992  1
  Co  Co8  1  0.250000  0.937038  0.844205  1
  Co  Co9  1  0.250000  0.562794  0.344995  1
  Co  Co10  1  0.750000  0.063450  0.153733  1
  Co  Co11  1  0.750000  0.437289  0.654760  1
