# generated using pymatgen
data_Nd12Fe2I17
_symmetry_space_group_name_H-M   'P 1'
_cell_length_a   9.98883588
_cell_length_b   11.99685761
_cell_length_c   12.04087367
_cell_angle_alpha   93.51842655
_cell_angle_beta   104.64820050
_cell_angle_gamma   114.46106548
_symmetry_Int_Tables_number   1
_chemical_formula_structural   Nd12Fe2I17
_chemical_formula_sum   'Nd12 Fe2 I17'
_cell_volume   1247.91065318
_cell_formula_units_Z   1
loop_
 _symmetry_equiv_pos_site_id
 _symmetry_equiv_pos_as_xyz
  1  'x, y, z'
loop_
 _atom_site_type_symbol
 _atom_site_label
 _atom_site_symmetry_multiplicity
 _atom_site_fract_x
 _atom_site_fract_y
 _atom_site_fract_z
 _atom_site_occupancy
  Nd  Nd0  1  0.056720  0.508466  0.322132  1
  Nd  Nd1  1  0.991453  0.810594  0.584566  1
  Nd  Nd2  1  0.651465  0.240969  0.281877  1
  Nd  Nd3  1  0.008547  0.189406  0.415434  1
  Nd  Nd4  1  0.221867  0.670432  0.986905  1
  Nd  Nd5  1  0.258724  0.983881  0.891572  1
  Nd  Nd6  1  0.348535  0.759031  0.718123  1
  Nd  Nd7  1  0.943280  0.491534  0.677868  1
  Nd  Nd8  1  0.741276  0.016119  0.108428  1
  Nd  Nd9  1  0.144755  0.287141  0.153293  1
  Nd  Nd10  1  0.778133  0.329568  0.013095  1
  Nd  Nd11  1  0.855245  0.712859  0.846707  1
  Fe  Fe12  1  0.104042  0.738176  0.785631  1
  Fe  Fe13  1  0.895958  0.261824  0.214369  1
  I  I14  1  0.784643  0.528908  0.417367  1
  I  I15  1  0.641194  0.419014  0.758409  1
  I  I16  1  0.842390  0.894621  0.323741  1
  I  I17  1  0.324926  0.212291  0.369692  1
  I  I18  1  0.157610  0.105379  0.676259  1
  I  I19  1  0.588302  0.052969  0.842849  1
  I  I20  1  0.753408  0.182400  0.536871  1
  I  I21  1  0.548016  0.706947  0.952528  1
  I  I22  1  0.358806  0.580986  0.241591  1
  I  I23  1  0.215357  0.471092  0.582633  1
  I  I24  1  0.055678  0.367246  0.896716  1
  I  I25  1  0.451984  0.293053  0.047472  1
  I  I26  1  0.000000  0.000000  0.000000  1
  I  I27  1  0.246592  0.817600  0.463129  1
  I  I28  1  0.411698  0.947031  0.157151  1
  I  I29  1  0.675074  0.787709  0.630308  1
  I  I30  1  0.944322  0.632754  0.103284  1
