# generated using pymatgen
data_Eu6SbAsI6
_symmetry_space_group_name_H-M   'P 1'
_cell_length_a   11.37400154
_cell_length_b   11.32584337
_cell_length_c   11.37400117
_cell_angle_alpha   109.58353125
_cell_angle_beta   109.41918475
_cell_angle_gamma   109.58352288
_symmetry_Int_Tables_number   1
_chemical_formula_structural   Eu6SbAsI6
_chemical_formula_sum   'Eu12 Sb2 As2 I12'
_cell_volume   1125.50100273
_cell_formula_units_Z   2
loop_
 _symmetry_equiv_pos_site_id
 _symmetry_equiv_pos_as_xyz
  1  'x, y, z'
loop_
 _atom_site_type_symbol
 _atom_site_label
 _atom_site_symmetry_multiplicity
 _atom_site_fract_x
 _atom_site_fract_y
 _atom_site_fract_z
 _atom_site_occupancy
  Eu  Eu0  1  0.756924  0.513850  0.506924  1
  Eu  Eu1  1  0.984416  0.506495  0.240934  1
  Eu  Eu2  1  0.522080  0.506495  0.765561  1
  Eu  Eu3  1  0.258940  0.765528  0.743363  1
  Eu  Eu4  1  0.506588  0.765528  0.522165  1
  Eu  Eu5  1  0.734913  0.250000  0.765087  1
  Eu  Eu6  1  0.515087  0.250000  0.984913  1
  Eu  Eu7  1  0.734439  0.993505  0.977920  1
  Eu  Eu8  1  0.756637  0.734472  0.241060  1
  Eu  Eu9  1  0.977835  0.734472  0.993412  1
  Eu  Eu10  1  0.259066  0.993505  0.515584  1
  Eu  Eu11  1  0.993076  0.986150  0.743076  1
  Sb  Sb12  1  0.749392  0.750000  0.750608  1
  Sb  Sb13  1  0.000608  0.750000  0.499392  1
  As  As14  1  0.749122  0.498244  0.999122  1
  As  As15  1  0.500878  0.001756  0.750878  1
  I  I16  1  0.252081  0.750000  0.247919  1
  I  I17  1  0.749430  0.002372  0.498729  1
  I  I18  1  0.001271  0.497628  0.750570  1
  I  I19  1  0.003268  0.252647  0.002149  1
  I  I20  1  0.497851  0.247353  0.496732  1
  I  I21  1  0.001417  0.002836  0.251417  1
  I  I22  1  0.248583  0.497164  0.498583  1
  I  I23  1  0.249381  0.252647  0.750499  1
  I  I24  1  0.497919  0.750000  0.002081  1
  I  I25  1  0.496356  0.497628  0.247058  1
  I  I26  1  0.749501  0.247353  0.250619  1
  I  I27  1  0.252942  0.002372  0.003644  1
