# generated using pymatgen
data_Tm2Ni7SnB2
_symmetry_space_group_name_H-M   'P 1'
_cell_length_a   4.98630717
_cell_length_b   4.98777773
_cell_length_c   14.26613200
_cell_angle_alpha   90.00000000
_cell_angle_beta   90.00000000
_cell_angle_gamma   120.11261019
_symmetry_Int_Tables_number   1
_chemical_formula_structural   Tm2Ni7SnB2
_chemical_formula_sum   'Tm4 Ni14 Sn2 B4'
_cell_volume   306.92273661
_cell_formula_units_Z   2
loop_
 _symmetry_equiv_pos_site_id
 _symmetry_equiv_pos_as_xyz
  1  'x, y, z'
loop_
 _atom_site_type_symbol
 _atom_site_label
 _atom_site_symmetry_multiplicity
 _atom_site_fract_x
 _atom_site_fract_y
 _atom_site_fract_z
 _atom_site_occupancy
  Tm  Tm0  1  0.666588  0.333476  0.468403  1
  Tm  Tm1  1  0.333412  0.666524  0.968403  1
  Tm  Tm2  1  0.333277  0.666558  0.745002  1
  Tm  Tm3  1  0.666723  0.333442  0.245002  1
  Ni  Ni4  1  0.999863  0.999870  0.000699  1
  Ni  Ni5  1  0.000137  0.000130  0.500699  1
  Ni  Ni6  1  0.165876  0.331712  0.148417  1
  Ni  Ni7  1  0.834124  0.668288  0.648417  1
  Ni  Ni8  1  0.668440  0.834280  0.148454  1
  Ni  Ni9  1  0.165894  0.834258  0.148432  1
  Ni  Ni10  1  0.834106  0.165742  0.648432  1
  Ni  Ni11  1  0.331560  0.165720  0.648454  1
  Ni  Ni12  1  0.833989  0.668194  0.852603  1
  Ni  Ni13  1  0.834071  0.165599  0.852538  1
  Ni  Ni14  1  0.331397  0.165642  0.852574  1
  Ni  Ni15  1  0.668603  0.834358  0.352574  1
  Ni  Ni16  1  0.165929  0.834401  0.352538  1
  Ni  Ni17  1  0.166011  0.331806  0.352603  1
  Sn  Sn18  1  0.333401  0.666365  0.530905  1
  Sn  Sn19  1  0.666599  0.333635  0.030905  1
  B  B20  1  0.333393  0.666876  0.249963  1
  B  B21  1  0.666607  0.333124  0.749963  1
  B  B22  1  0.000110  0.000225  0.252013  1
  B  B23  1  0.999890  0.999775  0.752013  1
