# generated using pymatgen
data_Hf6Zn20GeRh3
_symmetry_space_group_name_H-M   'P 1'
_cell_length_a   8.75420161
_cell_length_b   8.75420158
_cell_length_c   8.73817975
_cell_angle_alpha   59.85161513
_cell_angle_beta   59.85161438
_cell_angle_gamma   59.42204237
_symmetry_Int_Tables_number   1
_chemical_formula_structural   Hf6Zn20GeRh3
_chemical_formula_sum   'Hf6 Zn20 Ge1 Rh3'
_cell_volume   470.36704875
_cell_formula_units_Z   1
loop_
 _symmetry_equiv_pos_site_id
 _symmetry_equiv_pos_as_xyz
  1  'x, y, z'
loop_
 _atom_site_type_symbol
 _atom_site_label
 _atom_site_symmetry_multiplicity
 _atom_site_fract_x
 _atom_site_fract_y
 _atom_site_fract_z
 _atom_site_occupancy
  Hf  Hf0  1  0.723135  0.288057  0.285337  1
  Hf  Hf1  1  0.267819  0.734893  0.710792  1
  Hf  Hf2  1  0.288057  0.723135  0.285337  1
  Hf  Hf3  1  0.734893  0.267819  0.710792  1
  Hf  Hf4  1  0.277874  0.277874  0.721568  1
  Hf  Hf5  1  0.712916  0.712916  0.276516  1
  Zn  Zn6  1  0.119468  0.635651  0.118846  1
  Zn  Zn7  1  0.881937  0.881937  0.361931  1
  Zn  Zn8  1  0.881880  0.359682  0.878328  1
  Zn  Zn9  1  0.635651  0.119468  0.118846  1
  Zn  Zn10  1  0.359682  0.881880  0.878328  1
  Zn  Zn11  1  0.497476  0.999136  0.002495  1
  Zn  Zn12  1  0.998323  0.507522  0.495682  1
  Zn  Zn13  1  0.999136  0.497476  0.002495  1
  Zn  Zn14  1  0.507522  0.998323  0.495682  1
  Zn  Zn15  1  0.999716  0.999716  0.500301  1
  Zn  Zn16  1  0.498990  0.498990  0.002292  1
  Zn  Zn17  1  0.335232  0.335232  0.340874  1
  Zn  Zn18  1  0.659702  0.659702  0.662185  1
  Zn  Zn19  1  0.334902  0.334902  0.988177  1
  Zn  Zn20  1  0.327556  0.005816  0.334319  1
  Zn  Zn21  1  0.667806  0.667806  0.999678  1
  Zn  Zn22  1  0.667796  0.002567  0.668941  1
  Zn  Zn23  1  0.005816  0.327556  0.334319  1
  Zn  Zn24  1  0.002567  0.667796  0.668941  1
  Zn  Zn25  1  0.997316  0.997316  0.002671  1
  Ge  Ge26  1  0.495624  0.495624  0.512436  1
  Rh  Rh27  1  0.118948  0.118948  0.114896  1
  Rh  Rh28  1  0.877545  0.877545  0.886392  1
  Rh  Rh29  1  0.124715  0.124715  0.640606  1
