# generated using pymatgen
data_SrCrIO6
_symmetry_space_group_name_H-M   'P 1'
_cell_length_a   5.23401500
_cell_length_b   5.23403103
_cell_length_c   5.42449400
_cell_angle_alpha   90.00034933
_cell_angle_beta   89.99984944
_cell_angle_gamma   119.99882509
_symmetry_Int_Tables_number   1
_chemical_formula_structural   SrCrIO6
_chemical_formula_sum   'Sr1 Cr1 I1 O6'
_cell_volume   128.69635962
_cell_formula_units_Z   1
loop_
 _symmetry_equiv_pos_site_id
 _symmetry_equiv_pos_as_xyz
  1  'x, y, z'
loop_
 _atom_site_type_symbol
 _atom_site_label
 _atom_site_symmetry_multiplicity
 _atom_site_fract_x
 _atom_site_fract_y
 _atom_site_fract_z
 _atom_site_occupancy
  Sr  Sr0  1  0.999997  0.000004  0.000002  1
  Cr  Cr1  1  0.333396  0.666629  0.499990  1
  I  I2  1  0.666661  0.333339  0.500002  1
  O  O3  1  0.383916  0.015810  0.699474  1
  O  O4  1  0.984196  0.368131  0.699474  1
  O  O5  1  0.631867  0.616082  0.699477  1
  O  O6  1  0.984190  0.616079  0.300525  1
  O  O7  1  0.631866  0.015802  0.300527  1
  O  O8  1  0.383911  0.368124  0.300528  1
