# generated using pymatgen
data_Tb11YPdPt3
_symmetry_space_group_name_H-M   'P 1'
_cell_length_a   6.53616344
_cell_length_b   7.07012702
_cell_length_c   9.70508800
_cell_angle_alpha   90.00000000
_cell_angle_beta   90.00000000
_cell_angle_gamma   90.03375731
_symmetry_Int_Tables_number   1
_chemical_formula_structural   Tb11YPdPt3
_chemical_formula_sum   'Tb11 Y1 Pd1 Pt3'
_cell_volume   448.48665207
_cell_formula_units_Z   1
loop_
 _symmetry_equiv_pos_site_id
 _symmetry_equiv_pos_as_xyz
  1  'x, y, z'
loop_
 _atom_site_type_symbol
 _atom_site_label
 _atom_site_symmetry_multiplicity
 _atom_site_fract_x
 _atom_site_fract_y
 _atom_site_fract_z
 _atom_site_occupancy
  Tb  Tb0  1  0.364653  0.971713  0.750000  1
  Tb  Tb1  1  0.136058  0.472457  0.750000  1
  Tb  Tb2  1  0.866876  0.529340  0.250000  1
  Tb  Tb3  1  0.175274  0.177837  0.059962  1
  Tb  Tb4  1  0.822283  0.820116  0.938692  1
  Tb  Tb5  1  0.677674  0.320657  0.938251  1
  Tb  Tb6  1  0.822283  0.820116  0.561308  1
  Tb  Tb7  1  0.322450  0.680993  0.060318  1
  Tb  Tb8  1  0.175274  0.177837  0.440038  1
  Tb  Tb9  1  0.322450  0.680993  0.439682  1
  Tb  Tb10  1  0.677674  0.320657  0.561749  1
  Y  Y11  1  0.635623  0.023721  0.250000  1
  Pd  Pd12  1  0.442854  0.390437  0.250000  1
  Pt  Pt13  1  0.555513  0.612966  0.750000  1
  Pt  Pt14  1  0.945019  0.112312  0.750000  1
  Pt  Pt15  1  0.058039  0.887847  0.250000  1
