# generated using pymatgen
data_Lu5Ga2Pb
_symmetry_space_group_name_H-M   'P 1'
_cell_length_a   7.70140700
_cell_length_b   7.70140700
_cell_length_c   13.60345200
_cell_angle_alpha   90.00000000
_cell_angle_beta   90.00000000
_cell_angle_gamma   90.00000000
_symmetry_Int_Tables_number   1
_chemical_formula_structural   Lu5Ga2Pb
_chemical_formula_sum   'Lu20 Ga8 Pb4'
_cell_volume   806.84345289
_cell_formula_units_Z   4
loop_
 _symmetry_equiv_pos_site_id
 _symmetry_equiv_pos_as_xyz
  1  'x, y, z'
loop_
 _atom_site_type_symbol
 _atom_site_label
 _atom_site_symmetry_multiplicity
 _atom_site_fract_x
 _atom_site_fract_y
 _atom_site_fract_z
 _atom_site_occupancy
  Lu  Lu0  1  0.840591  0.839500  0.892941  1
  Lu  Lu1  1  0.160500  0.159409  0.607059  1
  Lu  Lu2  1  0.840591  0.160500  0.392941  1
  Lu  Lu3  1  0.159409  0.839500  0.392941  1
  Lu  Lu4  1  0.339500  0.340591  0.392941  1
  Lu  Lu5  1  0.839500  0.159409  0.107059  1
  Lu  Lu6  1  0.339500  0.659409  0.892941  1
  Lu  Lu7  1  0.160500  0.840591  0.107059  1
  Lu  Lu8  1  0.500000  0.000000  0.751156  1
  Lu  Lu9  1  0.000000  0.500000  0.248844  1
  Lu  Lu10  1  0.340591  0.660500  0.607059  1
  Lu  Lu11  1  0.659409  0.660500  0.107059  1
  Lu  Lu12  1  0.659409  0.339500  0.607059  1
  Lu  Lu13  1  0.000000  0.500000  0.748844  1
  Lu  Lu14  1  0.839500  0.840591  0.607059  1
  Lu  Lu15  1  0.660500  0.340591  0.892941  1
  Lu  Lu16  1  0.159409  0.160500  0.892941  1
  Lu  Lu17  1  0.500000  0.000000  0.251156  1
  Lu  Lu18  1  0.660500  0.659409  0.392941  1
  Lu  Lu19  1  0.340591  0.339500  0.107059  1
  Ga  Ga20  1  0.632531  0.367469  0.250000  1
  Ga  Ga21  1  0.367469  0.632531  0.250000  1
  Ga  Ga22  1  0.132531  0.132531  0.250000  1
  Ga  Ga23  1  0.367469  0.367469  0.750000  1
  Ga  Ga24  1  0.132531  0.867469  0.750000  1
  Ga  Ga25  1  0.867469  0.867469  0.250000  1
  Ga  Ga26  1  0.632531  0.632531  0.750000  1
  Ga  Ga27  1  0.867469  0.132531  0.750000  1
  Pb  Pb28  1  0.000000  0.500000  0.999873  1
  Pb  Pb29  1  0.500000  0.000000  0.000127  1
  Pb  Pb30  1  0.500000  0.000000  0.500127  1
  Pb  Pb31  1  0.000000  0.500000  0.499873  1
