# generated using pymatgen
data_NdSmHo2(Mo2O7)2
_symmetry_space_group_name_H-M   'P 1'
_cell_length_a   7.39115685
_cell_length_b   7.39115635
_cell_length_c   7.50266318
_cell_angle_alpha   59.99888184
_cell_angle_beta   59.99888721
_cell_angle_gamma   59.47458284
_symmetry_Int_Tables_number   1
_chemical_formula_structural   NdSmHo2(Mo2O7)2
_chemical_formula_sum   'Nd1 Sm1 Ho2 Mo4 O14'
_cell_volume   288.64481389
_cell_formula_units_Z   1
loop_
 _symmetry_equiv_pos_site_id
 _symmetry_equiv_pos_as_xyz
  1  'x, y, z'
loop_
 _atom_site_type_symbol
 _atom_site_label
 _atom_site_symmetry_multiplicity
 _atom_site_fract_x
 _atom_site_fract_y
 _atom_site_fract_z
 _atom_site_occupancy
  Nd  Nd0  1  0.125000  0.125000  0.625000  1
  Sm  Sm1  1  0.125000  0.125000  0.125000  1
  Ho  Ho2  1  0.625000  0.125000  0.125000  1
  Ho  Ho3  1  0.125000  0.625000  0.125000  1
  Mo  Mo4  1  0.625000  0.625000  0.625000  1
  Mo  Mo5  1  0.125000  0.625000  0.625000  1
  Mo  Mo6  1  0.625000  0.125000  0.625000  1
  Mo  Mo7  1  0.625000  0.625000  0.125000  1
  O  O8  1  0.288213  0.288213  0.717030  1
  O  O9  1  0.287672  0.706761  0.286304  1
  O  O10  1  0.962328  0.543239  0.963696  1
  O  O11  1  0.706761  0.287672  0.286304  1
  O  O12  1  0.996115  0.996115  0.004041  1
  O  O13  1  0.533494  0.533494  0.963961  1
  O  O14  1  0.287841  0.703956  0.717871  1
  O  O15  1  0.546044  0.962159  0.532129  1
  O  O16  1  0.543239  0.962328  0.963696  1
  O  O17  1  0.716506  0.716506  0.286039  1
  O  O18  1  0.253885  0.253885  0.245959  1
  O  O19  1  0.961787  0.961787  0.532970  1
  O  O20  1  0.962159  0.546044  0.532129  1
  O  O21  1  0.703956  0.287841  0.717871  1
