# generated using pymatgen
data_Er10Lu2In2GaFe2
_symmetry_space_group_name_H-M   'P 1'
_cell_length_a   8.32389160
_cell_length_b   8.30996763
_cell_length_c   8.30994238
_cell_angle_alpha   109.64604811
_cell_angle_beta   109.75730867
_cell_angle_gamma   108.94396832
_symmetry_Int_Tables_number   1
_chemical_formula_structural   Er10Lu2In2GaFe2
_chemical_formula_sum   'Er10 Lu2 In2 Ga1 Fe2'
_cell_volume   442.83062520
_cell_formula_units_Z   1
loop_
 _symmetry_equiv_pos_site_id
 _symmetry_equiv_pos_as_xyz
  1  'x, y, z'
loop_
 _atom_site_type_symbol
 _atom_site_label
 _atom_site_symmetry_multiplicity
 _atom_site_fract_x
 _atom_site_fract_y
 _atom_site_fract_z
 _atom_site_occupancy
  Er  Er0  1  0.307214  0.308181  0.613557  1
  Er  Er1  1  0.692786  0.691819  0.386443  1
  Er  Er2  1  0.692790  0.306340  0.000967  1
  Er  Er3  1  0.307210  0.693660  0.999033  1
  Er  Er4  1  0.202409  0.446112  0.245154  1
  Er  Er5  1  0.797591  0.553888  0.754846  1
  Er  Er6  1  0.202412  0.957259  0.756303  1
  Er  Er7  1  0.958002  0.201101  0.756903  1
  Er  Er8  1  0.797588  0.042741  0.243697  1
  Er  Er9  1  0.041998  0.798899  0.243097  1
  Lu  Lu10  1  0.443317  0.200658  0.242655  1
  Lu  Lu11  1  0.556683  0.799342  0.757345  1
  In  In12  1  0.000000  0.500000  0.500000  1
  In  In13  1  0.500000  0.000000  0.500000  1
  Ga  Ga14  1  0.000000  0.000000  0.000000  1
  Fe  Fe15  1  0.386885  0.386081  0.000807  1
  Fe  Fe16  1  0.613115  0.613919  0.999193  1
