# generated using pymatgen
data_NiPd(RuO3)4
_symmetry_space_group_name_H-M   'P 1'
_cell_length_a   4.57717554
_cell_length_b   4.57717554
_cell_length_c   9.32838200
_cell_angle_alpha   90.00000000
_cell_angle_beta   90.00000000
_cell_angle_gamma   89.85752333
_symmetry_Int_Tables_number   1
_chemical_formula_structural   NiPd(RuO3)4
_chemical_formula_sum   'Ni1 Pd1 Ru4 O12'
_cell_volume   195.43399778
_cell_formula_units_Z   1
loop_
 _symmetry_equiv_pos_site_id
 _symmetry_equiv_pos_as_xyz
  1  'x, y, z'
loop_
 _atom_site_type_symbol
 _atom_site_label
 _atom_site_symmetry_multiplicity
 _atom_site_fract_x
 _atom_site_fract_y
 _atom_site_fract_z
 _atom_site_occupancy
  Ni  Ni0  1  0.000000  0.000000  0.000000  1
  Pd  Pd1  1  0.500000  0.500000  0.500000  1
  Ru  Ru2  1  0.500000  0.500000  0.165333  1
  Ru  Ru3  1  0.000000  0.000000  0.669609  1
  Ru  Ru4  1  0.500000  0.500000  0.834667  1
  Ru  Ru5  1  0.000000  0.000000  0.330391  1
  O  O6  1  0.183763  0.816237  0.500000  1
  O  O7  1  0.816237  0.183763  0.500000  1
  O  O8  1  0.311817  0.311817  0.000000  1
  O  O9  1  0.688183  0.688183  0.000000  1
  O  O10  1  0.202976  0.797024  0.173286  1
  O  O11  1  0.797024  0.202976  0.173286  1
  O  O12  1  0.300130  0.300130  0.673164  1
  O  O13  1  0.699870  0.699870  0.673164  1
  O  O14  1  0.797024  0.202976  0.826714  1
  O  O15  1  0.202976  0.797024  0.826714  1
  O  O16  1  0.699870  0.699870  0.326836  1
  O  O17  1  0.300130  0.300130  0.326836  1
