# generated using pymatgen
data_Rb6YTe4Cl
_symmetry_space_group_name_H-M   'P 1'
_cell_length_a   12.04603800
_cell_length_b   12.04603807
_cell_length_c   8.66838100
_cell_angle_alpha   90.00000000
_cell_angle_beta   90.00000000
_cell_angle_gamma   119.99999982
_symmetry_Int_Tables_number   1
_chemical_formula_structural   Rb6YTe4Cl
_chemical_formula_sum   'Rb12 Y2 Te8 Cl2'
_cell_volume   1089.32403015
_cell_formula_units_Z   2
loop_
 _symmetry_equiv_pos_site_id
 _symmetry_equiv_pos_as_xyz
  1  'x, y, z'
loop_
 _atom_site_type_symbol
 _atom_site_label
 _atom_site_symmetry_multiplicity
 _atom_site_fract_x
 _atom_site_fract_y
 _atom_site_fract_z
 _atom_site_occupancy
  Rb  Rb0  1  0.120874  0.879126  0.510227  1
  Rb  Rb1  1  0.758251  0.879126  0.510227  1
  Rb  Rb2  1  0.942769  0.471385  0.317727  1
  Rb  Rb3  1  0.528615  0.471385  0.317727  1
  Rb  Rb4  1  0.879126  0.758251  0.010227  1
  Rb  Rb5  1  0.241749  0.120874  0.010227  1
  Rb  Rb6  1  0.528615  0.057231  0.317727  1
  Rb  Rb7  1  0.120874  0.241749  0.510227  1
  Rb  Rb8  1  0.879126  0.120874  0.010227  1
  Rb  Rb9  1  0.057231  0.528615  0.817727  1
  Rb  Rb10  1  0.471385  0.942769  0.817727  1
  Rb  Rb11  1  0.471385  0.528615  0.817727  1
  Y  Y12  1  0.666667  0.333333  0.714460  1
  Y  Y13  1  0.333333  0.666667  0.214460  1
  Te  Te14  1  0.399258  0.199630  0.606024  1
  Te  Te15  1  0.600742  0.800370  0.106024  1
  Te  Te16  1  0.666667  0.333333  0.052281  1
  Te  Te17  1  0.800370  0.600742  0.606024  1
  Te  Te18  1  0.199630  0.399258  0.106024  1
  Te  Te19  1  0.333333  0.666667  0.552281  1
  Te  Te20  1  0.199630  0.800370  0.106024  1
  Te  Te21  1  0.800370  0.199630  0.606024  1
  Cl  Cl22  1  0.000000  0.000000  0.271929  1
  Cl  Cl23  1  0.000000  0.000000  0.771929  1
