# generated using pymatgen
data_SrNd(PPd3)4
_symmetry_space_group_name_H-M   'P 1'
_cell_length_a   8.55852878
_cell_length_b   8.55801800
_cell_length_c   8.56186381
_cell_angle_alpha   90.00000000
_cell_angle_beta   90.28132547
_cell_angle_gamma   90.00000000
_symmetry_Int_Tables_number   1
_chemical_formula_structural   SrNd(PPd3)4
_chemical_formula_sum   'Sr2 Nd2 P8 Pd24'
_cell_volume   627.09796503
_cell_formula_units_Z   2
loop_
 _symmetry_equiv_pos_site_id
 _symmetry_equiv_pos_as_xyz
  1  'x, y, z'
loop_
 _atom_site_type_symbol
 _atom_site_label
 _atom_site_symmetry_multiplicity
 _atom_site_fract_x
 _atom_site_fract_y
 _atom_site_fract_z
 _atom_site_occupancy
  Sr  Sr0  1  0.000000  0.500000  0.500000  1
  Sr  Sr1  1  0.000000  0.000000  0.000000  1
  Nd  Nd2  1  0.500000  0.500000  0.000000  1
  Nd  Nd3  1  0.500000  0.000000  0.500000  1
  P  P4  1  0.807927  0.307240  0.190883  1
  P  P5  1  0.192073  0.807240  0.309117  1
  P  P6  1  0.691603  0.691075  0.693361  1
  P  P7  1  0.308397  0.191075  0.806639  1
  P  P8  1  0.192073  0.692760  0.809117  1
  P  P9  1  0.807927  0.192760  0.690883  1
  P  P10  1  0.308397  0.308925  0.306639  1
  P  P11  1  0.691603  0.808925  0.193361  1
  Pd  Pd12  1  0.420207  0.848176  0.164342  1
  Pd  Pd13  1  0.579793  0.348176  0.335658  1
  Pd  Pd14  1  0.078392  0.152613  0.662341  1
  Pd  Pd15  1  0.921608  0.652613  0.837659  1
  Pd  Pd16  1  0.167217  0.421204  0.850589  1
  Pd  Pd17  1  0.339991  0.579133  0.344972  1
  Pd  Pd18  1  0.660009  0.079133  0.155028  1
  Pd  Pd19  1  0.832783  0.921204  0.649411  1
  Pd  Pd20  1  0.844993  0.160314  0.420509  1
  Pd  Pd21  1  0.350459  0.333405  0.578126  1
  Pd  Pd22  1  0.155007  0.660314  0.079491  1
  Pd  Pd23  1  0.649541  0.833405  0.921874  1
  Pd  Pd24  1  0.579793  0.151824  0.835658  1
  Pd  Pd25  1  0.420207  0.651824  0.664342  1
  Pd  Pd26  1  0.921608  0.847387  0.337659  1
  Pd  Pd27  1  0.078392  0.347387  0.162341  1
  Pd  Pd28  1  0.832783  0.578796  0.149411  1
  Pd  Pd29  1  0.660009  0.420867  0.655028  1
  Pd  Pd30  1  0.339991  0.920867  0.844972  1
  Pd  Pd31  1  0.167217  0.078796  0.350589  1
  Pd  Pd32  1  0.155007  0.839686  0.579491  1
  Pd  Pd33  1  0.649541  0.666595  0.421874  1
  Pd  Pd34  1  0.844993  0.339686  0.920509  1
  Pd  Pd35  1  0.350459  0.166595  0.078126  1
