# generated using pymatgen
data_Dy3Lu2Hf5(Si5Ir2)4
_symmetry_space_group_name_H-M   'P 1'
_cell_length_a   12.46857024
_cell_length_b   12.46854124
_cell_length_c   4.16039900
_cell_angle_alpha   90.00000000
_cell_angle_beta   90.00000000
_cell_angle_gamma   89.90548087
_symmetry_Int_Tables_number   1
_chemical_formula_structural   Dy3Lu2Hf5(Si5Ir2)4
_chemical_formula_sum   'Dy3 Lu2 Hf5 Si20 Ir8'
_cell_volume   646.79506067
_cell_formula_units_Z   1
loop_
 _symmetry_equiv_pos_site_id
 _symmetry_equiv_pos_as_xyz
  1  'x, y, z'
loop_
 _atom_site_type_symbol
 _atom_site_label
 _atom_site_symmetry_multiplicity
 _atom_site_fract_x
 _atom_site_fract_y
 _atom_site_fract_z
 _atom_site_occupancy
  Dy  Dy0  1  0.115662  0.615390  0.500000  1
  Dy  Dy1  1  0.384582  0.115568  0.500000  1
  Dy  Dy2  1  0.615354  0.884329  0.500000  1
  Lu  Lu3  1  0.999956  0.000161  0.000000  1
  Lu  Lu4  1  0.884366  0.384564  0.500000  1
  Hf  Hf5  1  0.500099  0.499943  0.000000  1
  Hf  Hf6  1  0.674293  0.175507  0.500000  1
  Hf  Hf7  1  0.325821  0.824638  0.500000  1
  Hf  Hf8  1  0.175039  0.325962  0.500000  1
  Hf  Hf9  1  0.824717  0.673737  0.500000  1
  Si  Si10  1  0.566187  0.067669  0.000000  1
  Si  Si11  1  0.433795  0.932338  0.000000  1
  Si  Si12  1  0.067349  0.434006  0.000000  1
  Si  Si13  1  0.932508  0.565746  0.000000  1
  Si  Si14  1  0.665382  0.701255  0.000000  1
  Si  Si15  1  0.334761  0.298290  0.000000  1
  Si  Si16  1  0.163471  0.800335  0.000000  1
  Si  Si17  1  0.836299  0.199961  0.000000  1
  Si  Si18  1  0.298308  0.665141  0.000000  1
  Si  Si19  1  0.702057  0.334626  0.000000  1
  Si  Si20  1  0.199216  0.163816  0.000000  1
  Si  Si21  1  0.800330  0.836366  0.000000  1
  Si  Si22  1  0.651375  0.508152  0.500000  1
  Si  Si23  1  0.348996  0.492024  0.500000  1
  Si  Si24  1  0.154565  0.992450  0.500000  1
  Si  Si25  1  0.845293  0.007754  0.500000  1
  Si  Si26  1  0.491975  0.650839  0.500000  1
  Si  Si27  1  0.508249  0.349110  0.500000  1
  Si  Si28  1  0.007615  0.155252  0.500000  1
  Si  Si29  1  0.992562  0.845161  0.500000  1
  Ir  Ir30  1  0.742978  0.521052  0.000000  1
  Ir  Ir31  1  0.257954  0.477782  0.000000  1
  Ir  Ir32  1  0.244992  0.977562  0.000000  1
  Ir  Ir33  1  0.754912  0.022660  0.000000  1
  Ir  Ir34  1  0.477926  0.741676  0.000000  1
  Ir  Ir35  1  0.522302  0.258287  0.000000  1
  Ir  Ir36  1  0.021369  0.246372  0.000000  1
  Ir  Ir37  1  0.977386  0.754519  0.000000  1
