# generated using pymatgen
data_YTm3Ga12Fe
_symmetry_space_group_name_H-M   'P 1'
_cell_length_a   7.40913566
_cell_length_b   7.38025150
_cell_length_c   7.40913603
_cell_angle_alpha   109.39226758
_cell_angle_beta   109.55005556
_cell_angle_gamma   109.39226874
_symmetry_Int_Tables_number   1
_chemical_formula_structural   YTm3Ga12Fe
_chemical_formula_sum   'Y1 Tm3 Ga12 Fe1'
_cell_volume   312.18112214
_cell_formula_units_Z   1
loop_
 _symmetry_equiv_pos_site_id
 _symmetry_equiv_pos_as_xyz
  1  'x, y, z'
loop_
 _atom_site_type_symbol
 _atom_site_label
 _atom_site_symmetry_multiplicity
 _atom_site_fract_x
 _atom_site_fract_y
 _atom_site_fract_z
 _atom_site_occupancy
  Y  Y0  1  0.000000  0.500000  0.000000  1
  Tm  Tm1  1  0.000000  0.000000  0.500000  1
  Tm  Tm2  1  0.500000  0.000000  0.000000  1
  Tm  Tm3  1  0.500000  0.500000  0.500000  1
  Ga  Ga4  1  0.749388  0.249388  0.498776  1
  Ga  Ga5  1  0.749388  0.500000  0.250612  1
  Ga  Ga6  1  0.498776  0.249388  0.749388  1
  Ga  Ga7  1  0.250612  0.500000  0.749388  1
  Ga  Ga8  1  0.250612  0.750612  0.501224  1
  Ga  Ga9  1  0.501224  0.750612  0.250612  1
  Ga  Ga10  1  0.715783  0.716908  0.000000  1
  Ga  Ga11  1  0.284217  0.001125  0.284217  1
  Ga  Ga12  1  0.000000  0.283092  0.284217  1
  Ga  Ga13  1  0.284217  0.283092  0.000000  1
  Ga  Ga14  1  0.715783  0.998875  0.715783  1
  Ga  Ga15  1  0.000000  0.716908  0.715783  1
  Fe  Fe16  1  0.000000  0.000000  0.000000  1
