# generated using pymatgen
data_Zr10CoSiBiPb5
_symmetry_space_group_name_H-M   'P 1'
_cell_length_a   8.82441766
_cell_length_b   8.82441687
_cell_length_c   5.92318701
_cell_angle_alpha   89.98653819
_cell_angle_beta   89.98653486
_cell_angle_gamma   119.96728377
_symmetry_Int_Tables_number   1
_chemical_formula_structural   Zr10CoSiBiPb5
_chemical_formula_sum   'Zr10 Co1 Si1 Bi1 Pb5'
_cell_volume   399.57764165
_cell_formula_units_Z   1
loop_
 _symmetry_equiv_pos_site_id
 _symmetry_equiv_pos_as_xyz
  1  'x, y, z'
loop_
 _atom_site_type_symbol
 _atom_site_label
 _atom_site_symmetry_multiplicity
 _atom_site_fract_x
 _atom_site_fract_y
 _atom_site_fract_z
 _atom_site_occupancy
  Zr  Zr0  1  0.667026  0.333359  0.500575  1
  Zr  Zr1  1  0.333359  0.667026  0.500575  1
  Zr  Zr2  1  0.333454  0.666889  0.999061  1
  Zr  Zr3  1  0.666889  0.333454  0.999061  1
  Zr  Zr4  1  0.751400  0.751400  0.257816  1
  Zr  Zr5  1  0.247583  0.998482  0.257788  1
  Zr  Zr6  1  0.998482  0.247583  0.257788  1
  Zr  Zr7  1  0.250093  0.250093  0.742356  1
  Zr  Zr8  1  0.750882  0.000571  0.742021  1
  Zr  Zr9  1  0.000571  0.750882  0.742021  1
  Co  Co10  1  0.999042  0.999042  0.501696  1
  Si  Si11  1  0.999717  0.999717  0.998967  1
  Bi  Bi12  1  0.393692  0.393692  0.249083  1
  Pb  Pb13  1  0.605885  0.999996  0.248374  1
  Pb  Pb14  1  0.999996  0.605885  0.248374  1
  Pb  Pb15  1  0.608350  0.608350  0.751623  1
  Pb  Pb16  1  0.393562  0.000015  0.751410  1
  Pb  Pb17  1  0.000015  0.393562  0.751410  1
