# generated using pymatgen
data_Tb4Y2ReB14Os
_symmetry_space_group_name_H-M   'P 1'
_cell_length_a   8.11123601
_cell_length_b   8.11123629
_cell_length_c   9.35240200
_cell_angle_alpha   90.00000000
_cell_angle_beta   90.00000000
_cell_angle_gamma   154.74828689
_symmetry_Int_Tables_number   1
_chemical_formula_structural   Tb4Y2ReB14Os
_chemical_formula_sum   'Tb4 Y2 Re1 B14 Os1'
_cell_volume   262.49063571
_cell_formula_units_Z   1
loop_
 _symmetry_equiv_pos_site_id
 _symmetry_equiv_pos_as_xyz
  1  'x, y, z'
loop_
 _atom_site_type_symbol
 _atom_site_label
 _atom_site_symmetry_multiplicity
 _atom_site_fract_x
 _atom_site_fract_y
 _atom_site_fract_z
 _atom_site_occupancy
  Tb  Tb0  1  0.894476  0.105524  0.939488  1
  Tb  Tb1  1  0.105684  0.894316  0.061350  1
  Tb  Tb2  1  0.894476  0.105524  0.560512  1
  Tb  Tb3  1  0.105684  0.894316  0.438650  1
  Y  Y4  1  0.757152  0.242848  0.250000  1
  Y  Y5  1  0.243300  0.756700  0.750000  1
  Re  Re6  1  0.946976  0.053024  0.250000  1
  B  B7  1  0.542415  0.457585  0.250000  1
  B  B8  1  0.458059  0.541941  0.750000  1
  B  B9  1  0.521042  0.478958  0.903345  1
  B  B10  1  0.479005  0.520995  0.095946  1
  B  B11  1  0.479005  0.520995  0.404054  1
  B  B12  1  0.521042  0.478958  0.596655  1
  B  B13  1  0.631463  0.368537  0.848604  1
  B  B14  1  0.368040  0.631960  0.151152  1
  B  B15  1  0.726791  0.273209  0.965089  1
  B  B16  1  0.272573  0.727427  0.033670  1
  B  B17  1  0.272573  0.727427  0.466330  1
  B  B18  1  0.726791  0.273209  0.534911  1
  B  B19  1  0.631463  0.368537  0.651396  1
  B  B20  1  0.368040  0.631960  0.348848  1
  Os  Os21  1  0.053947  0.946053  0.750000  1
