# generated using pymatgen
data_InPIr2
_symmetry_space_group_name_H-M   'P 1'
_cell_length_a   3.67462800
_cell_length_b   5.62976300
_cell_length_c   6.60393700
_cell_angle_alpha   90.00000000
_cell_angle_beta   90.00000000
_cell_angle_gamma   90.00000000
_symmetry_Int_Tables_number   1
_chemical_formula_structural   InPIr2
_chemical_formula_sum   'In2 P2 Ir4'
_cell_volume   136.61752521
_cell_formula_units_Z   2
loop_
 _symmetry_equiv_pos_site_id
 _symmetry_equiv_pos_as_xyz
  1  'x, y, z'
loop_
 _atom_site_type_symbol
 _atom_site_label
 _atom_site_symmetry_multiplicity
 _atom_site_fract_x
 _atom_site_fract_y
 _atom_site_fract_z
 _atom_site_occupancy
  In  In0  1  0.000000  0.500000  0.433964  1
  In  In1  1  0.499999  0.000000  0.566036  1
  P  P2  1  0.000000  0.000000  0.103426  1
  P  P3  1  0.499999  0.500000  0.896574  1
  Ir  Ir4  1  0.499999  0.247102  0.183225  1
  Ir  Ir5  1  0.499999  0.752899  0.183225  1
  Ir  Ir6  1  0.000000  0.252899  0.816776  1
  Ir  Ir7  1  0.000000  0.747102  0.816776  1
