# generated using pymatgen
data_Tb3YAl18AgIr5
_symmetry_space_group_name_H-M   'P 1'
_cell_length_a   7.59887368
_cell_length_b   7.59899682
_cell_length_c   9.51892278
_cell_angle_alpha   89.94403559
_cell_angle_beta   89.94570356
_cell_angle_gamma   119.53434978
_symmetry_Int_Tables_number   1
_chemical_formula_structural   Tb3YAl18AgIr5
_chemical_formula_sum   'Tb3 Y1 Al18 Ag1 Ir5'
_cell_volume   478.23555649
_cell_formula_units_Z   1
loop_
 _symmetry_equiv_pos_site_id
 _symmetry_equiv_pos_as_xyz
  1  'x, y, z'
loop_
 _atom_site_type_symbol
 _atom_site_label
 _atom_site_symmetry_multiplicity
 _atom_site_fract_x
 _atom_site_fract_y
 _atom_site_fract_z
 _atom_site_occupancy
  Tb  Tb0  1  0.995731  0.673227  0.251114  1
  Tb  Tb1  1  0.004291  0.326772  0.748879  1
  Tb  Tb2  1  0.673210  0.995718  0.251116  1
  Y  Y3  1  0.326765  0.004296  0.748859  1
  Al  Al4  1  0.135063  0.135047  0.256786  1
  Al  Al5  1  0.864995  0.864997  0.743213  1
  Al  Al6  1  0.001636  0.344791  0.078788  1
  Al  Al7  1  0.998408  0.655260  0.921214  1
  Al  Al8  1  0.000223  0.664732  0.573044  1
  Al  Al9  1  0.335331  0.999826  0.427012  1
  Al  Al10  1  0.999835  0.335332  0.426972  1
  Al  Al11  1  0.664631  0.000172  0.573032  1
  Al  Al12  1  0.655165  0.998369  0.921200  1
  Al  Al13  1  0.344784  0.001625  0.078768  1
  Al  Al14  1  0.333178  0.333128  0.551698  1
  Al  Al15  1  0.666821  0.666817  0.448322  1
  Al  Al16  1  0.657375  0.657369  0.058376  1
  Al  Al17  1  0.342632  0.342595  0.941610  1
  Al  Al18  1  0.339088  0.549879  0.251329  1
  Al  Al19  1  0.660912  0.450069  0.748670  1
  Al  Al20  1  0.549868  0.339082  0.251328  1
  Al  Al21  1  0.450078  0.660910  0.748672  1
  Ag  Ag22  1  0.000006  0.999999  0.999994  1
  Ir  Ir23  1  0.671556  0.328400  0.999971  1
  Ir  Ir24  1  0.328424  0.671596  0.999981  1
  Ir  Ir25  1  0.328441  0.671565  0.500016  1
  Ir  Ir26  1  0.671553  0.328427  0.500024  1
  Ir  Ir27  1  0.000003  0.999999  0.500012  1
