# generated using pymatgen
data_La3SmB4I5
_symmetry_space_group_name_H-M   'P 1'
_cell_length_a   9.97788108
_cell_length_b   9.97788093
_cell_length_c   10.19898249
_cell_angle_alpha   74.59285417
_cell_angle_beta   74.59285454
_cell_angle_gamma   25.24822896
_symmetry_Int_Tables_number   1
_chemical_formula_structural   La3SmB4I5
_chemical_formula_sum   'La3 Sm1 B4 I5'
_cell_volume   416.74493846
_cell_formula_units_Z   1
loop_
 _symmetry_equiv_pos_site_id
 _symmetry_equiv_pos_as_xyz
  1  'x, y, z'
loop_
 _atom_site_type_symbol
 _atom_site_label
 _atom_site_symmetry_multiplicity
 _atom_site_fract_x
 _atom_site_fract_y
 _atom_site_fract_z
 _atom_site_occupancy
  La  La0  1  0.496519  0.496519  0.252987  1
  La  La1  1  0.134181  0.134181  0.929678  1
  La  La2  1  0.866919  0.866919  0.062914  1
  Sm  Sm3  1  0.504396  0.504396  0.758819  1
  B  B4  1  0.315910  0.685099  0.001078  1
  B  B5  1  0.685099  0.315910  0.001078  1
  B  B6  1  0.999576  0.999576  0.093919  1
  B  B7  1  0.001568  0.001568  0.906654  1
  I  I8  1  0.672885  0.672885  0.675411  1
  I  I9  1  0.323100  0.323100  0.316824  1
  I  I10  1  0.332795  0.332795  0.837267  1
  I  I11  1  0.674325  0.674325  0.145817  1
  I  I12  1  0.007027  0.007027  0.507753  1
