# generated using pymatgen
data_Nd12Os2RhAu
_symmetry_space_group_name_H-M   'P 1'
_cell_length_a   6.57516745
_cell_length_b   7.48372676
_cell_length_c   9.82824800
_cell_angle_alpha   90.00000000
_cell_angle_beta   90.00000000
_cell_angle_gamma   90.25630718
_symmetry_Int_Tables_number   1
_chemical_formula_structural   Nd12Os2RhAu
_chemical_formula_sum   'Nd12 Os2 Rh1 Au1'
_cell_volume   483.61136854
_cell_formula_units_Z   1
loop_
 _symmetry_equiv_pos_site_id
 _symmetry_equiv_pos_as_xyz
  1  'x, y, z'
loop_
 _atom_site_type_symbol
 _atom_site_label
 _atom_site_symmetry_multiplicity
 _atom_site_fract_x
 _atom_site_fract_y
 _atom_site_fract_z
 _atom_site_occupancy
  Nd  Nd0  1  0.341376  0.669121  0.059338  1
  Nd  Nd1  1  0.173921  0.189416  0.440333  1
  Nd  Nd2  1  0.670215  0.323370  0.565656  1
  Nd  Nd3  1  0.827508  0.822768  0.930950  1
  Nd  Nd4  1  0.670215  0.323370  0.934344  1
  Nd  Nd5  1  0.827508  0.822768  0.569050  1
  Nd  Nd6  1  0.341376  0.669121  0.440662  1
  Nd  Nd7  1  0.173921  0.189416  0.059667  1
  Nd  Nd8  1  0.855118  0.519154  0.250000  1
  Nd  Nd9  1  0.622777  0.041972  0.250000  1
  Nd  Nd10  1  0.139751  0.465788  0.750000  1
  Nd  Nd11  1  0.360519  0.957555  0.750000  1
  Os  Os12  1  0.436742  0.382752  0.250000  1
  Os  Os13  1  0.556507  0.617618  0.750000  1
  Rh  Rh14  1  0.938111  0.118857  0.750000  1
  Au  Au15  1  0.064437  0.886955  0.250000  1
