# generated using pymatgen
data_Zr4In2B4Ru9Pt
_symmetry_space_group_name_H-M   'P 1'
_cell_length_a   9.55949729
_cell_length_b   9.61661519
_cell_length_c   3.13246500
_cell_angle_alpha   90.00000000
_cell_angle_beta   90.00000000
_cell_angle_gamma   90.11980988
_symmetry_Int_Tables_number   1
_chemical_formula_structural   Zr4In2B4Ru9Pt
_chemical_formula_sum   'Zr4 In2 B4 Ru9 Pt1'
_cell_volume   287.96689935
_cell_formula_units_Z   1
loop_
 _symmetry_equiv_pos_site_id
 _symmetry_equiv_pos_as_xyz
  1  'x, y, z'
loop_
 _atom_site_type_symbol
 _atom_site_label
 _atom_site_symmetry_multiplicity
 _atom_site_fract_x
 _atom_site_fract_y
 _atom_site_fract_z
 _atom_site_occupancy
  Zr  Zr0  1  0.678559  0.175082  0.000000  1
  Zr  Zr1  1  0.327899  0.814810  0.000000  1
  Zr  Zr2  1  0.172882  0.334071  0.000000  1
  Zr  Zr3  1  0.823587  0.676307  0.000000  1
  In  In4  1  0.995158  0.998524  0.000000  1
  In  In5  1  0.500641  0.499534  0.000000  1
  B  B6  1  0.121246  0.623010  0.000000  1
  B  B7  1  0.878121  0.377988  0.000000  1
  B  B8  1  0.622247  0.875858  0.000000  1
  B  B9  1  0.388883  0.125045  0.000000  1
  Ru  Ru10  1  0.773165  0.929480  0.500000  1
  Ru  Ru11  1  0.072667  0.777934  0.500000  1
  Ru  Ru12  1  0.722939  0.426607  0.500000  1
  Ru  Ru13  1  0.932144  0.223856  0.500000  1
  Ru  Ru14  1  0.277122  0.569914  0.500000  1
  Ru  Ru15  1  0.569648  0.722693  0.500000  1
  Ru  Ru16  1  0.426644  0.276565  0.500000  1
  Ru  Ru17  1  0.496978  0.999260  0.500000  1
  Ru  Ru18  1  0.998456  0.502406  0.500000  1
  Pt  Pt19  1  0.221016  0.071059  0.500000  1
