# generated using pymatgen
data_La5Nd11MgIn3Rh4
_symmetry_space_group_name_H-M   'P 1'
_cell_length_a   9.99589139
_cell_length_b   10.05473111
_cell_length_c   10.05747792
_cell_angle_alpha   59.81580106
_cell_angle_beta   60.00518816
_cell_angle_gamma   60.06511519
_symmetry_Int_Tables_number   1
_chemical_formula_structural   La5Nd11MgIn3Rh4
_chemical_formula_sum   'La5 Nd11 Mg1 In3 Rh4'
_cell_volume   714.14684583
_cell_formula_units_Z   1
loop_
 _symmetry_equiv_pos_site_id
 _symmetry_equiv_pos_as_xyz
  1  'x, y, z'
loop_
 _atom_site_type_symbol
 _atom_site_label
 _atom_site_symmetry_multiplicity
 _atom_site_fract_x
 _atom_site_fract_y
 _atom_site_fract_z
 _atom_site_occupancy
  La  La0  1  0.347611  0.347285  0.347871  1
  La  La1  1  0.350994  0.348433  0.953451  1
  La  La2  1  0.351263  0.952993  0.348708  1
  La  La3  1  0.950961  0.351278  0.351235  1
  La  La4  1  0.810946  0.189374  0.189062  1
  Nd  Nd5  1  0.184163  0.813011  0.812822  1
  Nd  Nd6  1  0.189549  0.809299  0.187799  1
  Nd  Nd7  1  0.807487  0.191980  0.806247  1
  Nd  Nd8  1  0.189198  0.187599  0.809726  1
  Nd  Nd9  1  0.807516  0.806668  0.191138  1
  Nd  Nd10  1  0.938399  0.564745  0.565006  1
  Nd  Nd11  1  0.562926  0.937234  0.937435  1
  Nd  Nd12  1  0.562804  0.938884  0.564277  1
  Nd  Nd13  1  0.937958  0.563159  0.936769  1
  Nd  Nd14  1  0.563053  0.564088  0.938386  1
  Nd  Nd15  1  0.937291  0.936800  0.564038  1
  Mg  Mg16  1  0.272980  0.574703  0.574447  1
  In  In17  1  0.582172  0.582444  0.581875  1
  In  In18  1  0.578628  0.583667  0.255211  1
  In  In19  1  0.578499  0.255404  0.583520  1
  Rh  Rh20  1  0.136759  0.143872  0.143840  1
  Rh  Rh21  1  0.142194  0.140897  0.572097  1
  Rh  Rh22  1  0.142285  0.571975  0.141089  1
  Rh  Rh23  1  0.574363  0.144209  0.143948  1
