# generated using pymatgen
data_Eu8Ho12Si15P
_symmetry_space_group_name_H-M   'P 1'
_cell_length_a   7.51788400
_cell_length_b   7.80262663
_cell_length_c   14.80124300
_cell_angle_alpha   90.00000000
_cell_angle_beta   90.00000000
_cell_angle_gamma   90.15789974
_symmetry_Int_Tables_number   1
_chemical_formula_structural   Eu8Ho12Si15P
_chemical_formula_sum   'Eu8 Ho12 Si15 P1'
_cell_volume   868.22639650
_cell_formula_units_Z   1
loop_
 _symmetry_equiv_pos_site_id
 _symmetry_equiv_pos_as_xyz
  1  'x, y, z'
loop_
 _atom_site_type_symbol
 _atom_site_label
 _atom_site_symmetry_multiplicity
 _atom_site_fract_x
 _atom_site_fract_y
 _atom_site_fract_z
 _atom_site_occupancy
  Eu  Eu0  1  0.018413  0.177134  0.404838  1
  Eu  Eu1  1  0.517270  0.323735  0.405123  1
  Eu  Eu2  1  0.483201  0.675528  0.903161  1
  Eu  Eu3  1  0.483201  0.675528  0.596839  1
  Eu  Eu4  1  0.985377  0.825047  0.599638  1
  Eu  Eu5  1  0.985377  0.825047  0.900362  1
  Eu  Eu6  1  0.517270  0.323735  0.094877  1
  Eu  Eu7  1  0.018413  0.177134  0.095162  1
  Ho  Ho8  1  0.316277  0.169711  0.625987  1
  Ho  Ho9  1  0.678447  0.822796  0.378380  1
  Ho  Ho10  1  0.658244  0.984503  0.750000  1
  Ho  Ho11  1  0.177646  0.678254  0.378248  1
  Ho  Ho12  1  0.817492  0.325810  0.878060  1
  Ho  Ho13  1  0.817492  0.325810  0.621940  1
  Ho  Ho14  1  0.841992  0.481886  0.250000  1
  Ho  Ho15  1  0.344269  0.019768  0.250000  1
  Ho  Ho16  1  0.316277  0.169711  0.874013  1
  Ho  Ho17  1  0.177646  0.678254  0.121752  1
  Ho  Ho18  1  0.678447  0.822796  0.121620  1
  Ho  Ho19  1  0.156415  0.514577  0.750000  1
  Si  Si20  1  0.469389  0.615625  0.250000  1
  Si  Si21  1  0.014437  0.133435  0.750000  1
  Si  Si22  1  0.525070  0.384602  0.750000  1
  Si  Si23  1  0.144985  0.466727  0.540747  1
  Si  Si24  1  0.970298  0.885127  0.250000  1
  Si  Si25  1  0.731132  0.112620  0.250000  1
  Si  Si26  1  0.857381  0.534685  0.039774  1
  Si  Si27  1  0.355941  0.967627  0.039022  1
  Si  Si28  1  0.144985  0.466727  0.959253  1
  Si  Si29  1  0.641862  0.032342  0.540594  1
  Si  Si30  1  0.355941  0.967627  0.460978  1
  Si  Si31  1  0.857381  0.534685  0.460226  1
  Si  Si32  1  0.772859  0.615253  0.750000  1
  Si  Si33  1  0.229384  0.388674  0.250000  1
  Si  Si34  1  0.641862  0.032342  0.959406  1
  P  P35  1  0.297920  0.865139  0.750000  1
