# generated using pymatgen
data_Lu5ScOsPt
_symmetry_space_group_name_H-M   'P 1'
_cell_length_a   7.02013900
_cell_length_b   8.92968800
_cell_length_c   6.29236700
_cell_angle_alpha   90.00000000
_cell_angle_beta   90.00000000
_cell_angle_gamma   90.00000000
_symmetry_Int_Tables_number   1
_chemical_formula_structural   Lu5ScOsPt
_chemical_formula_sum   'Lu10 Sc2 Os2 Pt2'
_cell_volume   394.45370638
_cell_formula_units_Z   2
loop_
 _symmetry_equiv_pos_site_id
 _symmetry_equiv_pos_as_xyz
  1  'x, y, z'
loop_
 _atom_site_type_symbol
 _atom_site_label
 _atom_site_symmetry_multiplicity
 _atom_site_fract_x
 _atom_site_fract_y
 _atom_site_fract_z
 _atom_site_occupancy
  Lu  Lu0  1  0.681042  0.048990  0.324745  1
  Lu  Lu1  1  0.181042  0.451010  0.175255  1
  Lu  Lu2  1  0.318921  0.567713  0.682786  1
  Lu  Lu3  1  0.818921  0.932287  0.817214  1
  Lu  Lu4  1  0.318921  0.932287  0.682786  1
  Lu  Lu5  1  0.818921  0.567713  0.817214  1
  Lu  Lu6  1  0.681042  0.451010  0.324745  1
  Lu  Lu7  1  0.181042  0.048990  0.175255  1
  Lu  Lu8  1  0.529708  0.250000  0.878484  1
  Lu  Lu9  1  0.029708  0.250000  0.621516  1
  Sc  Sc10  1  0.464957  0.750000  0.116371  1
  Sc  Sc11  1  0.964957  0.750000  0.383629  1
  Os  Os12  1  0.112251  0.750000  0.982869  1
  Os  Os13  1  0.612251  0.750000  0.517131  1
  Pt  Pt14  1  0.893159  0.250000  0.042930  1
  Pt  Pt15  1  0.393159  0.250000  0.457070  1
