# generated using pymatgen
data_Y3ErZr2MoO12
_symmetry_space_group_name_H-M   'P 1'
_cell_length_a   6.31898947
_cell_length_b   6.40921024
_cell_length_c   6.60108404
_cell_angle_alpha   100.39673446
_cell_angle_beta   98.35130598
_cell_angle_gamma   99.29621641
_symmetry_Int_Tables_number   1
_chemical_formula_structural   Y3ErZr2MoO12
_chemical_formula_sum   'Y3 Er1 Zr2 Mo1 O12'
_cell_volume   255.27672993
_cell_formula_units_Z   1
loop_
 _symmetry_equiv_pos_site_id
 _symmetry_equiv_pos_as_xyz
  1  'x, y, z'
loop_
 _atom_site_type_symbol
 _atom_site_label
 _atom_site_symmetry_multiplicity
 _atom_site_fract_x
 _atom_site_fract_y
 _atom_site_fract_z
 _atom_site_occupancy
  Y  Y0  1  0.386144  0.700130  0.865402  1
  Y  Y1  1  0.701558  0.866795  0.391521  1
  Y  Y2  1  0.612813  0.298620  0.133794  1
  Er  Er3  1  0.299265  0.133863  0.609176  1
  Zr  Zr4  1  0.847148  0.396207  0.671221  1
  Zr  Zr5  1  0.153152  0.603765  0.330139  1
  Mo  Mo6  1  0.000757  0.000795  0.000088  1
  O  O7  1  0.018530  0.683548  0.887450  1
  O  O8  1  0.691159  0.933430  0.057098  1
  O  O9  1  0.926463  0.089372  0.694947  1
  O  O10  1  0.980640  0.316702  0.111915  1
  O  O11  1  0.308667  0.066555  0.939902  1
  O  O12  1  0.077807  0.912980  0.306110  1
  O  O13  1  0.585064  0.187691  0.434643  1
  O  O14  1  0.174455  0.431047  0.576515  1
  O  O15  1  0.416554  0.585212  0.178552  1
  O  O16  1  0.411005  0.814657  0.567282  1
  O  O17  1  0.827221  0.566266  0.423442  1
  O  O18  1  0.581598  0.412363  0.820803  1
