# generated using pymatgen
data_Ac6Hg3Pb7
_symmetry_space_group_name_H-M   'P 1'
_cell_length_a   6.99043316
_cell_length_b   6.99043218
_cell_length_c   11.19862743
_cell_angle_alpha   90.34934860
_cell_angle_beta   90.34934701
_cell_angle_gamma   102.39254324
_symmetry_Int_Tables_number   1
_chemical_formula_structural   Ac6Hg3Pb7
_chemical_formula_sum   'Ac6 Hg3 Pb7'
_cell_volume   534.45806712
_cell_formula_units_Z   1
loop_
 _symmetry_equiv_pos_site_id
 _symmetry_equiv_pos_as_xyz
  1  'x, y, z'
loop_
 _atom_site_type_symbol
 _atom_site_label
 _atom_site_symmetry_multiplicity
 _atom_site_fract_x
 _atom_site_fract_y
 _atom_site_fract_z
 _atom_site_occupancy
  Ac  Ac0  1  0.792631  0.205887  0.998892  1
  Ac  Ac1  1  0.205887  0.792631  0.998892  1
  Ac  Ac2  1  0.200830  0.792865  0.499925  1
  Ac  Ac3  1  0.792865  0.200830  0.499925  1
  Ac  Ac4  1  0.622189  0.622189  0.254867  1
  Ac  Ac5  1  0.381247  0.381247  0.752886  1
  Hg  Hg6  1  0.310440  0.310440  0.040650  1
  Hg  Hg7  1  0.692268  0.692268  0.960980  1
  Hg  Hg8  1  0.695651  0.695651  0.542605  1
  Pb  Pb9  1  0.074200  0.495559  0.245695  1
  Pb  Pb10  1  0.923669  0.505547  0.750951  1
  Pb  Pb11  1  0.495559  0.074199  0.245695  1
  Pb  Pb12  1  0.505547  0.923669  0.750951  1
  Pb  Pb13  1  0.021608  0.021608  0.246433  1
  Pb  Pb14  1  0.978316  0.978316  0.752943  1
  Pb  Pb15  1  0.307096  0.307096  0.457712  1
