# generated using pymatgen
data_Y7Tm13(BiPb7)2
_symmetry_space_group_name_H-M   'P 1'
_cell_length_a   8.18977614
_cell_length_b   8.21858586
_cell_length_c   15.43172300
_cell_angle_alpha   90.21772012
_cell_angle_beta   90.09016465
_cell_angle_gamma   90.04460252
_symmetry_Int_Tables_number   1
_chemical_formula_structural   Y7Tm13(BiPb7)2
_chemical_formula_sum   'Y7 Tm13 Bi2 Pb14'
_cell_volume   1038.67514672
_cell_formula_units_Z   1
loop_
 _symmetry_equiv_pos_site_id
 _symmetry_equiv_pos_as_xyz
  1  'x, y, z'
loop_
 _atom_site_type_symbol
 _atom_site_label
 _atom_site_symmetry_multiplicity
 _atom_site_fract_x
 _atom_site_fract_y
 _atom_site_fract_z
 _atom_site_occupancy
  Y  Y0  1  0.049939  0.167764  0.604380  1
  Y  Y1  1  0.449737  0.674890  0.396430  1
  Y  Y2  1  0.948652  0.825298  0.104028  1
  Y  Y3  1  0.454527  0.667227  0.102645  1
  Y  Y4  1  0.955214  0.832258  0.397688  1
  Y  Y5  1  0.540919  0.323630  0.602895  1
  Y  Y6  1  0.041806  0.176243  0.896844  1
  Tm  Tm7  1  0.382581  0.839999  0.878096  1
  Tm  Tm8  1  0.882058  0.660081  0.622019  1
  Tm  Tm9  1  0.619396  0.154913  0.377857  1
  Tm  Tm10  1  0.118947  0.344782  0.122063  1
  Tm  Tm11  1  0.621755  0.158411  0.120952  1
  Tm  Tm12  1  0.122710  0.341709  0.378591  1
  Tm  Tm13  1  0.379700  0.842779  0.621855  1
  Tm  Tm14  1  0.880378  0.657438  0.878349  1
  Tm  Tm15  1  0.552341  0.333775  0.894644  1
  Tm  Tm16  1  0.212124  0.502957  0.749730  1
  Tm  Tm17  1  0.711608  0.997413  0.750521  1
  Tm  Tm18  1  0.787875  0.497102  0.248081  1
  Tm  Tm19  1  0.287821  0.002712  0.251860  1
  Bi  Bi20  1  0.274193  0.025757  0.045406  1
  Bi  Bi21  1  0.775285  0.472911  0.454834  1
  Pb  Pb22  1  0.722574  0.970921  0.543951  1
  Pb  Pb23  1  0.224816  0.527093  0.955856  1
  Pb  Pb24  1  0.721959  0.970696  0.956152  1
  Pb  Pb25  1  0.221907  0.530566  0.543712  1
  Pb  Pb26  1  0.280308  0.031779  0.456797  1
  Pb  Pb27  1  0.779679  0.468337  0.042806  1
  Pb  Pb28  1  0.574637  0.629786  0.748381  1
  Pb  Pb29  1  0.074518  0.870170  0.751811  1
  Pb  Pb30  1  0.426779  0.369253  0.249887  1
  Pb  Pb31  1  0.926636  0.130667  0.249998  1
  Pb  Pb32  1  0.356639  0.154020  0.752340  1
  Pb  Pb33  1  0.855850  0.346805  0.748325  1
  Pb  Pb34  1  0.642043  0.845906  0.249526  1
  Pb  Pb35  1  0.142086  0.653950  0.250689  1
