# generated using pymatgen
data_Tm2Fe3Co
_symmetry_space_group_name_H-M   'P 1'
_cell_length_a   5.09414400
_cell_length_b   5.09414458
_cell_length_c   5.09414411
_cell_angle_alpha   60.01947957
_cell_angle_beta   60.01947956
_cell_angle_gamma   60.01947597
_symmetry_Int_Tables_number   1
_chemical_formula_structural   Tm2Fe3Co
_chemical_formula_sum   'Tm2 Fe3 Co1'
_cell_volume   93.51697319
_cell_formula_units_Z   1
loop_
 _symmetry_equiv_pos_site_id
 _symmetry_equiv_pos_as_xyz
  1  'x, y, z'
loop_
 _atom_site_type_symbol
 _atom_site_label
 _atom_site_symmetry_multiplicity
 _atom_site_fract_x
 _atom_site_fract_y
 _atom_site_fract_z
 _atom_site_occupancy
  Tm  Tm0  1  0.874934  0.874934  0.874934  1
  Tm  Tm1  1  0.125066  0.125066  0.125066  1
  Fe  Fe2  1  0.500000  0.000000  0.500000  1
  Fe  Fe3  1  0.000000  0.500000  0.500000  1
  Fe  Fe4  1  0.500000  0.500000  0.000000  1
  Co  Co5  1  0.500000  0.500000  0.500000  1
