# generated using pymatgen
data_Dy4Ho4Si12Ir3Rh
_symmetry_space_group_name_H-M   'P 1'
_cell_length_a   8.16863604
_cell_length_b   8.17000718
_cell_length_c   7.90607400
_cell_angle_alpha   90.00009862
_cell_angle_beta   90.00236659
_cell_angle_gamma   120.00545377
_symmetry_Int_Tables_number   1
_chemical_formula_structural   Dy4Ho4Si12Ir3Rh
_chemical_formula_sum   'Dy4 Ho4 Si12 Ir3 Rh1'
_cell_volume   456.91942461
_cell_formula_units_Z   1
loop_
 _symmetry_equiv_pos_site_id
 _symmetry_equiv_pos_as_xyz
  1  'x, y, z'
loop_
 _atom_site_type_symbol
 _atom_site_label
 _atom_site_symmetry_multiplicity
 _atom_site_fract_x
 _atom_site_fract_y
 _atom_site_fract_z
 _atom_site_occupancy
  Dy  Dy0  1  0.999970  0.999987  0.248922  1
  Dy  Dy1  1  0.000044  0.000023  0.750353  1
  Dy  Dy2  1  0.509857  0.490223  0.250142  1
  Dy  Dy3  1  0.509858  0.019635  0.250144  1
  Ho  Ho4  1  0.980473  0.490234  0.250163  1
  Ho  Ho5  1  0.490706  0.509270  0.749859  1
  Ho  Ho6  1  0.490707  0.981437  0.749857  1
  Ho  Ho7  1  0.018555  0.509280  0.749863  1
  Si  Si8  1  0.166788  0.833108  0.498994  1
  Si  Si9  1  0.166789  0.333679  0.498994  1
  Si  Si10  1  0.666342  0.833171  0.499027  1
  Si  Si11  1  0.833314  0.166845  0.500755  1
  Si  Si12  1  0.833312  0.666469  0.500755  1
  Si  Si13  1  0.333464  0.166731  0.500879  1
  Si  Si14  1  0.833432  0.166727  0.999288  1
  Si  Si15  1  0.833430  0.666704  0.999290  1
  Si  Si16  1  0.333230  0.166615  0.999170  1
  Si  Si17  1  0.167210  0.832680  0.999918  1
  Si  Si18  1  0.167212  0.334529  0.999919  1
  Si  Si19  1  0.665518  0.832758  0.999879  1
  Ir  Ir20  1  0.333081  0.666544  0.468601  1
  Ir  Ir21  1  0.666797  0.333396  0.533902  1
  Ir  Ir22  1  0.666799  0.333400  0.964932  1
  Rh  Rh23  1  0.333111  0.666556  0.036394  1
