# generated using pymatgen
data_Zr12CoTc6Ir5
_symmetry_space_group_name_H-M   'P 1'
_cell_length_a   4.64814400
_cell_length_b   6.54921700
_cell_length_c   13.98246500
_cell_angle_alpha   90.00000000
_cell_angle_beta   90.00017234
_cell_angle_gamma   90.00000000
_symmetry_Int_Tables_number   1
_chemical_formula_structural   Zr12CoTc6Ir5
_chemical_formula_sum   'Zr12 Co1 Tc6 Ir5'
_cell_volume   425.65005657
_cell_formula_units_Z   1
loop_
 _symmetry_equiv_pos_site_id
 _symmetry_equiv_pos_as_xyz
  1  'x, y, z'
loop_
 _atom_site_type_symbol
 _atom_site_label
 _atom_site_symmetry_multiplicity
 _atom_site_fract_x
 _atom_site_fract_y
 _atom_site_fract_z
 _atom_site_occupancy
  Zr  Zr0  1  0.500002  0.248535  0.997505  1
  Zr  Zr1  1  0.500002  0.751465  0.997505  1
  Zr  Zr2  1  0.999863  0.249716  0.166113  1
  Zr  Zr3  1  0.999863  0.750284  0.166113  1
  Zr  Zr4  1  0.499869  0.250095  0.333335  1
  Zr  Zr5  1  0.499869  0.749905  0.333335  1
  Zr  Zr6  1  0.999999  0.249717  0.500554  1
  Zr  Zr7  1  0.999999  0.750283  0.500554  1
  Zr  Zr8  1  0.500139  0.248534  0.669161  1
  Zr  Zr9  1  0.500139  0.751466  0.669161  1
  Zr  Zr10  1  0.000133  0.245995  0.833333  1
  Zr  Zr11  1  0.000133  0.754005  0.833333  1
  Co  Co12  1  0.500157  0.000000  0.833321  1
  Tc  Tc13  1  0.999992  0.000000  0.999540  1
  Tc  Tc14  1  0.499879  0.500000  0.166075  1
  Tc  Tc15  1  0.999866  0.000000  0.333335  1
  Tc  Tc16  1  0.500002  0.500000  0.500594  1
  Tc  Tc17  1  0.000123  0.000000  0.667126  1
  Tc  Tc18  1  0.500122  0.500000  0.833335  1
  Ir  Ir19  1  0.999999  0.500000  0.999859  1
  Ir  Ir20  1  0.499846  0.000000  0.166514  1
  Ir  Ir21  1  0.999846  0.500000  0.333331  1
  Ir  Ir22  1  0.500003  0.000000  0.500157  1
  Ir  Ir23  1  0.000157  0.500000  0.666811  1
