# generated using pymatgen
data_TbNd19(IrPt2)4
_symmetry_space_group_name_H-M   'P 1'
_cell_length_a   11.42167500
_cell_length_b   11.42167500
_cell_length_c   6.51074300
_cell_angle_alpha   90.00000000
_cell_angle_beta   90.00000000
_cell_angle_gamma   90.00000000
_symmetry_Int_Tables_number   1
_chemical_formula_structural   TbNd19(IrPt2)4
_chemical_formula_sum   'Tb1 Nd19 Ir4 Pt8'
_cell_volume   849.35676315
_cell_formula_units_Z   1
loop_
 _symmetry_equiv_pos_site_id
 _symmetry_equiv_pos_as_xyz
  1  'x, y, z'
loop_
 _atom_site_type_symbol
 _atom_site_label
 _atom_site_symmetry_multiplicity
 _atom_site_fract_x
 _atom_site_fract_y
 _atom_site_fract_z
 _atom_site_occupancy
  Tb  Tb0  1  0.500000  0.500000  0.500000  1
  Nd  Nd1  1  0.295372  0.089130  0.373492  1
  Nd  Nd2  1  0.295496  0.910962  0.873556  1
  Nd  Nd3  1  0.704504  0.089038  0.873556  1
  Nd  Nd4  1  0.704628  0.910870  0.373492  1
  Nd  Nd5  1  0.588791  0.794335  0.873628  1
  Nd  Nd6  1  0.588773  0.206117  0.375015  1
  Nd  Nd7  1  0.411227  0.793883  0.375015  1
  Nd  Nd8  1  0.411209  0.205665  0.873628  1
  Nd  Nd9  1  0.206117  0.411227  0.624985  1
  Nd  Nd10  1  0.205665  0.588791  0.126372  1
  Nd  Nd11  1  0.794335  0.411209  0.126372  1
  Nd  Nd12  1  0.793883  0.588773  0.624985  1
  Nd  Nd13  1  0.910962  0.704504  0.126444  1
  Nd  Nd14  1  0.910870  0.295372  0.626508  1
  Nd  Nd15  1  0.089130  0.704628  0.626508  1
  Nd  Nd16  1  0.089038  0.295496  0.126444  1
  Nd  Nd17  1  0.000000  0.000000  0.500000  1
  Nd  Nd18  1  0.000000  0.000000  0.000000  1
  Nd  Nd19  1  0.500000  0.500000  0.000000  1
  Ir  Ir20  1  0.500000  0.000000  0.115213  1
  Ir  Ir21  1  0.500000  0.000000  0.615192  1
  Ir  Ir22  1  0.000000  0.500000  0.884787  1
  Ir  Ir23  1  0.000000  0.500000  0.384808  1
  Pt  Pt24  1  0.846162  0.153996  0.249975  1
  Pt  Pt25  1  0.846004  0.846162  0.750025  1
  Pt  Pt26  1  0.153996  0.153838  0.750025  1
  Pt  Pt27  1  0.153838  0.846004  0.249975  1
  Pt  Pt28  1  0.651158  0.349440  0.745406  1
  Pt  Pt29  1  0.650560  0.651158  0.254594  1
  Pt  Pt30  1  0.349440  0.348842  0.254594  1
  Pt  Pt31  1  0.348842  0.650560  0.745406  1
