# generated using pymatgen
data_Nb11(PSe4)2
_symmetry_space_group_name_H-M   'P 1'
_cell_length_a   3.49357000
_cell_length_b   11.98273400
_cell_length_c   19.53390000
_cell_angle_alpha   90.00000000
_cell_angle_beta   90.00000000
_cell_angle_gamma   90.00000000
_symmetry_Int_Tables_number   1
_chemical_formula_structural   Nb11(PSe4)2
_chemical_formula_sum   'Nb22 P4 Se16'
_cell_volume   817.73827983
_cell_formula_units_Z   2
loop_
 _symmetry_equiv_pos_site_id
 _symmetry_equiv_pos_as_xyz
  1  'x, y, z'
loop_
 _atom_site_type_symbol
 _atom_site_label
 _atom_site_symmetry_multiplicity
 _atom_site_fract_x
 _atom_site_fract_y
 _atom_site_fract_z
 _atom_site_occupancy
  Nb  Nb0  1  0.000000  0.562887  0.113303  1
  Nb  Nb1  1  0.000000  0.437113  0.886697  1
  Nb  Nb2  1  0.500000  0.937113  0.613303  1
  Nb  Nb3  1  0.500000  0.062887  0.386697  1
  Nb  Nb4  1  0.000000  0.321095  0.047951  1
  Nb  Nb5  1  0.000000  0.678905  0.952049  1
  Nb  Nb6  1  0.500000  0.178905  0.547951  1
  Nb  Nb7  1  0.500000  0.821095  0.452049  1
  Nb  Nb8  1  0.000000  0.045623  0.258108  1
  Nb  Nb9  1  0.000000  0.954377  0.741892  1
  Nb  Nb10  1  0.500000  0.454377  0.758108  1
  Nb  Nb11  1  0.500000  0.545623  0.241892  1
  Nb  Nb12  1  0.000000  0.000000  0.500000  1
  Nb  Nb13  1  0.500000  0.500000  0.000000  1
  Nb  Nb14  1  0.000000  0.342446  0.210564  1
  Nb  Nb15  1  0.000000  0.657554  0.789436  1
  Nb  Nb16  1  0.500000  0.157554  0.710564  1
  Nb  Nb17  1  0.500000  0.842446  0.289436  1
  Nb  Nb18  1  0.000000  0.324324  0.644263  1
  Nb  Nb19  1  0.000000  0.675676  0.355737  1
  Nb  Nb20  1  0.500000  0.175676  0.144263  1
  Nb  Nb21  1  0.500000  0.824324  0.855737  1
  P  P22  1  0.000000  0.091636  0.626489  1
  P  P23  1  0.000000  0.908364  0.373511  1
  P  P24  1  0.500000  0.408364  0.126489  1
  P  P25  1  0.500000  0.591636  0.873511  1
  Se  Se26  1  0.000000  0.713977  0.215770  1
  Se  Se27  1  0.000000  0.286023  0.784230  1
  Se  Se28  1  0.500000  0.786023  0.715770  1
  Se  Se29  1  0.500000  0.213977  0.284230  1
  Se  Se30  1  0.000000  0.107880  0.053712  1
  Se  Se31  1  0.000000  0.892120  0.946288  1
  Se  Se32  1  0.500000  0.392120  0.553712  1
  Se  Se33  1  0.500000  0.607880  0.446288  1
  Se  Se34  1  0.000000  0.211816  0.442273  1
  Se  Se35  1  0.000000  0.788184  0.557727  1
  Se  Se36  1  0.500000  0.288184  0.942273  1
  Se  Se37  1  0.500000  0.711816  0.057727  1
  Se  Se38  1  0.000000  0.457464  0.327411  1
  Se  Se39  1  0.000000  0.542536  0.672589  1
  Se  Se40  1  0.500000  0.042536  0.827411  1
  Se  Se41  1  0.500000  0.957464  0.172589  1
