# generated using pymatgen
data_Mn3Cr5B4
_symmetry_space_group_name_H-M   'P 1'
_cell_length_a   8.10544694
_cell_length_b   7.54505293
_cell_length_c   4.18688577
_cell_angle_alpha   82.08212790
_cell_angle_beta   67.05638216
_cell_angle_gamma   30.86525891
_symmetry_Int_Tables_number   1
_chemical_formula_structural   Mn3Cr5B4
_chemical_formula_sum   'Mn3 Cr5 B4'
_cell_volume   109.96586754
_cell_formula_units_Z   1
loop_
 _symmetry_equiv_pos_site_id
 _symmetry_equiv_pos_as_xyz
  1  'x, y, z'
loop_
 _atom_site_type_symbol
 _atom_site_label
 _atom_site_symmetry_multiplicity
 _atom_site_fract_x
 _atom_site_fract_y
 _atom_site_fract_z
 _atom_site_occupancy
  Mn  Mn0  1  0.332337  0.333932  0.166284  1
  Mn  Mn1  1  0.914078  0.917710  0.087333  1
  Mn  Mn2  1  0.914638  0.585390  0.920127  1
  Cr  Cr3  1  0.081745  0.078853  0.918733  1
  Cr  Cr4  1  0.336501  0.663948  0.330694  1
  Cr  Cr5  1  0.583622  0.916119  0.579551  1
  Cr  Cr6  1  0.171993  0.169242  0.327778  1
  Cr  Cr7  1  0.664918  0.335337  0.668346  1
  B  B8  1  0.368779  0.378984  0.627566  1
  B  B9  1  0.627070  0.624117  0.875545  1
  B  B10  1  0.627011  0.624387  0.370839  1
  B  B11  1  0.877308  0.871980  0.627203  1
