# generated using pymatgen
data_Pr8Er12Si15As
_symmetry_space_group_name_H-M   'P 1'
_cell_length_a   7.49668402
_cell_length_b   7.78452348
_cell_length_c   14.72714000
_cell_angle_alpha   90.00000000
_cell_angle_beta   90.00000000
_cell_angle_gamma   90.39771343
_symmetry_Int_Tables_number   1
_chemical_formula_structural   Pr8Er12Si15As
_chemical_formula_sum   'Pr8 Er12 Si15 As1'
_cell_volume   859.42739183
_cell_formula_units_Z   1
loop_
 _symmetry_equiv_pos_site_id
 _symmetry_equiv_pos_as_xyz
  1  'x, y, z'
loop_
 _atom_site_type_symbol
 _atom_site_label
 _atom_site_symmetry_multiplicity
 _atom_site_fract_x
 _atom_site_fract_y
 _atom_site_fract_z
 _atom_site_occupancy
  Pr  Pr0  1  0.021086  0.178712  0.402866  1
  Pr  Pr1  1  0.520691  0.321738  0.402323  1
  Pr  Pr2  1  0.484160  0.672815  0.904721  1
  Pr  Pr3  1  0.484160  0.672815  0.595279  1
  Pr  Pr4  1  0.980461  0.823375  0.600151  1
  Pr  Pr5  1  0.980461  0.823375  0.899849  1
  Pr  Pr6  1  0.520691  0.321738  0.097677  1
  Pr  Pr7  1  0.021086  0.178712  0.097134  1
  Er  Er8  1  0.318333  0.174647  0.624683  1
  Er  Er9  1  0.678816  0.823217  0.376265  1
  Er  Er10  1  0.656237  0.992125  0.750000  1
  Er  Er11  1  0.177421  0.678763  0.376515  1
  Er  Er12  1  0.817305  0.325467  0.877593  1
  Er  Er13  1  0.817305  0.325467  0.622407  1
  Er  Er14  1  0.845632  0.489589  0.250000  1
  Er  Er15  1  0.347297  0.010917  0.250000  1
  Er  Er16  1  0.318333  0.174647  0.875317  1
  Er  Er17  1  0.177421  0.678763  0.123485  1
  Er  Er18  1  0.678816  0.823217  0.123735  1
  Er  Er19  1  0.151454  0.502888  0.750000  1
  Si  Si20  1  0.471737  0.614617  0.250000  1
  Si  Si21  1  0.014587  0.132201  0.750000  1
  Si  Si22  1  0.523628  0.381712  0.750000  1
  Si  Si23  1  0.146237  0.468864  0.540450  1
  Si  Si24  1  0.973152  0.887373  0.250000  1
  Si  Si25  1  0.728074  0.120723  0.250000  1
  Si  Si26  1  0.854309  0.534033  0.040292  1
  Si  Si27  1  0.354618  0.967998  0.039500  1
  Si  Si28  1  0.146237  0.468864  0.959550  1
  Si  Si29  1  0.644551  0.030638  0.540556  1
  Si  Si30  1  0.354618  0.967998  0.460500  1
  Si  Si31  1  0.854309  0.534033  0.459708  1
  Si  Si32  1  0.775608  0.624642  0.750000  1
  Si  Si33  1  0.227328  0.380491  0.250000  1
  Si  Si34  1  0.644551  0.030638  0.959444  1
  As  As35  1  0.289293  0.862189  0.750000  1
