# generated using pymatgen
data_Ti3Mn4P4W
_symmetry_space_group_name_H-M   'P 1'
_cell_length_a   3.47387600
_cell_length_b   6.11312269
_cell_length_c   7.15936907
_cell_angle_alpha   89.58893425
_cell_angle_beta   90.00000000
_cell_angle_gamma   90.00000000
_symmetry_Int_Tables_number   1
_chemical_formula_structural   Ti3Mn4P4W
_chemical_formula_sum   'Ti3 Mn4 P4 W1'
_cell_volume   152.03409678
_cell_formula_units_Z   1
loop_
 _symmetry_equiv_pos_site_id
 _symmetry_equiv_pos_as_xyz
  1  'x, y, z'
loop_
 _atom_site_type_symbol
 _atom_site_label
 _atom_site_symmetry_multiplicity
 _atom_site_fract_x
 _atom_site_fract_y
 _atom_site_fract_z
 _atom_site_occupancy
  Ti  Ti0  1  0.250000  0.533552  0.672250  1
  Ti  Ti1  1  0.750000  0.968624  0.171182  1
  Ti  Ti2  1  0.750000  0.467891  0.327813  1
  Mn  Mn3  1  0.250000  0.136566  0.440480  1
  Mn  Mn4  1  0.250000  0.640992  0.059499  1
  Mn  Mn5  1  0.750000  0.860190  0.559782  1
  Mn  Mn6  1  0.750000  0.361141  0.939631  1
  P  P7  1  0.250000  0.762506  0.366060  1
  P  P8  1  0.250000  0.265724  0.134144  1
  P  P9  1  0.750000  0.236919  0.629973  1
  P  P10  1  0.750000  0.732792  0.866814  1
  W  W11  1  0.250000  0.033103  0.832373  1
