# generated using pymatgen
data_YbHo5Si24Os5Ru3
_symmetry_space_group_name_H-M   'P 1'
_cell_length_a   10.12304460
_cell_length_b   10.12304442
_cell_length_c   8.13845632
_cell_angle_alpha   89.98467670
_cell_angle_beta   89.98467376
_cell_angle_gamma   132.54581411
_symmetry_Int_Tables_number   1
_chemical_formula_structural   YbHo5Si24Os5Ru3
_chemical_formula_sum   'Yb1 Ho5 Si24 Os5 Ru3'
_cell_volume   614.43599891
_cell_formula_units_Z   1
loop_
 _symmetry_equiv_pos_site_id
 _symmetry_equiv_pos_as_xyz
  1  'x, y, z'
loop_
 _atom_site_type_symbol
 _atom_site_label
 _atom_site_symmetry_multiplicity
 _atom_site_fract_x
 _atom_site_fract_y
 _atom_site_fract_z
 _atom_site_occupancy
  Yb  Yb0  1  0.499556  0.499556  0.500010  1
  Ho  Ho1  1  0.999964  0.999964  0.999472  1
  Ho  Ho2  1  0.501459  0.001578  0.749657  1
  Ho  Ho3  1  0.998303  0.498579  0.250359  1
  Ho  Ho4  1  0.498579  0.998303  0.250359  1
  Ho  Ho5  1  0.001578  0.501459  0.749657  1
  Si  Si6  1  0.796372  0.203795  0.500162  1
  Si  Si7  1  0.296291  0.703651  0.000190  1
  Si  Si8  1  0.203795  0.796372  0.500162  1
  Si  Si9  1  0.703651  0.296291  0.000190  1
  Si  Si10  1  0.334130  0.334130  0.832186  1
  Si  Si11  1  0.666405  0.666405  0.168100  1
  Si  Si12  1  0.167733  0.167733  0.332436  1
  Si  Si13  1  0.829647  0.829647  0.664936  1
  Si  Si14  1  0.122207  0.888152  0.728274  1
  Si  Si15  1  0.112186  0.878867  0.271920  1
  Si  Si16  1  0.610239  0.377995  0.229776  1
  Si  Si17  1  0.622662  0.389897  0.770460  1
  Si  Si18  1  0.878867  0.112186  0.271920  1
  Si  Si19  1  0.888152  0.122207  0.728274  1
  Si  Si20  1  0.389897  0.622662  0.770460  1
  Si  Si21  1  0.377995  0.610239  0.229776  1
  Si  Si22  1  0.346415  0.113921  0.505163  1
  Si  Si23  1  0.886024  0.654068  0.495409  1
  Si  Si24  1  0.388193  0.154998  0.006283  1
  Si  Si25  1  0.844980  0.612252  0.994102  1
  Si  Si26  1  0.654068  0.886024  0.495409  1
  Si  Si27  1  0.113921  0.346415  0.505163  1
  Si  Si28  1  0.612252  0.844980  0.994102  1
  Si  Si29  1  0.154998  0.388193  0.006283  1
  Os  Os30  1  0.671016  0.329067  0.499913  1
  Os  Os31  1  0.170307  0.829530  0.000055  1
  Os  Os32  1  0.329067  0.671016  0.499913  1
  Os  Os33  1  0.829530  0.170307  0.000055  1
  Os  Os34  1  0.125084  0.125084  0.628102  1
  Ru  Ru35  1  0.874589  0.874589  0.371570  1
  Ru  Ru36  1  0.372196  0.372196  0.125890  1
  Ru  Ru37  1  0.627689  0.627689  0.873851  1
