# generated using pymatgen
data_Y13Th3Zn3Co4Hg
_symmetry_space_group_name_H-M   'P 1'
_cell_length_a   9.46661153
_cell_length_b   9.49601576
_cell_length_c   9.49601600
_cell_angle_alpha   59.99999917
_cell_angle_beta   59.89719694
_cell_angle_gamma   59.89719588
_symmetry_Int_Tables_number   1
_chemical_formula_structural   Y13Th3Zn3Co4Hg
_chemical_formula_sum   'Y13 Th3 Zn3 Co4 Hg1'
_cell_volume   602.67868155
_cell_formula_units_Z   1
loop_
 _symmetry_equiv_pos_site_id
 _symmetry_equiv_pos_as_xyz
  1  'x, y, z'
loop_
 _atom_site_type_symbol
 _atom_site_label
 _atom_site_symmetry_multiplicity
 _atom_site_fract_x
 _atom_site_fract_y
 _atom_site_fract_z
 _atom_site_occupancy
  Y  Y0  1  0.944898  0.351701  0.351701  1
  Y  Y1  1  0.809447  0.190726  0.190726  1
  Y  Y2  1  0.189748  0.811126  0.811126  1
  Y  Y3  1  0.189748  0.811126  0.187998  1
  Y  Y4  1  0.809447  0.190726  0.809100  1
  Y  Y5  1  0.189748  0.187998  0.811126  1
  Y  Y6  1  0.809447  0.809100  0.190726  1
  Y  Y7  1  0.934067  0.563921  0.563921  1
  Y  Y8  1  0.562631  0.936458  0.936458  1
  Y  Y9  1  0.562631  0.936458  0.564455  1
  Y  Y10  1  0.934067  0.563921  0.938090  1
  Y  Y11  1  0.562631  0.564455  0.936458  1
  Y  Y12  1  0.934067  0.938090  0.563921  1
  Th  Th13  1  0.345461  0.347795  0.347795  1
  Th  Th14  1  0.345461  0.347795  0.958951  1
  Th  Th15  1  0.345461  0.958951  0.347795  1
  Zn  Zn16  1  0.585564  0.579044  0.579044  1
  Zn  Zn17  1  0.585564  0.579044  0.256349  1
  Zn  Zn18  1  0.585564  0.256349  0.579044  1
  Co  Co19  1  0.150055  0.140952  0.140952  1
  Co  Co20  1  0.150055  0.140952  0.568043  1
  Co  Co21  1  0.150055  0.568043  0.140952  1
  Co  Co22  1  0.566064  0.144646  0.144646  1
  Hg  Hg23  1  0.258118  0.580628  0.580628  1
