# generated using pymatgen
data_Yb7Tm4In9Pd4
_symmetry_space_group_name_H-M   'P 1'
_cell_length_a   13.31841900
_cell_length_b   13.31840915
_cell_length_c   3.63460800
_cell_angle_alpha   90.00000000
_cell_angle_beta   90.00000000
_cell_angle_gamma   111.75527765
_symmetry_Int_Tables_number   1
_chemical_formula_structural   Yb7Tm4In9Pd4
_chemical_formula_sum   'Yb7 Tm4 In9 Pd4'
_cell_volume   598.78831390
_cell_formula_units_Z   1
loop_
 _symmetry_equiv_pos_site_id
 _symmetry_equiv_pos_as_xyz
  1  'x, y, z'
loop_
 _atom_site_type_symbol
 _atom_site_label
 _atom_site_symmetry_multiplicity
 _atom_site_fract_x
 _atom_site_fract_y
 _atom_site_fract_z
 _atom_site_occupancy
  Yb  Yb0  1  0.413292  0.068474  0.000000  1
  Yb  Yb1  1  0.586708  0.931526  0.000000  1
  Yb  Yb2  1  0.068474  0.413292  0.000000  1
  Yb  Yb3  1  0.931526  0.586708  0.000000  1
  Yb  Yb4  1  0.159121  0.840879  0.000000  1
  Yb  Yb5  1  0.840879  0.159121  0.000000  1
  Yb  Yb6  1  0.000000  0.000000  0.000000  1
  Tm  Tm7  1  0.379167  0.620834  0.000000  1
  Tm  Tm8  1  0.620833  0.379166  0.000000  1
  Tm  Tm9  1  0.313288  0.313289  0.000000  1
  Tm  Tm10  1  0.686712  0.686711  0.000000  1
  In  In11  1  0.368482  0.832093  0.500000  1
  In  In12  1  0.631518  0.167907  0.500000  1
  In  In13  1  0.832093  0.368482  0.500000  1
  In  In14  1  0.167907  0.631518  0.500000  1
  In  In15  1  0.218781  0.081067  0.500000  1
  In  In16  1  0.781219  0.918933  0.500000  1
  In  In17  1  0.081067  0.218781  0.500000  1
  In  In18  1  0.918933  0.781219  0.500000  1
  In  In19  1  0.500000  0.500000  0.500000  1
  Pd  Pd20  1  0.447672  0.247423  0.500000  1
  Pd  Pd21  1  0.552328  0.752577  0.500000  1
  Pd  Pd22  1  0.247423  0.447672  0.500000  1
  Pd  Pd23  1  0.752577  0.552328  0.500000  1
