# generated using pymatgen
data_Ta4VTe4
_symmetry_space_group_name_H-M   'P 1'
_cell_length_a   4.93114400
_cell_length_b   11.09771000
_cell_length_c   19.40677800
_cell_angle_alpha   90.00000000
_cell_angle_beta   90.00000000
_cell_angle_gamma   90.00000000
_symmetry_Int_Tables_number   1
_chemical_formula_structural   Ta4VTe4
_chemical_formula_sum   'Ta16 V4 Te16'
_cell_volume   1062.02439998
_cell_formula_units_Z   4
loop_
 _symmetry_equiv_pos_site_id
 _symmetry_equiv_pos_as_xyz
  1  'x, y, z'
loop_
 _atom_site_type_symbol
 _atom_site_label
 _atom_site_symmetry_multiplicity
 _atom_site_fract_x
 _atom_site_fract_y
 _atom_site_fract_z
 _atom_site_occupancy
  Ta  Ta0  1  0.500000  0.564366  0.383425  1
  Ta  Ta1  1  0.500000  0.435634  0.616575  1
  Ta  Ta2  1  0.500000  0.064366  0.116575  1
  Ta  Ta3  1  0.500000  0.935634  0.883425  1
  Ta  Ta4  1  0.500000  0.704681  0.536482  1
  Ta  Ta5  1  0.500000  0.295319  0.463518  1
  Ta  Ta6  1  0.500000  0.204681  0.963518  1
  Ta  Ta7  1  0.500000  0.795319  0.036482  1
  Ta  Ta8  1  0.000000  0.690238  0.443314  1
  Ta  Ta9  1  0.000000  0.309762  0.556686  1
  Ta  Ta10  1  0.000000  0.190238  0.056686  1
  Ta  Ta11  1  0.000000  0.809762  0.943314  1
  Ta  Ta12  1  0.000000  0.400892  0.391673  1
  Ta  Ta13  1  0.000000  0.599108  0.608327  1
  Ta  Ta14  1  0.000000  0.900892  0.108327  1
  Ta  Ta15  1  0.000000  0.099108  0.891673  1
  V  V16  1  0.250009  0.500000  0.500000  1
  V  V17  1  0.749991  0.000000  0.000000  1
  V  V18  1  0.749991  0.500000  0.500000  1
  V  V19  1  0.250009  0.000000  0.000000  1
  Te  Te20  1  0.000000  0.844213  0.562162  1
  Te  Te21  1  0.000000  0.155787  0.437838  1
  Te  Te22  1  0.000000  0.344213  0.937838  1
  Te  Te23  1  0.000000  0.655787  0.062162  1
  Te  Te24  1  0.500000  0.333593  0.317581  1
  Te  Te25  1  0.500000  0.666407  0.682419  1
  Te  Te26  1  0.500000  0.833593  0.182419  1
  Te  Te27  1  0.500000  0.166407  0.817581  1
  Te  Te28  1  0.500000  0.820210  0.404271  1
  Te  Te29  1  0.500000  0.179790  0.595729  1
  Te  Te30  1  0.500000  0.320210  0.095729  1
  Te  Te31  1  0.500000  0.679790  0.904271  1
  Te  Te32  1  0.000000  0.607521  0.303436  1
  Te  Te33  1  0.000000  0.392479  0.696564  1
  Te  Te34  1  0.000000  0.107521  0.196564  1
  Te  Te35  1  0.000000  0.892479  0.803436  1
