# generated using pymatgen
data_Ho16Lu4Ir5Rh7
_symmetry_space_group_name_H-M   'P 1'
_cell_length_a   10.80980327
_cell_length_b   10.80980327
_cell_length_c   6.32498101
_cell_angle_alpha   89.99645458
_cell_angle_beta   89.99645458
_cell_angle_gamma   90.02522963
_symmetry_Int_Tables_number   1
_chemical_formula_structural   Ho16Lu4Ir5Rh7
_chemical_formula_sum   'Ho16 Lu4 Ir5 Rh7'
_cell_volume   739.08563626
_cell_formula_units_Z   1
loop_
 _symmetry_equiv_pos_site_id
 _symmetry_equiv_pos_as_xyz
  1  'x, y, z'
loop_
 _atom_site_type_symbol
 _atom_site_label
 _atom_site_symmetry_multiplicity
 _atom_site_fract_x
 _atom_site_fract_y
 _atom_site_fract_z
 _atom_site_occupancy
  Ho  Ho0  1  0.290033  0.087842  0.377564  1
  Ho  Ho1  1  0.289907  0.911125  0.878428  1
  Ho  Ho2  1  0.709581  0.088698  0.878020  1
  Ho  Ho3  1  0.709540  0.911275  0.377755  1
  Ho  Ho4  1  0.587229  0.789468  0.878565  1
  Ho  Ho5  1  0.587185  0.210540  0.378491  1
  Ho  Ho6  1  0.411951  0.789635  0.378399  1
  Ho  Ho7  1  0.412776  0.210508  0.878486  1
  Ho  Ho8  1  0.210532  0.412771  0.621435  1
  Ho  Ho9  1  0.210365  0.588049  0.121601  1
  Ho  Ho10  1  0.789460  0.412815  0.121509  1
  Ho  Ho11  1  0.789492  0.587224  0.621514  1
  Ho  Ho12  1  0.912158  0.709967  0.122436  1
  Ho  Ho13  1  0.911302  0.290419  0.621980  1
  Ho  Ho14  1  0.088875  0.710093  0.621572  1
  Ho  Ho15  1  0.088725  0.290460  0.122245  1
  Lu  Lu16  1  0.000269  0.999762  0.499807  1
  Lu  Lu17  1  0.000238  0.999731  0.000193  1
  Lu  Lu18  1  0.499976  0.499935  0.000002  1
  Lu  Lu19  1  0.500065  0.500024  0.499998  1
  Ir  Ir20  1  0.151524  0.848476  0.250000  1
  Ir  Ir21  1  0.652608  0.347392  0.750000  1
  Ir  Ir22  1  0.652596  0.652553  0.249974  1
  Ir  Ir23  1  0.347447  0.347404  0.250026  1
  Ir  Ir24  1  0.347853  0.652147  0.750000  1
  Rh  Rh25  1  0.848384  0.151616  0.250000  1
  Rh  Rh26  1  0.848041  0.848465  0.749948  1
  Rh  Rh27  1  0.151535  0.151959  0.750052  1
  Rh  Rh28  1  0.500349  0.000154  0.122300  1
  Rh  Rh29  1  0.500287  0.000128  0.622536  1
  Rh  Rh30  1  0.999872  0.499713  0.877464  1
  Rh  Rh31  1  0.999846  0.499651  0.377700  1
