# generated using pymatgen
data_Ce2ReB8W
_symmetry_space_group_name_H-M   'P 1'
_cell_length_a   3.68613700
_cell_length_b   6.04430607
_cell_length_c   11.70311115
_cell_angle_alpha   89.98198457
_cell_angle_beta   90.00000000
_cell_angle_gamma   90.00000000
_symmetry_Int_Tables_number   1
_chemical_formula_structural   Ce2ReB8W
_chemical_formula_sum   'Ce4 Re2 B16 W2'
_cell_volume   260.74694491
_cell_formula_units_Z   2
loop_
 _symmetry_equiv_pos_site_id
 _symmetry_equiv_pos_as_xyz
  1  'x, y, z'
loop_
 _atom_site_type_symbol
 _atom_site_label
 _atom_site_symmetry_multiplicity
 _atom_site_fract_x
 _atom_site_fract_y
 _atom_site_fract_z
 _atom_site_occupancy
  Ce  Ce0  1  0.000000  0.126235  0.148091  1
  Ce  Ce1  1  0.000000  0.873765  0.851909  1
  Ce  Ce2  1  0.000000  0.625537  0.346738  1
  Ce  Ce3  1  0.000000  0.374463  0.653262  1
  Re  Re4  1  0.000000  0.637312  0.090609  1
  Re  Re5  1  0.000000  0.362688  0.909391  1
  B  B6  1  0.500000  0.525474  0.810200  1
  B  B7  1  0.500000  0.474526  0.189800  1
  B  B8  1  0.500000  0.024869  0.692211  1
  B  B9  1  0.500000  0.975131  0.307789  1
  B  B10  1  0.500000  0.387791  0.045902  1
  B  B11  1  0.500000  0.612209  0.954098  1
  B  B12  1  0.500000  0.886242  0.453451  1
  B  B13  1  0.500000  0.113758  0.546549  1
  B  B14  1  0.500000  0.215234  0.815791  1
  B  B15  1  0.500000  0.784766  0.184209  1
  B  B16  1  0.500000  0.713930  0.686345  1
  B  B17  1  0.500000  0.286070  0.313655  1
  B  B18  1  0.500000  0.138464  0.968471  1
  B  B19  1  0.500000  0.861536  0.031529  1
  B  B20  1  0.500000  0.635524  0.532197  1
  B  B21  1  0.500000  0.364476  0.467803  1
  W  W22  1  0.000000  0.129920  0.413542  1
  W  W23  1  0.000000  0.870080  0.586458  1
