# generated using pymatgen
data_Lu12Ni5Sn
_symmetry_space_group_name_H-M   'P 1'
_cell_length_a   8.12448840
_cell_length_b   8.12448749
_cell_length_c   8.12448797
_cell_angle_alpha   106.87558443
_cell_angle_beta   110.05568363
_cell_angle_gamma   111.51669869
_symmetry_Int_Tables_number   1
_chemical_formula_structural   Lu12Ni5Sn
_chemical_formula_sum   'Lu12 Ni5 Sn1'
_cell_volume   412.12292657
_cell_formula_units_Z   1
loop_
 _symmetry_equiv_pos_site_id
 _symmetry_equiv_pos_as_xyz
  1  'x, y, z'
loop_
 _atom_site_type_symbol
 _atom_site_label
 _atom_site_symmetry_multiplicity
 _atom_site_fract_x
 _atom_site_fract_y
 _atom_site_fract_z
 _atom_site_occupancy
  Lu  Lu0  1  0.472752  0.290398  0.182353  1
  Lu  Lu1  1  0.108045  0.290398  0.817647  1
  Lu  Lu2  1  0.891955  0.709602  0.182353  1
  Lu  Lu3  1  0.527248  0.709602  0.817647  1
  Lu  Lu4  1  0.305509  0.627428  0.321919  1
  Lu  Lu5  1  0.305509  0.983591  0.678081  1
  Lu  Lu6  1  0.694491  0.372572  0.678081  1
  Lu  Lu7  1  0.694491  0.016409  0.321919  1
  Lu  Lu8  1  0.192276  0.215031  0.407307  1
  Lu  Lu9  1  0.807724  0.784969  0.592693  1
  Lu  Lu10  1  0.192276  0.784969  0.977244  1
  Lu  Lu11  1  0.807724  0.215031  0.022756  1
  Ni  Ni12  1  0.500000  0.622245  0.122245  1
  Ni  Ni13  1  0.500000  0.377755  0.877755  1
  Ni  Ni14  1  0.362490  0.000000  0.362490  1
  Ni  Ni15  1  0.637510  0.000000  0.637510  1
  Ni  Ni16  1  0.000000  0.000000  0.000000  1
  Sn  Sn17  1  0.000000  0.500000  0.500000  1
