# generated using pymatgen
data_La9NdSm2(SiBr3)4
_symmetry_space_group_name_H-M   'P 1'
_cell_length_a   10.62570304
_cell_length_b   10.64296841
_cell_length_c   10.61666704
_cell_angle_alpha   109.71417382
_cell_angle_beta   109.55544376
_cell_angle_gamma   109.73634019
_symmetry_Int_Tables_number   1
_chemical_formula_structural   La9NdSm2(SiBr3)4
_chemical_formula_sum   'La9 Nd1 Sm2 Si4 Br12'
_cell_volume   917.42405916
_cell_formula_units_Z   1
loop_
 _symmetry_equiv_pos_site_id
 _symmetry_equiv_pos_as_xyz
  1  'x, y, z'
loop_
 _atom_site_type_symbol
 _atom_site_label
 _atom_site_symmetry_multiplicity
 _atom_site_fract_x
 _atom_site_fract_y
 _atom_site_fract_z
 _atom_site_occupancy
  La  La0  1  0.480273  0.490271  0.237092  1
  La  La1  1  0.262747  0.009725  0.019473  1
  La  La2  1  0.239547  0.480274  0.491246  1
  La  La3  1  0.008859  0.019879  0.260311  1
  La  La4  1  0.010683  0.490640  0.749855  1
  La  La5  1  0.491290  0.238839  0.479299  1
  La  La6  1  0.750448  0.009751  0.489254  1
  La  La7  1  0.020924  0.261484  0.008577  1
  La  La8  1  0.261369  0.750291  0.238704  1
  Nd  Nd9  1  0.236680  0.265684  0.749408  1
  Sm  Sm10  1  0.485603  0.749645  0.013949  1
  Sm  Sm11  1  0.750501  0.233267  0.264200  1
  Si  Si12  1  0.250532  0.249963  0.249575  1
  Si  Si13  1  0.999181  0.250083  0.498741  1
  Si  Si14  1  0.250999  0.501574  0.999878  1
  Si  Si15  1  0.501049  0.999642  0.248929  1
  Br  Br16  1  0.000194  0.993704  0.744257  1
  Br  Br17  1  0.749276  0.744577  0.241632  1
  Br  Br18  1  0.990224  0.745582  0.994463  1
  Br  Br19  1  0.250387  0.999017  0.507733  1
  Br  Br20  1  0.740146  0.996382  0.995432  1
  Br  Br21  1  0.507161  0.250293  0.996972  1
  Br  Br22  1  0.745130  0.249919  0.754595  1
  Br  Br23  1  0.505668  0.754703  0.509840  1
  Br  Br24  1  0.755679  0.503654  0.496741  1
  Br  Br25  1  0.258375  0.755666  0.750743  1
  Br  Br26  1  0.507153  0.506634  0.759714  1
  Br  Br27  1  0.989919  0.498857  0.249392  1
