# generated using pymatgen
data_CaSmBPd6
_symmetry_space_group_name_H-M   'P 1'
_cell_length_a   5.95850141
_cell_length_b   5.95850179
_cell_length_c   5.95850400
_cell_angle_alpha   60.00000996
_cell_angle_beta   60.00000784
_cell_angle_gamma   60.00001055
_symmetry_Int_Tables_number   1
_chemical_formula_structural   CaSmBPd6
_chemical_formula_sum   'Ca1 Sm1 B1 Pd6'
_cell_volume   149.58789525
_cell_formula_units_Z   1
loop_
 _symmetry_equiv_pos_site_id
 _symmetry_equiv_pos_as_xyz
  1  'x, y, z'
loop_
 _atom_site_type_symbol
 _atom_site_label
 _atom_site_symmetry_multiplicity
 _atom_site_fract_x
 _atom_site_fract_y
 _atom_site_fract_z
 _atom_site_occupancy
  Ca  Ca0  1  0.250000  0.250000  0.250000  1
  Sm  Sm1  1  0.750000  0.750000  0.750000  1
  B  B2  1  0.500000  0.500000  0.500000  1
  Pd  Pd3  1  0.755630  0.244370  0.244370  1
  Pd  Pd4  1  0.244370  0.755630  0.244370  1
  Pd  Pd5  1  0.755630  0.755630  0.244370  1
  Pd  Pd6  1  0.244370  0.244370  0.755630  1
  Pd  Pd7  1  0.755630  0.244370  0.755630  1
  Pd  Pd8  1  0.244370  0.755630  0.755630  1
