# generated using pymatgen
data_Sm3Co(P3Ru4)2
_symmetry_space_group_name_H-M   'P 1'
_cell_length_a   3.94670100
_cell_length_b   11.18365400
_cell_length_c   12.66525800
_cell_angle_alpha   90.00000000
_cell_angle_beta   90.00000000
_cell_angle_gamma   90.00000000
_symmetry_Int_Tables_number   1
_chemical_formula_structural   Sm3Co(P3Ru4)2
_chemical_formula_sum   'Sm6 Co2 P12 Ru16'
_cell_volume   559.02597690
_cell_formula_units_Z   2
loop_
 _symmetry_equiv_pos_site_id
 _symmetry_equiv_pos_as_xyz
  1  'x, y, z'
loop_
 _atom_site_type_symbol
 _atom_site_label
 _atom_site_symmetry_multiplicity
 _atom_site_fract_x
 _atom_site_fract_y
 _atom_site_fract_z
 _atom_site_occupancy
  Sm  Sm0  1  0.000000  0.500000  0.526048  1
  Sm  Sm1  1  0.500000  0.000000  0.473952  1
  Sm  Sm2  1  0.500000  0.820047  0.204708  1
  Sm  Sm3  1  0.500000  0.179953  0.204708  1
  Sm  Sm4  1  0.000000  0.679953  0.795292  1
  Sm  Sm5  1  0.000000  0.320047  0.795292  1
  Co  Co6  1  0.000000  0.500000  0.988471  1
  Co  Co7  1  0.500000  0.000000  0.011529  1
  P  P8  1  0.500000  0.500000  0.885226  1
  P  P9  1  0.000000  0.000000  0.114774  1
  P  P10  1  0.500000  0.500000  0.336320  1
  P  P11  1  0.000000  0.000000  0.663680  1
  P  P12  1  0.500000  0.300554  0.617340  1
  P  P13  1  0.500000  0.699446  0.617340  1
  P  P14  1  0.000000  0.199446  0.382660  1
  P  P15  1  0.000000  0.800554  0.382660  1
  P  P16  1  0.500000  0.849427  0.898896  1
  P  P17  1  0.500000  0.150573  0.898896  1
  P  P18  1  0.000000  0.650573  0.101104  1
  P  P19  1  0.000000  0.349427  0.101104  1
  Ru  Ru20  1  0.500000  0.500000  0.153774  1
  Ru  Ru21  1  0.000000  0.000000  0.846226  1
  Ru  Ru22  1  0.500000  0.500000  0.695699  1
  Ru  Ru23  1  0.000000  0.000000  0.304301  1
  Ru  Ru24  1  0.500000  0.334460  0.991710  1
  Ru  Ru25  1  0.500000  0.665540  0.991710  1
  Ru  Ru26  1  0.000000  0.165540  0.008290  1
  Ru  Ru27  1  0.000000  0.834460  0.008290  1
  Ru  Ru28  1  0.500000  0.301988  0.430311  1
  Ru  Ru29  1  0.500000  0.698012  0.430311  1
  Ru  Ru30  1  0.000000  0.198012  0.569689  1
  Ru  Ru31  1  0.000000  0.801988  0.569689  1
  Ru  Ru32  1  0.500000  0.879122  0.715979  1
  Ru  Ru33  1  0.500000  0.120878  0.715979  1
  Ru  Ru34  1  0.000000  0.620878  0.284021  1
  Ru  Ru35  1  0.000000  0.379122  0.284021  1
