# generated using pymatgen
data_Er12Th4MgZn3Fe4
_symmetry_space_group_name_H-M   'P 1'
_cell_length_a   9.38598562
_cell_length_b   9.40294463
_cell_length_c   9.40294400
_cell_angle_alpha   59.99999517
_cell_angle_beta   59.94020722
_cell_angle_gamma   59.94021569
_symmetry_Int_Tables_number   1
_chemical_formula_structural   Er12Th4MgZn3Fe4
_chemical_formula_sum   'Er12 Th4 Mg1 Zn3 Fe4'
_cell_volume   586.27251387
_cell_formula_units_Z   1
loop_
 _symmetry_equiv_pos_site_id
 _symmetry_equiv_pos_as_xyz
  1  'x, y, z'
loop_
 _atom_site_type_symbol
 _atom_site_label
 _atom_site_symmetry_multiplicity
 _atom_site_fract_x
 _atom_site_fract_y
 _atom_site_fract_z
 _atom_site_occupancy
  Er  Er0  1  0.809667  0.190164  0.190164  1
  Er  Er1  1  0.186799  0.812792  0.812792  1
  Er  Er2  1  0.186799  0.812792  0.187616  1
  Er  Er3  1  0.809667  0.190164  0.810005  1
  Er  Er4  1  0.186799  0.187616  0.812792  1
  Er  Er5  1  0.809667  0.810005  0.190164  1
  Er  Er6  1  0.932106  0.563910  0.563910  1
  Er  Er7  1  0.562452  0.936532  0.936532  1
  Er  Er8  1  0.562452  0.936532  0.564485  1
  Er  Er9  1  0.932106  0.563910  0.940075  1
  Er  Er10  1  0.562452  0.564485  0.936532  1
  Er  Er11  1  0.932106  0.940075  0.563910  1
  Th  Th12  1  0.346486  0.345182  0.345182  1
  Th  Th13  1  0.346486  0.345182  0.963146  1
  Th  Th14  1  0.346486  0.963146  0.345182  1
  Th  Th15  1  0.954727  0.348424  0.348424  1
  Mg  Mg16  1  0.286312  0.571229  0.571229  1
  Zn  Zn17  1  0.583449  0.581060  0.581060  1
  Zn  Zn18  1  0.583449  0.581060  0.254429  1
  Zn  Zn19  1  0.583449  0.254429  0.581060  1
  Fe  Fe20  1  0.142327  0.143797  0.143797  1
  Fe  Fe21  1  0.142327  0.143797  0.570078  1
  Fe  Fe22  1  0.142327  0.570078  0.143797  1
  Fe  Fe23  1  0.569097  0.143633  0.143633  1
