# generated using pymatgen
data_Cu2Bi3Ir3O14
_symmetry_space_group_name_H-M   'P 1'
_cell_length_a   7.18527895
_cell_length_b   7.18527909
_cell_length_c   7.18528009
_cell_angle_alpha   61.30231204
_cell_angle_beta   61.30231465
_cell_angle_gamma   61.30231619
_symmetry_Int_Tables_number   1
_chemical_formula_structural   Cu2Bi3Ir3O14
_chemical_formula_sum   'Cu2 Bi3 Ir3 O14'
_cell_volume   269.98953117
_cell_formula_units_Z   1
loop_
 _symmetry_equiv_pos_site_id
 _symmetry_equiv_pos_as_xyz
  1  'x, y, z'
loop_
 _atom_site_type_symbol
 _atom_site_label
 _atom_site_symmetry_multiplicity
 _atom_site_fract_x
 _atom_site_fract_y
 _atom_site_fract_z
 _atom_site_occupancy
  Cu  Cu0  1  0.500000  0.500000  0.500000  1
  Cu  Cu1  1  0.000000  0.000000  0.000000  1
  Bi  Bi2  1  0.000000  0.500000  0.500000  1
  Bi  Bi3  1  0.500000  0.500000  0.000000  1
  Bi  Bi4  1  0.500000  0.000000  0.500000  1
  Ir  Ir5  1  0.500000  0.000000  0.000000  1
  Ir  Ir6  1  0.000000  0.000000  0.500000  1
  Ir  Ir7  1  0.000000  0.500000  0.000000  1
  O  O8  1  0.921203  0.323737  0.323737  1
  O  O9  1  0.345479  0.909713  0.909713  1
  O  O10  1  0.323737  0.323737  0.921203  1
  O  O11  1  0.909713  0.909713  0.345479  1
  O  O12  1  0.909713  0.345479  0.909713  1
  O  O13  1  0.323737  0.921203  0.323737  1
  O  O14  1  0.078797  0.676263  0.676263  1
  O  O15  1  0.654521  0.090287  0.090287  1
  O  O16  1  0.676263  0.676263  0.078797  1
  O  O17  1  0.090287  0.090287  0.654521  1
  O  O18  1  0.090287  0.654521  0.090287  1
  O  O19  1  0.676263  0.078797  0.676263  1
  O  O20  1  0.392120  0.392120  0.392120  1
  O  O21  1  0.607880  0.607880  0.607880  1
