# generated using pymatgen
data_Tm2Lu2Al24Pt8Au
_symmetry_space_group_name_H-M   'P 1'
_cell_length_a   7.52637086
_cell_length_b   7.54587407
_cell_length_c   13.10789812
_cell_angle_alpha   84.55457668
_cell_angle_beta   79.01574804
_cell_angle_gamma   59.89705037
_symmetry_Int_Tables_number   1
_chemical_formula_structural   Tm2Lu2Al24Pt8Au
_chemical_formula_sum   'Tm2 Lu2 Al24 Pt8 Au1'
_cell_volume   632.23279010
_cell_formula_units_Z   1
loop_
 _symmetry_equiv_pos_site_id
 _symmetry_equiv_pos_as_xyz
  1  'x, y, z'
loop_
 _atom_site_type_symbol
 _atom_site_label
 _atom_site_symmetry_multiplicity
 _atom_site_fract_x
 _atom_site_fract_y
 _atom_site_fract_z
 _atom_site_occupancy
  Tm  Tm0  1  0.393033  0.169303  0.808525  1
  Tm  Tm1  1  0.606029  0.831477  0.192787  1
  Lu  Lu2  1  0.734091  0.499155  0.808137  1
  Lu  Lu3  1  0.266294  0.500995  0.192423  1
  Al  Al4  1  0.682690  0.833900  0.944683  1
  Al  Al5  1  0.316202  0.166264  0.056656  1
  Al  Al6  1  0.146708  0.839200  0.560246  1
  Al  Al7  1  0.854481  0.167257  0.436012  1
  Al  Al8  1  0.488357  0.159470  0.557432  1
  Al  Al9  1  0.520292  0.833538  0.439702  1
  Al  Al10  1  0.218568  0.165505  0.327079  1
  Al  Al11  1  0.776663  0.838708  0.675273  1
  Al  Al12  1  0.439905  0.506771  0.675421  1
  Al  Al13  1  0.563191  0.493662  0.326755  1
  Al  Al14  1  0.108017  0.155319  0.673988  1
  Al  Al15  1  0.891194  0.839563  0.328009  1
  Al  Al16  1  0.354425  0.498282  0.944655  1
  Al  Al17  1  0.645996  0.501339  0.056557  1
  Al  Al18  1  0.015646  0.168557  0.952271  1
  Al  Al19  1  0.983854  0.831459  0.048994  1
  Al  Al20  1  0.188133  0.499632  0.436276  1
  Al  Al21  1  0.806793  0.500043  0.557360  1
  Al  Al22  1  0.733489  0.164082  0.183070  1
  Al  Al23  1  0.267479  0.835318  0.817292  1
  Al  Al24  1  0.060367  0.632907  0.818271  1
  Al  Al25  1  0.938756  0.368996  0.184388  1
  Al  Al26  1  0.853468  0.042892  0.816605  1
  Al  Al27  1  0.145261  0.957526  0.183667  1
  Pt  Pt28  1  0.879981  0.509268  0.360222  1
  Pt  Pt29  1  0.657101  0.171507  0.999547  1
  Pt  Pt30  1  0.343079  0.828250  0.999976  1
  Pt  Pt31  1  0.537072  0.166886  0.360439  1
  Pt  Pt32  1  0.462917  0.833017  0.638930  1
  Pt  Pt33  1  0.778383  0.175798  0.637359  1
  Pt  Pt34  1  0.222082  0.824142  0.361918  1
  Pt  Pt35  1  0.999963  0.499925  0.000268  1
  Au  Au36  1  0.120042  0.490088  0.638807  1
