# generated using pymatgen
data_SmTa3O9
_symmetry_space_group_name_H-M   'P 1'
_cell_length_a   7.57979200
_cell_length_b   5.38556593
_cell_length_c   8.31186334
_cell_angle_alpha   87.53167295
_cell_angle_beta   90.00000000
_cell_angle_gamma   90.00000000
_symmetry_Int_Tables_number   1
_chemical_formula_structural   SmTa3O9
_chemical_formula_sum   'Sm2 Ta6 O18'
_cell_volume   338.98766516
_cell_formula_units_Z   2
loop_
 _symmetry_equiv_pos_site_id
 _symmetry_equiv_pos_as_xyz
  1  'x, y, z'
loop_
 _atom_site_type_symbol
 _atom_site_label
 _atom_site_symmetry_multiplicity
 _atom_site_fract_x
 _atom_site_fract_y
 _atom_site_fract_z
 _atom_site_occupancy
  Sm  Sm0  1  0.250000  0.965079  0.434175  1
  Sm  Sm1  1  0.750000  0.034921  0.565825  1
  Ta  Ta2  1  0.000000  0.000000  0.000000  1
  Ta  Ta3  1  0.500000  0.000000  0.000000  1
  Ta  Ta4  1  0.007053  0.527368  0.697632  1
  Ta  Ta5  1  0.492947  0.527368  0.697632  1
  Ta  Ta6  1  0.992947  0.472632  0.302368  1
  Ta  Ta7  1  0.507053  0.472632  0.302368  1
  O  O8  1  0.250000  0.911190  0.981314  1
  O  O9  1  0.940061  0.847610  0.786352  1
  O  O10  1  0.559939  0.847610  0.786352  1
  O  O11  1  0.960336  0.738191  0.467138  1
  O  O12  1  0.539664  0.738191  0.467138  1
  O  O13  1  0.250000  0.654791  0.658253  1
  O  O14  1  0.949857  0.679644  0.121881  1
  O  O15  1  0.550143  0.679644  0.121881  1
  O  O16  1  0.250000  0.567426  0.313295  1
  O  O17  1  0.750000  0.432574  0.686705  1
  O  O18  1  0.050143  0.320356  0.878119  1
  O  O19  1  0.449857  0.320356  0.878119  1
  O  O20  1  0.750000  0.345209  0.341747  1
  O  O21  1  0.039664  0.261809  0.532862  1
  O  O22  1  0.460336  0.261809  0.532862  1
  O  O23  1  0.059939  0.152390  0.213648  1
  O  O24  1  0.440061  0.152390  0.213648  1
  O  O25  1  0.750000  0.088810  0.018686  1
