# generated using pymatgen
data_Sr14RhAu5
_symmetry_space_group_name_H-M   'P 1'
_cell_length_a   11.10787876
_cell_length_b   11.10787840
_cell_length_c   7.14657755
_cell_angle_alpha   90.19335018
_cell_angle_beta   89.80665119
_cell_angle_gamma   120.04718647
_symmetry_Int_Tables_number   1
_chemical_formula_structural   Sr14RhAu5
_chemical_formula_sum   'Sr14 Rh1 Au5'
_cell_volume   763.27493150
_cell_formula_units_Z   1
loop_
 _symmetry_equiv_pos_site_id
 _symmetry_equiv_pos_as_xyz
  1  'x, y, z'
loop_
 _atom_site_type_symbol
 _atom_site_label
 _atom_site_symmetry_multiplicity
 _atom_site_fract_x
 _atom_site_fract_y
 _atom_site_fract_z
 _atom_site_occupancy
  Sr  Sr0  1  0.332306  0.667694  0.044722  1
  Sr  Sr1  1  0.670673  0.329327  0.534936  1
  Sr  Sr2  1  0.126302  0.873698  0.250069  1
  Sr  Sr3  1  0.252903  0.125803  0.752567  1
  Sr  Sr4  1  0.874197  0.747097  0.752567  1
  Sr  Sr5  1  0.111945  0.246422  0.250503  1
  Sr  Sr6  1  0.753578  0.888055  0.250503  1
  Sr  Sr7  1  0.873295  0.126705  0.732297  1
  Sr  Sr8  1  0.540161  0.459839  0.063810  1
  Sr  Sr9  1  0.080089  0.536065  0.566179  1
  Sr  Sr10  1  0.463935  0.919911  0.566179  1
  Sr  Sr11  1  0.555304  0.090334  0.075938  1
  Sr  Sr12  1  0.909666  0.444696  0.075938  1
  Sr  Sr13  1  0.459331  0.540669  0.562788  1
  Rh  Rh14  1  0.809981  0.190019  0.338876  1
  Au  Au15  1  0.622847  0.807752  0.834588  1
  Au  Au16  1  0.192248  0.377153  0.834588  1
  Au  Au17  1  0.810072  0.626863  0.329625  1
  Au  Au18  1  0.373137  0.189928  0.329625  1
  Au  Au19  1  0.188031  0.811969  0.825702  1
