# generated using pymatgen
data_Ho2TmIn3Ag2Au
_symmetry_space_group_name_H-M   'P 1'
_cell_length_a   7.83155580
_cell_length_b   7.82951965
_cell_length_c   3.90988700
_cell_angle_alpha   90.00000000
_cell_angle_beta   90.00000000
_cell_angle_gamma   119.86166353
_symmetry_Int_Tables_number   1
_chemical_formula_structural   Ho2TmIn3Ag2Au
_chemical_formula_sum   'Ho2 Tm1 In3 Ag2 Au1'
_cell_volume   207.91303111
_cell_formula_units_Z   1
loop_
 _symmetry_equiv_pos_site_id
 _symmetry_equiv_pos_as_xyz
  1  'x, y, z'
loop_
 _atom_site_type_symbol
 _atom_site_label
 _atom_site_symmetry_multiplicity
 _atom_site_fract_x
 _atom_site_fract_y
 _atom_site_fract_z
 _atom_site_occupancy
  Ho  Ho0  1  0.408095  0.007036  0.500000  1
  Ho  Ho1  1  0.993281  0.401199  0.500000  1
  Tm  Tm2  1  0.599327  0.592041  0.500000  1
  In  In3  1  0.733984  0.993256  0.000000  1
  In  In4  1  0.005661  0.740235  0.000000  1
  In  In5  1  0.259483  0.265513  0.000000  1
  Ag  Ag6  1  0.334559  0.666287  0.000000  1
  Ag  Ag7  1  0.999446  0.999555  0.500000  1
  Au  Au8  1  0.666165  0.334879  0.000000  1
