# generated using pymatgen
data_Rb3IrO5
_symmetry_space_group_name_H-M   'P 1'
_cell_length_a   8.62397600
_cell_length_b   8.76531100
_cell_length_c   9.55462300
_cell_angle_alpha   90.00000000
_cell_angle_beta   90.00000000
_cell_angle_gamma   90.00000000
_symmetry_Int_Tables_number   1
_chemical_formula_structural   Rb3IrO5
_chemical_formula_sum   'Rb12 Ir4 O20'
_cell_volume   722.25145374
_cell_formula_units_Z   4
loop_
 _symmetry_equiv_pos_site_id
 _symmetry_equiv_pos_as_xyz
  1  'x, y, z'
loop_
 _atom_site_type_symbol
 _atom_site_label
 _atom_site_symmetry_multiplicity
 _atom_site_fract_x
 _atom_site_fract_y
 _atom_site_fract_z
 _atom_site_occupancy
  Rb  Rb0  1  0.947836  0.250000  0.750000  1
  Rb  Rb1  1  0.552164  0.750000  0.750000  1
  Rb  Rb2  1  0.052164  0.750000  0.250000  1
  Rb  Rb3  1  0.447836  0.250000  0.250000  1
  Rb  Rb4  1  0.750000  0.500000  0.014640  1
  Rb  Rb5  1  0.750000  0.000000  0.485360  1
  Rb  Rb6  1  0.250000  0.500000  0.985360  1
  Rb  Rb7  1  0.250000  0.000000  0.514640  1
  Rb  Rb8  1  0.750000  0.500000  0.479162  1
  Rb  Rb9  1  0.750000  0.000000  0.020838  1
  Rb  Rb10  1  0.250000  0.500000  0.520838  1
  Rb  Rb11  1  0.250000  0.000000  0.979162  1
  Ir  Ir12  1  0.485530  0.250000  0.750000  1
  Ir  Ir13  1  0.014470  0.750000  0.750000  1
  Ir  Ir14  1  0.514470  0.750000  0.250000  1
  Ir  Ir15  1  0.985530  0.250000  0.250000  1
  O  O16  1  0.272473  0.250000  0.750000  1
  O  O17  1  0.227527  0.750000  0.750000  1
  O  O18  1  0.727527  0.750000  0.250000  1
  O  O19  1  0.772473  0.250000  0.250000  1
  O  O20  1  0.590657  0.068869  0.754727  1
  O  O21  1  0.909343  0.931131  0.754727  1
  O  O22  1  0.590657  0.431131  0.745273  1
  O  O23  1  0.909343  0.568869  0.745273  1
  O  O24  1  0.409343  0.931131  0.245273  1
  O  O25  1  0.090657  0.068869  0.245273  1
  O  O26  1  0.409343  0.568869  0.254727  1
  O  O27  1  0.090657  0.431131  0.254727  1
  O  O28  1  0.486283  0.255457  0.951891  1
  O  O29  1  0.013717  0.744543  0.951891  1
  O  O30  1  0.486283  0.244543  0.548109  1
  O  O31  1  0.013717  0.755457  0.548109  1
  O  O32  1  0.513717  0.744543  0.048109  1
  O  O33  1  0.986283  0.255457  0.048109  1
  O  O34  1  0.513717  0.755457  0.451891  1
  O  O35  1  0.986283  0.244543  0.451891  1
