# generated using pymatgen
data_Y18Ho2Cd6RuRh
_symmetry_space_group_name_H-M   'P 1'
_cell_length_a   9.67282700
_cell_length_b   9.67282596
_cell_length_c   9.83165700
_cell_angle_alpha   90.00000000
_cell_angle_beta   90.00000000
_cell_angle_gamma   120.00000013
_symmetry_Int_Tables_number   1
_chemical_formula_structural   Y18Ho2Cd6RuRh
_chemical_formula_sum   'Y18 Ho2 Cd6 Ru1 Rh1'
_cell_volume   796.64373340
_cell_formula_units_Z   1
loop_
 _symmetry_equiv_pos_site_id
 _symmetry_equiv_pos_as_xyz
  1  'x, y, z'
loop_
 _atom_site_type_symbol
 _atom_site_label
 _atom_site_symmetry_multiplicity
 _atom_site_fract_x
 _atom_site_fract_y
 _atom_site_fract_z
 _atom_site_occupancy
  Y  Y0  1  0.208662  0.791338  0.440193  1
  Y  Y1  1  0.208662  0.417323  0.440193  1
  Y  Y2  1  0.582677  0.791338  0.440193  1
  Y  Y3  1  0.790799  0.209201  0.560310  1
  Y  Y4  1  0.790799  0.581597  0.560310  1
  Y  Y5  1  0.418403  0.209201  0.560310  1
  Y  Y6  1  0.790799  0.209201  0.939690  1
  Y  Y7  1  0.790799  0.581597  0.939690  1
  Y  Y8  1  0.418403  0.209201  0.939690  1
  Y  Y9  1  0.208662  0.791338  0.059807  1
  Y  Y10  1  0.208662  0.417323  0.059807  1
  Y  Y11  1  0.582677  0.791338  0.059807  1
  Y  Y12  1  0.542324  0.457676  0.250000  1
  Y  Y13  1  0.542324  0.084650  0.250000  1
  Y  Y14  1  0.915350  0.457676  0.250000  1
  Y  Y15  1  0.458764  0.541236  0.750000  1
  Y  Y16  1  0.458764  0.917528  0.750000  1
  Y  Y17  1  0.082472  0.541236  0.750000  1
  Ho  Ho18  1  0.000000  0.000000  0.499784  1
  Ho  Ho19  1  0.000000  0.000000  0.000216  1
  Cd  Cd20  1  0.885322  0.114678  0.250000  1
  Cd  Cd21  1  0.885322  0.770646  0.250000  1
  Cd  Cd22  1  0.229354  0.114678  0.250000  1
  Cd  Cd23  1  0.114513  0.885487  0.750000  1
  Cd  Cd24  1  0.114513  0.229024  0.750000  1
  Cd  Cd25  1  0.770976  0.885487  0.750000  1
  Ru  Ru26  1  0.666667  0.333333  0.750000  1
  Rh  Rh27  1  0.333333  0.666667  0.250000  1
