# generated using pymatgen
data_Pr8Dy11TmGa5Si11
_symmetry_space_group_name_H-M   'P 1'
_cell_length_a   7.57391158
_cell_length_b   7.86699240
_cell_length_c   15.04328116
_cell_angle_alpha   90.00170330
_cell_angle_beta   90.08748406
_cell_angle_gamma   90.04768778
_symmetry_Int_Tables_number   1
_chemical_formula_structural   Pr8Dy11TmGa5Si11
_chemical_formula_sum   'Pr8 Dy11 Tm1 Ga5 Si11'
_cell_volume   896.33607733
_cell_formula_units_Z   1
loop_
 _symmetry_equiv_pos_site_id
 _symmetry_equiv_pos_as_xyz
  1  'x, y, z'
loop_
 _atom_site_type_symbol
 _atom_site_label
 _atom_site_symmetry_multiplicity
 _atom_site_fract_x
 _atom_site_fract_y
 _atom_site_fract_z
 _atom_site_occupancy
  Pr  Pr0  1  0.020056  0.177352  0.400170  1
  Pr  Pr1  1  0.519814  0.322909  0.400375  1
  Pr  Pr2  1  0.482409  0.678531  0.898822  1
  Pr  Pr3  1  0.480215  0.681024  0.600098  1
  Pr  Pr4  1  0.981032  0.819144  0.599944  1
  Pr  Pr5  1  0.981041  0.825412  0.899223  1
  Pr  Pr6  1  0.518399  0.320361  0.101276  1
  Pr  Pr7  1  0.018250  0.178893  0.101652  1
  Dy  Dy8  1  0.324790  0.173504  0.623661  1
  Dy  Dy9  1  0.675622  0.821341  0.376235  1
  Dy  Dy10  1  0.660861  0.992613  0.751524  1
  Dy  Dy11  1  0.174681  0.678413  0.376190  1
  Dy  Dy12  1  0.823448  0.323959  0.876219  1
  Dy  Dy13  1  0.824330  0.326035  0.623377  1
  Dy  Dy14  1  0.839736  0.492595  0.250550  1
  Dy  Dy15  1  0.340978  0.006077  0.251641  1
  Dy  Dy16  1  0.326950  0.176211  0.874372  1
  Dy  Dy17  1  0.173664  0.673405  0.125385  1
  Dy  Dy18  1  0.673585  0.826366  0.124409  1
  Tm  Tm19  1  0.159170  0.505399  0.750489  1
  Ga  Ga20  1  0.153827  0.463507  0.538129  1
  Ga  Ga21  1  0.844871  0.536625  0.038774  1
  Ga  Ga22  1  0.344794  0.962966  0.037537  1
  Ga  Ga23  1  0.153972  0.464696  0.959844  1
  Ga  Ga24  1  0.654023  0.036576  0.537638  1
  Si  Si25  1  0.276263  0.878222  0.749392  1
  Si  Si26  1  0.468236  0.612888  0.251374  1
  Si  Si27  1  0.030974  0.113255  0.749111  1
  Si  Si28  1  0.530622  0.389093  0.749072  1
  Si  Si29  1  0.968598  0.888424  0.250751  1
  Si  Si30  1  0.723057  0.120562  0.251318  1
  Si  Si31  1  0.351430  0.966551  0.460130  1
  Si  Si32  1  0.851237  0.533456  0.460158  1
  Si  Si33  1  0.777194  0.620778  0.749154  1
  Si  Si34  1  0.223120  0.378842  0.251364  1
  Si  Si35  1  0.648745  0.034021  0.960642  1
