# generated using pymatgen
data_LaTb7(Er3Sn4)4
_symmetry_space_group_name_H-M   'P 1'
_cell_length_a   8.02849412
_cell_length_b   8.17809959
_cell_length_c   15.43959804
_cell_angle_alpha   89.99250117
_cell_angle_beta   89.69941542
_cell_angle_gamma   90.19309970
_symmetry_Int_Tables_number   1
_chemical_formula_structural   LaTb7(Er3Sn4)4
_chemical_formula_sum   'La1 Tb7 Er12 Sn16'
_cell_volume   1013.71069983
_cell_formula_units_Z   1
loop_
 _symmetry_equiv_pos_site_id
 _symmetry_equiv_pos_as_xyz
  1  'x, y, z'
loop_
 _atom_site_type_symbol
 _atom_site_label
 _atom_site_symmetry_multiplicity
 _atom_site_fract_x
 _atom_site_fract_y
 _atom_site_fract_z
 _atom_site_occupancy
  La  La0  1  0.513491  0.321057  0.905372  1
  Tb  Tb1  1  0.018929  0.178376  0.595169  1
  Tb  Tb2  1  0.480518  0.678782  0.402691  1
  Tb  Tb3  1  0.981025  0.821083  0.097836  1
  Tb  Tb4  1  0.483057  0.680903  0.097432  1
  Tb  Tb5  1  0.980434  0.821092  0.402575  1
  Tb  Tb6  1  0.520407  0.320546  0.597325  1
  Tb  Tb7  1  0.018910  0.176909  0.903248  1
  Er  Er8  1  0.363593  0.837669  0.877074  1
  Er  Er9  1  0.866436  0.662527  0.622245  1
  Er  Er10  1  0.634635  0.162686  0.377659  1
  Er  Er11  1  0.137391  0.336286  0.124571  1
  Er  Er12  1  0.637482  0.162274  0.123311  1
  Er  Er13  1  0.134199  0.337678  0.376988  1
  Er  Er14  1  0.364967  0.837223  0.621011  1
  Er  Er15  1  0.863085  0.663392  0.875806  1
  Er  Er16  1  0.196709  0.503850  0.748513  1
  Er  Er17  1  0.696917  0.996508  0.748865  1
  Er  Er18  1  0.804146  0.496915  0.250965  1
  Er  Er19  1  0.303493  0.003176  0.250433  1
  Sn  Sn20  1  0.295348  0.037317  0.042606  1
  Sn  Sn21  1  0.795066  0.462175  0.458333  1
  Sn  Sn22  1  0.705125  0.960938  0.541214  1
  Sn  Sn23  1  0.194645  0.544665  0.960848  1
  Sn  Sn24  1  0.704874  0.957906  0.959231  1
  Sn  Sn25  1  0.205778  0.536427  0.541294  1
  Sn  Sn26  1  0.295035  0.038645  0.457616  1
  Sn  Sn27  1  0.803771  0.464466  0.043980  1
  Sn  Sn28  1  0.561864  0.622598  0.748746  1
  Sn  Sn29  1  0.062061  0.879158  0.749483  1
  Sn  Sn30  1  0.439063  0.380336  0.250501  1
  Sn  Sn31  1  0.937680  0.119278  0.250833  1
  Sn  Sn32  1  0.323906  0.144972  0.747247  1
  Sn  Sn33  1  0.830967  0.351860  0.748797  1
  Sn  Sn34  1  0.672215  0.852558  0.250142  1
  Sn  Sn35  1  0.172776  0.647769  0.250041  1
