# generated using pymatgen
data_MnNb2CrP2
_symmetry_space_group_name_H-M   'P 1'
_cell_length_a   3.53681800
_cell_length_b   6.26575101
_cell_length_c   7.33673401
_cell_angle_alpha   90.00612290
_cell_angle_beta   90.00000000
_cell_angle_gamma   90.00000000
_symmetry_Int_Tables_number   1
_chemical_formula_structural   MnNb2CrP2
_chemical_formula_sum   'Mn2 Nb4 Cr2 P4'
_cell_volume   162.58804785
_cell_formula_units_Z   2
loop_
 _symmetry_equiv_pos_site_id
 _symmetry_equiv_pos_as_xyz
  1  'x, y, z'
loop_
 _atom_site_type_symbol
 _atom_site_label
 _atom_site_symmetry_multiplicity
 _atom_site_fract_x
 _atom_site_fract_y
 _atom_site_fract_z
 _atom_site_occupancy
  Mn  Mn0  1  0.750000  0.361022  0.941592  1
  Mn  Mn1  1  0.250000  0.638978  0.058408  1
  Nb  Nb2  1  0.250000  0.532388  0.671483  1
  Nb  Nb3  1  0.750000  0.467612  0.328517  1
  Nb  Nb4  1  0.250000  0.029085  0.828323  1
  Nb  Nb5  1  0.750000  0.970915  0.171677  1
  Cr  Cr6  1  0.750000  0.858262  0.560156  1
  Cr  Cr7  1  0.250000  0.141738  0.439844  1
  P  P8  1  0.250000  0.270627  0.128826  1
  P  P9  1  0.750000  0.729373  0.871174  1
  P  P10  1  0.250000  0.769829  0.368316  1
  P  P11  1  0.750000  0.230171  0.631684  1
