# generated using pymatgen
data_PrBRu2C
_symmetry_space_group_name_H-M   'P 1'
_cell_length_a   6.78724928
_cell_length_b   5.95506201
_cell_length_c   5.56963111
_cell_angle_alpha   72.07429733
_cell_angle_beta   56.59482008
_cell_angle_gamma   51.33087886
_symmetry_Int_Tables_number   1
_chemical_formula_structural   PrBRu2C
_chemical_formula_sum   'Pr2 B2 Ru4 C2'
_cell_volume   146.50015903
_cell_formula_units_Z   2
loop_
 _symmetry_equiv_pos_site_id
 _symmetry_equiv_pos_as_xyz
  1  'x, y, z'
loop_
 _atom_site_type_symbol
 _atom_site_label
 _atom_site_symmetry_multiplicity
 _atom_site_fract_x
 _atom_site_fract_y
 _atom_site_fract_z
 _atom_site_occupancy
  Pr  Pr0  1  0.000000  0.000000  0.000000  1
  Pr  Pr1  1  0.250000  0.250000  0.250000  1
  B  B2  1  0.929709  0.570291  0.929709  1
  B  B3  1  0.570291  0.929709  0.570291  1
  Ru  Ru4  1  0.609159  0.609159  0.890841  1
  Ru  Ru5  1  0.631029  0.631029  0.368970  1
  Ru  Ru6  1  0.368970  0.368971  0.631029  1
  Ru  Ru7  1  0.890842  0.890841  0.609158  1
  C  C8  1  0.680098  0.319902  0.680098  1
  C  C9  1  0.319902  0.680098  0.319902  1
