# generated using pymatgen
data_UTaCrB6
_symmetry_space_group_name_H-M   'P 1'
_cell_length_a   3.43444100
_cell_length_b   8.86645300
_cell_length_c   11.20380100
_cell_angle_alpha   90.00000000
_cell_angle_beta   90.00000000
_cell_angle_gamma   90.00000000
_symmetry_Int_Tables_number   1
_chemical_formula_structural   UTaCrB6
_chemical_formula_sum   'U4 Ta4 Cr4 B24'
_cell_volume   341.17041416
_cell_formula_units_Z   4
loop_
 _symmetry_equiv_pos_site_id
 _symmetry_equiv_pos_as_xyz
  1  'x, y, z'
loop_
 _atom_site_type_symbol
 _atom_site_label
 _atom_site_symmetry_multiplicity
 _atom_site_fract_x
 _atom_site_fract_y
 _atom_site_fract_z
 _atom_site_occupancy
  U  U0  1  0.000000  0.823662  0.085980  1
  U  U1  1  0.000000  0.176338  0.914020  1
  U  U2  1  0.000000  0.323662  0.414020  1
  U  U3  1  0.000000  0.676338  0.585980  1
  Ta  Ta4  1  0.000000  0.444602  0.128111  1
  Ta  Ta5  1  0.000000  0.555398  0.871889  1
  Ta  Ta6  1  0.000000  0.944602  0.371889  1
  Ta  Ta7  1  0.000000  0.055398  0.628111  1
  Cr  Cr8  1  0.000000  0.141688  0.180730  1
  Cr  Cr9  1  0.000000  0.858312  0.819270  1
  Cr  Cr10  1  0.000000  0.641688  0.319270  1
  Cr  Cr11  1  0.000000  0.358312  0.680730  1
  B  B12  1  0.500000  0.053156  0.066294  1
  B  B13  1  0.500000  0.946844  0.933706  1
  B  B14  1  0.500000  0.553156  0.433706  1
  B  B15  1  0.500000  0.446844  0.566294  1
  B  B16  1  0.500000  0.252601  0.080728  1
  B  B17  1  0.500000  0.747399  0.919272  1
  B  B18  1  0.500000  0.752601  0.419272  1
  B  B19  1  0.500000  0.247399  0.580728  1
  B  B20  1  0.500000  0.295917  0.235413  1
  B  B21  1  0.500000  0.704083  0.764587  1
  B  B22  1  0.500000  0.795917  0.264587  1
  B  B23  1  0.500000  0.204083  0.735413  1
  B  B24  1  0.500000  0.130556  0.317462  1
  B  B25  1  0.500000  0.869444  0.682538  1
  B  B26  1  0.500000  0.630556  0.182538  1
  B  B27  1  0.500000  0.369444  0.817462  1
  B  B28  1  0.500000  0.480831  0.286465  1
  B  B29  1  0.500000  0.519169  0.713535  1
  B  B30  1  0.500000  0.980831  0.213535  1
  B  B31  1  0.500000  0.019169  0.786465  1
  B  B32  1  0.500000  0.101077  0.472911  1
  B  B33  1  0.500000  0.898923  0.527089  1
  B  B34  1  0.500000  0.601077  0.027089  1
  B  B35  1  0.500000  0.398923  0.972911  1
