# generated using pymatgen
data_ErPa3(FeB4)4
_symmetry_space_group_name_H-M   'P 1'
_cell_length_a   3.43091000
_cell_length_b   5.90330593
_cell_length_c   11.44538779
_cell_angle_alpha   89.93587943
_cell_angle_beta   90.00000000
_cell_angle_gamma   90.00000000
_symmetry_Int_Tables_number   1
_chemical_formula_structural   ErPa3(FeB4)4
_chemical_formula_sum   'Er1 Pa3 Fe4 B16'
_cell_volume   231.81143521
_cell_formula_units_Z   1
loop_
 _symmetry_equiv_pos_site_id
 _symmetry_equiv_pos_as_xyz
  1  'x, y, z'
loop_
 _atom_site_type_symbol
 _atom_site_label
 _atom_site_symmetry_multiplicity
 _atom_site_fract_x
 _atom_site_fract_y
 _atom_site_fract_z
 _atom_site_occupancy
  Er  Er0  1  0.000000  0.872199  0.850475  1
  Pa  Pa1  1  0.000000  0.626911  0.349661  1
  Pa  Pa2  1  0.000000  0.372693  0.651439  1
  Pa  Pa3  1  0.000000  0.126888  0.148783  1
  Fe  Fe4  1  0.000000  0.637362  0.091932  1
  Fe  Fe5  1  0.000000  0.364067  0.910751  1
  Fe  Fe6  1  0.000000  0.135939  0.407762  1
  Fe  Fe7  1  0.000000  0.865521  0.589938  1
  B  B8  1  0.500000  0.781368  0.184646  1
  B  B9  1  0.500000  0.216937  0.815464  1
  B  B10  1  0.500000  0.282183  0.314330  1
  B  B11  1  0.500000  0.717784  0.685620  1
  B  B12  1  0.500000  0.861357  0.031787  1
  B  B13  1  0.500000  0.139271  0.965743  1
  B  B14  1  0.500000  0.360141  0.466361  1
  B  B15  1  0.500000  0.638418  0.534865  1
  B  B16  1  0.500000  0.887780  0.455089  1
  B  B17  1  0.500000  0.110309  0.546413  1
  B  B18  1  0.500000  0.389139  0.043853  1
  B  B19  1  0.500000  0.613537  0.953639  1
  B  B20  1  0.500000  0.976353  0.310263  1
  B  B21  1  0.500000  0.022377  0.690897  1
  B  B22  1  0.500000  0.476461  0.189044  1
  B  B23  1  0.500000  0.525006  0.811242  1
