# generated using pymatgen
data_Rb2EuI4
_symmetry_space_group_name_H-M   'P 1'
_cell_length_a   9.22820300
_cell_length_b   10.09769100
_cell_length_c   15.20232700
_cell_angle_alpha   90.00000000
_cell_angle_beta   90.00000000
_cell_angle_gamma   90.00000000
_symmetry_Int_Tables_number   1
_chemical_formula_structural   Rb2EuI4
_chemical_formula_sum   'Rb8 Eu4 I16'
_cell_volume   1416.60668227
_cell_formula_units_Z   4
loop_
 _symmetry_equiv_pos_site_id
 _symmetry_equiv_pos_as_xyz
  1  'x, y, z'
loop_
 _atom_site_type_symbol
 _atom_site_label
 _atom_site_symmetry_multiplicity
 _atom_site_fract_x
 _atom_site_fract_y
 _atom_site_fract_z
 _atom_site_occupancy
  Rb  Rb0  1  0.580073  0.500000  0.187051  1
  Rb  Rb1  1  0.080073  0.500000  0.312950  1
  Rb  Rb2  1  0.919927  0.000000  0.687050  1
  Rb  Rb3  1  0.419927  0.000000  0.812949  1
  Rb  Rb4  1  0.574834  0.000000  0.176362  1
  Rb  Rb5  1  0.074832  0.000000  0.323639  1
  Rb  Rb6  1  0.925168  0.500000  0.676361  1
  Rb  Rb7  1  0.425168  0.500000  0.823638  1
  Eu  Eu8  1  0.000000  0.250000  0.000000  1
  Eu  Eu9  1  0.000000  0.750000  0.000000  1
  Eu  Eu10  1  0.500000  0.250000  0.500000  1
  Eu  Eu11  1  0.500000  0.750000  0.500000  1
  I  I12  1  0.221600  0.000000  0.050085  1
  I  I13  1  0.225159  0.500000  0.051975  1
  I  I14  1  0.864780  0.248636  0.196783  1
  I  I15  1  0.864780  0.751364  0.196783  1
  I  I16  1  0.364780  0.248636  0.303216  1
  I  I17  1  0.364780  0.751364  0.303216  1
  I  I18  1  0.725159  0.500000  0.448025  1
  I  I19  1  0.721601  0.000000  0.449915  1
  I  I20  1  0.278399  0.500000  0.550085  1
  I  I21  1  0.274843  0.000000  0.551974  1
  I  I22  1  0.635221  0.251364  0.696784  1
  I  I23  1  0.635221  0.748637  0.696784  1
  I  I24  1  0.135220  0.251364  0.803216  1
  I  I25  1  0.135220  0.748637  0.803216  1
  I  I26  1  0.774843  0.000000  0.948025  1
  I  I27  1  0.778399  0.500000  0.949915  1
