# generated using pymatgen
data_Tm4Co8P12Ir5Rh7
_symmetry_space_group_name_H-M   'P 1'
_cell_length_a   3.80438100
_cell_length_b   10.62395855
_cell_length_c   12.18099993
_cell_angle_alpha   89.92050345
_cell_angle_beta   90.00000000
_cell_angle_gamma   90.00000000
_symmetry_Int_Tables_number   1
_chemical_formula_structural   Tm4Co8P12Ir5Rh7
_chemical_formula_sum   'Tm4 Co8 P12 Ir5 Rh7'
_cell_volume   492.32613934
_cell_formula_units_Z   1
loop_
 _symmetry_equiv_pos_site_id
 _symmetry_equiv_pos_as_xyz
  1  'x, y, z'
loop_
 _atom_site_type_symbol
 _atom_site_label
 _atom_site_symmetry_multiplicity
 _atom_site_fract_x
 _atom_site_fract_y
 _atom_site_fract_z
 _atom_site_occupancy
  Tm  Tm0  1  0.250000  0.582471  0.709734  1
  Tm  Tm1  1  0.250000  0.917758  0.210210  1
  Tm  Tm2  1  0.750000  0.417290  0.290249  1
  Tm  Tm3  1  0.750000  0.083233  0.789887  1
  Co  Co4  1  0.250000  0.883827  0.696694  1
  Co  Co5  1  0.250000  0.616938  0.196303  1
  Co  Co6  1  0.750000  0.116045  0.303569  1
  Co  Co7  1  0.750000  0.383783  0.803244  1
  Co  Co8  1  0.250000  0.463556  0.932471  1
  Co  Co9  1  0.250000  0.036285  0.432896  1
  Co  Co10  1  0.750000  0.536608  0.067137  1
  Co  Co11  1  0.750000  0.963753  0.567676  1
  P  P12  1  0.250000  0.430922  0.111102  1
  P  P13  1  0.250000  0.069201  0.611194  1
  P  P14  1  0.750000  0.568531  0.888619  1
  P  P15  1  0.750000  0.930898  0.389362  1
  P  P16  1  0.250000  0.273363  0.870787  1
  P  P17  1  0.250000  0.226631  0.371093  1
  P  P18  1  0.750000  0.726517  0.129865  1
  P  P19  1  0.750000  0.773075  0.628913  1
  P  P20  1  0.250000  0.598857  0.379265  1
  P  P21  1  0.250000  0.901524  0.878556  1
  P  P22  1  0.750000  0.401256  0.620759  1
  P  P23  1  0.750000  0.098842  0.121277  1
  Ir  Ir24  1  0.750000  0.909248  0.024558  1
  Ir  Ir25  1  0.250000  0.226631  0.180187  1
  Ir  Ir26  1  0.250000  0.273532  0.679793  1
  Ir  Ir27  1  0.750000  0.773171  0.820232  1
  Ir  Ir28  1  0.750000  0.726468  0.320525  1
  Rh  Rh29  1  0.250000  0.718686  0.988943  1
  Rh  Rh30  1  0.250000  0.781628  0.490173  1
  Rh  Rh31  1  0.750000  0.280983  0.009691  1
  Rh  Rh32  1  0.750000  0.218614  0.509545  1
  Rh  Rh33  1  0.250000  0.409637  0.476309  1
  Rh  Rh34  1  0.250000  0.089910  0.975606  1
  Rh  Rh35  1  0.750000  0.590330  0.523577  1
