# generated using pymatgen
data_HoLu9Si5P
_symmetry_space_group_name_H-M   'P 1'
_cell_length_a   8.20828900
_cell_length_b   8.22714913
_cell_length_c   6.13510900
_cell_angle_alpha   90.00000000
_cell_angle_beta   90.00000000
_cell_angle_gamma   119.92420009
_symmetry_Int_Tables_number   1
_chemical_formula_structural   HoLu9Si5P
_chemical_formula_sum   'Ho1 Lu9 Si5 P1'
_cell_volume   359.07579895
_cell_formula_units_Z   1
loop_
 _symmetry_equiv_pos_site_id
 _symmetry_equiv_pos_as_xyz
  1  'x, y, z'
loop_
 _atom_site_type_symbol
 _atom_site_label
 _atom_site_symmetry_multiplicity
 _atom_site_fract_x
 _atom_site_fract_y
 _atom_site_fract_z
 _atom_site_occupancy
  Ho  Ho0  1  0.756738  0.000000  0.750000  1
  Lu  Lu1  1  0.666219  0.332887  0.999689  1
  Lu  Lu2  1  0.333331  0.667113  0.500311  1
  Lu  Lu3  1  0.333331  0.667113  0.999689  1
  Lu  Lu4  1  0.666219  0.332887  0.500311  1
  Lu  Lu5  1  0.757807  0.756777  0.250000  1
  Lu  Lu6  1  0.001029  0.243223  0.250000  1
  Lu  Lu7  1  0.000991  0.757732  0.750000  1
  Lu  Lu8  1  0.243258  0.242268  0.750000  1
  Lu  Lu9  1  0.242186  0.000000  0.250000  1
  Si  Si10  1  0.395069  0.394365  0.250000  1
  Si  Si11  1  0.000704  0.605635  0.250000  1
  Si  Si12  1  0.000917  0.395833  0.750000  1
  Si  Si13  1  0.605084  0.604167  0.750000  1
  Si  Si14  1  0.606246  0.000000  0.250000  1
  P  P15  1  0.390870  0.000000  0.750000  1
