# generated using pymatgen
data_Tb10AlHgBi4
_symmetry_space_group_name_H-M   'P 1'
_cell_length_a   9.09928994
_cell_length_b   9.09928893
_cell_length_c   6.56048600
_cell_angle_alpha   90.00000000
_cell_angle_beta   90.00000000
_cell_angle_gamma   120.21598494
_symmetry_Int_Tables_number   1
_chemical_formula_structural   Tb10AlHgBi4
_chemical_formula_sum   'Tb10 Al1 Hg1 Bi4'
_cell_volume   469.38832328
_cell_formula_units_Z   1
loop_
 _symmetry_equiv_pos_site_id
 _symmetry_equiv_pos_as_xyz
  1  'x, y, z'
loop_
 _atom_site_type_symbol
 _atom_site_label
 _atom_site_symmetry_multiplicity
 _atom_site_fract_x
 _atom_site_fract_y
 _atom_site_fract_z
 _atom_site_occupancy
  Tb  Tb0  1  0.656990  0.342372  0.998401  1
  Tb  Tb1  1  0.342372  0.656990  0.998401  1
  Tb  Tb2  1  0.342372  0.656990  0.501599  1
  Tb  Tb3  1  0.656990  0.342372  0.501599  1
  Tb  Tb4  1  0.753223  0.753223  0.750000  1
  Tb  Tb5  1  0.243455  0.015929  0.750000  1
  Tb  Tb6  1  0.015929  0.243455  0.750000  1
  Tb  Tb7  1  0.242124  0.242124  0.250000  1
  Tb  Tb8  1  0.756582  0.987522  0.250000  1
  Tb  Tb9  1  0.987522  0.756582  0.250000  1
  Al  Al10  1  0.397146  0.397146  0.750000  1
  Hg  Hg11  1  0.603792  0.603792  0.250000  1
  Bi  Bi12  1  0.612483  0.006827  0.750000  1
  Bi  Bi13  1  0.006827  0.612483  0.750000  1
  Bi  Bi14  1  0.388237  0.993959  0.250000  1
  Bi  Bi15  1  0.993959  0.388237  0.250000  1
