# generated using pymatgen
data_Y3Co6Si2Os
_symmetry_space_group_name_H-M   'P 1'
_cell_length_a   5.18192100
_cell_length_b   5.18192105
_cell_length_c   15.29702600
_cell_angle_alpha   90.00000000
_cell_angle_beta   90.00000000
_cell_angle_gamma   120.00000604
_symmetry_Int_Tables_number   1
_chemical_formula_structural   Y3Co6Si2Os
_chemical_formula_sum   'Y6 Co12 Si4 Os2'
_cell_volume   355.72893334
_cell_formula_units_Z   2
loop_
 _symmetry_equiv_pos_site_id
 _symmetry_equiv_pos_as_xyz
  1  'x, y, z'
loop_
 _atom_site_type_symbol
 _atom_site_label
 _atom_site_symmetry_multiplicity
 _atom_site_fract_x
 _atom_site_fract_y
 _atom_site_fract_z
 _atom_site_occupancy
  Y  Y0  1  0.333333  0.666667  0.038514  1
  Y  Y1  1  0.333333  0.666667  0.250000  1
  Y  Y2  1  0.333333  0.666667  0.461486  1
  Y  Y3  1  0.666667  0.333334  0.538514  1
  Y  Y4  1  0.666667  0.333334  0.750000  1
  Y  Y5  1  0.666667  0.333334  0.961486  1
  Co  Co6  1  0.333955  0.166978  0.132426  1
  Co  Co7  1  0.833022  0.166978  0.132426  1
  Co  Co8  1  0.833022  0.666044  0.132426  1
  Co  Co9  1  0.333955  0.166978  0.367574  1
  Co  Co10  1  0.833022  0.166978  0.367574  1
  Co  Co11  1  0.833022  0.666044  0.367574  1
  Co  Co12  1  0.166978  0.333955  0.632425  1
  Co  Co13  1  0.166978  0.833021  0.632425  1
  Co  Co14  1  0.666044  0.833021  0.632425  1
  Co  Co15  1  0.166978  0.333955  0.867574  1
  Co  Co16  1  0.166978  0.833021  0.867574  1
  Co  Co17  1  0.666044  0.833021  0.867574  1
  Si  Si18  1  0.000000  0.000000  0.250000  1
  Si  Si19  1  0.666667  0.333334  0.250000  1
  Si  Si20  1  0.000000  0.000000  0.750000  1
  Si  Si21  1  0.333333  0.666667  0.750000  1
  Os  Os22  1  0.000000  0.000000  0.000000  1
  Os  Os23  1  0.000000  0.000000  0.500000  1
