# generated using pymatgen
data_SiB12S
_symmetry_space_group_name_H-M   'P 1'
_cell_length_a   5.27953996
_cell_length_b   5.27954035
_cell_length_c   5.27953992
_cell_angle_alpha   69.82642157
_cell_angle_beta   69.82641658
_cell_angle_gamma   69.82644353
_symmetry_Int_Tables_number   1
_chemical_formula_structural   SiB12S
_chemical_formula_sum   'Si1 B12 S1'
_cell_volume   125.32208594
_cell_formula_units_Z   1
loop_
 _symmetry_equiv_pos_site_id
 _symmetry_equiv_pos_as_xyz
  1  'x, y, z'
loop_
 _atom_site_type_symbol
 _atom_site_label
 _atom_site_symmetry_multiplicity
 _atom_site_fract_x
 _atom_site_fract_y
 _atom_site_fract_z
 _atom_site_occupancy
  Si  Si0  1  0.602164  0.602164  0.602164  1
  B  B1  1  0.012860  0.012860  0.327145  1
  B  B2  1  0.327145  0.012860  0.012860  1
  B  B3  1  0.278366  0.817643  0.817643  1
  B  B4  1  0.817643  0.817643  0.278366  1
  B  B5  1  0.817643  0.278366  0.817643  1
  B  B6  1  0.180048  0.721947  0.180048  1
  B  B7  1  0.721947  0.180048  0.180048  1
  B  B8  1  0.180048  0.180048  0.721947  1
  B  B9  1  0.674753  0.985769  0.985769  1
  B  B10  1  0.985769  0.985769  0.674753  1
  B  B11  1  0.985769  0.674753  0.985769  1
  B  B12  1  0.012860  0.327145  0.012860  1
  S  S13  1  0.402986  0.402986  0.402986  1
