# generated using pymatgen
data_HoGa5Cu6
_symmetry_space_group_name_H-M   'P 1'
_cell_length_a   10.34328407
_cell_length_b   8.19922390
_cell_length_c   7.83571614
_cell_angle_alpha   80.30344570
_cell_angle_beta   51.38755013
_cell_angle_gamma   48.30899989
_symmetry_Int_Tables_number   1
_chemical_formula_structural   HoGa5Cu6
_chemical_formula_sum   'Ho2 Ga10 Cu12'
_cell_volume   351.40416116
_cell_formula_units_Z   2
loop_
 _symmetry_equiv_pos_site_id
 _symmetry_equiv_pos_as_xyz
  1  'x, y, z'
loop_
 _atom_site_type_symbol
 _atom_site_label
 _atom_site_symmetry_multiplicity
 _atom_site_fract_x
 _atom_site_fract_y
 _atom_site_fract_z
 _atom_site_occupancy
  Ho  Ho0  1  0.000000  0.000000  0.000000  1
  Ho  Ho1  1  0.250000  0.250000  0.250000  1
  Ga  Ga2  1  0.500000  0.500000  0.500000  1
  Ga  Ga3  1  0.750000  0.750000  0.750000  1
  Ga  Ga4  1  0.752101  0.074162  0.840371  1
  Ga  Ga5  1  0.840371  0.333366  0.752101  1
  Ga  Ga6  1  0.074162  0.752101  0.333366  1
  Ga  Ga7  1  0.333366  0.840371  0.074162  1
  Ga  Ga8  1  0.497899  0.175838  0.409629  1
  Ga  Ga9  1  0.409629  0.916634  0.497899  1
  Ga  Ga10  1  0.175838  0.497899  0.916634  1
  Ga  Ga11  1  0.916634  0.409629  0.175838  1
  Cu  Cu12  1  0.625000  0.125000  0.625000  1
  Cu  Cu13  1  0.625000  0.625000  0.625000  1
  Cu  Cu14  1  0.125000  0.625000  0.625000  1
  Cu  Cu15  1  0.625000  0.625000  0.125000  1
  Cu  Cu16  1  0.489357  0.435848  0.186563  1
  Cu  Cu17  1  0.186563  0.888232  0.489357  1
  Cu  Cu18  1  0.435848  0.489357  0.888232  1
  Cu  Cu19  1  0.888232  0.186563  0.435848  1
  Cu  Cu20  1  0.760643  0.814152  0.063437  1
  Cu  Cu21  1  0.063437  0.361768  0.760643  1
  Cu  Cu22  1  0.814152  0.760643  0.361768  1
  Cu  Cu23  1  0.361768  0.063437  0.814152  1
