# generated using pymatgen
data_Sm4Ga20PdPt10
_symmetry_space_group_name_H-M   'P 1'
_cell_length_a   4.17721431
_cell_length_b   11.00393448
_cell_length_c   13.72998500
_cell_angle_alpha   82.20227702
_cell_angle_beta   81.25019410
_cell_angle_gamma   79.05856884
_symmetry_Int_Tables_number   1
_chemical_formula_structural   Sm4Ga20PdPt10
_chemical_formula_sum   'Sm4 Ga20 Pd1 Pt10'
_cell_volume   608.70522374
_cell_formula_units_Z   1
loop_
 _symmetry_equiv_pos_site_id
 _symmetry_equiv_pos_as_xyz
  1  'x, y, z'
loop_
 _atom_site_type_symbol
 _atom_site_label
 _atom_site_symmetry_multiplicity
 _atom_site_fract_x
 _atom_site_fract_y
 _atom_site_fract_z
 _atom_site_occupancy
  Sm  Sm0  1  0.876973  0.909872  0.336179  1
  Sm  Sm1  1  0.123027  0.090128  0.663821  1
  Sm  Sm2  1  0.226628  0.367379  0.179363  1
  Sm  Sm3  1  0.773372  0.632621  0.820637  1
  Ga  Ga4  1  0.992207  0.927832  0.087754  1
  Ga  Ga5  1  0.007793  0.072168  0.912246  1
  Ga  Ga6  1  0.934877  0.325685  0.804561  1
  Ga  Ga7  1  0.065123  0.674315  0.195439  1
  Ga  Ga8  1  0.897224  0.659818  0.545733  1
  Ga  Ga9  1  0.102776  0.340182  0.454267  1
  Ga  Ga10  1  0.799040  0.394033  0.007887  1
  Ga  Ga11  1  0.200960  0.605967  0.992113  1
  Ga  Ga12  1  0.741885  0.216676  0.299555  1
  Ga  Ga13  1  0.258115  0.783324  0.700445  1
  Ga  Ga14  1  0.697637  0.100466  0.504258  1
  Ga  Ga15  1  0.302363  0.899534  0.495742  1
  Ga  Ga16  1  0.612598  0.474632  0.300174  1
  Ga  Ga17  1  0.387402  0.525368  0.699826  1
  Ga  Ga18  1  0.602724  0.795554  0.998996  1
  Ga  Ga19  1  0.397276  0.204446  0.001004  1
  Ga  Ga20  1  0.457790  0.713785  0.370634  1
  Ga  Ga21  1  0.542210  0.286215  0.629366  1
  Ga  Ga22  1  0.364806  0.064225  0.206165  1
  Ga  Ga23  1  0.635194  0.935775  0.793835  1
  Pd  Pd24  1  0.500000  0.500000  0.500000  1
  Pt  Pt25  1  0.972457  0.426639  0.628445  1
  Pt  Pt26  1  0.027543  0.573361  0.371555  1
  Pt  Pt27  1  0.862913  0.162956  0.111217  1
  Pt  Pt28  1  0.137087  0.837044  0.888783  1
  Pt  Pt29  1  0.759247  0.872882  0.608627  1
  Pt  Pt30  1  0.240753  0.127118  0.391373  1
  Pt  Pt31  1  0.655918  0.580571  0.107593  1
  Pt  Pt32  1  0.344082  0.419429  0.892407  1
  Pt  Pt33  1  0.494413  0.829187  0.181987  1
  Pt  Pt34  1  0.505587  0.170813  0.818013  1
