# generated using pymatgen
data_Tb11HoSi12AgAu11
_symmetry_space_group_name_H-M   'P 1'
_cell_length_a   4.35039900
_cell_length_b   7.53841831
_cell_length_c   22.48066400
_cell_angle_alpha   90.01656150
_cell_angle_beta   90.00000000
_cell_angle_gamma   90.00000000
_symmetry_Int_Tables_number   1
_chemical_formula_structural   Tb11HoSi12AgAu11
_chemical_formula_sum   'Tb11 Ho1 Si12 Ag1 Au11'
_cell_volume   737.25621134
_cell_formula_units_Z   1
loop_
 _symmetry_equiv_pos_site_id
 _symmetry_equiv_pos_as_xyz
  1  'x, y, z'
loop_
 _atom_site_type_symbol
 _atom_site_label
 _atom_site_symmetry_multiplicity
 _atom_site_fract_x
 _atom_site_fract_y
 _atom_site_fract_z
 _atom_site_occupancy
  Tb  Tb0  1  0.250000  0.740345  0.335819  1
  Tb  Tb1  1  0.750000  0.242667  0.166209  1
  Tb  Tb2  1  0.250000  0.771942  0.830289  1
  Tb  Tb3  1  0.250000  0.758222  0.167742  1
  Tb  Tb4  1  0.750000  0.231326  0.830531  1
  Tb  Tb5  1  0.750000  0.260451  0.335825  1
  Tb  Tb6  1  0.250000  0.718272  0.665849  1
  Tb  Tb7  1  0.250000  0.731311  0.996638  1
  Tb  Tb8  1  0.750000  0.270175  0.998455  1
  Tb  Tb9  1  0.750000  0.229691  0.503654  1
  Tb  Tb10  1  0.250000  0.774941  0.501823  1
  Ho  Ho11  1  0.750000  0.283770  0.665571  1
  Si  Si12  1  0.250000  0.082244  0.072155  1
  Si  Si13  1  0.750000  0.913994  0.910172  1
  Si  Si14  1  0.750000  0.587275  0.432490  1
  Si  Si15  1  0.250000  0.412720  0.581479  1
  Si  Si16  1  0.250000  0.085575  0.248550  1
  Si  Si17  1  0.750000  0.913310  0.735418  1
  Si  Si18  1  0.750000  0.584997  0.255544  1
  Si  Si19  1  0.250000  0.409798  0.752719  1
  Si  Si20  1  0.250000  0.088201  0.422313  1
  Si  Si21  1  0.750000  0.909579  0.598595  1
  Si  Si22  1  0.750000  0.588471  0.082454  1
  Si  Si23  1  0.250000  0.413323  0.912153  1
  Ag  Ag24  1  0.250000  0.079310  0.596239  1
  Au  Au25  1  0.250000  0.417548  0.247899  1
  Au  Au26  1  0.750000  0.581740  0.757402  1
  Au  Au27  1  0.750000  0.919069  0.256896  1
  Au  Au28  1  0.250000  0.079423  0.737702  1
  Au  Au29  1  0.250000  0.420812  0.423374  1
  Au  Au30  1  0.750000  0.583106  0.569337  1
  Au  Au31  1  0.750000  0.919318  0.081567  1
  Au  Au32  1  0.250000  0.080368  0.924435  1
  Au  Au33  1  0.250000  0.417018  0.087945  1
  Au  Au34  1  0.750000  0.580718  0.902981  1
  Au  Au35  1  0.750000  0.918971  0.411778  1
