# generated using pymatgen
data_Tm4Ga24Pt8Rh
_symmetry_space_group_name_H-M   'P 1'
_cell_length_a   7.48970337
_cell_length_b   7.56837957
_cell_length_c   13.27485976
_cell_angle_alpha   84.81989707
_cell_angle_beta   79.55793728
_cell_angle_gamma   60.19905650
_symmetry_Int_Tables_number   1
_chemical_formula_structural   Tm4Ga24Pt8Rh
_chemical_formula_sum   'Tm4 Ga24 Pt8 Rh1'
_cell_volume   642.15962588
_cell_formula_units_Z   1
loop_
 _symmetry_equiv_pos_site_id
 _symmetry_equiv_pos_as_xyz
  1  'x, y, z'
loop_
 _atom_site_type_symbol
 _atom_site_label
 _atom_site_symmetry_multiplicity
 _atom_site_fract_x
 _atom_site_fract_y
 _atom_site_fract_z
 _atom_site_occupancy
  Tm  Tm0  1  0.397467  0.167938  0.809892  1
  Tm  Tm1  1  0.602533  0.832062  0.190108  1
  Tm  Tm2  1  0.731402  0.499070  0.810525  1
  Tm  Tm3  1  0.268598  0.500930  0.189475  1
  Ga  Ga4  1  0.689126  0.830362  0.938915  1
  Ga  Ga5  1  0.310874  0.169638  0.061085  1
  Ga  Ga6  1  0.143980  0.833197  0.561111  1
  Ga  Ga7  1  0.856020  0.166803  0.438889  1
  Ga  Ga8  1  0.478232  0.166670  0.557177  1
  Ga  Ga9  1  0.521768  0.833330  0.442823  1
  Ga  Ga10  1  0.222457  0.165179  0.321001  1
  Ga  Ga11  1  0.777543  0.834821  0.678999  1
  Ga  Ga12  1  0.435786  0.504195  0.677611  1
  Ga  Ga13  1  0.564214  0.495805  0.322389  1
  Ga  Ga14  1  0.106139  0.163634  0.676533  1
  Ga  Ga15  1  0.893861  0.836366  0.323467  1
  Ga  Ga16  1  0.355791  0.497267  0.939823  1
  Ga  Ga17  1  0.644209  0.502733  0.060177  1
  Ga  Ga18  1  0.021216  0.175160  0.944019  1
  Ga  Ga19  1  0.978784  0.824840  0.055981  1
  Ga  Ga20  1  0.187635  0.499517  0.442308  1
  Ga  Ga21  1  0.812365  0.500483  0.557692  1
  Ga  Ga22  1  0.735023  0.163844  0.181484  1
  Ga  Ga23  1  0.264977  0.836156  0.818516  1
  Ga  Ga24  1  0.061778  0.626612  0.819231  1
  Ga  Ga25  1  0.938222  0.373388  0.180769  1
  Ga  Ga26  1  0.858701  0.039264  0.816811  1
  Ga  Ga27  1  0.141299  0.960736  0.183189  1
  Pt  Pt28  1  0.115863  0.494360  0.640343  1
  Pt  Pt29  1  0.884137  0.505640  0.359657  1
  Pt  Pt30  1  0.660348  0.169676  0.998794  1
  Pt  Pt31  1  0.339652  0.830324  0.001206  1
  Pt  Pt32  1  0.541782  0.166805  0.359476  1
  Pt  Pt33  1  0.458218  0.833195  0.640524  1
  Pt  Pt34  1  0.776697  0.174154  0.638215  1
  Pt  Pt35  1  0.223303  0.825846  0.361785  1
  Rh  Rh36  1  0.000000  0.500000  0.000000  1
