# generated using pymatgen
data_Sc12Ga(RhBr8)2
_symmetry_space_group_name_H-M   'P 1'
_cell_length_a   9.03347846
_cell_length_b   11.08112821
_cell_length_c   11.70577778
_cell_angle_alpha   117.04952340
_cell_angle_beta   101.92107747
_cell_angle_gamma   101.40358067
_symmetry_Int_Tables_number   1
_chemical_formula_structural   Sc12Ga(RhBr8)2
_chemical_formula_sum   'Sc12 Ga1 Rh2 Br16'
_cell_volume   962.19058382
_cell_formula_units_Z   1
loop_
 _symmetry_equiv_pos_site_id
 _symmetry_equiv_pos_as_xyz
  1  'x, y, z'
loop_
 _atom_site_type_symbol
 _atom_site_label
 _atom_site_symmetry_multiplicity
 _atom_site_fract_x
 _atom_site_fract_y
 _atom_site_fract_z
 _atom_site_occupancy
  Sc  Sc0  1  0.087418  0.251269  0.346949  1
  Sc  Sc1  1  0.912582  0.748731  0.653051  1
  Sc  Sc2  1  0.769206  0.538108  0.315852  1
  Sc  Sc3  1  0.230794  0.461892  0.684148  1
  Sc  Sc4  1  0.291404  0.749647  0.653173  1
  Sc  Sc5  1  0.708596  0.250353  0.346827  1
  Sc  Sc6  1  0.147872  0.537827  0.316720  1
  Sc  Sc7  1  0.852128  0.462173  0.683280  1
  Sc  Sc8  1  0.400382  0.350392  0.261516  1
  Sc  Sc9  1  0.599618  0.649608  0.738484  1
  Sc  Sc10  1  0.456256  0.298261  0.521476  1
  Sc  Sc11  1  0.543744  0.701739  0.478524  1
  Ga  Ga12  1  0.000000  0.500000  0.500000  1
  Rh  Rh13  1  0.340437  0.500120  0.499192  1
  Rh  Rh14  1  0.659564  0.499880  0.500808  1
  Br  Br15  1  0.398123  0.745171  0.889759  1
  Br  Br16  1  0.601877  0.254829  0.110241  1
  Br  Br17  1  0.190621  0.970598  0.786123  1
  Br  Br18  1  0.809379  0.029402  0.213877  1
  Br  Br19  1  0.335934  0.087004  0.246585  1
  Br  Br20  1  0.664066  0.912996  0.753415  1
  Br  Br21  1  0.554319  0.436638  0.804012  1
  Br  Br22  1  0.445681  0.563362  0.195988  1
  Br  Br23  1  0.309141  0.830945  0.462209  1
  Br  Br24  1  0.690859  0.169055  0.537791  1
  Br  Br25  1  0.165395  0.167574  0.533384  1
  Br  Br26  1  0.834605  0.832426  0.466616  1
  Br  Br27  1  0.926080  0.577770  0.158366  1
  Br  Br28  1  0.073920  0.422230  0.841634  1
  Br  Br29  1  0.926668  0.743407  0.889992  1
  Br  Br30  1  0.073332  0.256593  0.110008  1
