# generated using pymatgen
data_Hf8ScMnRe3P
_symmetry_space_group_name_H-M   'P 1'
_cell_length_a   8.52136056
_cell_length_b   8.50495132
_cell_length_c   8.52549900
_cell_angle_alpha   90.00000000
_cell_angle_beta   90.00000000
_cell_angle_gamma   119.93632298
_symmetry_Int_Tables_number   1
_chemical_formula_structural   Hf8ScMnRe3P
_chemical_formula_sum   'Hf16 Sc2 Mn2 Re6 P2'
_cell_volume   535.43840912
_cell_formula_units_Z   2
loop_
 _symmetry_equiv_pos_site_id
 _symmetry_equiv_pos_as_xyz
  1  'x, y, z'
loop_
 _atom_site_type_symbol
 _atom_site_label
 _atom_site_symmetry_multiplicity
 _atom_site_fract_x
 _atom_site_fract_y
 _atom_site_fract_z
 _atom_site_occupancy
  Hf  Hf0  1  0.194483  0.807192  0.450207  1
  Hf  Hf1  1  0.194483  0.387289  0.450207  1
  Hf  Hf2  1  0.612840  0.806419  0.449288  1
  Hf  Hf3  1  0.805521  0.194629  0.549482  1
  Hf  Hf4  1  0.805521  0.610895  0.549482  1
  Hf  Hf5  1  0.386564  0.193283  0.550611  1
  Hf  Hf6  1  0.805521  0.194629  0.950518  1
  Hf  Hf7  1  0.805521  0.610895  0.950518  1
  Hf  Hf8  1  0.386564  0.193283  0.949389  1
  Hf  Hf9  1  0.194483  0.807192  0.049793  1
  Hf  Hf10  1  0.194483  0.387289  0.049793  1
  Hf  Hf11  1  0.612840  0.806419  0.050712  1
  Hf  Hf12  1  0.923000  0.461500  0.250000  1
  Hf  Hf13  1  0.458901  0.541734  0.750000  1
  Hf  Hf14  1  0.458901  0.917168  0.750000  1
  Hf  Hf15  1  0.082410  0.541205  0.750000  1
  Sc  Sc16  1  0.542601  0.458118  0.250000  1
  Sc  Sc17  1  0.542601  0.084483  0.250000  1
  Mn  Mn18  1  0.999300  0.999650  0.499828  1
  Mn  Mn19  1  0.999300  0.999650  0.000172  1
  Re  Re20  1  0.893421  0.107974  0.250000  1
  Re  Re21  1  0.893421  0.785446  0.250000  1
  Re  Re22  1  0.214795  0.107397  0.250000  1
  Re  Re23  1  0.106180  0.892103  0.750000  1
  Re  Re24  1  0.106180  0.214079  0.750000  1
  Re  Re25  1  0.784280  0.892140  0.750000  1
  P  P26  1  0.330743  0.665371  0.250000  1
  P  P27  1  0.665139  0.332569  0.750000  1
