# generated using pymatgen
data_Sr4YbPa3O12
_symmetry_space_group_name_H-M   'P 1'
_cell_length_a   6.18573014
_cell_length_b   6.03367153
_cell_length_c   8.63384805
_cell_angle_alpha   89.62809613
_cell_angle_beta   90.27763121
_cell_angle_gamma   89.98318502
_symmetry_Int_Tables_number   1
_chemical_formula_structural   Sr4YbPa3O12
_chemical_formula_sum   'Sr4 Yb1 Pa3 O12'
_cell_volume   322.22762020
_cell_formula_units_Z   1
loop_
 _symmetry_equiv_pos_site_id
 _symmetry_equiv_pos_as_xyz
  1  'x, y, z'
loop_
 _atom_site_type_symbol
 _atom_site_label
 _atom_site_symmetry_multiplicity
 _atom_site_fract_x
 _atom_site_fract_y
 _atom_site_fract_z
 _atom_site_occupancy
  Sr  Sr0  1  0.539445  0.486729  0.763417  1
  Sr  Sr1  1  0.052473  0.015800  0.766811  1
  Sr  Sr2  1  0.460555  0.513271  0.236583  1
  Sr  Sr3  1  0.947527  0.984200  0.233189  1
  Yb  Yb4  1  0.500000  0.000000  0.000000  1
  Pa  Pa5  1  0.000000  0.500000  0.500000  1
  Pa  Pa6  1  0.500000  0.000000  0.500000  1
  Pa  Pa7  1  0.000000  0.500000  0.000000  1
  O  O8  1  0.716248  0.693720  0.053636  1
  O  O9  1  0.206906  0.790445  0.432079  1
  O  O10  1  0.291471  0.295483  0.564158  1
  O  O11  1  0.806009  0.214262  0.952515  1
  O  O12  1  0.283752  0.306280  0.946364  1
  O  O13  1  0.793094  0.209555  0.567921  1
  O  O14  1  0.708529  0.704517  0.435842  1
  O  O15  1  0.193991  0.785738  0.047485  1
  O  O16  1  0.456152  0.893036  0.733923  1
  O  O17  1  0.957198  0.610140  0.745728  1
  O  O18  1  0.543848  0.106964  0.266077  1
  O  O19  1  0.042802  0.389860  0.254272  1
