# generated using pymatgen
data_Pr4Nd8Ir3Pd
_symmetry_space_group_name_H-M   'P 1'
_cell_length_a   6.61040004
_cell_length_b   7.39571756
_cell_length_c   9.91582400
_cell_angle_alpha   90.00000000
_cell_angle_beta   90.00000000
_cell_angle_gamma   90.21370017
_symmetry_Int_Tables_number   1
_chemical_formula_structural   Pr4Nd8Ir3Pd
_chemical_formula_sum   'Pr4 Nd8 Ir3 Pd1'
_cell_volume   484.76789319
_cell_formula_units_Z   1
loop_
 _symmetry_equiv_pos_site_id
 _symmetry_equiv_pos_as_xyz
  1  'x, y, z'
loop_
 _atom_site_type_symbol
 _atom_site_label
 _atom_site_symmetry_multiplicity
 _atom_site_fract_x
 _atom_site_fract_y
 _atom_site_fract_z
 _atom_site_occupancy
  Pr  Pr0  1  0.857052  0.524323  0.250000  1
  Pr  Pr1  1  0.630218  0.036122  0.250000  1
  Pr  Pr2  1  0.138613  0.465439  0.750000  1
  Pr  Pr3  1  0.361837  0.965884  0.750000  1
  Nd  Nd4  1  0.335544  0.671116  0.063043  1
  Nd  Nd5  1  0.170682  0.181504  0.437340  1
  Nd  Nd6  1  0.672523  0.324678  0.566046  1
  Nd  Nd7  1  0.829352  0.824910  0.932001  1
  Nd  Nd8  1  0.672523  0.324678  0.933954  1
  Nd  Nd9  1  0.829352  0.824910  0.567999  1
  Nd  Nd10  1  0.335544  0.671116  0.436957  1
  Nd  Nd11  1  0.170682  0.181504  0.062660  1
  Ir  Ir12  1  0.430913  0.382238  0.250000  1
  Ir  Ir13  1  0.933248  0.118411  0.750000  1
  Ir  Ir14  1  0.562862  0.618024  0.750000  1
  Pd  Pd15  1  0.069053  0.885143  0.250000  1
