# generated using pymatgen
data_Tm3U5O16
_symmetry_space_group_name_H-M   'P 1'
_cell_length_a   10.69982788
_cell_length_b   5.34986604
_cell_length_c   5.34814390
_cell_angle_alpha   89.99949465
_cell_angle_beta   90.13846137
_cell_angle_gamma   89.98669886
_symmetry_Int_Tables_number   1
_chemical_formula_structural   Tm3U5O16
_chemical_formula_sum   'Tm3 U5 O16'
_cell_volume   306.14100495
_cell_formula_units_Z   1
loop_
 _symmetry_equiv_pos_site_id
 _symmetry_equiv_pos_as_xyz
  1  'x, y, z'
loop_
 _atom_site_type_symbol
 _atom_site_label
 _atom_site_symmetry_multiplicity
 _atom_site_fract_x
 _atom_site_fract_y
 _atom_site_fract_z
 _atom_site_occupancy
  Tm  Tm0  1  0.124956  0.500005  0.247830  1
  Tm  Tm1  1  0.370384  0.999925  0.246685  1
  Tm  Tm2  1  0.879650  0.000074  0.252990  1
  U  U3  1  0.625015  0.500018  0.252692  1
  U  U4  1  0.370195  0.499994  0.746249  1
  U  U5  1  0.125085  0.999989  0.745668  1
  U  U6  1  0.625026  0.999978  0.753392  1
  U  U7  1  0.879683  0.500017  0.753764  1
  O  O8  1  0.999107  0.249385  0.993926  1
  O  O9  1  0.500327  0.747735  0.997103  1
  O  O10  1  0.748577  0.748155  0.005011  1
  O  O11  1  0.748402  0.251684  0.005038  1
  O  O12  1  0.250445  0.249356  0.500931  1
  O  O13  1  0.250652  0.750190  0.500975  1
  O  O14  1  0.000903  0.750349  0.505579  1
  O  O15  1  0.501100  0.251443  0.500374  1
  O  O16  1  0.501276  0.748691  0.500354  1
  O  O17  1  0.000681  0.250171  0.505675  1
  O  O18  1  0.749932  0.251838  0.508343  1
  O  O19  1  0.750100  0.747821  0.508372  1
  O  O20  1  0.249622  0.750244  0.989069  1
  O  O21  1  0.249412  0.249119  0.989064  1
  O  O22  1  0.500154  0.252611  0.997059  1
  O  O23  1  0.999317  0.751206  0.993860  1
