# generated using pymatgen
data_FeCo2P2Ru
_symmetry_space_group_name_H-M   'P 1'
_cell_length_a   3.62784800
_cell_length_b   5.70046300
_cell_length_c   6.62613300
_cell_angle_alpha   90.00000000
_cell_angle_beta   90.00000000
_cell_angle_gamma   90.00000000
_symmetry_Int_Tables_number   1
_chemical_formula_structural   FeCo2P2Ru
_chemical_formula_sum   'Fe2 Co4 P4 Ru2'
_cell_volume   137.03116898
_cell_formula_units_Z   2
loop_
 _symmetry_equiv_pos_site_id
 _symmetry_equiv_pos_as_xyz
  1  'x, y, z'
loop_
 _atom_site_type_symbol
 _atom_site_label
 _atom_site_symmetry_multiplicity
 _atom_site_fract_x
 _atom_site_fract_y
 _atom_site_fract_z
 _atom_site_occupancy
  Fe  Fe0  1  0.750000  0.967733  0.833931  1
  Fe  Fe1  1  0.750000  0.467733  0.666069  1
  Co  Co2  1  0.250000  0.140935  0.571532  1
  Co  Co3  1  0.250000  0.640935  0.928468  1
  Co  Co4  1  0.750000  0.860687  0.439258  1
  Co  Co5  1  0.750000  0.360687  0.060742  1
  P  P6  1  0.250000  0.760984  0.621715  1
  P  P7  1  0.250000  0.260984  0.878285  1
  P  P8  1  0.750000  0.243119  0.382844  1
  P  P9  1  0.750000  0.743119  0.117156  1
  Ru  Ru10  1  0.250000  0.026542  0.165107  1
  Ru  Ru11  1  0.250000  0.526542  0.334893  1
