# generated using pymatgen
data_TbDy7(ThRu2)2
_symmetry_space_group_name_H-M   'P 1'
_cell_length_a   8.67664589
_cell_length_b   8.67528805
_cell_length_c   7.22344503
_cell_angle_alpha   83.46917883
_cell_angle_beta   83.47746753
_cell_angle_gamma   43.38097060
_symmetry_Int_Tables_number   1
_chemical_formula_structural   TbDy7(ThRu2)2
_chemical_formula_sum   'Tb1 Dy7 Th2 Ru4'
_cell_volume   370.65142326
_cell_formula_units_Z   1
loop_
 _symmetry_equiv_pos_site_id
 _symmetry_equiv_pos_as_xyz
  1  'x, y, z'
loop_
 _atom_site_type_symbol
 _atom_site_label
 _atom_site_symmetry_multiplicity
 _atom_site_fract_x
 _atom_site_fract_y
 _atom_site_fract_z
 _atom_site_occupancy
  Tb  Tb0  1  0.210573  0.356863  0.311271  1
  Dy  Dy1  1  0.643062  0.789467  0.188632  1
  Dy  Dy2  1  0.790847  0.641932  0.685451  1
  Dy  Dy3  1  0.358120  0.209098  0.814594  1
  Dy  Dy4  1  0.978552  0.207519  0.085352  1
  Dy  Dy5  1  0.792563  0.021369  0.414678  1
  Dy  Dy6  1  0.577224  0.422771  0.749977  1
  Dy  Dy7  1  0.420752  0.579294  0.249998  1
  Th  Th8  1  0.201455  0.990543  0.591113  1
  Th  Th9  1  0.009427  0.798591  0.908872  1
  Ru  Ru10  1  0.169944  0.611518  0.586493  1
  Ru  Ru11  1  0.388552  0.830031  0.913582  1
  Ru  Ru12  1  0.841267  0.382425  0.429016  1
  Ru  Ru13  1  0.617663  0.158577  0.070970  1
