# generated using pymatgen
data_K8TbGd2HoF20
_symmetry_space_group_name_H-M   'P 1'
_cell_length_a   6.73780640
_cell_length_b   7.37209300
_cell_length_c   11.06059310
_cell_angle_alpha   90.00000000
_cell_angle_beta   90.07302319
_cell_angle_gamma   90.00000000
_symmetry_Int_Tables_number   1
_chemical_formula_structural   K8TbGd2HoF20
_chemical_formula_sum   'K8 Tb1 Gd2 Ho1 F20'
_cell_volume   549.39840770
_cell_formula_units_Z   1
loop_
 _symmetry_equiv_pos_site_id
 _symmetry_equiv_pos_as_xyz
  1  'x, y, z'
loop_
 _atom_site_type_symbol
 _atom_site_label
 _atom_site_symmetry_multiplicity
 _atom_site_fract_x
 _atom_site_fract_y
 _atom_site_fract_z
 _atom_site_occupancy
  K  K0  1  0.528710  0.498596  0.828235  1
  K  K1  1  0.471998  0.502736  0.171719  1
  K  K2  1  0.028202  0.502596  0.672361  1
  K  K3  1  0.471998  0.997264  0.171719  1
  K  K4  1  0.971435  0.498500  0.327644  1
  K  K5  1  0.528710  0.001404  0.828235  1
  K  K6  1  0.971435  0.001500  0.327644  1
  K  K7  1  0.028202  0.997404  0.672361  1
  Tb  Tb8  1  0.564887  0.750000  0.501977  1
  Gd  Gd9  1  0.435262  0.250000  0.497798  1
  Gd  Gd10  1  0.063914  0.250000  0.997899  1
  Ho  Ho11  1  0.935553  0.750000  0.001645  1
  F  F12  1  0.837392  0.750000  0.810690  1
  F  F13  1  0.164663  0.250000  0.193049  1
  F  F14  1  0.335158  0.250000  0.693040  1
  F  F15  1  0.663346  0.750000  0.309102  1
  F  F16  1  0.367797  0.750000  0.663444  1
  F  F17  1  0.634491  0.250000  0.334734  1
  F  F18  1  0.865402  0.250000  0.834560  1
  F  F19  1  0.130019  0.750000  0.161584  1
  F  F20  1  0.893640  0.750000  0.513482  1
  F  F21  1  0.102919  0.250000  0.486688  1
  F  F22  1  0.396221  0.250000  0.986435  1
  F  F23  1  0.610248  0.750000  0.013583  1
  F  F24  1  0.645435  0.031643  0.578631  1
  F  F25  1  0.355462  0.963577  0.421386  1
  F  F26  1  0.143006  0.961799  0.922400  1
  F  F27  1  0.355462  0.536423  0.421386  1
  F  F28  1  0.855295  0.029711  0.077769  1
  F  F29  1  0.645435  0.468357  0.578631  1
  F  F30  1  0.855295  0.470289  0.077769  1
  F  F31  1  0.143006  0.538201  0.922400  1
