# generated using pymatgen
data_Ti4MnFe3
_symmetry_space_group_name_H-M   'P 1'
_cell_length_a   2.95826705
_cell_length_b   4.19424838
_cell_length_c   9.34466032
_cell_angle_alpha   63.38229009
_cell_angle_beta   89.99304235
_cell_angle_gamma   89.99621432
_symmetry_Int_Tables_number   1
_chemical_formula_structural   Ti4MnFe3
_chemical_formula_sum   'Ti4 Mn1 Fe3'
_cell_volume   103.65738048
_cell_formula_units_Z   1
loop_
 _symmetry_equiv_pos_site_id
 _symmetry_equiv_pos_as_xyz
  1  'x, y, z'
loop_
 _atom_site_type_symbol
 _atom_site_label
 _atom_site_symmetry_multiplicity
 _atom_site_fract_x
 _atom_site_fract_y
 _atom_site_fract_z
 _atom_site_occupancy
  Ti  Ti0  1  0.726940  0.213047  0.706894  1
  Ti  Ti1  1  0.721650  0.964500  0.455544  1
  Ti  Ti2  1  0.720653  0.462253  0.958300  1
  Ti  Ti3  1  0.720701  0.713661  0.206951  1
  Mn  Mn4  1  0.220729  0.213723  0.206935  1
  Fe  Fe5  1  0.222873  0.460690  0.459431  1
  Fe  Fe6  1  0.224392  0.712957  0.706902  1
  Fe  Fe7  1  0.222278  0.966055  0.954414  1
