# generated using pymatgen
data_Th3Cd3AgIrAu
_symmetry_space_group_name_H-M   'P 1'
_cell_length_a   7.98177100
_cell_length_b   7.98177259
_cell_length_c   3.95202700
_cell_angle_alpha   90.00000000
_cell_angle_beta   90.00000000
_cell_angle_gamma   119.99999756
_symmetry_Int_Tables_number   1
_chemical_formula_structural   Th3Cd3AgIrAu
_chemical_formula_sum   'Th3 Cd3 Ag1 Ir1 Au1'
_cell_volume   218.04651961
_cell_formula_units_Z   1
loop_
 _symmetry_equiv_pos_site_id
 _symmetry_equiv_pos_as_xyz
  1  'x, y, z'
loop_
 _atom_site_type_symbol
 _atom_site_label
 _atom_site_symmetry_multiplicity
 _atom_site_fract_x
 _atom_site_fract_y
 _atom_site_fract_z
 _atom_site_occupancy
  Th  Th0  1  0.573562  0.979161  0.000000  1
  Th  Th1  1  0.020839  0.594400  0.000000  1
  Th  Th2  1  0.405600  0.426438  0.000000  1
  Cd  Cd3  1  0.257573  0.005856  0.500000  1
  Cd  Cd4  1  0.994144  0.251715  0.500000  1
  Cd  Cd5  1  0.748285  0.742427  0.500000  1
  Ag  Ag6  1  0.000000  0.000000  0.000000  1
  Ir  Ir7  1  0.333333  0.666667  0.500000  1
  Au  Au8  1  0.666667  0.333333  0.500000  1
