# generated using pymatgen
data_Er16Ni3Ag3HgIr
_symmetry_space_group_name_H-M   'P 1'
_cell_length_a   9.37274784
_cell_length_b   9.42529736
_cell_length_c   9.37274974
_cell_angle_alpha   60.38512992
_cell_angle_beta   60.12973208
_cell_angle_gamma   60.38512554
_symmetry_Int_Tables_number   1
_chemical_formula_structural   Er16Ni3Ag3HgIr
_chemical_formula_sum   'Er16 Ni3 Ag3 Hg1 Ir1'
_cell_volume   589.44955791
_cell_formula_units_Z   1
loop_
 _symmetry_equiv_pos_site_id
 _symmetry_equiv_pos_as_xyz
  1  'x, y, z'
loop_
 _atom_site_type_symbol
 _atom_site_label
 _atom_site_symmetry_multiplicity
 _atom_site_fract_x
 _atom_site_fract_y
 _atom_site_fract_z
 _atom_site_occupancy
  Er  Er0  1  0.063360  0.064485  0.435159  1
  Er  Er1  1  0.649349  0.051446  0.649349  1
  Er  Er2  1  0.189738  0.810395  0.189738  1
  Er  Er3  1  0.435101  0.062850  0.435101  1
  Er  Er4  1  0.192485  0.186940  0.810134  1
  Er  Er5  1  0.647830  0.652387  0.647830  1
  Er  Er6  1  0.054096  0.653411  0.646048  1
  Er  Er7  1  0.435159  0.064485  0.063360  1
  Er  Er8  1  0.646048  0.653411  0.054096  1
  Er  Er9  1  0.188960  0.811157  0.811836  1
  Er  Er10  1  0.812999  0.184953  0.812999  1
  Er  Er11  1  0.810134  0.186940  0.192485  1
  Er  Er12  1  0.811836  0.811157  0.188960  1
  Er  Er13  1  0.061017  0.435306  0.436877  1
  Er  Er14  1  0.436877  0.435306  0.061017  1
  Er  Er15  1  0.060940  0.435256  0.060940  1
  Ni  Ni16  1  0.855733  0.859048  0.855733  1
  Ni  Ni17  1  0.428512  0.857557  0.858370  1
  Ni  Ni18  1  0.858370  0.857557  0.428512  1
  Ag  Ag19  1  0.747223  0.417140  0.419556  1
  Ag  Ag20  1  0.419556  0.417140  0.747223  1
  Ag  Ag21  1  0.418589  0.748341  0.418589  1
  Hg  Hg22  1  0.417471  0.413549  0.417471  1
  Ir  Ir23  1  0.858616  0.429781  0.858616  1
