# generated using pymatgen
data_LiY6Co2(P4Ir5)3
_symmetry_space_group_name_H-M   'P 1'
_cell_length_a   3.92309900
_cell_length_b   11.13458500
_cell_length_c   12.76577200
_cell_angle_alpha   90.00000000
_cell_angle_beta   90.00000000
_cell_angle_gamma   90.00000000
_symmetry_Int_Tables_number   1
_chemical_formula_structural   LiY6Co2(P4Ir5)3
_chemical_formula_sum   'Li1 Y6 Co2 P12 Ir15'
_cell_volume   557.63546456
_cell_formula_units_Z   1
loop_
 _symmetry_equiv_pos_site_id
 _symmetry_equiv_pos_as_xyz
  1  'x, y, z'
loop_
 _atom_site_type_symbol
 _atom_site_label
 _atom_site_symmetry_multiplicity
 _atom_site_fract_x
 _atom_site_fract_y
 _atom_site_fract_z
 _atom_site_occupancy
  Li  Li0  1  0.500000  0.500000  0.155983  1
  Y  Y1  1  0.000000  0.500000  0.517039  1
  Y  Y2  1  0.500000  0.000000  0.479299  1
  Y  Y3  1  0.500000  0.816393  0.200849  1
  Y  Y4  1  0.500000  0.183607  0.200849  1
  Y  Y5  1  0.000000  0.682367  0.799694  1
  Y  Y6  1  0.000000  0.317633  0.799694  1
  Co  Co7  1  0.000000  0.500000  0.985476  1
  Co  Co8  1  0.500000  0.000000  0.020930  1
  P  P9  1  0.500000  0.500000  0.883517  1
  P  P10  1  0.000000  0.000000  0.119508  1
  P  P11  1  0.500000  0.500000  0.344080  1
  P  P12  1  0.000000  0.000000  0.644830  1
  P  P13  1  0.500000  0.315357  0.619525  1
  P  P14  1  0.500000  0.684643  0.619525  1
  P  P15  1  0.000000  0.186406  0.381301  1
  P  P16  1  0.000000  0.813594  0.381301  1
  P  P17  1  0.500000  0.851602  0.896974  1
  P  P18  1  0.500000  0.148398  0.896974  1
  P  P19  1  0.000000  0.651720  0.104868  1
  P  P20  1  0.000000  0.348280  0.104868  1
  Ir  Ir21  1  0.000000  0.000000  0.825576  1
  Ir  Ir22  1  0.500000  0.500000  0.702885  1
  Ir  Ir23  1  0.000000  0.000000  0.298713  1
  Ir  Ir24  1  0.500000  0.335410  0.995062  1
  Ir  Ir25  1  0.500000  0.664590  0.995062  1
  Ir  Ir26  1  0.000000  0.161189  0.004808  1
  Ir  Ir27  1  0.000000  0.838811  0.004808  1
  Ir  Ir28  1  0.500000  0.289797  0.431899  1
  Ir  Ir29  1  0.500000  0.710203  0.431899  1
  Ir  Ir30  1  0.000000  0.205674  0.573170  1
  Ir  Ir31  1  0.000000  0.794326  0.573170  1
  Ir  Ir32  1  0.500000  0.871140  0.715931  1
  Ir  Ir33  1  0.500000  0.128860  0.715931  1
  Ir  Ir34  1  0.000000  0.627136  0.287003  1
  Ir  Ir35  1  0.000000  0.372864  0.287003  1
