# generated using pymatgen
data_Pr6VFe(Co4P3)4
_symmetry_space_group_name_H-M   'P 1'
_cell_length_a   3.76888300
_cell_length_b   10.68735000
_cell_length_c   12.40472500
_cell_angle_alpha   90.00000000
_cell_angle_beta   90.00000000
_cell_angle_gamma   90.00000000
_symmetry_Int_Tables_number   1
_chemical_formula_structural   Pr6VFe(Co4P3)4
_chemical_formula_sum   'Pr6 V1 Fe1 Co16 P12'
_cell_volume   499.65452948
_cell_formula_units_Z   1
loop_
 _symmetry_equiv_pos_site_id
 _symmetry_equiv_pos_as_xyz
  1  'x, y, z'
loop_
 _atom_site_type_symbol
 _atom_site_label
 _atom_site_symmetry_multiplicity
 _atom_site_fract_x
 _atom_site_fract_y
 _atom_site_fract_z
 _atom_site_occupancy
  Pr  Pr0  1  0.000000  0.500000  0.522665  1
  Pr  Pr1  1  0.500000  0.000000  0.479017  1
  Pr  Pr2  1  0.500000  0.818323  0.205862  1
  Pr  Pr3  1  0.500000  0.181677  0.205862  1
  Pr  Pr4  1  0.000000  0.681934  0.795644  1
  Pr  Pr5  1  0.000000  0.318066  0.795644  1
  V  V6  1  0.500000  0.500000  0.150822  1
  Fe  Fe7  1  0.000000  0.000000  0.845540  1
  Co  Co8  1  0.500000  0.500000  0.703469  1
  Co  Co9  1  0.000000  0.000000  0.296152  1
  Co  Co10  1  0.000000  0.500000  0.988212  1
  Co  Co11  1  0.500000  0.000000  0.012090  1
  Co  Co12  1  0.500000  0.332327  0.994547  1
  Co  Co13  1  0.500000  0.667673  0.994547  1
  Co  Co14  1  0.000000  0.166296  0.003959  1
  Co  Co15  1  0.000000  0.833704  0.003959  1
  Co  Co16  1  0.500000  0.296493  0.430413  1
  Co  Co17  1  0.500000  0.703507  0.430413  1
  Co  Co18  1  0.000000  0.203623  0.569455  1
  Co  Co19  1  0.000000  0.796377  0.569455  1
  Co  Co20  1  0.500000  0.881305  0.710054  1
  Co  Co21  1  0.500000  0.118695  0.710054  1
  Co  Co22  1  0.000000  0.618452  0.290155  1
  Co  Co23  1  0.000000  0.381548  0.290155  1
  P  P24  1  0.500000  0.500000  0.886848  1
  P  P25  1  0.000000  0.000000  0.112451  1
  P  P26  1  0.500000  0.500000  0.341404  1
  P  P27  1  0.000000  0.000000  0.662718  1
  P  P28  1  0.500000  0.304608  0.614361  1
  P  P29  1  0.500000  0.695392  0.614361  1
  P  P30  1  0.000000  0.194779  0.386840  1
  P  P31  1  0.000000  0.805221  0.386840  1
  P  P32  1  0.500000  0.850042  0.894220  1
  P  P33  1  0.500000  0.149958  0.894220  1
  P  P34  1  0.000000  0.653127  0.103796  1
  P  P35  1  0.000000  0.346873  0.103796  1
