# generated using pymatgen
data_Yb3Ho5(Sc3Sn4)4
_symmetry_space_group_name_H-M   'P 1'
_cell_length_a   7.66491482
_cell_length_b   7.98789571
_cell_length_c   14.94794673
_cell_angle_alpha   90.07983761
_cell_angle_beta   89.37150997
_cell_angle_gamma   90.09608818
_symmetry_Int_Tables_number   1
_chemical_formula_structural   Yb3Ho5(Sc3Sn4)4
_chemical_formula_sum   'Yb3 Ho5 Sc12 Sn16'
_cell_volume   915.15384983
_cell_formula_units_Z   1
loop_
 _symmetry_equiv_pos_site_id
 _symmetry_equiv_pos_as_xyz
  1  'x, y, z'
loop_
 _atom_site_type_symbol
 _atom_site_label
 _atom_site_symmetry_multiplicity
 _atom_site_fract_x
 _atom_site_fract_y
 _atom_site_fract_z
 _atom_site_occupancy
  Yb  Yb0  1  0.993741  0.176961  0.093413  1
  Yb  Yb1  1  0.005911  0.822666  0.906854  1
  Yb  Yb2  1  0.505650  0.677105  0.906490  1
  Ho  Ho3  1  0.003755  0.821598  0.593106  1
  Ho  Ho4  1  0.495173  0.321057  0.095640  1
  Ho  Ho5  1  0.996129  0.178217  0.406111  1
  Ho  Ho6  1  0.495571  0.322061  0.406216  1
  Ho  Ho7  1  0.504073  0.678281  0.593071  1
  Sc  Sc8  1  0.165445  0.497702  0.749395  1
  Sc  Sc9  1  0.834323  0.502626  0.250652  1
  Sc  Sc10  1  0.334459  0.997593  0.250179  1
  Sc  Sc11  1  0.665288  0.002528  0.749245  1
  Sc  Sc12  1  0.336183  0.160783  0.626843  1
  Sc  Sc13  1  0.664023  0.838665  0.372566  1
  Sc  Sc14  1  0.163496  0.661445  0.373156  1
  Sc  Sc15  1  0.666897  0.839438  0.127480  1
  Sc  Sc16  1  0.836447  0.338989  0.626765  1
  Sc  Sc17  1  0.333689  0.160324  0.872503  1
  Sc  Sc18  1  0.832751  0.339386  0.872667  1
  Sc  Sc19  1  0.166841  0.660696  0.127424  1
  Sn  Sn20  1  0.027252  0.124489  0.749678  1
  Sn  Sn21  1  0.972992  0.875722  0.250151  1
  Sn  Sn22  1  0.472684  0.623730  0.249663  1
  Sn  Sn23  1  0.527451  0.375934  0.749514  1
  Sn  Sn24  1  0.306583  0.850485  0.747803  1
  Sn  Sn25  1  0.692793  0.150311  0.251440  1
  Sn  Sn26  1  0.193738  0.349734  0.250971  1
  Sn  Sn27  1  0.806791  0.649399  0.748113  1
  Sn  Sn28  1  0.181060  0.456774  0.541911  1
  Sn  Sn29  1  0.818563  0.543109  0.458052  1
  Sn  Sn30  1  0.319270  0.957179  0.457901  1
  Sn  Sn31  1  0.824021  0.540400  0.043790  1
  Sn  Sn32  1  0.680818  0.042998  0.541825  1
  Sn  Sn33  1  0.176465  0.457292  0.957723  1
  Sn  Sn34  1  0.672512  0.043074  0.958033  1
  Sn  Sn35  1  0.327159  0.961251  0.043656  1
