# generated using pymatgen
data_Y6Er9Th(CdNi)4
_symmetry_space_group_name_H-M   'P 1'
_cell_length_a   9.53535830
_cell_length_b   9.53530826
_cell_length_c   9.53554667
_cell_angle_alpha   60.03858969
_cell_angle_beta   60.03848760
_cell_angle_gamma   60.04254984
_symmetry_Int_Tables_number   1
_chemical_formula_structural   Y6Er9Th(CdNi)4
_chemical_formula_sum   'Y6 Er9 Th1 Cd4 Ni4'
_cell_volume   613.61322748
_cell_formula_units_Z   1
loop_
 _symmetry_equiv_pos_site_id
 _symmetry_equiv_pos_as_xyz
  1  'x, y, z'
loop_
 _atom_site_type_symbol
 _atom_site_label
 _atom_site_symmetry_multiplicity
 _atom_site_fract_x
 _atom_site_fract_y
 _atom_site_fract_z
 _atom_site_occupancy
  Y  Y0  1  0.187740  0.814035  0.814014  1
  Y  Y1  1  0.812664  0.186822  0.186816  1
  Y  Y2  1  0.814027  0.187742  0.814023  1
  Y  Y3  1  0.186824  0.812660  0.186830  1
  Y  Y4  1  0.814011  0.814029  0.187746  1
  Y  Y5  1  0.186820  0.186819  0.812666  1
  Er  Er6  1  0.598623  0.598711  0.200974  1
  Er  Er7  1  0.598629  0.200971  0.598709  1
  Er  Er8  1  0.201002  0.598680  0.598663  1
  Er  Er9  1  0.063289  0.438434  0.438438  1
  Er  Er10  1  0.438917  0.062771  0.062795  1
  Er  Er11  1  0.438425  0.063240  0.438428  1
  Er  Er12  1  0.062823  0.438928  0.062720  1
  Er  Er13  1  0.438429  0.438428  0.063252  1
  Er  Er14  1  0.062818  0.062722  0.438930  1
  Th  Th15  1  0.594134  0.594190  0.594166  1
  Cd  Cd16  1  0.830767  0.830772  0.830767  1
  Cd  Cd17  1  0.831930  0.831931  0.505651  1
  Cd  Cd18  1  0.831932  0.505651  0.831931  1
  Cd  Cd19  1  0.505654  0.831930  0.831929  1
  Ni  Ni20  1  0.392803  0.392799  0.392795  1
  Ni  Ni21  1  0.393299  0.393302  0.821132  1
  Ni  Ni22  1  0.393319  0.821119  0.393308  1
  Ni  Ni23  1  0.821120  0.393315  0.393318  1
