# generated using pymatgen
data_Tm12Tc3Os
_symmetry_space_group_name_H-M   'P 1'
_cell_length_a   7.37255079
_cell_length_b   8.96021300
_cell_length_c   6.18037241
_cell_angle_alpha   90.00000000
_cell_angle_beta   89.89955913
_cell_angle_gamma   90.00000000
_symmetry_Int_Tables_number   1
_chemical_formula_structural   Tm12Tc3Os
_chemical_formula_sum   'Tm12 Tc3 Os1'
_cell_volume   408.27245908
_cell_formula_units_Z   1
loop_
 _symmetry_equiv_pos_site_id
 _symmetry_equiv_pos_as_xyz
  1  'x, y, z'
loop_
 _atom_site_type_symbol
 _atom_site_label
 _atom_site_symmetry_multiplicity
 _atom_site_fract_x
 _atom_site_fract_y
 _atom_site_fract_z
 _atom_site_occupancy
  Tm  Tm0  1  0.042468  0.250000  0.627618  1
  Tm  Tm1  1  0.958890  0.750000  0.375821  1
  Tm  Tm2  1  0.460624  0.750000  0.125948  1
  Tm  Tm3  1  0.540177  0.250000  0.875284  1
  Tm  Tm4  1  0.173565  0.062530  0.159329  1
  Tm  Tm5  1  0.825547  0.939618  0.839713  1
  Tm  Tm6  1  0.324812  0.938475  0.657048  1
  Tm  Tm7  1  0.825547  0.560382  0.839713  1
  Tm  Tm8  1  0.676176  0.062745  0.340340  1
  Tm  Tm9  1  0.173565  0.437470  0.159329  1
  Tm  Tm10  1  0.676176  0.437255  0.340340  1
  Tm  Tm11  1  0.324812  0.561525  0.657048  1
  Tc  Tc12  1  0.383075  0.250000  0.458979  1
  Tc  Tc13  1  0.616735  0.750000  0.542612  1
  Tc  Tc14  1  0.115791  0.750000  0.960269  1
  Os  Os15  1  0.882041  0.250000  0.040609  1
