# generated using pymatgen
data_Ho16Sc4(Ir3Pd)3
_symmetry_space_group_name_H-M   'P 1'
_cell_length_a   10.79905201
_cell_length_b   10.79905143
_cell_length_c   6.24633500
_cell_angle_alpha   90.00180391
_cell_angle_beta   90.00180391
_cell_angle_gamma   90.08335143
_symmetry_Int_Tables_number   1
_chemical_formula_structural   Ho16Sc4(Ir3Pd)3
_chemical_formula_sum   'Ho16 Sc4 Ir9 Pd3'
_cell_volume   728.44380561
_cell_formula_units_Z   1
loop_
 _symmetry_equiv_pos_site_id
 _symmetry_equiv_pos_as_xyz
  1  'x, y, z'
loop_
 _atom_site_type_symbol
 _atom_site_label
 _atom_site_symmetry_multiplicity
 _atom_site_fract_x
 _atom_site_fract_y
 _atom_site_fract_z
 _atom_site_occupancy
  Ho  Ho0  1  0.291304  0.084459  0.370324  1
  Ho  Ho1  1  0.290393  0.909428  0.877339  1
  Ho  Ho2  1  0.707380  0.088923  0.873270  1
  Ho  Ho3  1  0.705883  0.910708  0.372317  1
  Ho  Ho4  1  0.581971  0.786528  0.878518  1
  Ho  Ho5  1  0.582014  0.213120  0.378653  1
  Ho  Ho6  1  0.413232  0.787371  0.378443  1
  Ho  Ho7  1  0.417070  0.213313  0.878107  1
  Ho  Ho8  1  0.213472  0.418029  0.621482  1
  Ho  Ho9  1  0.212629  0.586768  0.121557  1
  Ho  Ho10  1  0.786880  0.417986  0.121347  1
  Ho  Ho11  1  0.786687  0.582930  0.621893  1
  Ho  Ho12  1  0.915541  0.708696  0.129676  1
  Ho  Ho13  1  0.911077  0.292620  0.626730  1
  Ho  Ho14  1  0.090572  0.709607  0.622661  1
  Ho  Ho15  1  0.089292  0.294117  0.127683  1
  Sc  Sc16  1  0.002401  0.996616  0.497143  1
  Sc  Sc17  1  0.003384  0.997599  0.002857  1
  Sc  Sc18  1  0.499849  0.500060  0.000407  1
  Sc  Sc19  1  0.499940  0.500151  0.499593  1
  Ir  Ir20  1  0.145658  0.854342  0.250000  1
  Ir  Ir21  1  0.649232  0.350768  0.750000  1
  Ir  Ir22  1  0.649328  0.649394  0.250155  1
  Ir  Ir23  1  0.350606  0.350672  0.249845  1
  Ir  Ir24  1  0.351730  0.648270  0.750000  1
  Ir  Ir25  1  0.501034  0.000124  0.120639  1
  Ir  Ir26  1  0.500496  0.000133  0.623050  1
  Ir  Ir27  1  0.999867  0.499504  0.876950  1
  Ir  Ir28  1  0.999876  0.498966  0.379361  1
  Pd  Pd29  1  0.852330  0.147670  0.250000  1
  Pd  Pd30  1  0.850770  0.851897  0.750183  1
  Pd  Pd31  1  0.148103  0.149230  0.749817  1
