# generated using pymatgen
data_Cs2Ce(GeO3)3
_symmetry_space_group_name_H-M   'P 1'
_cell_length_a   7.62860200
_cell_length_b   7.62860102
_cell_length_c   11.19585200
_cell_angle_alpha   90.00000000
_cell_angle_beta   90.00000000
_cell_angle_gamma   120.00000423
_symmetry_Int_Tables_number   1
_chemical_formula_structural   Cs2Ce(GeO3)3
_chemical_formula_sum   'Cs4 Ce2 Ge6 O18'
_cell_volume   564.25786501
_cell_formula_units_Z   2
loop_
 _symmetry_equiv_pos_site_id
 _symmetry_equiv_pos_as_xyz
  1  'x, y, z'
loop_
 _atom_site_type_symbol
 _atom_site_label
 _atom_site_symmetry_multiplicity
 _atom_site_fract_x
 _atom_site_fract_y
 _atom_site_fract_z
 _atom_site_occupancy
  Cs  Cs0  1  0.333333  0.666667  0.060752  1
  Cs  Cs1  1  0.666667  0.333333  0.560752  1
  Cs  Cs2  1  0.666667  0.333333  0.939248  1
  Cs  Cs3  1  0.333333  0.666667  0.439248  1
  Ce  Ce4  1  0.000000  0.000000  0.000000  1
  Ce  Ce5  1  0.000000  0.000000  0.500000  1
  Ge  Ge6  1  0.386646  0.247613  0.250000  1
  Ge  Ge7  1  0.139034  0.386646  0.750000  1
  Ge  Ge8  1  0.247613  0.860966  0.750000  1
  Ge  Ge9  1  0.752387  0.139034  0.250000  1
  Ge  Ge10  1  0.860966  0.613354  0.250000  1
  Ge  Ge11  1  0.613354  0.752387  0.750000  1
  O  O12  1  0.491055  0.082059  0.250000  1
  O  O13  1  0.408996  0.491055  0.750000  1
  O  O14  1  0.082059  0.591004  0.750000  1
  O  O15  1  0.917941  0.408996  0.250000  1
  O  O16  1  0.591004  0.508945  0.250000  1
  O  O17  1  0.508945  0.917941  0.750000  1
  O  O18  1  0.257913  0.222099  0.116224  1
  O  O19  1  0.035814  0.257913  0.616224  1
  O  O20  1  0.222099  0.964186  0.616224  1
  O  O21  1  0.777901  0.035814  0.116224  1
  O  O22  1  0.964186  0.742087  0.116224  1
  O  O23  1  0.742087  0.777901  0.616224  1
  O  O24  1  0.742087  0.777901  0.883776  1
  O  O25  1  0.964186  0.742087  0.383776  1
  O  O26  1  0.777901  0.035814  0.383776  1
  O  O27  1  0.222099  0.964186  0.883776  1
  O  O28  1  0.035814  0.257913  0.883776  1
  O  O29  1  0.257913  0.222099  0.383776  1
