# generated using pymatgen
data_Tb6P12Ru17Rh
_symmetry_space_group_name_H-M   'P 1'
_cell_length_a   3.99029400
_cell_length_b   11.25569800
_cell_length_c   12.50235400
_cell_angle_alpha   90.00000000
_cell_angle_beta   90.00000000
_cell_angle_gamma   90.00000000
_symmetry_Int_Tables_number   1
_chemical_formula_structural   Tb6P12Ru17Rh
_chemical_formula_sum   'Tb6 P12 Ru17 Rh1'
_cell_volume   561.52502892
_cell_formula_units_Z   1
loop_
 _symmetry_equiv_pos_site_id
 _symmetry_equiv_pos_as_xyz
  1  'x, y, z'
loop_
 _atom_site_type_symbol
 _atom_site_label
 _atom_site_symmetry_multiplicity
 _atom_site_fract_x
 _atom_site_fract_y
 _atom_site_fract_z
 _atom_site_occupancy
  Tb  Tb0  1  0.000000  0.500000  0.524737  1
  Tb  Tb1  1  0.500000  0.000000  0.476876  1
  Tb  Tb2  1  0.500000  0.817105  0.205419  1
  Tb  Tb3  1  0.500000  0.182895  0.205419  1
  Tb  Tb4  1  0.000000  0.679884  0.793456  1
  Tb  Tb5  1  0.000000  0.320116  0.793456  1
  P  P6  1  0.500000  0.500000  0.879904  1
  P  P7  1  0.000000  0.000000  0.117366  1
  P  P8  1  0.500000  0.500000  0.339248  1
  P  P9  1  0.000000  0.000000  0.661460  1
  P  P10  1  0.500000  0.299178  0.618359  1
  P  P11  1  0.500000  0.700822  0.618359  1
  P  P12  1  0.000000  0.201026  0.382874  1
  P  P13  1  0.000000  0.798974  0.382874  1
  P  P14  1  0.500000  0.845392  0.896220  1
  P  P15  1  0.500000  0.154608  0.896220  1
  P  P16  1  0.000000  0.654148  0.103743  1
  P  P17  1  0.000000  0.345852  0.103743  1
  Ru  Ru18  1  0.500000  0.500000  0.155468  1
  Ru  Ru19  1  0.000000  0.000000  0.845093  1
  Ru  Ru20  1  0.500000  0.500000  0.690195  1
  Ru  Ru21  1  0.000000  0.500000  0.985024  1
  Ru  Ru22  1  0.500000  0.000000  0.014814  1
  Ru  Ru23  1  0.500000  0.332090  0.990911  1
  Ru  Ru24  1  0.500000  0.667910  0.990911  1
  Ru  Ru25  1  0.000000  0.168635  0.009073  1
  Ru  Ru26  1  0.000000  0.831365  0.009073  1
  Ru  Ru27  1  0.500000  0.303241  0.431441  1
  Ru  Ru28  1  0.500000  0.696759  0.431441  1
  Ru  Ru29  1  0.000000  0.195428  0.569345  1
  Ru  Ru30  1  0.000000  0.804572  0.569345  1
  Ru  Ru31  1  0.500000  0.878921  0.714700  1
  Ru  Ru32  1  0.500000  0.121079  0.714700  1
  Ru  Ru33  1  0.000000  0.621517  0.285526  1
  Ru  Ru34  1  0.000000  0.378483  0.285526  1
  Rh  Rh35  1  0.000000  0.000000  0.307679  1
