# generated using pymatgen
data_Er4Fe(CoSi2)5
_symmetry_space_group_name_H-M   'P 1'
_cell_length_a   5.45634914
_cell_length_b   7.86354875
_cell_length_c   7.86354971
_cell_angle_alpha   73.78917698
_cell_angle_beta   69.69977652
_cell_angle_gamma   69.69978136
_symmetry_Int_Tables_number   1
_chemical_formula_structural   Er4Fe(CoSi2)5
_chemical_formula_sum   'Er4 Fe1 Co5 Si10'
_cell_volume   291.90766346
_cell_formula_units_Z   1
loop_
 _symmetry_equiv_pos_site_id
 _symmetry_equiv_pos_as_xyz
  1  'x, y, z'
loop_
 _atom_site_type_symbol
 _atom_site_label
 _atom_site_symmetry_multiplicity
 _atom_site_fract_x
 _atom_site_fract_y
 _atom_site_fract_z
 _atom_site_occupancy
  Er  Er0  1  0.366607  0.867904  0.402564  1
  Er  Er1  1  0.637075  0.132096  0.597436  1
  Er  Er2  1  0.862925  0.402564  0.867904  1
  Er  Er3  1  0.133393  0.597436  0.132096  1
  Fe  Fe4  1  0.750000  0.000000  0.000000  1
  Co  Co5  1  0.250000  0.000000  0.000000  1
  Co  Co6  1  0.143293  0.254673  0.466699  1
  Co  Co7  1  0.864665  0.745327  0.533301  1
  Co  Co8  1  0.635335  0.466699  0.254673  1
  Co  Co9  1  0.356707  0.533301  0.745327  1
  Si  Si10  1  0.750000  0.500000  0.500000  1
  Si  Si11  1  0.250000  0.500000  0.500000  1
  Si  Si12  1  0.528876  0.221124  0.221124  1
  Si  Si13  1  0.971124  0.778876  0.778876  1
  Si  Si14  1  0.473967  0.776033  0.776033  1
  Si  Si15  1  0.026033  0.223967  0.223967  1
  Si  Si16  1  0.098998  0.062219  0.740430  1
  Si  Si17  1  0.901646  0.937781  0.259570  1
  Si  Si18  1  0.598354  0.740430  0.062219  1
  Si  Si19  1  0.401002  0.259570  0.937781  1
