# generated using pymatgen
data_AcZn3Rh2
_symmetry_space_group_name_H-M   'P 1'
_cell_length_a   9.63796600
_cell_length_b   9.63796602
_cell_length_c   4.20296200
_cell_angle_alpha   90.00000000
_cell_angle_beta   90.00000000
_cell_angle_gamma   119.99999306
_symmetry_Int_Tables_number   1
_chemical_formula_structural   AcZn3Rh2
_chemical_formula_sum   'Ac3 Zn9 Rh6'
_cell_volume   338.10913632
_cell_formula_units_Z   3
loop_
 _symmetry_equiv_pos_site_id
 _symmetry_equiv_pos_as_xyz
  1  'x, y, z'
loop_
 _atom_site_type_symbol
 _atom_site_label
 _atom_site_symmetry_multiplicity
 _atom_site_fract_x
 _atom_site_fract_y
 _atom_site_fract_z
 _atom_site_occupancy
  Ac  Ac0  1  0.000000  0.000000  0.500000  1
  Ac  Ac1  1  0.333333  0.666667  0.000000  1
  Ac  Ac2  1  0.666667  0.333333  0.000000  1
  Zn  Zn3  1  0.500000  0.000000  0.500000  1
  Zn  Zn4  1  0.500000  0.500000  0.500000  1
  Zn  Zn5  1  0.000000  0.500000  0.500000  1
  Zn  Zn6  1  0.293793  0.000000  0.000000  1
  Zn  Zn7  1  0.293793  0.293793  0.000000  1
  Zn  Zn8  1  0.000000  0.706207  0.000000  1
  Zn  Zn9  1  0.000000  0.293793  0.000000  1
  Zn  Zn10  1  0.706207  0.706207  0.000000  1
  Zn  Zn11  1  0.706207  0.000000  0.000000  1
  Rh  Rh12  1  0.184317  0.368634  0.500000  1
  Rh  Rh13  1  0.815683  0.184317  0.500000  1
  Rh  Rh14  1  0.368634  0.184317  0.500000  1
  Rh  Rh15  1  0.631366  0.815683  0.500000  1
  Rh  Rh16  1  0.184317  0.815683  0.500000  1
  Rh  Rh17  1  0.815683  0.631366  0.500000  1
