# generated using pymatgen
data_Er3Ta2B4Ru10W
_symmetry_space_group_name_H-M   'P 1'
_cell_length_a   9.56517566
_cell_length_b   9.55683766
_cell_length_c   3.10371300
_cell_angle_alpha   90.00000000
_cell_angle_beta   90.00000000
_cell_angle_gamma   90.24935612
_symmetry_Int_Tables_number   1
_chemical_formula_structural   Er3Ta2B4Ru10W
_chemical_formula_sum   'Er3 Ta2 B4 Ru10 W1'
_cell_volume   283.71650500
_cell_formula_units_Z   1
loop_
 _symmetry_equiv_pos_site_id
 _symmetry_equiv_pos_as_xyz
  1  'x, y, z'
loop_
 _atom_site_type_symbol
 _atom_site_label
 _atom_site_symmetry_multiplicity
 _atom_site_fract_x
 _atom_site_fract_y
 _atom_site_fract_z
 _atom_site_occupancy
  Er  Er0  1  0.824414  0.674884  0.000000  1
  Er  Er1  1  0.175005  0.323872  0.000000  1
  Er  Er2  1  0.325057  0.825812  0.000000  1
  Ta  Ta3  1  0.676670  0.175248  0.000000  1
  Ta  Ta4  1  0.003147  0.998049  0.000000  1
  B  B5  1  0.624250  0.881814  0.000000  1
  B  B6  1  0.380124  0.122852  0.000000  1
  B  B7  1  0.117109  0.619151  0.000000  1
  B  B8  1  0.877398  0.376405  0.000000  1
  Ru  Ru9  1  0.569566  0.718692  0.500000  1
  Ru  Ru10  1  0.441642  0.283518  0.500000  1
  Ru  Ru11  1  0.070470  0.780006  0.500000  1
  Ru  Ru12  1  0.915009  0.213767  0.500000  1
  Ru  Ru13  1  0.283741  0.567407  0.500000  1
  Ru  Ru14  1  0.711042  0.418654  0.500000  1
  Ru  Ru15  1  0.222056  0.071681  0.500000  1
  Ru  Ru16  1  0.780428  0.939517  0.500000  1
  Ru  Ru17  1  0.509067  0.009438  0.500000  1
  Ru  Ru18  1  0.996432  0.495750  0.500000  1
  W  W19  1  0.497374  0.503484  0.000000  1
