# generated using pymatgen
data_Gd3Ho7Cd3Os
_symmetry_space_group_name_H-M   'P 1'
_cell_length_a   9.57113300
_cell_length_b   9.57113297
_cell_length_c   9.82900800
_cell_angle_alpha   90.00000000
_cell_angle_beta   90.00000000
_cell_angle_gamma   120.00000355
_symmetry_Int_Tables_number   1
_chemical_formula_structural   Gd3Ho7Cd3Os
_chemical_formula_sum   'Gd6 Ho14 Cd6 Os2'
_cell_volume   779.77086763
_cell_formula_units_Z   2
loop_
 _symmetry_equiv_pos_site_id
 _symmetry_equiv_pos_as_xyz
  1  'x, y, z'
loop_
 _atom_site_type_symbol
 _atom_site_label
 _atom_site_symmetry_multiplicity
 _atom_site_fract_x
 _atom_site_fract_y
 _atom_site_fract_z
 _atom_site_occupancy
  Gd  Gd0  1  0.539548  0.460452  0.250000  1
  Gd  Gd1  1  0.539548  0.079094  0.250000  1
  Gd  Gd2  1  0.920906  0.460452  0.250000  1
  Gd  Gd3  1  0.460452  0.539548  0.750000  1
  Gd  Gd4  1  0.460452  0.920906  0.750000  1
  Gd  Gd5  1  0.079094  0.539548  0.750000  1
  Ho  Ho6  1  0.000000  0.000000  0.500000  1
  Ho  Ho7  1  0.000000  0.000000  0.000000  1
  Ho  Ho8  1  0.209718  0.790282  0.440369  1
  Ho  Ho9  1  0.209718  0.419437  0.440369  1
  Ho  Ho10  1  0.580563  0.790282  0.440369  1
  Ho  Ho11  1  0.790282  0.209718  0.559631  1
  Ho  Ho12  1  0.790282  0.580563  0.559631  1
  Ho  Ho13  1  0.419437  0.209718  0.559631  1
  Ho  Ho14  1  0.790282  0.209718  0.940369  1
  Ho  Ho15  1  0.790282  0.580563  0.940369  1
  Ho  Ho16  1  0.419437  0.209718  0.940369  1
  Ho  Ho17  1  0.209718  0.790282  0.059631  1
  Ho  Ho18  1  0.209718  0.419437  0.059631  1
  Ho  Ho19  1  0.580563  0.790282  0.059631  1
  Cd  Cd20  1  0.886272  0.113728  0.250000  1
  Cd  Cd21  1  0.886272  0.772545  0.250000  1
  Cd  Cd22  1  0.227455  0.113728  0.250000  1
  Cd  Cd23  1  0.113728  0.886272  0.750000  1
  Cd  Cd24  1  0.113728  0.227455  0.750000  1
  Cd  Cd25  1  0.772545  0.886272  0.750000  1
  Os  Os26  1  0.333333  0.666667  0.250000  1
  Os  Os27  1  0.666667  0.333333  0.750000  1
