# generated using pymatgen
data_Lu3ZnCo2Sn3
_symmetry_space_group_name_H-M   'P 1'
_cell_length_a   7.38825300
_cell_length_b   7.38825330
_cell_length_c   3.77189700
_cell_angle_alpha   90.00000000
_cell_angle_beta   90.00000000
_cell_angle_gamma   119.99999298
_symmetry_Int_Tables_number   1
_chemical_formula_structural   Lu3ZnCo2Sn3
_chemical_formula_sum   'Lu3 Zn1 Co2 Sn3'
_cell_volume   178.30931127
_cell_formula_units_Z   1
loop_
 _symmetry_equiv_pos_site_id
 _symmetry_equiv_pos_as_xyz
  1  'x, y, z'
loop_
 _atom_site_type_symbol
 _atom_site_label
 _atom_site_symmetry_multiplicity
 _atom_site_fract_x
 _atom_site_fract_y
 _atom_site_fract_z
 _atom_site_occupancy
  Lu  Lu0  1  0.975656  0.388694  0.500000  1
  Lu  Lu1  1  0.611306  0.586961  0.500000  1
  Lu  Lu2  1  0.413039  0.024344  0.500000  1
  Zn  Zn3  1  0.333333  0.666667  0.000000  1
  Co  Co4  1  0.666667  0.333333  0.000000  1
  Co  Co5  1  0.000000  0.000000  0.500000  1
  Sn  Sn6  1  0.000327  0.743619  0.000000  1
  Sn  Sn7  1  0.256381  0.256707  0.000000  1
  Sn  Sn8  1  0.743293  0.999673  0.000000  1
