# generated using pymatgen
data_Tb8DyThIr4
_symmetry_space_group_name_H-M   'P 1'
_cell_length_a   6.47899540
_cell_length_b   7.21566907
_cell_length_c   8.68441600
_cell_angle_alpha   96.54299851
_cell_angle_beta   111.90224813
_cell_angle_gamma   89.99999565
_symmetry_Int_Tables_number   1
_chemical_formula_structural   Tb8DyThIr4
_chemical_formula_sum   'Tb8 Dy1 Th1 Ir4'
_cell_volume   373.84293778
_cell_formula_units_Z   1
loop_
 _symmetry_equiv_pos_site_id
 _symmetry_equiv_pos_as_xyz
  1  'x, y, z'
loop_
 _atom_site_type_symbol
 _atom_site_label
 _atom_site_symmetry_multiplicity
 _atom_site_fract_x
 _atom_site_fract_y
 _atom_site_fract_z
 _atom_site_occupancy
  Tb  Tb0  1  0.978171  0.921706  0.185254  1
  Tb  Tb1  1  0.792916  0.578294  0.814746  1
  Tb  Tb2  1  0.016402  0.085689  0.814084  1
  Tb  Tb3  1  0.202319  0.414311  0.185916  1
  Tb  Tb4  1  0.661340  0.814151  0.445211  1
  Tb  Tb5  1  0.216131  0.685849  0.554789  1
  Tb  Tb6  1  0.352725  0.184732  0.562517  1
  Tb  Tb7  1  0.790206  0.315268  0.437483  1
  Dy  Dy8  1  0.569401  0.250000  0.000000  1
  Th  Th9  1  0.420718  0.750000  0.000000  1
  Ir  Ir10  1  0.813219  0.575762  0.216220  1
  Ir  Ir11  1  0.596999  0.924238  0.783780  1
  Ir  Ir12  1  0.183561  0.430748  0.777669  1
  Ir  Ir13  1  0.405891  0.069252  0.222331  1
