# generated using pymatgen
data_Co2P2PbO8
_symmetry_space_group_name_H-M   'P 1'
_cell_length_a   5.10962400
_cell_length_b   8.77621176
_cell_length_c   9.47554280
_cell_angle_alpha   113.90286926
_cell_angle_beta   102.57516554
_cell_angle_gamma   92.55299582
_symmetry_Int_Tables_number   1
_chemical_formula_structural   Co2P2PbO8
_chemical_formula_sum   'Co4 P4 Pb2 O16'
_cell_volume   374.93086047
_cell_formula_units_Z   2
loop_
 _symmetry_equiv_pos_site_id
 _symmetry_equiv_pos_as_xyz
  1  'x, y, z'
loop_
 _atom_site_type_symbol
 _atom_site_label
 _atom_site_symmetry_multiplicity
 _atom_site_fract_x
 _atom_site_fract_y
 _atom_site_fract_z
 _atom_site_occupancy
  Co  Co0  1  0.844825  0.086277  0.300563  1
  Co  Co1  1  0.387622  0.608937  0.415053  1
  Co  Co2  1  0.612378  0.391062  0.584947  1
  Co  Co3  1  0.155176  0.913723  0.699437  1
  P  P4  1  0.895407  0.720227  0.311136  1
  P  P5  1  0.104593  0.279773  0.688864  1
  P  P6  1  0.686278  0.787857  0.805585  1
  P  P7  1  0.313722  0.212142  0.194415  1
  Pb  Pb8  1  0.225559  0.732387  0.040745  1
  Pb  Pb9  1  0.774441  0.267613  0.959255  1
  O  O10  1  0.977825  0.878566  0.287918  1
  O  O11  1  0.022175  0.121434  0.712082  1
  O  O12  1  0.975573  0.565322  0.184818  1
  O  O13  1  0.024427  0.434678  0.815182  1
  O  O14  1  0.591909  0.704361  0.308965  1
  O  O15  1  0.408091  0.295639  0.691035  1
  O  O16  1  0.079893  0.735493  0.476170  1
  O  O17  1  0.920108  0.264507  0.523830  1
  O  O18  1  0.577962  0.631606  0.637724  1
  O  O19  1  0.422037  0.368393  0.362276  1
  O  O20  1  0.000721  0.167518  0.166107  1
  O  O21  1  0.999279  0.832481  0.833893  1
  O  O22  1  0.451287  0.062247  0.207228  1
  O  O23  1  0.640421  0.742060  0.938511  1
  O  O24  1  0.359579  0.257939  0.061489  1
  O  O25  1  0.548713  0.937753  0.792772  1
