# generated using pymatgen
data_MnRu2RhF12
_symmetry_space_group_name_H-M   'P 1'
_cell_length_a   7.64478335
_cell_length_b   5.19187457
_cell_length_c   5.57409168
_cell_angle_alpha   90.09290704
_cell_angle_beta   89.88603282
_cell_angle_gamma   90.27545680
_symmetry_Int_Tables_number   1
_chemical_formula_structural   MnRu2RhF12
_chemical_formula_sum   'Mn1 Ru2 Rh1 F12'
_cell_volume   221.23663223
_cell_formula_units_Z   1
loop_
 _symmetry_equiv_pos_site_id
 _symmetry_equiv_pos_as_xyz
  1  'x, y, z'
loop_
 _atom_site_type_symbol
 _atom_site_label
 _atom_site_symmetry_multiplicity
 _atom_site_fract_x
 _atom_site_fract_y
 _atom_site_fract_z
 _atom_site_occupancy
  Mn  Mn0  1  0.500000  0.000000  0.000000  1
  Ru  Ru1  1  0.000000  0.000000  0.000000  1
  Ru  Ru2  1  0.500000  0.500000  0.500000  1
  Rh  Rh3  1  0.000000  0.500000  0.500000  1
  F  F4  1  0.240044  0.125543  0.961655  1
  F  F5  1  0.561301  0.335759  0.196084  1
  F  F6  1  0.936291  0.315361  0.182732  1
  F  F7  1  0.064549  0.826652  0.310851  1
  F  F8  1  0.438726  0.809469  0.323475  1
  F  F9  1  0.746551  0.630822  0.537231  1
  F  F10  1  0.253449  0.369178  0.462769  1
  F  F11  1  0.561274  0.190531  0.676525  1
  F  F12  1  0.935451  0.173348  0.689149  1
  F  F13  1  0.063709  0.684639  0.817268  1
  F  F14  1  0.438699  0.664241  0.803916  1
  F  F15  1  0.759956  0.874457  0.038345  1
