# generated using pymatgen
data_Sm4Zr2Pb5
_symmetry_space_group_name_H-M   'P 1'
_cell_length_a   6.43847740
_cell_length_b   9.57043916
_cell_length_c   11.78478000
_cell_angle_alpha   113.95698934
_cell_angle_beta   105.85295193
_cell_angle_gamma   89.99999431
_symmetry_Int_Tables_number   1
_chemical_formula_structural   Sm4Zr2Pb5
_chemical_formula_sum   'Sm8 Zr4 Pb10'
_cell_volume   633.26647804
_cell_formula_units_Z   2
loop_
 _symmetry_equiv_pos_site_id
 _symmetry_equiv_pos_as_xyz
  1  'x, y, z'
loop_
 _atom_site_type_symbol
 _atom_site_label
 _atom_site_symmetry_multiplicity
 _atom_site_fract_x
 _atom_site_fract_y
 _atom_site_fract_z
 _atom_site_occupancy
  Sm  Sm0  1  0.442270  0.668331  0.884540  1
  Sm  Sm1  1  0.557730  0.331669  0.115460  1
  Sm  Sm2  1  0.942270  0.216209  0.884540  1
  Sm  Sm3  1  0.057730  0.783791  0.115460  1
  Sm  Sm4  1  0.146700  0.256105  0.293399  1
  Sm  Sm5  1  0.853300  0.743895  0.706601  1
  Sm  Sm6  1  0.646700  0.037296  0.293399  1
  Sm  Sm7  1  0.353300  0.962704  0.706601  1
  Zr  Zr8  1  0.552184  0.302184  0.604368  1
  Zr  Zr9  1  0.447816  0.697816  0.395632  1
  Zr  Zr10  1  0.947816  0.697816  0.395632  1
  Zr  Zr11  1  0.052184  0.302184  0.604368  1
  Pb  Pb12  1  0.291164  0.587505  0.582327  1
  Pb  Pb13  1  0.708836  0.412495  0.417673  1
  Pb  Pb14  1  0.791164  0.994823  0.582327  1
  Pb  Pb15  1  0.208836  0.005177  0.417673  1
  Pb  Pb16  1  0.250000  0.000000  0.000000  1
  Pb  Pb17  1  0.750000  0.000000  0.000000  1
  Pb  Pb18  1  0.082407  0.481160  0.164816  1
  Pb  Pb19  1  0.917593  0.518840  0.835184  1
  Pb  Pb20  1  0.582407  0.683655  0.164816  1
  Pb  Pb21  1  0.417593  0.316345  0.835184  1
