# generated using pymatgen
data_CeHf2Al7Cu2
_symmetry_space_group_name_H-M   'P 1'
_cell_length_a   8.94436907
_cell_length_b   8.94436819
_cell_length_c   8.94436900
_cell_angle_alpha   34.77647691
_cell_angle_beta   34.77648500
_cell_angle_gamma   34.77647828
_symmetry_Int_Tables_number   1
_chemical_formula_structural   CeHf2Al7Cu2
_chemical_formula_sum   'Ce1 Hf2 Al7 Cu2'
_cell_volume   207.77834657
_cell_formula_units_Z   1
loop_
 _symmetry_equiv_pos_site_id
 _symmetry_equiv_pos_as_xyz
  1  'x, y, z'
loop_
 _atom_site_type_symbol
 _atom_site_label
 _atom_site_symmetry_multiplicity
 _atom_site_fract_x
 _atom_site_fract_y
 _atom_site_fract_z
 _atom_site_occupancy
  Ce  Ce0  1  0.000000  0.000000  0.000000  1
  Hf  Hf1  1  0.856309  0.856309  0.856309  1
  Hf  Hf2  1  0.143691  0.143691  0.143691  1
  Al  Al3  1  0.414164  0.414164  0.923530  1
  Al  Al4  1  0.923530  0.414164  0.414164  1
  Al  Al5  1  0.414164  0.923530  0.414164  1
  Al  Al6  1  0.500000  0.500000  0.500000  1
  Al  Al7  1  0.585836  0.076470  0.585836  1
  Al  Al8  1  0.076470  0.585836  0.585836  1
  Al  Al9  1  0.585836  0.585836  0.076470  1
  Cu  Cu10  1  0.665586  0.665586  0.665586  1
  Cu  Cu11  1  0.334414  0.334414  0.334414  1
