# generated using pymatgen
data_Ba4ErLu(CoO5)2
_symmetry_space_group_name_H-M   'P 1'
_cell_length_a   6.11229400
_cell_length_b   7.90521390
_cell_length_c   12.41647079
_cell_angle_alpha   91.60391900
_cell_angle_beta   90.00000000
_cell_angle_gamma   90.00000000
_symmetry_Int_Tables_number   1
_chemical_formula_structural   Ba4ErLu(CoO5)2
_chemical_formula_sum   'Ba8 Er2 Lu2 Co4 O20'
_cell_volume   599.71628776
_cell_formula_units_Z   2
loop_
 _symmetry_equiv_pos_site_id
 _symmetry_equiv_pos_as_xyz
  1  'x, y, z'
loop_
 _atom_site_type_symbol
 _atom_site_label
 _atom_site_symmetry_multiplicity
 _atom_site_fract_x
 _atom_site_fract_y
 _atom_site_fract_z
 _atom_site_occupancy
  Ba  Ba0  1  0.757143  0.493415  0.361657  1
  Ba  Ba1  1  0.742857  0.993415  0.861657  1
  Ba  Ba2  1  0.242827  0.506959  0.638394  1
  Ba  Ba3  1  0.257173  0.006959  0.138394  1
  Ba  Ba4  1  0.753283  0.992389  0.383884  1
  Ba  Ba5  1  0.746717  0.492389  0.883884  1
  Ba  Ba6  1  0.246593  0.007152  0.616232  1
  Ba  Ba7  1  0.253407  0.507152  0.116232  1
  Er  Er8  1  0.747986  0.262266  0.630259  1
  Er  Er9  1  0.752014  0.762266  0.130259  1
  Lu  Lu10  1  0.252081  0.738247  0.370052  1
  Lu  Lu11  1  0.247919  0.238247  0.870052  1
  Co  Co12  1  0.741949  0.745577  0.590450  1
  Co  Co13  1  0.758051  0.245577  0.090450  1
  Co  Co14  1  0.257918  0.253895  0.407749  1
  Co  Co15  1  0.242082  0.753895  0.907749  1
  O  O16  1  0.754352  0.971498  0.632690  1
  O  O17  1  0.745648  0.471498  0.132690  1
  O  O18  1  0.245725  0.026298  0.367595  1
  O  O19  1  0.254275  0.526298  0.867595  1
  O  O20  1  0.739573  0.053417  0.168610  1
  O  O21  1  0.760427  0.553417  0.668610  1
  O  O22  1  0.260230  0.949247  0.832230  1
  O  O23  1  0.239770  0.449247  0.332230  1
  O  O24  1  0.532225  0.746839  0.268016  1
  O  O25  1  0.967775  0.246839  0.768016  1
  O  O26  1  0.463859  0.252816  0.734433  1
  O  O27  1  0.036141  0.752816  0.234433  1
  O  O28  1  0.524227  0.230792  0.986931  1
  O  O29  1  0.975773  0.730792  0.486931  1
  O  O30  1  0.473501  0.769269  0.012128  1
  O  O31  1  0.026499  0.269269  0.512128  1
  O  O32  1  0.028665  0.233688  0.013622  1
  O  O33  1  0.471335  0.733688  0.513622  1
  O  O34  1  0.972465  0.766236  0.985067  1
  O  O35  1  0.527535  0.266236  0.485067  1
