# generated using pymatgen
data_LiTi3Zn2(B2Rh5)2
_symmetry_space_group_name_H-M   'P 1'
_cell_length_a   2.96421300
_cell_length_b   9.30310064
_cell_length_c   9.30310064
_cell_angle_alpha   89.85318689
_cell_angle_beta   90.00000000
_cell_angle_gamma   90.00000000
_symmetry_Int_Tables_number   1
_chemical_formula_structural   LiTi3Zn2(B2Rh5)2
_chemical_formula_sum   'Li1 Ti3 Zn2 B4 Rh10'
_cell_volume   256.54492020
_cell_formula_units_Z   1
loop_
 _symmetry_equiv_pos_site_id
 _symmetry_equiv_pos_as_xyz
  1  'x, y, z'
loop_
 _atom_site_type_symbol
 _atom_site_label
 _atom_site_symmetry_multiplicity
 _atom_site_fract_x
 _atom_site_fract_y
 _atom_site_fract_z
 _atom_site_occupancy
  Li  Li0  1  0.000000  0.821988  0.178012  1
  Ti  Ti1  1  0.000000  0.325405  0.322573  1
  Ti  Ti2  1  0.000000  0.677426  0.674594  1
  Ti  Ti3  1  0.000000  0.172655  0.827345  1
  Zn  Zn4  1  0.000000  0.504138  0.001179  1
  Zn  Zn5  1  0.000000  0.998821  0.495862  1
  B  B6  1  0.000000  0.126566  0.125798  1
  B  B7  1  0.000000  0.631862  0.368139  1
  B  B8  1  0.000000  0.372204  0.627797  1
  B  B9  1  0.000000  0.874203  0.873435  1
  Rh  Rh10  1  0.500001  0.999730  0.000270  1
  Rh  Rh11  1  0.500001  0.284909  0.066219  1
  Rh  Rh12  1  0.500001  0.559380  0.220699  1
  Rh  Rh13  1  0.500001  0.085404  0.286805  1
  Rh  Rh14  1  0.500001  0.779303  0.440621  1
  Rh  Rh15  1  0.500001  0.497952  0.502048  1
  Rh  Rh16  1  0.500001  0.214977  0.573896  1
  Rh  Rh17  1  0.500001  0.933782  0.715092  1
  Rh  Rh18  1  0.500001  0.426105  0.785025  1
  Rh  Rh19  1  0.500001  0.713196  0.914597  1
