# generated using pymatgen
data_CaNb6GeSe12
_symmetry_space_group_name_H-M   'P 1'
_cell_length_a   6.08919900
_cell_length_b   6.08919973
_cell_length_c   14.64949900
_cell_angle_alpha   90.00000000
_cell_angle_beta   90.00000000
_cell_angle_gamma   120.00001233
_symmetry_Int_Tables_number   1
_chemical_formula_structural   CaNb6GeSe12
_chemical_formula_sum   'Ca1 Nb6 Ge1 Se12'
_cell_volume   470.40695810
_cell_formula_units_Z   1
loop_
 _symmetry_equiv_pos_site_id
 _symmetry_equiv_pos_as_xyz
  1  'x, y, z'
loop_
 _atom_site_type_symbol
 _atom_site_label
 _atom_site_symmetry_multiplicity
 _atom_site_fract_x
 _atom_site_fract_y
 _atom_site_fract_z
 _atom_site_occupancy
  Ca  Ca0  1  0.000000  0.000000  0.000000  1
  Nb  Nb1  1  0.333333  0.666667  0.255683  1
  Nb  Nb2  1  0.000000  0.000000  0.254292  1
  Nb  Nb3  1  0.000000  0.000000  0.745708  1
  Nb  Nb4  1  0.333333  0.666667  0.744317  1
  Nb  Nb5  1  0.666667  0.333333  0.744317  1
  Nb  Nb6  1  0.666667  0.333333  0.255683  1
  Ge  Ge7  1  0.000000  0.000000  0.500000  1
  Se  Se8  1  0.000000  0.665583  0.631172  1
  Se  Se9  1  0.000000  0.661214  0.858686  1
  Se  Se10  1  0.000000  0.338786  0.141314  1
  Se  Se11  1  0.000000  0.334417  0.368828  1
  Se  Se12  1  0.334417  0.334417  0.631172  1
  Se  Se13  1  0.338786  0.338786  0.858686  1
  Se  Se14  1  0.661214  0.661214  0.141314  1
  Se  Se15  1  0.665583  0.665583  0.368828  1
  Se  Se16  1  0.338786  0.000000  0.141314  1
  Se  Se17  1  0.334417  0.000000  0.368828  1
  Se  Se18  1  0.665583  0.000000  0.631172  1
  Se  Se19  1  0.661214  0.000000  0.858686  1
