# generated using pymatgen
data_Er5(AlBi)2
_symmetry_space_group_name_H-M   'P 1'
_cell_length_a   8.75736445
_cell_length_b   8.75736445
_cell_length_c   7.98891900
_cell_angle_alpha   90.00000000
_cell_angle_beta   90.00000000
_cell_angle_gamma   125.72163465
_symmetry_Int_Tables_number   1
_chemical_formula_structural   Er5(AlBi)2
_chemical_formula_sum   'Er10 Al4 Bi4'
_cell_volume   497.41363098
_cell_formula_units_Z   2
loop_
 _symmetry_equiv_pos_site_id
 _symmetry_equiv_pos_as_xyz
  1  'x, y, z'
loop_
 _atom_site_type_symbol
 _atom_site_label
 _atom_site_symmetry_multiplicity
 _atom_site_fract_x
 _atom_site_fract_y
 _atom_site_fract_z
 _atom_site_occupancy
  Er  Er0  1  0.041322  0.298536  0.331118  1
  Er  Er1  1  0.958678  0.701464  0.668882  1
  Er  Er2  1  0.458678  0.201464  0.831118  1
  Er  Er3  1  0.798536  0.541322  0.168882  1
  Er  Er4  1  0.541322  0.798536  0.168882  1
  Er  Er5  1  0.201464  0.458678  0.831118  1
  Er  Er6  1  0.701464  0.958678  0.668882  1
  Er  Er7  1  0.298536  0.041322  0.331118  1
  Er  Er8  1  0.000000  0.000000  0.000000  1
  Er  Er9  1  0.500000  0.500000  0.500000  1
  Al  Al10  1  0.377308  0.377308  0.122514  1
  Al  Al11  1  0.622692  0.622692  0.877486  1
  Al  Al12  1  0.122692  0.122692  0.622514  1
  Al  Al13  1  0.877308  0.877308  0.377486  1
  Bi  Bi14  1  0.792699  0.207301  0.000000  1
  Bi  Bi15  1  0.207301  0.792699  0.000000  1
  Bi  Bi16  1  0.707301  0.292699  0.500000  1
  Bi  Bi17  1  0.292699  0.707301  0.500000  1
