# generated using pymatgen
data_Ca3Nd(GePd2)4
_symmetry_space_group_name_H-M   'P 1'
_cell_length_a   5.66078576
_cell_length_b   7.14020300
_cell_length_c   7.57545981
_cell_angle_alpha   90.00000000
_cell_angle_beta   90.23010638
_cell_angle_gamma   90.00000000
_symmetry_Int_Tables_number   1
_chemical_formula_structural   Ca3Nd(GePd2)4
_chemical_formula_sum   'Ca3 Nd1 Ge4 Pd8'
_cell_volume   306.19124900
_cell_formula_units_Z   1
loop_
 _symmetry_equiv_pos_site_id
 _symmetry_equiv_pos_as_xyz
  1  'x, y, z'
loop_
 _atom_site_type_symbol
 _atom_site_label
 _atom_site_symmetry_multiplicity
 _atom_site_fract_x
 _atom_site_fract_y
 _atom_site_fract_z
 _atom_site_occupancy
  Ca  Ca0  1  0.364603  0.750000  0.026318  1
  Ca  Ca1  1  0.138487  0.750000  0.525290  1
  Ca  Ca2  1  0.637184  0.250000  0.975351  1
  Nd  Nd3  1  0.861074  0.250000  0.472784  1
  Ge  Ge4  1  0.635696  0.750000  0.375993  1
  Ge  Ge5  1  0.864805  0.750000  0.876146  1
  Ge  Ge6  1  0.363559  0.250000  0.627533  1
  Ge  Ge7  1  0.137483  0.250000  0.120289  1
  Pd  Pd8  1  0.905361  0.552976  0.174318  1
  Pd  Pd9  1  0.597371  0.946178  0.672746  1
  Pd  Pd10  1  0.091670  0.052870  0.826855  1
  Pd  Pd11  1  0.404153  0.446314  0.326229  1
  Pd  Pd12  1  0.091670  0.447130  0.826855  1
  Pd  Pd13  1  0.404153  0.053686  0.326229  1
  Pd  Pd14  1  0.905361  0.947024  0.174318  1
  Pd  Pd15  1  0.597371  0.553822  0.672746  1
