# generated using pymatgen
data_Sm3ZrGa2Rh3
_symmetry_space_group_name_H-M   'P 1'
_cell_length_a   7.30159743
_cell_length_b   7.30159824
_cell_length_c   4.17430000
_cell_angle_alpha   90.00000000
_cell_angle_beta   90.00000000
_cell_angle_gamma   121.80734175
_symmetry_Int_Tables_number   1
_chemical_formula_structural   Sm3ZrGa2Rh3
_chemical_formula_sum   'Sm3 Zr1 Ga2 Rh3'
_cell_volume   189.12505254
_cell_formula_units_Z   1
loop_
 _symmetry_equiv_pos_site_id
 _symmetry_equiv_pos_as_xyz
  1  'x, y, z'
loop_
 _atom_site_type_symbol
 _atom_site_label
 _atom_site_symmetry_multiplicity
 _atom_site_fract_x
 _atom_site_fract_y
 _atom_site_fract_z
 _atom_site_occupancy
  Sm  Sm0  1  0.015750  0.578763  0.500000  1
  Sm  Sm1  1  0.388918  0.388918  0.500000  1
  Sm  Sm2  1  0.578763  0.015750  0.500000  1
  Zr  Zr3  1  0.765155  0.765155  0.000000  1
  Ga  Ga4  1  0.997880  0.244942  0.000000  1
  Ga  Ga5  1  0.244942  0.997880  0.000000  1
  Rh  Rh6  1  0.342860  0.670215  0.000000  1
  Rh  Rh7  1  0.995515  0.995515  0.500000  1
  Rh  Rh8  1  0.670215  0.342860  0.000000  1
