# generated using pymatgen
data_Dy3In4CoRh
_symmetry_space_group_name_H-M   'P 1'
_cell_length_a   7.90270400
_cell_length_b   7.90270413
_cell_length_c   3.70771300
_cell_angle_alpha   90.00000000
_cell_angle_beta   90.00000000
_cell_angle_gamma   120.00000781
_symmetry_Int_Tables_number   1
_chemical_formula_structural   Dy3In4CoRh
_chemical_formula_sum   'Dy3 In4 Co1 Rh1'
_cell_volume   200.53405953
_cell_formula_units_Z   1
loop_
 _symmetry_equiv_pos_site_id
 _symmetry_equiv_pos_as_xyz
  1  'x, y, z'
loop_
 _atom_site_type_symbol
 _atom_site_label
 _atom_site_symmetry_multiplicity
 _atom_site_fract_x
 _atom_site_fract_y
 _atom_site_fract_z
 _atom_site_occupancy
  Dy  Dy0  1  0.046560  0.299974  0.500000  1
  Dy  Dy1  1  0.700026  0.746585  0.500000  1
  Dy  Dy2  1  0.253415  0.953440  0.500000  1
  In  In3  1  0.665465  0.084547  0.000000  1
  In  In4  1  0.915453  0.580918  0.000000  1
  In  In5  1  0.419082  0.334535  0.000000  1
  In  In6  1  0.333333  0.666667  0.000000  1
  Co  Co7  1  0.666667  0.333333  0.500000  1
  Rh  Rh8  1  0.000000  0.000000  0.000000  1
