# generated using pymatgen
data_CeLu(Si2Rh3)2
_symmetry_space_group_name_H-M   'P 1'
_cell_length_a   6.63960336
_cell_length_b   6.63960296
_cell_length_c   6.63960395
_cell_angle_alpha   130.36906391
_cell_angle_beta   114.14633096
_cell_angle_gamma   86.74515618
_symmetry_Int_Tables_number   1
_chemical_formula_structural   CeLu(Si2Rh3)2
_chemical_formula_sum   'Ce1 Lu1 Si4 Rh6'
_cell_volume   194.15685182
_cell_formula_units_Z   1
loop_
 _symmetry_equiv_pos_site_id
 _symmetry_equiv_pos_as_xyz
  1  'x, y, z'
loop_
 _atom_site_type_symbol
 _atom_site_label
 _atom_site_symmetry_multiplicity
 _atom_site_fract_x
 _atom_site_fract_y
 _atom_site_fract_z
 _atom_site_occupancy
  Ce  Ce0  1  0.750000  0.038514  0.288514  1
  Lu  Lu1  1  0.250000  0.945529  0.695529  1
  Si  Si2  1  0.079620  0.273974  0.194354  1
  Si  Si3  1  0.922101  0.727277  0.805175  1
  Si  Si4  1  0.420380  0.614734  0.194354  1
  Si  Si5  1  0.577899  0.383074  0.805175  1
  Rh  Rh6  1  0.497908  0.497042  0.494950  1
  Rh  Rh7  1  0.002092  0.497042  0.999134  1
  Rh  Rh8  1  0.281497  0.001717  0.291187  1
  Rh  Rh9  1  0.710530  0.001717  0.720221  1
  Rh  Rh10  1  0.218503  0.509690  0.720221  1
  Rh  Rh11  1  0.789470  0.509690  0.291187  1
