# generated using pymatgen
data_Nd3Ho13Cd4Co3Os
_symmetry_space_group_name_H-M   'P 1'
_cell_length_a   9.61518865
_cell_length_b   9.62362674
_cell_length_c   9.61381137
_cell_angle_alpha   59.42120152
_cell_angle_beta   59.23492255
_cell_angle_gamma   59.24006676
_symmetry_Int_Tables_number   1
_chemical_formula_structural   Nd3Ho13Cd4Co3Os
_chemical_formula_sum   'Nd3 Ho13 Cd4 Co3 Os1'
_cell_volume   618.98954396
_cell_formula_units_Z   1
loop_
 _symmetry_equiv_pos_site_id
 _symmetry_equiv_pos_as_xyz
  1  'x, y, z'
loop_
 _atom_site_type_symbol
 _atom_site_label
 _atom_site_symmetry_multiplicity
 _atom_site_fract_x
 _atom_site_fract_y
 _atom_site_fract_z
 _atom_site_occupancy
  Nd  Nd0  1  0.192722  0.804967  0.190922  1
  Nd  Nd1  1  0.814851  0.817876  0.182895  1
  Nd  Nd2  1  0.187810  0.188360  0.808226  1
  Ho  Ho3  1  0.596981  0.595695  0.593684  1
  Ho  Ho4  1  0.601462  0.600936  0.213933  1
  Ho  Ho5  1  0.599333  0.211391  0.602308  1
  Ho  Ho6  1  0.213447  0.596329  0.600546  1
  Ho  Ho7  1  0.060063  0.433960  0.436526  1
  Ho  Ho8  1  0.435533  0.064099  0.062760  1
  Ho  Ho9  1  0.435793  0.058833  0.436675  1
  Ho  Ho10  1  0.062687  0.434688  0.062636  1
  Ho  Ho11  1  0.438165  0.436601  0.056889  1
  Ho  Ho12  1  0.060381  0.062506  0.436075  1
  Ho  Ho13  1  0.190360  0.809550  0.805549  1
  Ho  Ho14  1  0.795869  0.198585  0.195564  1
  Ho  Ho15  1  0.810772  0.189821  0.810100  1
  Cd  Cd16  1  0.830692  0.830280  0.828093  1
  Cd  Cd17  1  0.827470  0.830668  0.510066  1
  Cd  Cd18  1  0.827589  0.507623  0.830952  1
  Cd  Cd19  1  0.510910  0.826522  0.827612  1
  Co  Co20  1  0.392763  0.394406  0.829147  1
  Co  Co21  1  0.386375  0.829713  0.397620  1
  Co  Co22  1  0.829116  0.387241  0.394751  1
  Os  Os23  1  0.398858  0.389349  0.386473  1
