# generated using pymatgen
data_Tb3Th2TcSb2
_symmetry_space_group_name_H-M   'P 1'
_cell_length_a   8.19598000
_cell_length_b   8.72452900
_cell_length_c   12.52710000
_cell_angle_alpha   90.00000000
_cell_angle_beta   90.00000000
_cell_angle_gamma   90.00000000
_symmetry_Int_Tables_number   1
_chemical_formula_structural   Tb3Th2TcSb2
_chemical_formula_sum   'Tb12 Th8 Tc4 Sb8'
_cell_volume   895.76362928
_cell_formula_units_Z   4
loop_
 _symmetry_equiv_pos_site_id
 _symmetry_equiv_pos_as_xyz
  1  'x, y, z'
loop_
 _atom_site_type_symbol
 _atom_site_label
 _atom_site_symmetry_multiplicity
 _atom_site_fract_x
 _atom_site_fract_y
 _atom_site_fract_z
 _atom_site_occupancy
  Tb  Tb0  1  0.166495  0.750000  0.210945  1
  Tb  Tb1  1  0.666495  0.250000  0.289055  1
  Tb  Tb2  1  0.833505  0.250000  0.789055  1
  Tb  Tb3  1  0.333505  0.750000  0.710945  1
  Tb  Tb4  1  0.457464  0.750000  0.999627  1
  Tb  Tb5  1  0.957464  0.250000  0.500373  1
  Tb  Tb6  1  0.542536  0.250000  0.000373  1
  Tb  Tb7  1  0.042536  0.750000  0.499627  1
  Tb  Tb8  1  0.628644  0.750000  0.295954  1
  Tb  Tb9  1  0.128644  0.250000  0.204046  1
  Tb  Tb10  1  0.371356  0.250000  0.704046  1
  Tb  Tb11  1  0.871356  0.750000  0.795954  1
  Th  Th12  1  0.819565  0.959469  0.065680  1
  Th  Th13  1  0.319565  0.040531  0.434320  1
  Th  Th14  1  0.180435  0.459469  0.934320  1
  Th  Th15  1  0.680435  0.540531  0.565680  1
  Th  Th16  1  0.180435  0.040531  0.934320  1
  Th  Th17  1  0.680435  0.959469  0.565680  1
  Th  Th18  1  0.819565  0.540531  0.065680  1
  Th  Th19  1  0.319565  0.459469  0.434320  1
  Tc  Tc20  1  0.422195  0.750000  0.483078  1
  Tc  Tc21  1  0.922195  0.250000  0.016922  1
  Tc  Tc22  1  0.577805  0.250000  0.516922  1
  Tc  Tc23  1  0.077805  0.750000  0.983078  1
  Sb  Sb24  1  0.929891  0.989009  0.326663  1
  Sb  Sb25  1  0.429891  0.010991  0.173337  1
  Sb  Sb26  1  0.070109  0.489009  0.673337  1
  Sb  Sb27  1  0.570109  0.510991  0.826663  1
  Sb  Sb28  1  0.070109  0.010991  0.673337  1
  Sb  Sb29  1  0.570109  0.989009  0.826663  1
  Sb  Sb30  1  0.929891  0.510991  0.326663  1
  Sb  Sb31  1  0.429891  0.489009  0.173337  1
