# generated using pymatgen
data_Th10CoTcSb6
_symmetry_space_group_name_H-M   'P 1'
_cell_length_a   6.46918600
_cell_length_b   9.51117410
_cell_length_c   9.51117500
_cell_angle_alpha   119.99999269
_cell_angle_beta   90.00000000
_cell_angle_gamma   90.00000000
_symmetry_Int_Tables_number   1
_chemical_formula_structural   Th10CoTcSb6
_chemical_formula_sum   'Th10 Co1 Tc1 Sb6'
_cell_volume   506.81400309
_cell_formula_units_Z   1
loop_
 _symmetry_equiv_pos_site_id
 _symmetry_equiv_pos_as_xyz
  1  'x, y, z'
loop_
 _atom_site_type_symbol
 _atom_site_label
 _atom_site_symmetry_multiplicity
 _atom_site_fract_x
 _atom_site_fract_y
 _atom_site_fract_z
 _atom_site_occupancy
  Th  Th0  1  0.746993  0.755167  0.755167  1
  Th  Th1  1  0.253007  0.244833  0.244833  1
  Th  Th2  1  0.746993  0.000000  0.244833  1
  Th  Th3  1  0.253007  0.000000  0.755167  1
  Th  Th4  1  0.746993  0.244833  0.000000  1
  Th  Th5  1  0.253007  0.755167  0.000000  1
  Th  Th6  1  0.000000  0.666667  0.333333  1
  Th  Th7  1  0.000000  0.333333  0.666667  1
  Th  Th8  1  0.500000  0.333333  0.666667  1
  Th  Th9  1  0.500000  0.666667  0.333333  1
  Co  Co10  1  0.500000  0.000000  0.000000  1
  Tc  Tc11  1  0.000000  0.000000  0.000000  1
  Sb  Sb12  1  0.749541  0.394040  0.394040  1
  Sb  Sb13  1  0.250459  0.605960  0.605960  1
  Sb  Sb14  1  0.749541  0.000000  0.605960  1
  Sb  Sb15  1  0.250459  0.000000  0.394040  1
  Sb  Sb16  1  0.749541  0.605960  0.000000  1
  Sb  Sb17  1  0.250459  0.394040  0.000000  1
