# generated using pymatgen
data_Yb3TmAs6Rh7
_symmetry_space_group_name_H-M   'P 1'
_cell_length_a   7.23513236
_cell_length_b   7.24338484
_cell_length_c   7.23513159
_cell_angle_alpha   109.49433142
_cell_angle_beta   109.44810252
_cell_angle_gamma   109.49432439
_symmetry_Int_Tables_number   1
_chemical_formula_structural   Yb3TmAs6Rh7
_chemical_formula_sum   'Yb3 Tm1 As6 Rh7'
_cell_volume   291.80226570
_cell_formula_units_Z   1
loop_
 _symmetry_equiv_pos_site_id
 _symmetry_equiv_pos_as_xyz
  1  'x, y, z'
loop_
 _atom_site_type_symbol
 _atom_site_label
 _atom_site_symmetry_multiplicity
 _atom_site_fract_x
 _atom_site_fract_y
 _atom_site_fract_z
 _atom_site_occupancy
  Yb  Yb0  1  0.500000  0.500000  0.500000  1
  Yb  Yb1  1  0.500000  0.000000  0.000000  1
  Yb  Yb2  1  0.000000  0.000000  0.500000  1
  Tm  Tm3  1  0.000000  0.500000  0.000000  1
  As  As4  1  0.679432  0.998233  0.679432  1
  As  As5  1  0.679432  0.681199  0.000000  1
  As  As6  1  0.320568  0.318801  0.000000  1
  As  As7  1  0.000000  0.681199  0.679432  1
  As  As8  1  0.000000  0.318801  0.320568  1
  As  As9  1  0.320568  0.001767  0.320568  1
  Rh  Rh10  1  0.498124  0.749062  0.249062  1
  Rh  Rh11  1  0.750938  0.250938  0.501876  1
  Rh  Rh12  1  0.249062  0.749062  0.498124  1
  Rh  Rh13  1  0.249062  0.500000  0.750938  1
  Rh  Rh14  1  0.000000  0.000000  0.000000  1
  Rh  Rh15  1  0.501876  0.250938  0.750938  1
  Rh  Rh16  1  0.750938  0.500000  0.249062  1
