# generated using pymatgen
data_CaPr3(B8Ru7)2
_symmetry_space_group_name_H-M   'P 1'
_cell_length_a   6.46402707
_cell_length_b   6.46674607
_cell_length_c   10.11942200
_cell_angle_alpha   90.00000000
_cell_angle_beta   90.00000000
_cell_angle_gamma   89.98279900
_symmetry_Int_Tables_number   1
_chemical_formula_structural   CaPr3(B8Ru7)2
_chemical_formula_sum   'Ca1 Pr3 B16 Ru14'
_cell_volume   423.00418331
_cell_formula_units_Z   1
loop_
 _symmetry_equiv_pos_site_id
 _symmetry_equiv_pos_as_xyz
  1  'x, y, z'
loop_
 _atom_site_type_symbol
 _atom_site_label
 _atom_site_symmetry_multiplicity
 _atom_site_fract_x
 _atom_site_fract_y
 _atom_site_fract_z
 _atom_site_occupancy
  Ca  Ca0  1  0.734916  0.876713  0.000000  1
  Pr  Pr1  1  0.122281  0.737616  0.500000  1
  Pr  Pr2  1  0.878816  0.265396  0.500000  1
  Pr  Pr3  1  0.269393  0.118482  0.000000  1
  B  B4  1  0.499443  0.999582  0.588942  1
  B  B5  1  0.499443  0.999582  0.411058  1
  B  B6  1  0.896935  0.276526  0.169309  1
  B  B7  1  0.102483  0.725023  0.831468  1
  B  B8  1  0.500456  0.499324  0.341145  1
  B  B9  1  0.500564  0.499361  0.841367  1
  B  B10  1  0.273067  0.101736  0.669492  1
  B  B11  1  0.102483  0.725023  0.168532  1
  B  B12  1  0.273067  0.101736  0.330508  1
  B  B13  1  0.896935  0.276526  0.830691  1
  B  B14  1  0.500456  0.499324  0.658855  1
  B  B15  1  0.500564  0.499361  0.158633  1
  B  B16  1  0.000375  0.500866  0.911568  1
  B  B17  1  0.724765  0.897372  0.669641  1
  B  B18  1  0.724765  0.897372  0.330359  1
  B  B19  1  0.000375  0.500866  0.088432  1
  Ru  Ru20  1  0.204471  0.398371  0.753025  1
  Ru  Ru21  1  0.398369  0.285779  0.500000  1
  Ru  Ru22  1  0.398407  0.795054  0.253502  1
  Ru  Ru23  1  0.204471  0.398371  0.246975  1
  Ru  Ru24  1  0.601129  0.712699  0.500000  1
  Ru  Ru25  1  0.601567  0.204437  0.746769  1
  Ru  Ru26  1  0.287585  0.599154  0.000000  1
  Ru  Ru27  1  0.713576  0.403122  0.000000  1
  Ru  Ru28  1  0.795857  0.602670  0.246228  1
  Ru  Ru29  1  0.795857  0.602670  0.753772  1
  Ru  Ru30  1  0.398407  0.795054  0.746498  1
  Ru  Ru31  1  0.998579  0.000198  0.248539  1
  Ru  Ru32  1  0.601567  0.204437  0.253231  1
  Ru  Ru33  1  0.998579  0.000198  0.751461  1
