# generated using pymatgen
data_YHo3(PdPt)2
_symmetry_space_group_name_H-M   'P 1'
_cell_length_a   4.52637000
_cell_length_b   5.59426590
_cell_length_c   7.01132170
_cell_angle_alpha   90.12182720
_cell_angle_beta   90.00000000
_cell_angle_gamma   90.00000000
_symmetry_Int_Tables_number   1
_chemical_formula_structural   YHo3(PdPt)2
_chemical_formula_sum   'Y1 Ho3 Pd2 Pt2'
_cell_volume   177.53830479
_cell_formula_units_Z   1
loop_
 _symmetry_equiv_pos_site_id
 _symmetry_equiv_pos_as_xyz
  1  'x, y, z'
loop_
 _atom_site_type_symbol
 _atom_site_label
 _atom_site_symmetry_multiplicity
 _atom_site_fract_x
 _atom_site_fract_y
 _atom_site_fract_z
 _atom_site_occupancy
  Y  Y0  1  0.500000  0.612452  0.818272  1
  Ho  Ho1  1  0.000000  0.104325  0.682783  1
  Ho  Ho2  1  0.000000  0.895845  0.183129  1
  Ho  Ho3  1  0.500000  0.387205  0.318378  1
  Pd  Pd4  1  0.000000  0.592072  0.541194  1
  Pd  Pd5  1  0.000000  0.406849  0.044480  1
  Pt  Pt6  1  0.500000  0.900533  0.454787  1
  Pt  Pt7  1  0.500000  0.100719  0.956976  1
