# generated using pymatgen
data_Ti10Si2(SnSb)3
_symmetry_space_group_name_H-M   'P 1'
_cell_length_a   8.23194100
_cell_length_b   8.23194123
_cell_length_c   5.51056500
_cell_angle_alpha   90.00000000
_cell_angle_beta   90.00000000
_cell_angle_gamma   120.00000311
_symmetry_Int_Tables_number   1
_chemical_formula_structural   Ti10Si2(SnSb)3
_chemical_formula_sum   'Ti10 Si2 Sn3 Sb3'
_cell_volume   323.39347841
_cell_formula_units_Z   1
loop_
 _symmetry_equiv_pos_site_id
 _symmetry_equiv_pos_as_xyz
  1  'x, y, z'
loop_
 _atom_site_type_symbol
 _atom_site_label
 _atom_site_symmetry_multiplicity
 _atom_site_fract_x
 _atom_site_fract_y
 _atom_site_fract_z
 _atom_site_occupancy
  Ti  Ti0  1  0.666667  0.333333  0.001814  1
  Ti  Ti1  1  0.333333  0.666667  0.001814  1
  Ti  Ti2  1  0.333333  0.666667  0.498186  1
  Ti  Ti3  1  0.666667  0.333333  0.498186  1
  Ti  Ti4  1  0.746327  0.746327  0.750000  1
  Ti  Ti5  1  0.253673  0.000000  0.750000  1
  Ti  Ti6  1  0.000000  0.253673  0.750000  1
  Ti  Ti7  1  0.265161  0.265161  0.250000  1
  Ti  Ti8  1  0.734839  0.000000  0.250000  1
  Ti  Ti9  1  0.000000  0.734839  0.250000  1
  Si  Si10  1  0.000000  0.000000  0.011757  1
  Si  Si11  1  0.000000  0.000000  0.488243  1
  Sn  Sn12  1  0.610408  0.610408  0.250000  1
  Sn  Sn13  1  0.389592  0.000000  0.250000  1
  Sn  Sn14  1  0.000000  0.389592  0.250000  1
  Sb  Sb15  1  0.398522  0.398522  0.750000  1
  Sb  Sb16  1  0.601478  0.000000  0.750000  1
  Sb  Sb17  1  0.000000  0.601478  0.750000  1
