# generated using pymatgen
data_Rb2ZrTi6CBr18
_symmetry_space_group_name_H-M   'P 1'
_cell_length_a   10.80233116
_cell_length_b   10.80233109
_cell_length_c   10.80233013
_cell_angle_alpha   55.76422232
_cell_angle_beta   55.76423722
_cell_angle_gamma   55.76422604
_symmetry_Int_Tables_number   1
_chemical_formula_structural   Rb2ZrTi6CBr18
_chemical_formula_sum   'Rb2 Zr1 Ti6 C1 Br18'
_cell_volume   803.76924277
_cell_formula_units_Z   1
loop_
 _symmetry_equiv_pos_site_id
 _symmetry_equiv_pos_as_xyz
  1  'x, y, z'
loop_
 _atom_site_type_symbol
 _atom_site_label
 _atom_site_symmetry_multiplicity
 _atom_site_fract_x
 _atom_site_fract_y
 _atom_site_fract_z
 _atom_site_occupancy
  Rb  Rb0  1  0.775367  0.775367  0.775367  1
  Rb  Rb1  1  0.224633  0.224633  0.224633  1
  Zr  Zr2  1  0.500000  0.500000  0.500000  1
  Ti  Ti3  1  0.144172  0.910485  0.812873  1
  Ti  Ti4  1  0.855828  0.089515  0.187127  1
  Ti  Ti5  1  0.089515  0.187127  0.855828  1
  Ti  Ti6  1  0.187127  0.855828  0.089515  1
  Ti  Ti7  1  0.910485  0.812873  0.144172  1
  Ti  Ti8  1  0.812873  0.144172  0.910485  1
  C  C9  1  0.000000  0.000000  0.000000  1
  Br  Br10  1  0.214911  0.471358  0.645612  1
  Br  Br11  1  0.785089  0.528642  0.354388  1
  Br  Br12  1  0.334420  0.053206  0.935072  1
  Br  Br13  1  0.665580  0.946794  0.064928  1
  Br  Br14  1  0.935072  0.334420  0.053206  1
  Br  Br15  1  0.720517  0.880562  0.399743  1
  Br  Br16  1  0.354388  0.785089  0.528642  1
  Br  Br17  1  0.600257  0.279483  0.119438  1
  Br  Br18  1  0.279483  0.119438  0.600257  1
  Br  Br19  1  0.119438  0.600257  0.279483  1
  Br  Br20  1  0.946794  0.064928  0.665580  1
  Br  Br21  1  0.399743  0.720517  0.880562  1
  Br  Br22  1  0.880562  0.399743  0.720517  1
  Br  Br23  1  0.064928  0.665580  0.946794  1
  Br  Br24  1  0.471358  0.645612  0.214911  1
  Br  Br25  1  0.645612  0.214911  0.471358  1
  Br  Br26  1  0.528642  0.354388  0.785089  1
  Br  Br27  1  0.053206  0.935072  0.334420  1
