# generated using pymatgen
data_Y4U4Re(TcB8)3
_symmetry_space_group_name_H-M   'P 1'
_cell_length_a   3.63773300
_cell_length_b   9.30710128
_cell_length_c   11.42631862
_cell_angle_alpha   89.99519313
_cell_angle_beta   90.00000000
_cell_angle_gamma   90.00000000
_symmetry_Int_Tables_number   1
_chemical_formula_structural   Y4U4Re(TcB8)3
_chemical_formula_sum   'Y4 U4 Re1 Tc3 B24'
_cell_volume   386.85800534
_cell_formula_units_Z   1
loop_
 _symmetry_equiv_pos_site_id
 _symmetry_equiv_pos_as_xyz
  1  'x, y, z'
loop_
 _atom_site_type_symbol
 _atom_site_label
 _atom_site_symmetry_multiplicity
 _atom_site_fract_x
 _atom_site_fract_y
 _atom_site_fract_z
 _atom_site_occupancy
  Y  Y0  1  0.000000  0.337152  0.407722  1
  Y  Y1  1  0.000000  0.663064  0.592329  1
  Y  Y2  1  0.000000  0.836962  0.092335  1
  Y  Y3  1  0.000000  0.163202  0.907591  1
  U  U4  1  0.000000  0.956390  0.396316  1
  U  U5  1  0.000000  0.043629  0.603508  1
  U  U6  1  0.000000  0.456311  0.103510  1
  U  U7  1  0.000000  0.543247  0.896941  1
  Re  Re8  1  0.000000  0.854148  0.818161  1
  Tc  Tc9  1  0.000000  0.645845  0.318232  1
  Tc  Tc10  1  0.000000  0.354175  0.681780  1
  Tc  Tc11  1  0.000000  0.145844  0.181674  1
  B  B12  1  0.500000  0.552091  0.430698  1
  B  B13  1  0.500000  0.447932  0.569295  1
  B  B14  1  0.500000  0.052110  0.069374  1
  B  B15  1  0.500000  0.948045  0.930837  1
  B  B16  1  0.500000  0.742968  0.422935  1
  B  B17  1  0.500000  0.257099  0.576934  1
  B  B18  1  0.500000  0.242940  0.077066  1
  B  B19  1  0.500000  0.756826  0.923073  1
  B  B20  1  0.500000  0.801716  0.275402  1
  B  B21  1  0.500000  0.198296  0.724496  1
  B  B22  1  0.500000  0.301723  0.224623  1
  B  B23  1  0.500000  0.698190  0.775393  1
  B  B24  1  0.500000  0.643926  0.188778  1
  B  B25  1  0.500000  0.355977  0.811321  1
  B  B26  1  0.500000  0.143988  0.311221  1
  B  B27  1  0.500000  0.856071  0.688549  1
  B  B28  1  0.500000  0.989362  0.219734  1
  B  B29  1  0.500000  0.010850  0.780177  1
  B  B30  1  0.500000  0.489325  0.280345  1
  B  B31  1  0.500000  0.510527  0.719789  1
  B  B32  1  0.500000  0.639692  0.038987  1
  B  B33  1  0.500000  0.359910  0.961242  1
  B  B34  1  0.500000  0.140255  0.461028  1
  B  B35  1  0.500000  0.860208  0.538604  1
