# generated using pymatgen
data_VNi2PdPt5
_symmetry_space_group_name_H-M   'P 1'
_cell_length_a   6.00204012
_cell_length_b   6.00203943
_cell_length_c   6.14843805
_cell_angle_alpha   95.84692407
_cell_angle_beta   95.84691904
_cell_angle_gamma   142.30606656
_symmetry_Int_Tables_number   1
_chemical_formula_structural   VNi2PdPt5
_chemical_formula_sum   'V1 Ni2 Pd1 Pt5'
_cell_volume   128.52089646
_cell_formula_units_Z   1
loop_
 _symmetry_equiv_pos_site_id
 _symmetry_equiv_pos_as_xyz
  1  'x, y, z'
loop_
 _atom_site_type_symbol
 _atom_site_label
 _atom_site_symmetry_multiplicity
 _atom_site_fract_x
 _atom_site_fract_y
 _atom_site_fract_z
 _atom_site_occupancy
  V  V0  1  0.998761  0.001239  0.000000  1
  Ni  Ni1  1  0.336798  0.336502  0.673300  1
  Ni  Ni2  1  0.663498  0.663202  0.326700  1
  Pd  Pd3  1  0.657847  0.342153  0.000000  1
  Pt  Pt4  1  0.345010  0.654990  0.000000  1
  Pt  Pt5  1  0.009996  0.323553  0.333549  1
  Pt  Pt6  1  0.989778  0.678135  0.667913  1
  Pt  Pt7  1  0.676447  0.990004  0.666451  1
  Pt  Pt8  1  0.321865  0.010222  0.332087  1
