# generated using pymatgen
data_YEr15In4(IrPd)2
_symmetry_space_group_name_H-M   'P 1'
_cell_length_a   9.60594027
_cell_length_b   9.63211166
_cell_length_c   9.62889934
_cell_angle_alpha   60.24507111
_cell_angle_beta   60.12769317
_cell_angle_gamma   60.10802762
_symmetry_Int_Tables_number   1
_chemical_formula_structural   YEr15In4(IrPd)2
_chemical_formula_sum   'Y1 Er15 In4 Ir2 Pd2'
_cell_volume   632.25923567
_cell_formula_units_Z   1
loop_
 _symmetry_equiv_pos_site_id
 _symmetry_equiv_pos_as_xyz
  1  'x, y, z'
loop_
 _atom_site_type_symbol
 _atom_site_label
 _atom_site_symmetry_multiplicity
 _atom_site_fract_x
 _atom_site_fract_y
 _atom_site_fract_z
 _atom_site_occupancy
  Y  Y0  1  0.061791  0.060519  0.434557  1
  Er  Er1  1  0.648328  0.058725  0.641609  1
  Er  Er2  1  0.185930  0.808179  0.194186  1
  Er  Er3  1  0.441158  0.062524  0.433939  1
  Er  Er4  1  0.186089  0.194040  0.808545  1
  Er  Er5  1  0.656594  0.649974  0.650872  1
  Er  Er6  1  0.050880  0.646933  0.646379  1
  Er  Er7  1  0.439707  0.061005  0.060255  1
  Er  Er8  1  0.647800  0.641442  0.059045  1
  Er  Er9  1  0.190259  0.809210  0.810277  1
  Er  Er10  1  0.811089  0.194689  0.810108  1
  Er  Er11  1  0.809307  0.189311  0.189120  1
  Er  Er12  1  0.811332  0.809374  0.194499  1
  Er  Er13  1  0.064481  0.437080  0.435853  1
  Er  Er14  1  0.438949  0.433356  0.063717  1
  Er  Er15  1  0.060209  0.436279  0.058195  1
  In  In16  1  0.749848  0.418124  0.417436  1
  In  In17  1  0.417275  0.418385  0.749122  1
  In  In18  1  0.417689  0.748663  0.418529  1
  In  In19  1  0.414777  0.416299  0.416599  1
  Ir  Ir20  1  0.856846  0.861741  0.427209  1
  Ir  Ir21  1  0.858201  0.427434  0.862270  1
  Pd  Pd22  1  0.852827  0.857078  0.857867  1
  Pd  Pd23  1  0.428637  0.859639  0.859813  1
