# generated using pymatgen
data_Ho2Fe6P6Ru3Rh
_symmetry_space_group_name_H-M   'P 1'
_cell_length_a   3.76202600
_cell_length_b   10.38096700
_cell_length_c   12.05124200
_cell_angle_alpha   90.00000000
_cell_angle_beta   90.00000000
_cell_angle_gamma   90.00000000
_symmetry_Int_Tables_number   1
_chemical_formula_structural   Ho2Fe6P6Ru3Rh
_chemical_formula_sum   'Ho4 Fe12 P12 Ru6 Rh2'
_cell_volume   470.64279090
_cell_formula_units_Z   2
loop_
 _symmetry_equiv_pos_site_id
 _symmetry_equiv_pos_as_xyz
  1  'x, y, z'
loop_
 _atom_site_type_symbol
 _atom_site_label
 _atom_site_symmetry_multiplicity
 _atom_site_fract_x
 _atom_site_fract_y
 _atom_site_fract_z
 _atom_site_occupancy
  Ho  Ho0  1  0.250000  0.581512  0.710548  1
  Ho  Ho1  1  0.250000  0.918488  0.210548  1
  Ho  Ho2  1  0.750000  0.417833  0.289782  1
  Ho  Ho3  1  0.750000  0.082167  0.789782  1
  Fe  Fe4  1  0.250000  0.224100  0.173779  1
  Fe  Fe5  1  0.250000  0.275900  0.673779  1
  Fe  Fe6  1  0.750000  0.776266  0.826284  1
  Fe  Fe7  1  0.750000  0.723734  0.326284  1
  Fe  Fe8  1  0.250000  0.880218  0.697223  1
  Fe  Fe9  1  0.250000  0.619782  0.197223  1
  Fe  Fe10  1  0.750000  0.119725  0.301783  1
  Fe  Fe11  1  0.750000  0.380275  0.801783  1
  Fe  Fe12  1  0.250000  0.461880  0.934758  1
  Fe  Fe13  1  0.250000  0.038120  0.434758  1
  Fe  Fe14  1  0.750000  0.538162  0.064220  1
  Fe  Fe15  1  0.750000  0.961838  0.564220  1
  P  P16  1  0.250000  0.425173  0.112727  1
  P  P17  1  0.250000  0.074827  0.612727  1
  P  P18  1  0.750000  0.574623  0.886937  1
  P  P19  1  0.750000  0.925377  0.386937  1
  P  P20  1  0.250000  0.272082  0.858964  1
  P  P21  1  0.250000  0.227918  0.358964  1
  P  P22  1  0.750000  0.725097  0.142901  1
  P  P23  1  0.750000  0.774903  0.642901  1
  P  P24  1  0.250000  0.605921  0.380767  1
  P  P25  1  0.250000  0.894079  0.880767  1
  P  P26  1  0.750000  0.392102  0.617013  1
  P  P27  1  0.750000  0.107898  0.117013  1
  Ru  Ru28  1  0.250000  0.703941  0.984826  1
  Ru  Ru29  1  0.250000  0.796059  0.484826  1
  Ru  Ru30  1  0.750000  0.296792  0.014373  1
  Ru  Ru31  1  0.750000  0.203208  0.514373  1
  Ru  Ru32  1  0.250000  0.404651  0.483739  1
  Ru  Ru33  1  0.250000  0.095349  0.983739  1
  Rh  Rh34  1  0.750000  0.597767  0.519375  1
  Rh  Rh35  1  0.750000  0.902233  0.019375  1
