# generated using pymatgen
data_Pu(ReO4)3
_symmetry_space_group_name_H-M   'P 1'
_cell_length_a   10.23207900
_cell_length_b   10.23207893
_cell_length_c   6.28783400
_cell_angle_alpha   90.00000000
_cell_angle_beta   90.00000000
_cell_angle_gamma   119.99999756
_symmetry_Int_Tables_number   1
_chemical_formula_structural   Pu(ReO4)3
_chemical_formula_sum   'Pu2 Re6 O24'
_cell_volume   570.11107330
_cell_formula_units_Z   2
loop_
 _symmetry_equiv_pos_site_id
 _symmetry_equiv_pos_as_xyz
  1  'x, y, z'
loop_
 _atom_site_type_symbol
 _atom_site_label
 _atom_site_symmetry_multiplicity
 _atom_site_fract_x
 _atom_site_fract_y
 _atom_site_fract_z
 _atom_site_occupancy
  Pu  Pu0  1  0.666667  0.333333  0.750000  1
  Pu  Pu1  1  0.333333  0.666667  0.250000  1
  Re  Re2  1  0.089607  0.391625  0.750000  1
  Re  Re3  1  0.391625  0.302019  0.250000  1
  Re  Re4  1  0.608375  0.697981  0.750000  1
  Re  Re5  1  0.910393  0.608375  0.250000  1
  Re  Re6  1  0.302019  0.910393  0.750000  1
  Re  Re7  1  0.697981  0.089607  0.250000  1
  O  O8  1  0.491426  0.647427  0.522460  1
  O  O9  1  0.352573  0.843998  0.522460  1
  O  O10  1  0.841492  0.731861  0.250000  1
  O  O11  1  0.109631  0.841492  0.750000  1
  O  O12  1  0.268139  0.109631  0.250000  1
  O  O13  1  0.158508  0.268139  0.750000  1
  O  O14  1  0.508574  0.352573  0.022460  1
  O  O15  1  0.890369  0.158508  0.250000  1
  O  O16  1  0.108934  0.707486  0.250000  1
  O  O17  1  0.156002  0.508574  0.977540  1
  O  O18  1  0.156002  0.508574  0.522460  1
  O  O19  1  0.891066  0.292514  0.750000  1
  O  O20  1  0.292514  0.401448  0.250000  1
  O  O21  1  0.707486  0.598552  0.750000  1
  O  O22  1  0.843998  0.491426  0.477540  1
  O  O23  1  0.401448  0.108934  0.750000  1
  O  O24  1  0.647427  0.156002  0.022460  1
  O  O25  1  0.491426  0.647427  0.977540  1
  O  O26  1  0.352573  0.843998  0.977540  1
  O  O27  1  0.647427  0.156002  0.477540  1
  O  O28  1  0.508574  0.352573  0.477540  1
  O  O29  1  0.843998  0.491426  0.022460  1
  O  O30  1  0.731861  0.890369  0.750000  1
  O  O31  1  0.598552  0.891066  0.250000  1
