# generated using pymatgen
data_Sc2Zn14Ni3
_symmetry_space_group_name_H-M   'P 1'
_cell_length_a   6.60884448
_cell_length_b   6.60978380
_cell_length_c   6.61039012
_cell_angle_alpha   82.47299092
_cell_angle_beta   97.48832677
_cell_angle_gamma   97.49057102
_symmetry_Int_Tables_number   1
_chemical_formula_structural   Sc2Zn14Ni3
_chemical_formula_sum   'Sc2 Zn14 Ni3'
_cell_volume   281.94057927
_cell_formula_units_Z   1
loop_
 _symmetry_equiv_pos_site_id
 _symmetry_equiv_pos_as_xyz
  1  'x, y, z'
loop_
 _atom_site_type_symbol
 _atom_site_label
 _atom_site_symmetry_multiplicity
 _atom_site_fract_x
 _atom_site_fract_y
 _atom_site_fract_z
 _atom_site_occupancy
  Sc  Sc0  1  0.668221  0.331755  0.331745  1
  Sc  Sc1  1  0.331778  0.668244  0.668255  1
  Zn  Zn2  1  0.298816  0.298817  0.999991  1
  Zn  Zn3  1  0.701184  0.701183  0.000009  1
  Zn  Zn4  1  0.893621  0.106407  0.106404  1
  Zn  Zn5  1  0.350713  0.649287  0.149980  1
  Zn  Zn6  1  0.999996  0.701185  0.298806  1
  Zn  Zn7  1  0.298819  0.999997  0.298813  1
  Zn  Zn8  1  0.649290  0.850017  0.350708  1
  Zn  Zn9  1  0.149978  0.350703  0.350701  1
  Zn  Zn10  1  0.850022  0.649297  0.649299  1
  Zn  Zn11  1  0.350710  0.149982  0.649291  1
  Zn  Zn12  1  0.000004  0.298815  0.701192  1
  Zn  Zn13  1  0.701181  0.000003  0.701187  1
  Zn  Zn14  1  0.649288  0.350713  0.850020  1
  Zn  Zn15  1  0.106377  0.893593  0.893596  1
  Ni  Ni16  1  0.500000  0.000000  0.000000  1
  Ni  Ni17  1  0.000000  0.499999  0.000000  1
  Ni  Ni18  1  0.000000  0.000000  0.500000  1
