# generated using pymatgen
data_TeSe23
_symmetry_space_group_name_H-M   'P 1'
_cell_length_a   5.69352347
_cell_length_b   10.54543130
_cell_length_c   17.02230300
_cell_angle_alpha   88.08159642
_cell_angle_beta   86.67378286
_cell_angle_gamma   90.44262481
_symmetry_Int_Tables_number   1
_chemical_formula_structural   TeSe23
_chemical_formula_sum   'Te1 Se23'
_cell_volume   1019.68884021
_cell_formula_units_Z   1
loop_
 _symmetry_equiv_pos_site_id
 _symmetry_equiv_pos_as_xyz
  1  'x, y, z'
loop_
 _atom_site_type_symbol
 _atom_site_label
 _atom_site_symmetry_multiplicity
 _atom_site_fract_x
 _atom_site_fract_y
 _atom_site_fract_z
 _atom_site_occupancy
  Te  Te0  1  0.499768  0.169145  0.383015  1
  Se  Se1  1  0.519061  0.813899  0.388457  1
  Se  Se2  1  0.004315  0.311751  0.111907  1
  Se  Se3  1  0.746908  0.230915  0.495711  1
  Se  Se4  1  0.278405  0.774014  0.504452  1
  Se  Se5  1  0.225058  0.266960  0.994468  1
  Se  Se6  1  0.776458  0.734667  0.005480  1
  Se  Se7  1  0.249307  0.364733  0.358567  1
  Se  Se8  1  0.715500  0.622809  0.358034  1
  Se  Se9  1  0.776035  0.128823  0.147216  1
  Se  Se10  1  0.226201  0.867193  0.137596  1
  Se  Se11  1  0.720121  0.637411  0.641715  1
  Se  Se12  1  0.281651  0.364550  0.636727  1
  Se  Se13  1  0.229287  0.873698  0.854469  1
  Se  Se14  1  0.773270  0.132036  0.863949  1
  Se  Se15  1  0.000872  0.684539  0.114532  1
  Se  Se16  1  0.501085  0.820691  0.612580  1
  Se  Se17  1  0.523050  0.186733  0.615696  1
  Se  Se18  1  0.003426  0.689508  0.889459  1
  Se  Se19  1  0.992715  0.316720  0.887395  1
  Se  Se20  1  0.480071  0.508402  0.275294  1
  Se  Se21  1  0.003616  0.994001  0.225813  1
  Se  Se22  1  0.472603  0.499102  0.721598  1
  Se  Se23  1  0.001214  0.007695  0.775873  1
