# generated using pymatgen
data_SrSb12PdRu3
_symmetry_space_group_name_H-M   'P 1'
_cell_length_a   8.17481709
_cell_length_b   8.18767469
_cell_length_c   8.17477900
_cell_angle_alpha   109.50287317
_cell_angle_beta   109.43916085
_cell_angle_gamma   109.50313329
_symmetry_Int_Tables_number   1
_chemical_formula_structural   SrSb12PdRu3
_chemical_formula_sum   'Sr1 Sb12 Pd1 Ru3'
_cell_volume   421.04027591
_cell_formula_units_Z   1
loop_
 _symmetry_equiv_pos_site_id
 _symmetry_equiv_pos_as_xyz
  1  'x, y, z'
loop_
 _atom_site_type_symbol
 _atom_site_label
 _atom_site_symmetry_multiplicity
 _atom_site_fract_x
 _atom_site_fract_y
 _atom_site_fract_z
 _atom_site_occupancy
  Sr  Sr0  1  0.000000  0.000000  0.000000  1
  Sb  Sb1  1  0.158693  0.819991  0.660384  1
  Sb  Sb2  1  0.841307  0.180009  0.339616  1
  Sb  Sb3  1  0.840122  0.500582  0.651309  1
  Sb  Sb4  1  0.159878  0.499418  0.348691  1
  Sb  Sb5  1  0.811190  0.660461  0.159885  1
  Sb  Sb6  1  0.188810  0.339539  0.840115  1
  Sb  Sb7  1  0.501693  0.661343  0.841354  1
  Sb  Sb8  1  0.498307  0.338657  0.158646  1
  Sb  Sb9  1  0.651294  0.150714  0.811208  1
  Sb  Sb10  1  0.348706  0.849286  0.188792  1
  Sb  Sb11  1  0.660383  0.840402  0.501695  1
  Sb  Sb12  1  0.339617  0.159598  0.498305  1
  Pd  Pd13  1  0.000000  0.500000  0.000000  1
  Ru  Ru14  1  0.000000  0.000000  0.500000  1
  Ru  Ru15  1  0.500000  0.000000  0.000000  1
  Ru  Ru16  1  0.500000  0.500000  0.500000  1
