# generated using pymatgen
data_Dy5Er5(SiBi2)2
_symmetry_space_group_name_H-M   'P 1'
_cell_length_a   12.07900203
_cell_length_b   9.14101235
_cell_length_c   8.05162800
_cell_angle_alpha   90.01578280
_cell_angle_beta   89.99624321
_cell_angle_gamma   89.99835882
_symmetry_Int_Tables_number   1
_chemical_formula_structural   Dy5Er5(SiBi2)2
_chemical_formula_sum   'Dy10 Er10 Si4 Bi8'
_cell_volume   889.01488744
_cell_formula_units_Z   2
loop_
 _symmetry_equiv_pos_site_id
 _symmetry_equiv_pos_as_xyz
  1  'x, y, z'
loop_
 _atom_site_type_symbol
 _atom_site_label
 _atom_site_symmetry_multiplicity
 _atom_site_fract_x
 _atom_site_fract_y
 _atom_site_fract_z
 _atom_site_occupancy
  Dy  Dy0  1  0.063610  0.948205  0.819040  1
  Dy  Dy1  1  0.563600  0.551791  0.680934  1
  Dy  Dy2  1  0.211682  0.749649  0.164097  1
  Dy  Dy3  1  0.711740  0.750377  0.335894  1
  Dy  Dy4  1  0.788498  0.249989  0.836438  1
  Dy  Dy5  1  0.288456  0.250023  0.663579  1
  Dy  Dy6  1  0.295082  0.750045  0.636232  1
  Dy  Dy7  1  0.795153  0.749964  0.863767  1
  Dy  Dy8  1  0.705043  0.249877  0.363087  1
  Dy  Dy9  1  0.204981  0.250135  0.136923  1
  Er  Er10  1  0.063479  0.552461  0.820266  1
  Er  Er11  1  0.563339  0.947385  0.679744  1
  Er  Er12  1  0.936496  0.053261  0.179446  1
  Er  Er13  1  0.436683  0.446623  0.320592  1
  Er  Er14  1  0.936661  0.447012  0.180128  1
  Er  Er15  1  0.436832  0.053133  0.319856  1
  Er  Er16  1  0.000658  0.750163  0.459393  1
  Er  Er17  1  0.500666  0.749847  0.040546  1
  Er  Er18  1  0.999245  0.250015  0.539897  1
  Er  Er19  1  0.499265  0.250012  0.960130  1
  Si  Si20  1  0.479034  0.751060  0.412389  1
  Si  Si21  1  0.979044  0.748948  0.087600  1
  Si  Si22  1  0.520141  0.247901  0.585779  1
  Si  Si23  1  0.020126  0.252095  0.914248  1
  Bi  Bi24  1  0.327232  0.510237  0.931869  1
  Bi  Bi25  1  0.827261  0.989770  0.568147  1
  Bi  Bi26  1  0.672456  0.010578  0.068051  1
  Bi  Bi27  1  0.172440  0.489435  0.431932  1
  Bi  Bi28  1  0.672728  0.489501  0.068584  1
  Bi  Bi29  1  0.172699  0.010502  0.431400  1
  Bi  Bi30  1  0.327814  0.989709  0.932400  1
  Bi  Bi31  1  0.827855  0.510297  0.567611  1
