# generated using pymatgen
data_Dy9Y(ThCo2)2
_symmetry_space_group_name_H-M   'P 1'
_cell_length_a   6.32914464
_cell_length_b   6.91007553
_cell_length_c   9.60253400
_cell_angle_alpha   90.00000000
_cell_angle_beta   90.00000000
_cell_angle_gamma   89.83895165
_symmetry_Int_Tables_number   1
_chemical_formula_structural   Dy9Y(ThCo2)2
_chemical_formula_sum   'Dy9 Y1 Th2 Co4'
_cell_volume   419.96389360
_cell_formula_units_Z   1
loop_
 _symmetry_equiv_pos_site_id
 _symmetry_equiv_pos_as_xyz
  1  'x, y, z'
loop_
 _atom_site_type_symbol
 _atom_site_label
 _atom_site_symmetry_multiplicity
 _atom_site_fract_x
 _atom_site_fract_y
 _atom_site_fract_z
 _atom_site_occupancy
  Dy  Dy0  1  0.675562  0.327235  0.929781  1
  Dy  Dy1  1  0.644889  0.046497  0.250000  1
  Dy  Dy2  1  0.175893  0.172575  0.429600  1
  Dy  Dy3  1  0.824326  0.829767  0.568879  1
  Dy  Dy4  1  0.175893  0.172575  0.070400  1
  Dy  Dy5  1  0.824326  0.829767  0.931121  1
  Dy  Dy6  1  0.675562  0.327235  0.570219  1
  Dy  Dy7  1  0.324848  0.670474  0.069488  1
  Dy  Dy8  1  0.324848  0.670474  0.430512  1
  Y  Y9  1  0.143739  0.454513  0.750000  1
  Th  Th10  1  0.345750  0.943342  0.750000  1
  Th  Th11  1  0.845368  0.557018  0.250000  1
  Co  Co12  1  0.541036  0.630030  0.750000  1
  Co  Co13  1  0.968612  0.107003  0.750000  1
  Co  Co14  1  0.038970  0.870525  0.250000  1
  Co  Co15  1  0.470380  0.390969  0.250000  1
