# generated using pymatgen
data_Ca3Ho3Ga6(SnO6)4
_symmetry_space_group_name_H-M   'P 1'
_cell_length_a   11.01906710
_cell_length_b   11.01906724
_cell_length_c   11.01906748
_cell_angle_alpha   109.48428271
_cell_angle_beta   109.51486201
_cell_angle_gamma   109.41453453
_symmetry_Int_Tables_number   1
_chemical_formula_structural   Ca3Ho3Ga6(SnO6)4
_chemical_formula_sum   'Ca6 Ho6 Ga12 Sn8 O48'
_cell_volume   1029.94078876
_cell_formula_units_Z   2
loop_
 _symmetry_equiv_pos_site_id
 _symmetry_equiv_pos_as_xyz
  1  'x, y, z'
loop_
 _atom_site_type_symbol
 _atom_site_label
 _atom_site_symmetry_multiplicity
 _atom_site_fract_x
 _atom_site_fract_y
 _atom_site_fract_z
 _atom_site_occupancy
  Ca  Ca0  1  0.873340  0.750000  0.623340  1
  Ca  Ca1  1  0.626660  0.250000  0.876660  1
  Ca  Ca2  1  0.374762  0.124762  0.250000  1
  Ca  Ca3  1  0.626420  0.876420  0.750000  1
  Ca  Ca4  1  0.125238  0.375238  0.750000  1
  Ca  Ca5  1  0.873580  0.623580  0.250000  1
  Ho  Ho6  1  0.250000  0.373711  0.123711  1
  Ho  Ho7  1  0.750000  0.625249  0.875249  1
  Ho  Ho8  1  0.750000  0.126289  0.376289  1
  Ho  Ho9  1  0.126542  0.250000  0.376542  1
  Ho  Ho10  1  0.373458  0.750000  0.123458  1
  Ho  Ho11  1  0.250000  0.874751  0.624751  1
  Ga  Ga12  1  0.250000  0.624814  0.374814  1
  Ga  Ga13  1  0.750000  0.374879  0.624879  1
  Ga  Ga14  1  0.750000  0.875186  0.125186  1
  Ga  Ga15  1  0.376019  0.250000  0.626019  1
  Ga  Ga16  1  0.625595  0.750000  0.375595  1
  Ga  Ga17  1  0.250000  0.125121  0.875121  1
  Ga  Ga18  1  0.123981  0.750000  0.873981  1
  Ga  Ga19  1  0.874405  0.250000  0.124405  1
  Ga  Ga20  1  0.624761  0.374761  0.250000  1
  Ga  Ga21  1  0.375097  0.625097  0.750000  1
  Ga  Ga22  1  0.875239  0.125239  0.750000  1
  Ga  Ga23  1  0.124903  0.874903  0.250000  1
  Sn  Sn24  1  0.999431  0.998773  0.999036  1
  Sn  Sn25  1  0.499737  0.000394  0.500964  1
  Sn  Sn26  1  0.000263  0.501227  0.500658  1
  Sn  Sn27  1  0.501166  0.000355  0.999557  1
  Sn  Sn28  1  0.500569  0.499606  0.999342  1
  Sn  Sn29  1  0.500798  0.501609  0.500443  1
  Sn  Sn30  1  0.998834  0.998391  0.499189  1
  Sn  Sn31  1  0.999202  0.499645  0.000811  1
  O  O32  1  0.469482  0.377591  0.287714  1
  O  O33  1  0.529325  0.622867  0.712065  1
  O  O34  1  0.589877  0.181767  0.212286  1
  O  O35  1  0.910123  0.122409  0.591890  1
  O  O36  1  0.287193  0.467957  0.369455  1
  O  O37  1  0.317112  0.908898  0.286852  1
  O  O38  1  0.410803  0.817261  0.787935  1
  O  O39  1  0.089197  0.877133  0.406458  1
  O  O40  1  0.705118  0.525285  0.629198  1
  O  O41  1  0.682192  0.085071  0.705797  1
  O  O42  1  0.030518  0.318233  0.908110  1
  O  O43  1  0.212807  0.582262  0.180764  1
  O  O44  1  0.122046  0.030260  0.213148  1
  O  O45  1  0.970675  0.682739  0.093542  1
  O  O46  1  0.794882  0.424080  0.820167  1
  O  O47  1  0.879274  0.976395  0.794203  1
  O  O48  1  0.598502  0.917738  0.130545  1
  O  O49  1  0.182888  0.469740  0.591786  1
  O  O50  1  0.396087  0.075920  0.870802  1
  O  O51  1  0.817808  0.523605  0.402879  1
  O  O52  1  0.901498  0.032043  0.319236  1
  O  O53  1  0.377954  0.591102  0.908214  1
  O  O54  1  0.103913  0.974715  0.679833  1
  O  O55  1  0.620726  0.414929  0.097121  1
  O  O56  1  0.370678  0.294202  0.473508  1
  O  O57  1  0.580745  0.901151  0.369226  1
  O  O58  1  0.620249  0.706878  0.523839  1
  O  O59  1  0.410609  0.093386  0.622515  1
  O  O60  1  0.129322  0.602829  0.923524  1
  O  O61  1  0.031926  0.211520  0.130774  1
  O  O62  1  0.879751  0.403590  0.086629  1
  O  O63  1  0.970871  0.788094  0.877485  1
  O  O64  1  0.320694  0.897171  0.026492  1
  O  O65  1  0.919255  0.288480  0.320406  1
  O  O66  1  0.683039  0.096410  0.976161  1
  O  O67  1  0.089391  0.711906  0.682777  1
  O  O68  1  0.179306  0.205798  0.576476  1
  O  O69  1  0.468074  0.598849  0.179594  1
  O  O70  1  0.816961  0.793122  0.413371  1
  O  O71  1  0.529129  0.406614  0.817223  1
  O  O72  1  0.293483  0.320411  0.922719  1
  O  O73  1  0.706216  0.680421  0.076845  1
  O  O74  1  0.206517  0.129236  0.026928  1
  O  O75  1  0.793784  0.870629  0.974205  1
  O  O76  1  0.897691  0.370764  0.577281  1
  O  O77  1  0.103576  0.629371  0.423155  1
  O  O78  1  0.602309  0.179589  0.473072  1
  O  O79  1  0.396424  0.819579  0.525795  1
