# generated using pymatgen
data_LiEr3Tm13Cd3Co4
_symmetry_space_group_name_H-M   'P 1'
_cell_length_a   9.35867008
_cell_length_b   9.35233501
_cell_length_c   9.36170497
_cell_angle_alpha   60.07714290
_cell_angle_beta   60.08413950
_cell_angle_gamma   60.03182705
_symmetry_Int_Tables_number   1
_chemical_formula_structural   LiEr3Tm13Cd3Co4
_chemical_formula_sum   'Li1 Er3 Tm13 Cd3 Co4'
_cell_volume   580.23915581
_cell_formula_units_Z   1
loop_
 _symmetry_equiv_pos_site_id
 _symmetry_equiv_pos_as_xyz
  1  'x, y, z'
loop_
 _atom_site_type_symbol
 _atom_site_label
 _atom_site_symmetry_multiplicity
 _atom_site_fract_x
 _atom_site_fract_y
 _atom_site_fract_z
 _atom_site_occupancy
  Li  Li0  1  0.571756  0.571945  0.284211  1
  Er  Er1  1  0.560922  0.560820  0.939505  1
  Er  Er2  1  0.186584  0.813660  0.186567  1
  Er  Er3  1  0.963252  0.344663  0.346459  1
  Tm  Tm4  1  0.936321  0.936984  0.563854  1
  Tm  Tm5  1  0.814010  0.185349  0.186556  1
  Tm  Tm6  1  0.936681  0.563167  0.563181  1
  Tm  Tm7  1  0.938882  0.561614  0.938527  1
  Tm  Tm8  1  0.813719  0.814057  0.186332  1
  Tm  Tm9  1  0.344451  0.343550  0.347200  1
  Tm  Tm10  1  0.561130  0.939381  0.939180  1
  Tm  Tm11  1  0.562548  0.937150  0.563569  1
  Tm  Tm12  1  0.188696  0.812160  0.810233  1
  Tm  Tm13  1  0.189036  0.189041  0.810194  1
  Tm  Tm14  1  0.347175  0.347892  0.956981  1
  Tm  Tm15  1  0.344366  0.964328  0.347311  1
  Tm  Tm16  1  0.812463  0.188378  0.810597  1
  Cd  Cd17  1  0.258446  0.582208  0.577237  1
  Cd  Cd18  1  0.582142  0.582605  0.576349  1
  Cd  Cd19  1  0.582265  0.258803  0.576584  1
  Co  Co20  1  0.576908  0.142464  0.137516  1
  Co  Co21  1  0.143666  0.142156  0.137194  1
  Co  Co22  1  0.143121  0.576989  0.137523  1
  Co  Co23  1  0.141463  0.140639  0.577149  1
