# generated using pymatgen
data_Sc7C3I6O
_symmetry_space_group_name_H-M   'P 1'
_cell_length_a   3.65265600
_cell_length_b   10.96951100
_cell_length_c   21.12278500
_cell_angle_alpha   90.00000000
_cell_angle_beta   90.00000000
_cell_angle_gamma   90.00000000
_symmetry_Int_Tables_number   1
_chemical_formula_structural   Sc7C3I6O
_chemical_formula_sum   'Sc14 C6 I12 O2'
_cell_volume   846.34458458
_cell_formula_units_Z   2
loop_
 _symmetry_equiv_pos_site_id
 _symmetry_equiv_pos_as_xyz
  1  'x, y, z'
loop_
 _atom_site_type_symbol
 _atom_site_label
 _atom_site_symmetry_multiplicity
 _atom_site_fract_x
 _atom_site_fract_y
 _atom_site_fract_z
 _atom_site_occupancy
  Sc  Sc0  1  0.500000  0.631607  0.968235  1
  Sc  Sc1  1  0.000000  0.691870  0.664759  1
  Sc  Sc2  1  0.500000  0.518914  0.750000  1
  Sc  Sc3  1  0.000000  0.440195  0.603980  1
  Sc  Sc4  1  0.000000  0.308130  0.164759  1
  Sc  Sc5  1  0.500000  0.481086  0.250000  1
  Sc  Sc6  1  0.500000  0.368393  0.468235  1
  Sc  Sc7  1  0.000000  0.440195  0.896020  1
  Sc  Sc8  1  0.000000  0.559805  0.103980  1
  Sc  Sc9  1  0.000000  0.691870  0.835241  1
  Sc  Sc10  1  0.500000  0.631607  0.531765  1
  Sc  Sc11  1  0.500000  0.368393  0.031765  1
  Sc  Sc12  1  0.000000  0.308130  0.335241  1
  Sc  Sc13  1  0.000000  0.559805  0.396020  1
  C  C14  1  0.500000  0.427715  0.136040  1
  C  C15  1  0.500000  0.572285  0.636040  1
  C  C16  1  0.000000  0.500000  0.000000  1
  C  C17  1  0.500000  0.572285  0.863960  1
  C  C18  1  0.000000  0.500000  0.500000  1
  C  C19  1  0.500000  0.427715  0.363960  1
  I  I20  1  0.500000  0.132264  0.250000  1
  I  I21  1  0.000000  0.688839  0.250000  1
  I  I22  1  0.000000  0.146931  0.061055  1
  I  I23  1  0.500000  0.232286  0.908043  1
  I  I24  1  0.500000  0.767714  0.408043  1
  I  I25  1  0.000000  0.853069  0.938945  1
  I  I26  1  0.000000  0.146931  0.438945  1
  I  I27  1  0.500000  0.767714  0.091957  1
  I  I28  1  0.000000  0.853069  0.561055  1
  I  I29  1  0.000000  0.311161  0.750000  1
  I  I30  1  0.500000  0.232286  0.591957  1
  I  I31  1  0.500000  0.867736  0.750000  1
  O  O32  1  0.000000  0.610247  0.750000  1
  O  O33  1  0.000000  0.389753  0.250000  1
