# generated using pymatgen
data_PrCr4AgO14
_symmetry_space_group_name_H-M   'P 1'
_cell_length_a   7.44097845
_cell_length_b   7.44097951
_cell_length_c   7.44097904
_cell_angle_alpha   108.55481495
_cell_angle_beta   108.55480588
_cell_angle_gamma   111.32000988
_symmetry_Int_Tables_number   1
_chemical_formula_structural   PrCr4AgO14
_chemical_formula_sum   'Pr1 Cr4 Ag1 O14'
_cell_volume   316.90409589
_cell_formula_units_Z   1
loop_
 _symmetry_equiv_pos_site_id
 _symmetry_equiv_pos_as_xyz
  1  'x, y, z'
loop_
 _atom_site_type_symbol
 _atom_site_label
 _atom_site_symmetry_multiplicity
 _atom_site_fract_x
 _atom_site_fract_y
 _atom_site_fract_z
 _atom_site_occupancy
  Pr  Pr0  1  0.008946  0.008946  0.000000  1
  Cr  Cr1  1  0.827406  0.370165  0.780679  1
  Cr  Cr2  1  0.046727  0.827406  0.457241  1
  Cr  Cr3  1  0.370165  0.589486  0.542759  1
  Cr  Cr4  1  0.589486  0.046727  0.219321  1
  Ag  Ag5  1  0.429316  0.429316  0.000000  1
  O  O6  1  0.237281  0.737281  0.500000  1
  O  O7  1  0.737281  0.237281  0.500000  1
  O  O8  1  0.964060  0.640091  0.877495  1
  O  O9  1  0.086564  0.964060  0.323969  1
  O  O10  1  0.640091  0.762595  0.676031  1
  O  O11  1  0.762595  0.086564  0.122505  1
  O  O12  1  0.480246  0.796017  0.179195  1
  O  O13  1  0.301051  0.480246  0.684231  1
  O  O14  1  0.796017  0.616820  0.315769  1
  O  O15  1  0.616820  0.301051  0.820805  1
  O  O16  1  0.393027  0.089865  0.098568  1
  O  O17  1  0.294459  0.393027  0.303163  1
  O  O18  1  0.089865  0.991296  0.696837  1
  O  O19  1  0.991296  0.294459  0.901432  1
