# generated using pymatgen
data_UHg3(SeCl3)2
_symmetry_space_group_name_H-M   'P 1'
_cell_length_a   7.88430700
_cell_length_b   7.17196036
_cell_length_c   13.68451605
_cell_angle_alpha   90.19121827
_cell_angle_beta   90.00000000
_cell_angle_gamma   90.00000000
_symmetry_Int_Tables_number   1
_chemical_formula_structural   UHg3(SeCl3)2
_chemical_formula_sum   'U2 Hg6 Se4 Cl12'
_cell_volume   773.79947699
_cell_formula_units_Z   2
loop_
 _symmetry_equiv_pos_site_id
 _symmetry_equiv_pos_as_xyz
  1  'x, y, z'
loop_
 _atom_site_type_symbol
 _atom_site_label
 _atom_site_symmetry_multiplicity
 _atom_site_fract_x
 _atom_site_fract_y
 _atom_site_fract_z
 _atom_site_occupancy
  U  U0  1  0.500000  0.500000  0.500000  1
  U  U1  1  0.000000  0.500000  0.000000  1
  Hg  Hg2  1  0.764332  0.991156  0.750854  1
  Hg  Hg3  1  0.235668  0.008844  0.249146  1
  Hg  Hg4  1  0.264332  0.008844  0.749146  1
  Hg  Hg5  1  0.735668  0.991156  0.250854  1
  Hg  Hg6  1  0.000000  0.000000  0.500000  1
  Hg  Hg7  1  0.500000  0.000000  0.000000  1
  Se  Se8  1  0.981509  0.164556  0.333139  1
  Se  Se9  1  0.481509  0.835444  0.166861  1
  Se  Se10  1  0.518491  0.164556  0.833139  1
  Se  Se11  1  0.018491  0.835444  0.666861  1
  Cl  Cl12  1  0.972975  0.675669  0.168152  1
  Cl  Cl13  1  0.273684  0.337246  0.066912  1
  Cl  Cl14  1  0.726316  0.662754  0.933088  1
  Cl  Cl15  1  0.527025  0.675669  0.668152  1
  Cl  Cl16  1  0.773684  0.662754  0.433088  1
  Cl  Cl17  1  0.822222  0.213768  0.067753  1
  Cl  Cl18  1  0.472975  0.324331  0.331848  1
  Cl  Cl19  1  0.027025  0.324331  0.831848  1
  Cl  Cl20  1  0.177778  0.786232  0.932247  1
  Cl  Cl21  1  0.226316  0.337246  0.566912  1
  Cl  Cl22  1  0.677778  0.213768  0.567753  1
  Cl  Cl23  1  0.322222  0.786232  0.432247  1
