# generated using pymatgen
data_TmCoNi4P3
_symmetry_space_group_name_H-M   'P 1'
_cell_length_a   3.68296900
_cell_length_b   10.27477500
_cell_length_c   11.79259000
_cell_angle_alpha   90.00000000
_cell_angle_beta   90.00000000
_cell_angle_gamma   90.00000000
_symmetry_Int_Tables_number   1
_chemical_formula_structural   TmCoNi4P3
_chemical_formula_sum   'Tm4 Co4 Ni16 P12'
_cell_volume   446.25139129
_cell_formula_units_Z   4
loop_
 _symmetry_equiv_pos_site_id
 _symmetry_equiv_pos_as_xyz
  1  'x, y, z'
loop_
 _atom_site_type_symbol
 _atom_site_label
 _atom_site_symmetry_multiplicity
 _atom_site_fract_x
 _atom_site_fract_y
 _atom_site_fract_z
 _atom_site_occupancy
  Tm  Tm0  1  0.250000  0.582092  0.703897  1
  Tm  Tm1  1  0.250000  0.917908  0.203897  1
  Tm  Tm2  1  0.750000  0.417908  0.296103  1
  Tm  Tm3  1  0.750000  0.082092  0.796103  1
  Co  Co4  1  0.250000  0.468995  0.931743  1
  Co  Co5  1  0.250000  0.031005  0.431743  1
  Co  Co6  1  0.750000  0.531005  0.068257  1
  Co  Co7  1  0.750000  0.968995  0.568257  1
  Ni  Ni8  1  0.250000  0.714121  0.991478  1
  Ni  Ni9  1  0.250000  0.785879  0.491478  1
  Ni  Ni10  1  0.750000  0.285879  0.008522  1
  Ni  Ni11  1  0.750000  0.214121  0.508522  1
  Ni  Ni12  1  0.250000  0.405306  0.487109  1
  Ni  Ni13  1  0.250000  0.094694  0.987109  1
  Ni  Ni14  1  0.750000  0.594694  0.512891  1
  Ni  Ni15  1  0.750000  0.905306  0.012891  1
  Ni  Ni16  1  0.250000  0.222406  0.178829  1
  Ni  Ni17  1  0.250000  0.277594  0.678829  1
  Ni  Ni18  1  0.750000  0.777594  0.821171  1
  Ni  Ni19  1  0.750000  0.722406  0.321171  1
  Ni  Ni20  1  0.250000  0.882536  0.699506  1
  Ni  Ni21  1  0.250000  0.617464  0.199506  1
  Ni  Ni22  1  0.750000  0.117464  0.300494  1
  Ni  Ni23  1  0.750000  0.382536  0.800494  1
  P  P24  1  0.250000  0.420068  0.112369  1
  P  P25  1  0.250000  0.079932  0.612369  1
  P  P26  1  0.750000  0.579932  0.887631  1
  P  P27  1  0.750000  0.920068  0.387631  1
  P  P28  1  0.250000  0.270081  0.870245  1
  P  P29  1  0.250000  0.229919  0.370245  1
  P  P30  1  0.750000  0.729919  0.129755  1
  P  P31  1  0.750000  0.770081  0.629755  1
  P  P32  1  0.250000  0.600227  0.391959  1
  P  P33  1  0.250000  0.899773  0.891959  1
  P  P34  1  0.750000  0.399773  0.608041  1
  P  P35  1  0.750000  0.100227  0.108041  1
