# generated using pymatgen
data_Ti8MnTc4Rh3
_symmetry_space_group_name_H-M   'P 1'
_cell_length_a   6.16893500
_cell_length_b   4.36989500
_cell_length_c   8.74573800
_cell_angle_alpha   89.99992791
_cell_angle_beta   90.00006991
_cell_angle_gamma   89.99969406
_symmetry_Int_Tables_number   1
_chemical_formula_structural   Ti8MnTc4Rh3
_chemical_formula_sum   'Ti8 Mn1 Tc4 Rh3'
_cell_volume   235.76409107
_cell_formula_units_Z   1
loop_
 _symmetry_equiv_pos_site_id
 _symmetry_equiv_pos_as_xyz
  1  'x, y, z'
loop_
 _atom_site_type_symbol
 _atom_site_label
 _atom_site_symmetry_multiplicity
 _atom_site_fract_x
 _atom_site_fract_y
 _atom_site_fract_z
 _atom_site_occupancy
  Ti  Ti0  1  0.007749  0.749999  0.124998  1
  Ti  Ti1  1  0.492305  0.750000  0.124998  1
  Ti  Ti2  1  0.003864  0.250000  0.368687  1
  Ti  Ti3  1  0.496190  0.250002  0.368692  1
  Ti  Ti4  1  0.501073  0.749999  0.625009  1
  Ti  Ti5  1  0.998877  0.749999  0.625003  1
  Ti  Ti6  1  0.496137  0.249999  0.881311  1
  Ti  Ti7  1  0.003803  0.250000  0.881305  1
  Mn  Mn8  1  0.250027  0.249992  0.124994  1
  Tc  Tc9  1  0.750019  0.249999  0.124991  1
  Tc  Tc10  1  0.250011  0.750001  0.375090  1
  Tc  Tc11  1  0.749975  0.250000  0.624988  1
  Tc  Tc12  1  0.249980  0.749999  0.874921  1
  Rh  Rh13  1  0.750027  0.750006  0.374494  1
  Rh  Rh14  1  0.249978  0.250001  0.625007  1
  Rh  Rh15  1  0.749982  0.749996  0.875510  1
