# generated using pymatgen
data_ScBe2Fe3(B2Rh5)2
_symmetry_space_group_name_H-M   'P 1'
_cell_length_a   9.14268185
_cell_length_b   2.87810400
_cell_length_c   9.14268185
_cell_angle_alpha   90.00000000
_cell_angle_beta   89.39399316
_cell_angle_gamma   90.00000000
_symmetry_Int_Tables_number   1
_chemical_formula_structural   ScBe2Fe3(B2Rh5)2
_chemical_formula_sum   'Sc1 Be2 Fe3 B4 Rh10'
_cell_volume   240.56331787
_cell_formula_units_Z   1
loop_
 _symmetry_equiv_pos_site_id
 _symmetry_equiv_pos_as_xyz
  1  'x, y, z'
loop_
 _atom_site_type_symbol
 _atom_site_label
 _atom_site_symmetry_multiplicity
 _atom_site_fract_x
 _atom_site_fract_y
 _atom_site_fract_z
 _atom_site_occupancy
  Sc  Sc0  1  0.325174  0.000000  0.825175  1
  Be  Be1  1  0.002344  0.000000  0.998135  1
  Be  Be2  1  0.498135  0.000000  0.502344  1
  Fe  Fe3  1  0.679702  0.000000  0.179701  1
  Fe  Fe4  1  0.177193  0.000000  0.323548  1
  Fe  Fe5  1  0.823549  0.000000  0.677194  1
  B  B6  1  0.368544  0.000000  0.132750  1
  B  B7  1  0.866814  0.000000  0.366813  1
  B  B8  1  0.126027  0.000000  0.626026  1
  B  B9  1  0.632749  0.000000  0.868545  1
  Rh  Rh10  1  0.505876  0.500000  0.005876  1
  Rh  Rh11  1  0.206101  0.500000  0.073943  1
  Rh  Rh12  1  0.931392  0.500000  0.205683  1
  Rh  Rh13  1  0.431958  0.500000  0.294523  1
  Rh  Rh14  1  0.705684  0.500000  0.431392  1
  Rh  Rh15  1  0.997416  0.500000  0.497416  1
  Rh  Rh16  1  0.289514  0.500000  0.563360  1
  Rh  Rh17  1  0.573943  0.500000  0.706102  1
  Rh  Rh18  1  0.063360  0.500000  0.789514  1
  Rh  Rh19  1  0.794523  0.500000  0.931958  1
