# generated using pymatgen
data_PrDySn5Pt3
_symmetry_space_group_name_H-M   'P 1'
_cell_length_a   13.64792261
_cell_length_b   13.64792220
_cell_length_c   7.47951600
_cell_angle_alpha   90.00000000
_cell_angle_beta   90.00000000
_cell_angle_gamma   160.81598618
_symmetry_Int_Tables_number   1
_chemical_formula_structural   PrDySn5Pt3
_chemical_formula_sum   'Pr2 Dy2 Sn10 Pt6'
_cell_volume   457.80264425
_cell_formula_units_Z   2
loop_
 _symmetry_equiv_pos_site_id
 _symmetry_equiv_pos_as_xyz
  1  'x, y, z'
loop_
 _atom_site_type_symbol
 _atom_site_label
 _atom_site_symmetry_multiplicity
 _atom_site_fract_x
 _atom_site_fract_y
 _atom_site_fract_z
 _atom_site_occupancy
  Pr  Pr0  1  0.172665  0.827335  0.753685  1
  Pr  Pr1  1  0.827335  0.172665  0.253685  1
  Dy  Dy2  1  0.477252  0.522748  0.738792  1
  Dy  Dy3  1  0.522748  0.477252  0.238792  1
  Sn  Sn4  1  0.880521  0.119479  0.735077  1
  Sn  Sn5  1  0.119479  0.880521  0.235077  1
  Sn  Sn6  1  0.701863  0.298137  0.048948  1
  Sn  Sn7  1  0.298137  0.701863  0.548948  1
  Sn  Sn8  1  0.597463  0.402537  0.608835  1
  Sn  Sn9  1  0.402537  0.597463  0.108835  1
  Sn  Sn10  1  0.953317  0.046683  0.394427  1
  Sn  Sn11  1  0.046683  0.953317  0.894427  1
  Sn  Sn12  1  0.289350  0.710650  0.977546  1
  Sn  Sn13  1  0.710650  0.289350  0.477546  1
  Pt  Pt14  1  0.049462  0.950538  0.515036  1
  Pt  Pt15  1  0.950538  0.049462  0.015036  1
  Pt  Pt16  1  0.776844  0.223156  0.769795  1
  Pt  Pt17  1  0.223156  0.776844  0.269795  1
  Pt  Pt18  1  0.399174  0.600826  0.485859  1
  Pt  Pt19  1  0.600826  0.399174  0.985859  1
