# generated using pymatgen
data_Er2Tm(InPd2)3
_symmetry_space_group_name_H-M   'P 1'
_cell_length_a   4.75363500
_cell_length_b   6.68608800
_cell_length_c   14.36983400
_cell_angle_alpha   90.00042847
_cell_angle_beta   89.99956609
_cell_angle_gamma   89.99932302
_symmetry_Int_Tables_number   1
_chemical_formula_structural   Er2Tm(InPd2)3
_chemical_formula_sum   'Er4 Tm2 In6 Pd12'
_cell_volume   456.71962312
_cell_formula_units_Z   2
loop_
 _symmetry_equiv_pos_site_id
 _symmetry_equiv_pos_as_xyz
  1  'x, y, z'
loop_
 _atom_site_type_symbol
 _atom_site_label
 _atom_site_symmetry_multiplicity
 _atom_site_fract_x
 _atom_site_fract_y
 _atom_site_fract_z
 _atom_site_occupancy
  Er  Er0  1  0.999990  0.499995  0.999187  1
  Er  Er1  1  0.500030  0.999991  0.166227  1
  Er  Er2  1  0.000052  0.500009  0.333730  1
  Er  Er3  1  0.500019  0.000007  0.500825  1
  Tm  Tm4  1  0.999947  0.500001  0.667448  1
  Tm  Tm5  1  0.499959  0.999997  0.832541  1
  In  In6  1  0.000003  0.000001  0.999163  1
  In  In7  1  0.500015  0.499998  0.166235  1
  In  In8  1  0.000028  0.000003  0.333799  1
  In  In9  1  0.500007  0.499997  0.500844  1
  In  In10  1  0.999926  0.999998  0.666707  1
  In  In11  1  0.499966  0.499999  0.833292  1
  Pd  Pd12  1  0.500129  0.249043  0.998323  1
  Pd  Pd13  1  0.499873  0.750950  0.998321  1
  Pd  Pd14  1  0.999918  0.249927  0.166459  1
  Pd  Pd15  1  0.000171  0.750068  0.166459  1
  Pd  Pd16  1  0.500208  0.250067  0.333584  1
  Pd  Pd17  1  0.499921  0.749941  0.333593  1
  Pd  Pd18  1  0.999893  0.250975  0.501670  1
  Pd  Pd19  1  0.000157  0.749033  0.501668  1
  Pd  Pd20  1  0.500034  0.253553  0.667797  1
  Pd  Pd21  1  0.499812  0.746451  0.667796  1
  Pd  Pd22  1  0.999859  0.246412  0.832164  1
  Pd  Pd23  1  0.000087  0.753581  0.832169  1
