# generated using pymatgen
data_LuPa2(InPd)3
_symmetry_space_group_name_H-M   'P 1'
_cell_length_a   7.57658800
_cell_length_b   7.59019847
_cell_length_c   3.97792900
_cell_angle_alpha   90.00000000
_cell_angle_beta   90.00000000
_cell_angle_gamma   119.94070034
_symmetry_Int_Tables_number   1
_chemical_formula_structural   LuPa2(InPd)3
_chemical_formula_sum   'Lu1 Pa2 In3 Pd3'
_cell_volume   198.23195412
_cell_formula_units_Z   1
loop_
 _symmetry_equiv_pos_site_id
 _symmetry_equiv_pos_as_xyz
  1  'x, y, z'
loop_
 _atom_site_type_symbol
 _atom_site_label
 _atom_site_symmetry_multiplicity
 _atom_site_fract_x
 _atom_site_fract_y
 _atom_site_fract_z
 _atom_site_occupancy
  Lu  Lu0  1  0.408906  0.000000  0.500000  1
  Pa  Pa1  1  0.001554  0.411356  0.500000  1
  Pa  Pa2  1  0.590199  0.588644  0.500000  1
  In  In3  1  0.007537  0.750823  0.000000  1
  In  In4  1  0.256713  0.249177  0.000000  1
  In  In5  1  0.736752  0.000000  0.000000  1
  Pd  Pd6  1  0.330896  0.657304  0.000000  1
  Pd  Pd7  1  0.673593  0.342696  0.000000  1
  Pd  Pd8  1  0.993850  0.000000  0.500000  1
