# generated using pymatgen
data_Er2PaIn3IrRh2
_symmetry_space_group_name_H-M   'P 1'
_cell_length_a   7.55678214
_cell_length_b   7.82189330
_cell_length_c   3.77391300
_cell_angle_alpha   90.00000000
_cell_angle_beta   90.00000000
_cell_angle_gamma   120.78252697
_symmetry_Int_Tables_number   1
_chemical_formula_structural   Er2PaIn3IrRh2
_chemical_formula_sum   'Er2 Pa1 In3 Ir1 Rh2'
_cell_volume   191.64279044
_cell_formula_units_Z   1
loop_
 _symmetry_equiv_pos_site_id
 _symmetry_equiv_pos_as_xyz
  1  'x, y, z'
loop_
 _atom_site_type_symbol
 _atom_site_label
 _atom_site_symmetry_multiplicity
 _atom_site_fract_x
 _atom_site_fract_y
 _atom_site_fract_z
 _atom_site_occupancy
  Er  Er0  1  0.405843  0.401082  0.500000  1
  Er  Er1  1  0.600134  0.010259  0.500000  1
  Pa  Pa2  1  0.001193  0.582817  0.500000  1
  In  In3  1  0.271228  0.011522  0.000000  1
  In  In4  1  0.726062  0.740971  0.000000  1
  In  In5  1  0.002732  0.243917  0.000000  1
  Ir  Ir6  1  0.697017  0.360495  0.000000  1
  Rh  Rh7  1  0.297128  0.662356  0.000000  1
  Rh  Rh8  1  0.998662  0.986581  0.500000  1
