# generated using pymatgen
data_Tm9Lu(Ir2Os)2
_symmetry_space_group_name_H-M   'P 1'
_cell_length_a   10.70423500
_cell_length_b   10.70423500
_cell_length_c   6.33300500
_cell_angle_alpha   90.00000000
_cell_angle_beta   90.00000000
_cell_angle_gamma   90.00000000
_symmetry_Int_Tables_number   1
_chemical_formula_structural   Tm9Lu(Ir2Os)2
_chemical_formula_sum   'Tm18 Lu2 Ir8 Os4'
_cell_volume   725.63980994
_cell_formula_units_Z   2
loop_
 _symmetry_equiv_pos_site_id
 _symmetry_equiv_pos_as_xyz
  1  'x, y, z'
loop_
 _atom_site_type_symbol
 _atom_site_label
 _atom_site_symmetry_multiplicity
 _atom_site_fract_x
 _atom_site_fract_y
 _atom_site_fract_z
 _atom_site_occupancy
  Tm  Tm0  1  0.293276  0.086200  0.376272  1
  Tm  Tm1  1  0.293276  0.913800  0.876272  1
  Tm  Tm2  1  0.706724  0.086200  0.876272  1
  Tm  Tm3  1  0.706724  0.913800  0.376272  1
  Tm  Tm4  1  0.586265  0.793540  0.876275  1
  Tm  Tm5  1  0.586265  0.206460  0.376275  1
  Tm  Tm6  1  0.413735  0.793540  0.376275  1
  Tm  Tm7  1  0.413735  0.206460  0.876275  1
  Tm  Tm8  1  0.206460  0.413735  0.623725  1
  Tm  Tm9  1  0.206460  0.586265  0.123725  1
  Tm  Tm10  1  0.793540  0.413735  0.123725  1
  Tm  Tm11  1  0.793540  0.586265  0.623725  1
  Tm  Tm12  1  0.913800  0.706724  0.123728  1
  Tm  Tm13  1  0.913800  0.293276  0.623728  1
  Tm  Tm14  1  0.086200  0.706724  0.623728  1
  Tm  Tm15  1  0.086200  0.293276  0.123728  1
  Tm  Tm16  1  0.500000  0.500000  0.000000  1
  Tm  Tm17  1  0.500000  0.500000  0.500000  1
  Lu  Lu18  1  0.000000  0.000000  0.500000  1
  Lu  Lu19  1  0.000000  0.000000  0.000000  1
  Ir  Ir20  1  0.847984  0.152016  0.250000  1
  Ir  Ir21  1  0.847984  0.847984  0.750000  1
  Ir  Ir22  1  0.152016  0.152016  0.750000  1
  Ir  Ir23  1  0.152016  0.847984  0.250000  1
  Ir  Ir24  1  0.652583  0.347417  0.750000  1
  Ir  Ir25  1  0.652583  0.652583  0.250000  1
  Ir  Ir26  1  0.347417  0.347417  0.250000  1
  Ir  Ir27  1  0.347417  0.652583  0.750000  1
  Os  Os28  1  0.500000  0.000000  0.122873  1
  Os  Os29  1  0.500000  0.000000  0.622873  1
  Os  Os30  1  0.000000  0.500000  0.877127  1
  Os  Os31  1  0.000000  0.500000  0.377127  1
