# generated using pymatgen
data_La6ErRh3
_symmetry_space_group_name_H-M   'P 1'
_cell_length_a   10.21530600
_cell_length_b   10.21530780
_cell_length_c   6.42328900
_cell_angle_alpha   90.00000000
_cell_angle_beta   90.00000000
_cell_angle_gamma   120.00000066
_symmetry_Int_Tables_number   1
_chemical_formula_structural   La6ErRh3
_chemical_formula_sum   'La12 Er2 Rh6'
_cell_volume   580.48490206
_cell_formula_units_Z   2
loop_
 _symmetry_equiv_pos_site_id
 _symmetry_equiv_pos_as_xyz
  1  'x, y, z'
loop_
 _atom_site_type_symbol
 _atom_site_label
 _atom_site_symmetry_multiplicity
 _atom_site_fract_x
 _atom_site_fract_y
 _atom_site_fract_z
 _atom_site_occupancy
  La  La0  1  0.873951  0.747902  0.764578  1
  La  La1  1  0.252098  0.126049  0.764578  1
  La  La2  1  0.873951  0.126049  0.764578  1
  La  La3  1  0.126049  0.252098  0.264578  1
  La  La4  1  0.747902  0.873951  0.264578  1
  La  La5  1  0.126049  0.873951  0.264578  1
  La  La6  1  0.457666  0.915334  0.593491  1
  La  La7  1  0.084666  0.542334  0.593491  1
  La  La8  1  0.457666  0.542334  0.593491  1
  La  La9  1  0.542334  0.084666  0.093491  1
  La  La10  1  0.915334  0.457666  0.093491  1
  La  La11  1  0.542334  0.457666  0.093491  1
  Er  Er12  1  0.666667  0.333333  0.567483  1
  Er  Er13  1  0.333333  0.666667  0.067483  1
  Rh  Rh14  1  0.190473  0.380946  0.855278  1
  Rh  Rh15  1  0.619054  0.809527  0.855278  1
  Rh  Rh16  1  0.190473  0.809527  0.855278  1
  Rh  Rh17  1  0.809527  0.619054  0.355278  1
  Rh  Rh18  1  0.380946  0.190473  0.355278  1
  Rh  Rh19  1  0.809527  0.190473  0.355278  1
