# generated using pymatgen
data_Ce3As5Pd6
_symmetry_space_group_name_H-M   'P 1'
_cell_length_a   4.17986800
_cell_length_b   9.96699900
_cell_length_c   12.91287400
_cell_angle_alpha   90.00000000
_cell_angle_beta   90.00000000
_cell_angle_gamma   90.00000000
_symmetry_Int_Tables_number   1
_chemical_formula_structural   Ce3As5Pd6
_chemical_formula_sum   'Ce6 As10 Pd12'
_cell_volume   537.95988864
_cell_formula_units_Z   2
loop_
 _symmetry_equiv_pos_site_id
 _symmetry_equiv_pos_as_xyz
  1  'x, y, z'
loop_
 _atom_site_type_symbol
 _atom_site_label
 _atom_site_symmetry_multiplicity
 _atom_site_fract_x
 _atom_site_fract_y
 _atom_site_fract_z
 _atom_site_occupancy
  Ce  Ce0  1  0.000000  0.248061  0.334113  1
  Ce  Ce1  1  0.500000  0.751939  0.834113  1
  Ce  Ce2  1  0.500000  0.751939  0.165887  1
  Ce  Ce3  1  0.000000  0.255643  0.000000  1
  Ce  Ce4  1  0.500000  0.744357  0.500000  1
  Ce  Ce5  1  0.000000  0.248061  0.665887  1
  As  As6  1  0.000000  0.527784  0.125568  1
  As  As7  1  0.000000  0.853550  0.336319  1
  As  As8  1  0.000000  0.837558  0.000000  1
  As  As9  1  0.500000  0.472216  0.374432  1
  As  As10  1  0.500000  0.162442  0.500000  1
  As  As11  1  0.000000  0.527784  0.874432  1
  As  As12  1  0.500000  0.472216  0.625568  1
  As  As13  1  0.000000  0.853550  0.663681  1
  As  As14  1  0.500000  0.146450  0.163681  1
  As  As15  1  0.500000  0.146450  0.836319  1
  Pd  Pd16  1  0.000000  0.995305  0.167670  1
  Pd  Pd17  1  0.500000  0.004695  0.332330  1
  Pd  Pd18  1  0.500000  0.393662  0.183960  1
  Pd  Pd19  1  0.500000  0.527142  0.000000  1
  Pd  Pd20  1  0.000000  0.472858  0.500000  1
  Pd  Pd21  1  0.000000  0.606338  0.316040  1
  Pd  Pd22  1  0.000000  0.606338  0.683960  1
  Pd  Pd23  1  0.500000  0.998262  0.000000  1
  Pd  Pd24  1  0.000000  0.995305  0.832330  1
  Pd  Pd25  1  0.500000  0.393662  0.816040  1
  Pd  Pd26  1  0.000000  0.001738  0.500000  1
  Pd  Pd27  1  0.500000  0.004695  0.667670  1
