# generated using pymatgen
data_Tb5Ho7ZnCo4Sb
_symmetry_space_group_name_H-M   'P 1'
_cell_length_a   8.34148164
_cell_length_b   8.34148191
_cell_length_c   8.33802929
_cell_angle_alpha   112.18840465
_cell_angle_beta   108.64822081
_cell_angle_gamma   107.63057841
_symmetry_Int_Tables_number   1
_chemical_formula_structural   Tb5Ho7ZnCo4Sb
_chemical_formula_sum   'Tb5 Ho7 Zn1 Co4 Sb1'
_cell_volume   445.72527514
_cell_formula_units_Z   1
loop_
 _symmetry_equiv_pos_site_id
 _symmetry_equiv_pos_as_xyz
  1  'x, y, z'
loop_
 _atom_site_type_symbol
 _atom_site_label
 _atom_site_symmetry_multiplicity
 _atom_site_fract_x
 _atom_site_fract_y
 _atom_site_fract_z
 _atom_site_occupancy
  Tb  Tb0  1  0.430487  0.228741  0.201218  1
  Tb  Tb1  1  0.571184  0.772344  0.799755  1
  Tb  Tb2  1  0.027410  0.228570  0.799755  1
  Tb  Tb3  1  0.972478  0.770731  0.201218  1
  Tb  Tb4  1  0.178809  0.282636  0.461444  1
  Ho  Ho5  1  0.821324  0.717533  0.538858  1
  Ho  Ho6  1  0.178618  0.717489  0.896108  1
  Ho  Ho7  1  0.820911  0.282553  0.103465  1
  Ho  Ho8  1  0.324606  0.638939  0.314229  1
  Ho  Ho9  1  0.676415  0.361854  0.686395  1
  Ho  Ho10  1  0.324541  0.009979  0.686395  1
  Ho  Ho11  1  0.675290  0.989624  0.314229  1
  Zn  Zn12  1  0.000312  0.998725  0.999037  1
  Co  Co13  1  0.344270  0.998903  0.343172  1
  Co  Co14  1  0.655718  0.999878  0.655596  1
  Co  Co15  1  0.113566  0.615396  0.499663  1
  Co  Co16  1  0.884268  0.386097  0.499663  1
  Sb  Sb17  1  0.499793  0.500006  0.999799  1
