# generated using pymatgen
data_Dy4TmPt3
_symmetry_space_group_name_H-M   'P 1'
_cell_length_a   10.96158500
_cell_length_b   10.96158500
_cell_length_c   6.50754900
_cell_angle_alpha   90.00000000
_cell_angle_beta   90.00000000
_cell_angle_gamma   90.00000000
_symmetry_Int_Tables_number   1
_chemical_formula_structural   Dy4TmPt3
_chemical_formula_sum   'Dy16 Tm4 Pt12'
_cell_volume   781.92330738
_cell_formula_units_Z   4
loop_
 _symmetry_equiv_pos_site_id
 _symmetry_equiv_pos_as_xyz
  1  'x, y, z'
loop_
 _atom_site_type_symbol
 _atom_site_label
 _atom_site_symmetry_multiplicity
 _atom_site_fract_x
 _atom_site_fract_y
 _atom_site_fract_z
 _atom_site_occupancy
  Dy  Dy0  1  0.291964  0.088084  0.377937  1
  Dy  Dy1  1  0.291964  0.911916  0.877937  1
  Dy  Dy2  1  0.708036  0.088084  0.877937  1
  Dy  Dy3  1  0.708036  0.911916  0.377937  1
  Dy  Dy4  1  0.588084  0.791964  0.877937  1
  Dy  Dy5  1  0.588084  0.208036  0.377937  1
  Dy  Dy6  1  0.411916  0.791964  0.377937  1
  Dy  Dy7  1  0.411916  0.208036  0.877937  1
  Dy  Dy8  1  0.208036  0.411916  0.622063  1
  Dy  Dy9  1  0.208036  0.588084  0.122063  1
  Dy  Dy10  1  0.791964  0.411916  0.122063  1
  Dy  Dy11  1  0.791964  0.588084  0.622063  1
  Dy  Dy12  1  0.911916  0.708036  0.122063  1
  Dy  Dy13  1  0.911916  0.291964  0.622063  1
  Dy  Dy14  1  0.088084  0.708036  0.622063  1
  Dy  Dy15  1  0.088084  0.291964  0.122063  1
  Tm  Tm16  1  0.000000  0.000000  0.500000  1
  Tm  Tm17  1  0.000000  0.000000  0.000000  1
  Tm  Tm18  1  0.500000  0.500000  0.000000  1
  Tm  Tm19  1  0.500000  0.500000  0.500000  1
  Pt  Pt20  1  0.848151  0.151849  0.250000  1
  Pt  Pt21  1  0.848151  0.848151  0.750000  1
  Pt  Pt22  1  0.151849  0.151849  0.750000  1
  Pt  Pt23  1  0.151849  0.848151  0.250000  1
  Pt  Pt24  1  0.651849  0.348151  0.750000  1
  Pt  Pt25  1  0.651849  0.651849  0.250000  1
  Pt  Pt26  1  0.348151  0.348151  0.250000  1
  Pt  Pt27  1  0.348151  0.651849  0.750000  1
  Pt  Pt28  1  0.500000  0.000000  0.118452  1
  Pt  Pt29  1  0.500000  0.000000  0.618452  1
  Pt  Pt30  1  0.000000  0.500000  0.881548  1
  Pt  Pt31  1  0.000000  0.500000  0.381548  1
