# generated using pymatgen
data_Pr17Dy3Si15Te
_symmetry_space_group_name_H-M   'P 1'
_cell_length_a   7.92373217
_cell_length_b   7.89978707
_cell_length_c   15.26564900
_cell_angle_alpha   90.10007454
_cell_angle_beta   89.63342661
_cell_angle_gamma   89.95967714
_symmetry_Int_Tables_number   1
_chemical_formula_structural   Pr17Dy3Si15Te
_chemical_formula_sum   'Pr17 Dy3 Si15 Te1'
_cell_volume   955.54420617
_cell_formula_units_Z   1
loop_
 _symmetry_equiv_pos_site_id
 _symmetry_equiv_pos_as_xyz
  1  'x, y, z'
loop_
 _atom_site_type_symbol
 _atom_site_label
 _atom_site_symmetry_multiplicity
 _atom_site_fract_x
 _atom_site_fract_y
 _atom_site_fract_z
 _atom_site_occupancy
  Pr  Pr0  1  0.687145  0.692475  0.495470  1
  Pr  Pr1  1  0.378058  0.010492  0.444987  1
  Pr  Pr2  1  0.491976  0.874458  0.697941  1
  Pr  Pr3  1  0.511499  0.122343  0.196425  1
  Pr  Pr4  1  0.877598  0.486914  0.299657  1
  Pr  Pr5  1  0.121419  0.515969  0.807441  1
  Pr  Pr6  1  0.627648  0.984309  0.950455  1
  Pr  Pr7  1  0.998830  0.383678  0.545057  1
  Pr  Pr8  1  0.989453  0.621395  0.054443  1
  Pr  Pr9  1  0.133697  0.982772  0.878679  1
  Pr  Pr10  1  0.520902  0.627974  0.126900  1
  Pr  Pr11  1  0.485558  0.379942  0.629193  1
  Pr  Pr12  1  0.630541  0.523204  0.876678  1
  Pr  Pr13  1  0.372240  0.478008  0.371478  1
  Pr  Pr14  1  0.873520  0.022034  0.376586  1
  Pr  Pr15  1  0.980798  0.127344  0.123269  1
  Pr  Pr16  1  0.009522  0.855859  0.619954  1
  Dy  Dy17  1  0.312241  0.310759  0.000485  1
  Dy  Dy18  1  0.190173  0.811317  0.249238  1
  Dy  Dy19  1  0.796516  0.188657  0.753513  1
  Si  Si20  1  0.327955  0.691055  0.955860  1
  Si  Si21  1  0.663799  0.304874  0.453823  1
  Si  Si22  1  0.695717  0.330725  0.047868  1
  Si  Si23  1  0.305254  0.670340  0.544852  1
  Si  Si24  1  0.809446  0.830363  0.204097  1
  Si  Si25  1  0.170629  0.191049  0.294448  1
  Si  Si26  1  0.835565  0.808811  0.796648  1
  Si  Si27  1  0.286737  0.922964  0.062733  1
  Si  Si28  1  0.574509  0.790103  0.308093  1
  Si  Si29  1  0.449030  0.211321  0.824885  1
  Si  Si30  1  0.790075  0.572244  0.691639  1
  Si  Si31  1  0.212970  0.423405  0.187455  1
  Si  Si32  1  0.705722  0.079253  0.563615  1
  Si  Si33  1  0.927264  0.288215  0.938694  1
  Si  Si34  1  0.080343  0.713732  0.434594  1
  Te  Te35  1  0.175648  0.171646  0.692849  1
