# generated using pymatgen
data_Y3Lu6ThPt8
_symmetry_space_group_name_H-M   'P 1'
_cell_length_a   7.46605600
_cell_length_b   7.50193580
_cell_length_c   14.55806734
_cell_angle_alpha   89.88479759
_cell_angle_beta   90.00000000
_cell_angle_gamma   90.00000000
_symmetry_Int_Tables_number   1
_chemical_formula_structural   Y3Lu6ThPt8
_chemical_formula_sum   'Y6 Lu12 Th2 Pt16'
_cell_volume   815.39385155
_cell_formula_units_Z   2
loop_
 _symmetry_equiv_pos_site_id
 _symmetry_equiv_pos_as_xyz
  1  'x, y, z'
loop_
 _atom_site_type_symbol
 _atom_site_label
 _atom_site_symmetry_multiplicity
 _atom_site_fract_x
 _atom_site_fract_y
 _atom_site_fract_z
 _atom_site_occupancy
  Y  Y0  1  0.500910  0.321844  0.593347  1
  Y  Y1  1  0.000910  0.178156  0.906653  1
  Y  Y2  1  0.001100  0.179291  0.593682  1
  Y  Y3  1  0.501100  0.320709  0.906318  1
  Y  Y4  1  0.498561  0.677656  0.406690  1
  Y  Y5  1  0.998561  0.822344  0.093310  1
  Lu  Lu6  1  0.680075  0.993176  0.249546  1
  Lu  Lu7  1  0.180075  0.506824  0.250454  1
  Lu  Lu8  1  0.819258  0.491304  0.749766  1
  Lu  Lu9  1  0.319258  0.008696  0.750234  1
  Lu  Lu10  1  0.655447  0.832905  0.623043  1
  Lu  Lu11  1  0.155447  0.667095  0.876957  1
  Lu  Lu12  1  0.842963  0.333069  0.377583  1
  Lu  Lu13  1  0.342963  0.166931  0.122417  1
  Lu  Lu14  1  0.344592  0.167957  0.377312  1
  Lu  Lu15  1  0.844592  0.332043  0.122688  1
  Lu  Lu16  1  0.158569  0.665847  0.624242  1
  Lu  Lu17  1  0.658569  0.834153  0.875758  1
  Th  Th18  1  0.999967  0.820045  0.407408  1
  Th  Th19  1  0.499967  0.679955  0.092592  1
  Pt  Pt20  1  0.816179  0.642210  0.251087  1
  Pt  Pt21  1  0.316179  0.857790  0.248913  1
  Pt  Pt22  1  0.683419  0.141438  0.750063  1
  Pt  Pt23  1  0.183419  0.358562  0.749937  1
  Pt  Pt24  1  0.545392  0.380846  0.249364  1
  Pt  Pt25  1  0.045392  0.119154  0.250636  1
  Pt  Pt26  1  0.954331  0.881546  0.749780  1
  Pt  Pt27  1  0.454331  0.618454  0.750220  1
  Pt  Pt28  1  0.818821  0.536371  0.541877  1
  Pt  Pt29  1  0.318821  0.963629  0.958123  1
  Pt  Pt30  1  0.683204  0.035157  0.458026  1
  Pt  Pt31  1  0.183204  0.464843  0.041974  1
  Pt  Pt32  1  0.180911  0.465016  0.458013  1
  Pt  Pt33  1  0.680911  0.034984  0.041987  1
  Pt  Pt34  1  0.316301  0.964794  0.541524  1
  Pt  Pt35  1  0.816301  0.535206  0.958476  1
