# generated using pymatgen
data_Hf6Zn17Cu6C
_symmetry_space_group_name_H-M   'P 1'
_cell_length_a   8.59248934
_cell_length_b   8.60669332
_cell_length_c   8.60669300
_cell_angle_alpha   59.99999739
_cell_angle_beta   59.94529922
_cell_angle_gamma   59.94529324
_symmetry_Int_Tables_number   1
_chemical_formula_structural   Hf6Zn17Cu6C
_chemical_formula_sum   'Hf6 Zn17 Cu6 C1'
_cell_volume   449.69395071
_cell_formula_units_Z   1
loop_
 _symmetry_equiv_pos_site_id
 _symmetry_equiv_pos_as_xyz
  1  'x, y, z'
loop_
 _atom_site_type_symbol
 _atom_site_label
 _atom_site_symmetry_multiplicity
 _atom_site_fract_x
 _atom_site_fract_y
 _atom_site_fract_z
 _atom_site_occupancy
  Hf  Hf0  1  0.692355  0.309660  0.309660  1
  Hf  Hf1  1  0.307645  0.690340  0.690340  1
  Hf  Hf2  1  0.307645  0.690340  0.311674  1
  Hf  Hf3  1  0.692355  0.309660  0.688326  1
  Hf  Hf4  1  0.307645  0.311674  0.690340  1
  Hf  Hf5  1  0.692355  0.688326  0.309660  1
  Zn  Zn6  1  0.646014  0.117996  0.117996  1
  Zn  Zn7  1  0.353986  0.882004  0.882004  1
  Zn  Zn8  1  0.500000  0.000000  0.000000  1
  Zn  Zn9  1  0.000000  0.500000  0.500000  1
  Zn  Zn10  1  0.000000  0.500000  0.000000  1
  Zn  Zn11  1  0.500000  0.000000  0.500000  1
  Zn  Zn12  1  0.000000  0.000000  0.500000  1
  Zn  Zn13  1  0.500000  0.500000  0.000000  1
  Zn  Zn14  1  0.328467  0.332732  0.332732  1
  Zn  Zn15  1  0.671533  0.667268  0.667268  1
  Zn  Zn16  1  0.328467  0.332732  0.006071  1
  Zn  Zn17  1  0.328467  0.006071  0.332732  1
  Zn  Zn18  1  0.671533  0.667268  0.993929  1
  Zn  Zn19  1  0.671533  0.993929  0.667268  1
  Zn  Zn20  1  0.008732  0.330423  0.330423  1
  Zn  Zn21  1  0.991268  0.669577  0.669577  1
  Zn  Zn22  1  0.000000  0.000000  0.000000  1
  Cu  Cu23  1  0.118621  0.119093  0.119093  1
  Cu  Cu24  1  0.881379  0.880907  0.880907  1
  Cu  Cu25  1  0.118621  0.119093  0.643194  1
  Cu  Cu26  1  0.118621  0.643194  0.119093  1
  Cu  Cu27  1  0.881379  0.880907  0.356806  1
  Cu  Cu28  1  0.881379  0.356806  0.880907  1
  C  C29  1  0.500000  0.500000  0.500000  1
