# generated using pymatgen
data_CeEr5TcRu
_symmetry_space_group_name_H-M   'P 1'
_cell_length_a   6.31100600
_cell_length_b   7.21300000
_cell_length_c   9.24023600
_cell_angle_alpha   90.00000000
_cell_angle_beta   90.00000000
_cell_angle_gamma   90.00000000
_symmetry_Int_Tables_number   1
_chemical_formula_structural   CeEr5TcRu
_chemical_formula_sum   'Ce2 Er10 Tc2 Ru2'
_cell_volume   420.62742823
_cell_formula_units_Z   2
loop_
 _symmetry_equiv_pos_site_id
 _symmetry_equiv_pos_as_xyz
  1  'x, y, z'
loop_
 _atom_site_type_symbol
 _atom_site_label
 _atom_site_symmetry_multiplicity
 _atom_site_fract_x
 _atom_site_fract_y
 _atom_site_fract_z
 _atom_site_occupancy
  Ce  Ce0  1  0.872729  0.556757  0.250000  1
  Ce  Ce1  1  0.627271  0.056757  0.250000  1
  Er  Er2  1  0.336028  0.679177  0.060515  1
  Er  Er3  1  0.163972  0.179177  0.439485  1
  Er  Er4  1  0.669095  0.323139  0.568102  1
  Er  Er5  1  0.830905  0.823139  0.931898  1
  Er  Er6  1  0.669095  0.323139  0.931898  1
  Er  Er7  1  0.830905  0.823139  0.568102  1
  Er  Er8  1  0.336028  0.679177  0.439485  1
  Er  Er9  1  0.163972  0.179177  0.060515  1
  Er  Er10  1  0.133292  0.460237  0.750000  1
  Er  Er11  1  0.366708  0.960237  0.750000  1
  Tc  Tc12  1  0.005960  0.862760  0.250000  1
  Tc  Tc13  1  0.494040  0.362760  0.250000  1
  Ru  Ru14  1  0.962104  0.115615  0.750000  1
  Ru  Ru15  1  0.537896  0.615615  0.750000  1
