# generated using pymatgen
data_Er8Zn3Si12Au
_symmetry_space_group_name_H-M   'P 1'
_cell_length_a   8.13000700
_cell_length_b   8.13000760
_cell_length_c   7.95193300
_cell_angle_alpha   90.00000000
_cell_angle_beta   90.00000000
_cell_angle_gamma   120.00000162
_symmetry_Int_Tables_number   1
_chemical_formula_structural   Er8Zn3Si12Au
_chemical_formula_sum   'Er8 Zn3 Si12 Au1'
_cell_volume   455.18213438
_cell_formula_units_Z   1
loop_
 _symmetry_equiv_pos_site_id
 _symmetry_equiv_pos_as_xyz
  1  'x, y, z'
loop_
 _atom_site_type_symbol
 _atom_site_label
 _atom_site_symmetry_multiplicity
 _atom_site_fract_x
 _atom_site_fract_y
 _atom_site_fract_z
 _atom_site_occupancy
  Er  Er0  1  0.991871  0.495936  0.247600  1
  Er  Er1  1  0.504064  0.495936  0.247600  1
  Er  Er2  1  0.498972  0.997943  0.752469  1
  Er  Er3  1  0.002057  0.501028  0.752469  1
  Er  Er4  1  0.498972  0.501028  0.752469  1
  Er  Er5  1  0.504064  0.008129  0.247600  1
  Er  Er6  1  0.000000  0.000000  0.751520  1
  Er  Er7  1  0.000000  0.000000  0.248315  1
  Zn  Zn8  1  0.333333  0.666667  0.014541  1
  Zn  Zn9  1  0.666667  0.333333  0.986090  1
  Zn  Zn10  1  0.666667  0.333333  0.505395  1
  Si  Si11  1  0.163038  0.836962  0.496603  1
  Si  Si12  1  0.163038  0.326074  0.496603  1
  Si  Si13  1  0.673926  0.836962  0.496603  1
  Si  Si14  1  0.334481  0.167241  0.002670  1
  Si  Si15  1  0.833131  0.666263  0.503198  1
  Si  Si16  1  0.832759  0.167241  0.002670  1
  Si  Si17  1  0.832759  0.665519  0.002670  1
  Si  Si18  1  0.166402  0.332805  0.997068  1
  Si  Si19  1  0.667195  0.833598  0.997068  1
  Si  Si20  1  0.333737  0.166869  0.503198  1
  Si  Si21  1  0.833131  0.166869  0.503198  1
  Si  Si22  1  0.166402  0.833598  0.997068  1
  Au  Au23  1  0.333333  0.666667  0.495314  1
