# generated using pymatgen
data_LaLu2Rh9
_symmetry_space_group_name_H-M   'P 1'
_cell_length_a   5.28061317
_cell_length_b   5.28027716
_cell_length_c   17.48299100
_cell_angle_alpha   90.00000000
_cell_angle_beta   90.00000000
_cell_angle_gamma   119.97830179
_symmetry_Int_Tables_number   1
_chemical_formula_structural   LaLu2Rh9
_chemical_formula_sum   'La2 Lu4 Rh18'
_cell_volume   422.26234408
_cell_formula_units_Z   2
loop_
 _symmetry_equiv_pos_site_id
 _symmetry_equiv_pos_as_xyz
  1  'x, y, z'
loop_
 _atom_site_type_symbol
 _atom_site_label
 _atom_site_symmetry_multiplicity
 _atom_site_fract_x
 _atom_site_fract_y
 _atom_site_fract_z
 _atom_site_occupancy
  La  La0  1  0.333341  0.666695  0.750000  1
  La  La1  1  0.666659  0.333305  0.250000  1
  Lu  Lu2  1  0.333338  0.666650  0.959171  1
  Lu  Lu3  1  0.666662  0.333350  0.040829  1
  Lu  Lu4  1  0.666662  0.333350  0.459171  1
  Lu  Lu5  1  0.333338  0.666650  0.540829  1
  Rh  Rh6  1  0.167577  0.832435  0.376304  1
  Rh  Rh7  1  0.167560  0.335141  0.376314  1
  Rh  Rh8  1  0.664861  0.832436  0.376313  1
  Rh  Rh9  1  0.832423  0.167565  0.623696  1
  Rh  Rh10  1  0.832440  0.664859  0.623686  1
  Rh  Rh11  1  0.335139  0.167564  0.623687  1
  Rh  Rh12  1  0.832423  0.167565  0.876304  1
  Rh  Rh13  1  0.832440  0.664859  0.876314  1
  Rh  Rh14  1  0.335139  0.167564  0.876313  1
  Rh  Rh15  1  0.167577  0.832435  0.123696  1
  Rh  Rh16  1  0.167560  0.335141  0.123686  1
  Rh  Rh17  1  0.664861  0.832436  0.123687  1
  Rh  Rh18  1  0.333351  0.666683  0.250000  1
  Rh  Rh19  1  0.666649  0.333317  0.750000  1
  Rh  Rh20  1  0.999998  0.999986  0.250000  1
  Rh  Rh21  1  0.000002  0.000014  0.750000  1
  Rh  Rh22  1  0.000000  0.000000  0.500000  1
  Rh  Rh23  1  0.000000  0.000000  0.000000  1
