# generated using pymatgen
data_LaCd2Ir9
_symmetry_space_group_name_H-M   'P 1'
_cell_length_a   8.96404200
_cell_length_b   8.96404200
_cell_length_c   5.15953000
_cell_angle_alpha   90.00000000
_cell_angle_beta   90.00000000
_cell_angle_gamma   90.00000000
_symmetry_Int_Tables_number   1
_chemical_formula_structural   LaCd2Ir9
_chemical_formula_sum   'La2 Cd4 Ir18'
_cell_volume   414.58912632
_cell_formula_units_Z   2
loop_
 _symmetry_equiv_pos_site_id
 _symmetry_equiv_pos_as_xyz
  1  'x, y, z'
loop_
 _atom_site_type_symbol
 _atom_site_label
 _atom_site_symmetry_multiplicity
 _atom_site_fract_x
 _atom_site_fract_y
 _atom_site_fract_z
 _atom_site_occupancy
  La  La0  1  0.500000  0.500000  0.000000  1
  La  La1  1  0.000000  0.000000  0.000000  1
  Cd  Cd2  1  0.116878  0.616878  0.000000  1
  Cd  Cd3  1  0.883122  0.383122  0.000000  1
  Cd  Cd4  1  0.383122  0.116878  0.000000  1
  Cd  Cd5  1  0.616878  0.883122  0.000000  1
  Ir  Ir6  1  0.318137  0.818137  0.758493  1
  Ir  Ir7  1  0.681863  0.181863  0.758493  1
  Ir  Ir8  1  0.181863  0.318137  0.758493  1
  Ir  Ir9  1  0.818137  0.681863  0.758493  1
  Ir  Ir10  1  0.681863  0.181863  0.241507  1
  Ir  Ir11  1  0.318137  0.818137  0.241507  1
  Ir  Ir12  1  0.818137  0.681863  0.241507  1
  Ir  Ir13  1  0.181863  0.318137  0.241507  1
  Ir  Ir14  1  0.556584  0.704565  0.500000  1
  Ir  Ir15  1  0.443416  0.295435  0.500000  1
  Ir  Ir16  1  0.943416  0.204565  0.500000  1
  Ir  Ir17  1  0.056584  0.795435  0.500000  1
  Ir  Ir18  1  0.704565  0.443416  0.500000  1
  Ir  Ir19  1  0.295435  0.556584  0.500000  1
  Ir  Ir20  1  0.204565  0.056584  0.500000  1
  Ir  Ir21  1  0.795435  0.943416  0.500000  1
  Ir  Ir22  1  0.000000  0.500000  0.500000  1
  Ir  Ir23  1  0.500000  0.000000  0.500000  1
