# generated using pymatgen
data_La5Nd5(SnC)4
_symmetry_space_group_name_H-M   'P 1'
_cell_length_a   8.38702800
_cell_length_b   13.17250168
_cell_length_c   4.35793600
_cell_angle_alpha   90.00000000
_cell_angle_beta   90.00000000
_cell_angle_gamma   90.21608680
_symmetry_Int_Tables_number   1
_chemical_formula_structural   La5Nd5(SnC)4
_chemical_formula_sum   'La5 Nd5 Sn4 C4'
_cell_volume   481.45324133
_cell_formula_units_Z   1
loop_
 _symmetry_equiv_pos_site_id
 _symmetry_equiv_pos_as_xyz
  1  'x, y, z'
loop_
 _atom_site_type_symbol
 _atom_site_label
 _atom_site_symmetry_multiplicity
 _atom_site_fract_x
 _atom_site_fract_y
 _atom_site_fract_z
 _atom_site_occupancy
  La  La0  1  0.830065  0.791756  0.000000  1
  La  La1  1  0.835308  0.060469  0.499998  1
  La  La2  1  0.335091  0.440886  0.499998  1
  La  La3  1  0.664785  0.557798  0.499998  1
  La  La4  1  0.165735  0.942290  0.499998  1
  Nd  Nd5  1  0.498720  0.001179  0.000000  1
  Nd  Nd6  1  0.168898  0.208080  0.000000  1
  Nd  Nd7  1  0.667283  0.293066  0.000000  1
  Nd  Nd8  1  0.000921  0.498400  0.000000  1
  Nd  Nd9  1  0.331911  0.706373  0.000000  1
  Sn  Sn10  1  0.448220  0.173767  0.499998  1
  Sn  Sn11  1  0.948789  0.325470  0.499998  1
  Sn  Sn12  1  0.055121  0.670926  0.499998  1
  Sn  Sn13  1  0.544127  0.827803  0.499998  1
  C  C14  1  0.039379  0.046698  0.000000  1
  C  C15  1  0.538637  0.454189  0.000000  1
  C  C16  1  0.463507  0.546185  0.000000  1
  C  C17  1  0.963506  0.954666  0.000000  1
