# generated using pymatgen
data_SmDyZn2(Co3B)2
_symmetry_space_group_name_H-M   'P 1'
_cell_length_a   5.12397300
_cell_length_b   5.12325415
_cell_length_c   6.81354500
_cell_angle_alpha   90.00000000
_cell_angle_beta   90.00000000
_cell_angle_gamma   120.00463510
_symmetry_Int_Tables_number   1
_chemical_formula_structural   SmDyZn2(Co3B)2
_chemical_formula_sum   'Sm1 Dy1 Zn2 Co6 B2'
_cell_volume   154.89457495
_cell_formula_units_Z   1
loop_
 _symmetry_equiv_pos_site_id
 _symmetry_equiv_pos_as_xyz
  1  'x, y, z'
loop_
 _atom_site_type_symbol
 _atom_site_label
 _atom_site_symmetry_multiplicity
 _atom_site_fract_x
 _atom_site_fract_y
 _atom_site_fract_z
 _atom_site_occupancy
  Sm  Sm0  1  0.999979  0.000000  0.000000  1
  Dy  Dy1  1  0.999993  0.000000  0.500000  1
  Zn  Zn2  1  0.333308  0.666661  0.000000  1
  Zn  Zn3  1  0.666647  0.333339  0.000000  1
  Co  Co4  1  0.499988  0.000000  0.298004  1
  Co  Co5  1  0.499986  0.500002  0.298055  1
  Co  Co6  1  0.999983  0.499998  0.298055  1
  Co  Co7  1  0.499988  0.000000  0.701996  1
  Co  Co8  1  0.499986  0.500002  0.701945  1
  Co  Co9  1  0.999983  0.499998  0.701945  1
  B  B10  1  0.333332  0.666705  0.500000  1
  B  B11  1  0.666627  0.333295  0.500000  1
