# generated using pymatgen
data_Ca8Cd4InPb3
_symmetry_space_group_name_H-M   'P 1'
_cell_length_a   7.59547400
_cell_length_b   5.51285000
_cell_length_c   11.06694700
_cell_angle_alpha   90.00000000
_cell_angle_beta   89.99890621
_cell_angle_gamma   90.00000000
_symmetry_Int_Tables_number   1
_chemical_formula_structural   Ca8Cd4InPb3
_chemical_formula_sum   'Ca8 Cd4 In1 Pb3'
_cell_volume   463.40304949
_cell_formula_units_Z   1
loop_
 _symmetry_equiv_pos_site_id
 _symmetry_equiv_pos_as_xyz
  1  'x, y, z'
loop_
 _atom_site_type_symbol
 _atom_site_label
 _atom_site_symmetry_multiplicity
 _atom_site_fract_x
 _atom_site_fract_y
 _atom_site_fract_z
 _atom_site_occupancy
  Ca  Ca0  1  0.499570  0.750000  0.125252  1
  Ca  Ca1  1  0.000421  0.750000  0.125165  1
  Ca  Ca2  1  0.498404  0.250001  0.374330  1
  Ca  Ca3  1  0.001598  0.250001  0.374332  1
  Ca  Ca4  1  0.002172  0.750000  0.625139  1
  Ca  Ca5  1  0.497813  0.750000  0.625180  1
  Ca  Ca6  1  0.001864  0.250001  0.875332  1
  Ca  Ca7  1  0.498172  0.250001  0.875325  1
  Cd  Cd8  1  0.749998  0.250001  0.124535  1
  Cd  Cd9  1  0.249978  0.750000  0.364519  1
  Cd  Cd10  1  0.749984  0.250001  0.624659  1
  Cd  Cd11  1  0.249982  0.750000  0.886139  1
  In  In12  1  0.249900  0.250001  0.124821  1
  Pb  Pb13  1  0.750003  0.750000  0.374565  1
  Pb  Pb14  1  0.249981  0.250001  0.624683  1
  Pb  Pb15  1  0.750063  0.750000  0.876026  1
