# generated using pymatgen
data_Dy4Y(ZnB4)2
_symmetry_space_group_name_H-M   'P 1'
_cell_length_a   7.19952000
_cell_length_b   7.19952000
_cell_length_c   8.40883700
_cell_angle_alpha   90.00000000
_cell_angle_beta   90.00000000
_cell_angle_gamma   90.00000000
_symmetry_Int_Tables_number   1
_chemical_formula_structural   Dy4Y(ZnB4)2
_chemical_formula_sum   'Dy8 Y2 Zn4 B16'
_cell_volume   435.85599014
_cell_formula_units_Z   2
loop_
 _symmetry_equiv_pos_site_id
 _symmetry_equiv_pos_as_xyz
  1  'x, y, z'
loop_
 _atom_site_type_symbol
 _atom_site_label
 _atom_site_symmetry_multiplicity
 _atom_site_fract_x
 _atom_site_fract_y
 _atom_site_fract_z
 _atom_site_occupancy
  Dy  Dy0  1  0.681896  0.181896  0.212276  1
  Dy  Dy1  1  0.318104  0.818104  0.787724  1
  Dy  Dy2  1  0.318104  0.818104  0.212276  1
  Dy  Dy3  1  0.818104  0.681896  0.212276  1
  Dy  Dy4  1  0.818104  0.681896  0.787724  1
  Dy  Dy5  1  0.681896  0.181896  0.787724  1
  Dy  Dy6  1  0.181896  0.318104  0.787724  1
  Dy  Dy7  1  0.181896  0.318104  0.212276  1
  Y  Y8  1  0.000000  0.000000  0.500000  1
  Y  Y9  1  0.500000  0.500000  0.500000  1
  Zn  Zn10  1  0.117518  0.617518  0.500000  1
  Zn  Zn11  1  0.882482  0.382482  0.500000  1
  Zn  Zn12  1  0.382482  0.117518  0.500000  1
  Zn  Zn13  1  0.617518  0.882482  0.500000  1
  B  B14  1  0.171931  0.040447  0.000000  1
  B  B15  1  0.828069  0.959553  0.000000  1
  B  B16  1  0.959553  0.171931  0.000000  1
  B  B17  1  0.328069  0.540447  0.000000  1
  B  B18  1  0.040447  0.828069  0.000000  1
  B  B19  1  0.671931  0.459553  0.000000  1
  B  B20  1  0.540447  0.671931  0.000000  1
  B  B21  1  0.459553  0.328069  0.000000  1
  B  B22  1  0.090659  0.590659  0.000000  1
  B  B23  1  0.909341  0.409341  0.000000  1
  B  B24  1  0.409341  0.090659  0.000000  1
  B  B25  1  0.590659  0.909341  0.000000  1
  B  B26  1  0.000000  0.000000  0.157381  1
  B  B27  1  0.000000  0.000000  0.842619  1
  B  B28  1  0.500000  0.500000  0.842619  1
  B  B29  1  0.500000  0.500000  0.157381  1
