# generated using pymatgen
data_Zr5U4Ti(Sb3C)2
_symmetry_space_group_name_H-M   'P 1'
_cell_length_a   8.62929729
_cell_length_b   8.63449913
_cell_length_c   5.91240688
_cell_angle_alpha   90.00718277
_cell_angle_beta   90.05023033
_cell_angle_gamma   119.95393216
_symmetry_Int_Tables_number   1
_chemical_formula_structural   Zr5U4Ti(Sb3C)2
_chemical_formula_sum   'Zr5 U4 Ti1 Sb6 C2'
_cell_volume   381.68815692
_cell_formula_units_Z   1
loop_
 _symmetry_equiv_pos_site_id
 _symmetry_equiv_pos_as_xyz
  1  'x, y, z'
loop_
 _atom_site_type_symbol
 _atom_site_label
 _atom_site_symmetry_multiplicity
 _atom_site_fract_x
 _atom_site_fract_y
 _atom_site_fract_z
 _atom_site_occupancy
  Zr  Zr0  1  0.332933  0.665659  0.499279  1
  Zr  Zr1  1  0.332806  0.665383  0.000888  1
  Zr  Zr2  1  0.665423  0.332968  0.000387  1
  Zr  Zr3  1  0.777691  0.000059  0.750143  1
  Zr  Zr4  1  0.002089  0.778756  0.750358  1
  U  U5  1  0.778580  0.779395  0.249503  1
  U  U6  1  0.219744  0.999497  0.249553  1
  U  U7  1  0.001223  0.220523  0.249461  1
  U  U8  1  0.226001  0.226682  0.750386  1
  Ti  Ti9  1  0.665277  0.333035  0.499095  1
  Sb  Sb10  1  0.410149  0.405880  0.254181  1
  Sb  Sb11  1  0.593646  0.003927  0.254210  1
  Sb  Sb12  1  0.995505  0.589482  0.254219  1
  Sb  Sb13  1  0.605459  0.601371  0.746262  1
  Sb  Sb14  1  0.407607  0.000546  0.746615  1
  Sb  Sb15  1  0.991982  0.403047  0.745691  1
  C  C16  1  0.997063  0.997007  0.506808  1
  C  C17  1  0.996819  0.996782  0.992960  1
