# generated using pymatgen
data_Ca8TbSc11Sn16
_symmetry_space_group_name_H-M   'P 1'
_cell_length_a   7.68651256
_cell_length_b   8.13754530
_cell_length_c   15.25580273
_cell_angle_alpha   90.17639132
_cell_angle_beta   90.09079991
_cell_angle_gamma   91.34988577
_symmetry_Int_Tables_number   1
_chemical_formula_structural   Ca8TbSc11Sn16
_chemical_formula_sum   'Ca8 Tb1 Sc11 Sn16'
_cell_volume   953.96980128
_cell_formula_units_Z   1
loop_
 _symmetry_equiv_pos_site_id
 _symmetry_equiv_pos_as_xyz
  1  'x, y, z'
loop_
 _atom_site_type_symbol
 _atom_site_label
 _atom_site_symmetry_multiplicity
 _atom_site_fract_x
 _atom_site_fract_y
 _atom_site_fract_z
 _atom_site_occupancy
  Ca  Ca0  1  0.832831  0.662578  0.878361  1
  Ca  Ca1  1  0.510668  0.322304  0.907217  1
  Ca  Ca2  1  0.010742  0.178219  0.590172  1
  Ca  Ca3  1  0.492524  0.677310  0.408746  1
  Ca  Ca4  1  0.989721  0.821003  0.094571  1
  Ca  Ca5  1  0.493508  0.679358  0.092050  1
  Ca  Ca6  1  0.990983  0.821723  0.407899  1
  Ca  Ca7  1  0.509269  0.321656  0.591601  1
  Tb  Tb8  1  0.004948  0.182185  0.905131  1
  Sc  Sc9  1  0.336607  0.837081  0.873201  1
  Sc  Sc10  1  0.833815  0.660309  0.625185  1
  Sc  Sc11  1  0.664379  0.159418  0.374242  1
  Sc  Sc12  1  0.166201  0.339994  0.127233  1
  Sc  Sc13  1  0.660163  0.157811  0.128322  1
  Sc  Sc14  1  0.165787  0.340481  0.374694  1
  Sc  Sc15  1  0.333425  0.841166  0.623311  1
  Sc  Sc16  1  0.172063  0.498692  0.750324  1
  Sc  Sc17  1  0.672453  0.001809  0.749407  1
  Sc  Sc18  1  0.832262  0.499278  0.251235  1
  Sc  Sc19  1  0.325963  0.997438  0.249770  1
  Sn  Sn20  1  0.317957  0.046398  0.041427  1
  Sn  Sn21  1  0.828355  0.458463  0.455956  1
  Sn  Sn22  1  0.672693  0.957300  0.543416  1
  Sn  Sn23  1  0.182995  0.533051  0.957293  1
  Sn  Sn24  1  0.666572  0.968567  0.957316  1
  Sn  Sn25  1  0.171834  0.541276  0.544388  1
  Sn  Sn26  1  0.327613  0.043672  0.455474  1
  Sn  Sn27  1  0.832371  0.449243  0.048051  1
  Sn  Sn28  1  0.527360  0.634239  0.744640  1
  Sn  Sn29  1  0.035747  0.882347  0.747937  1
  Sn  Sn30  1  0.469526  0.365420  0.251259  1
  Sn  Sn31  1  0.966398  0.128225  0.251195  1
  Sn  Sn32  1  0.307156  0.139117  0.750422  1
  Sn  Sn33  1  0.811271  0.350247  0.746961  1
  Sn  Sn34  1  0.689133  0.860320  0.250850  1
  Sn  Sn35  1  0.194705  0.642300  0.250743  1
