# generated using pymatgen
data_Zr16Fe3NiOs4
_symmetry_space_group_name_H-M   'P 1'
_cell_length_a   8.68954162
_cell_length_b   8.68553879
_cell_length_c   8.68553900
_cell_angle_alpha   60.00000302
_cell_angle_beta   60.01523998
_cell_angle_gamma   60.01524027
_symmetry_Int_Tables_number   1
_chemical_formula_structural   Zr16Fe3NiOs4
_chemical_formula_sum   'Zr16 Fe3 Ni1 Os4'
_cell_volume   463.63415489
_cell_formula_units_Z   1
loop_
 _symmetry_equiv_pos_site_id
 _symmetry_equiv_pos_as_xyz
  1  'x, y, z'
loop_
 _atom_site_type_symbol
 _atom_site_label
 _atom_site_symmetry_multiplicity
 _atom_site_fract_x
 _atom_site_fract_y
 _atom_site_fract_z
 _atom_site_occupancy
  Zr  Zr0  1  0.049886  0.650038  0.650038  1
  Zr  Zr1  1  0.650579  0.056774  0.646324  1
  Zr  Zr2  1  0.650579  0.646324  0.056774  1
  Zr  Zr3  1  0.650579  0.646324  0.646324  1
  Zr  Zr4  1  0.800160  0.799843  0.199999  1
  Zr  Zr5  1  0.199775  0.209114  0.795556  1
  Zr  Zr6  1  0.800160  0.199999  0.799843  1
  Zr  Zr7  1  0.199775  0.795556  0.209114  1
  Zr  Zr8  1  0.199775  0.795556  0.795556  1
  Zr  Zr9  1  0.800160  0.199999  0.199999  1
  Zr  Zr10  1  0.436781  0.435647  0.063786  1
  Zr  Zr11  1  0.064137  0.063707  0.436078  1
  Zr  Zr12  1  0.436781  0.063786  0.435647  1
  Zr  Zr13  1  0.064137  0.436078  0.063707  1
  Zr  Zr14  1  0.064137  0.436078  0.436078  1
  Zr  Zr15  1  0.436781  0.063786  0.063786  1
  Fe  Fe16  1  0.859026  0.419176  0.860899  1
  Fe  Fe17  1  0.859026  0.860899  0.419176  1
  Fe  Fe18  1  0.859026  0.860899  0.860899  1
  Ni  Ni19  1  0.418704  0.860432  0.860432  1
  Os  Os20  1  0.745047  0.418318  0.418318  1
  Os  Os21  1  0.418331  0.744378  0.418646  1
  Os  Os22  1  0.418331  0.418646  0.744378  1
  Os  Os23  1  0.418331  0.418646  0.418646  1
