# generated using pymatgen
data_Sr3BAsO3
_symmetry_space_group_name_H-M   'P 1'
_cell_length_a   5.33338500
_cell_length_b   5.33338484
_cell_length_c   13.10039800
_cell_angle_alpha   90.00000000
_cell_angle_beta   90.00000000
_cell_angle_gamma   119.99999480
_symmetry_Int_Tables_number   1
_chemical_formula_structural   Sr3BAsO3
_chemical_formula_sum   'Sr6 B2 As2 O6'
_cell_volume   322.71637429
_cell_formula_units_Z   2
loop_
 _symmetry_equiv_pos_site_id
 _symmetry_equiv_pos_as_xyz
  1  'x, y, z'
loop_
 _atom_site_type_symbol
 _atom_site_label
 _atom_site_symmetry_multiplicity
 _atom_site_fract_x
 _atom_site_fract_y
 _atom_site_fract_z
 _atom_site_occupancy
  Sr  Sr0  1  0.333333  0.666667  0.396139  1
  Sr  Sr1  1  0.000000  0.000000  0.250000  1
  Sr  Sr2  1  0.000000  0.000000  0.750000  1
  Sr  Sr3  1  0.666667  0.333333  0.896139  1
  Sr  Sr4  1  0.666667  0.333333  0.603861  1
  Sr  Sr5  1  0.333333  0.666667  0.103861  1
  B  B6  1  0.333333  0.666667  0.750000  1
  B  B7  1  0.666667  0.333333  0.250000  1
  As  As8  1  0.000000  0.000000  0.000000  1
  As  As9  1  0.000000  0.000000  0.500000  1
  O  O10  1  0.516026  0.483974  0.250000  1
  O  O11  1  0.967949  0.483974  0.250000  1
  O  O12  1  0.483974  0.967949  0.750000  1
  O  O13  1  0.516026  0.032051  0.250000  1
  O  O14  1  0.032051  0.516026  0.750000  1
  O  O15  1  0.483974  0.516026  0.750000  1
