# generated using pymatgen
data_YHo6Co6Sn23
_symmetry_space_group_name_H-M   'P 1'
_cell_length_a   9.69338300
_cell_length_b   9.69338145
_cell_length_c   9.95657200
_cell_angle_alpha   90.00000000
_cell_angle_beta   90.00000000
_cell_angle_gamma   119.99999506
_symmetry_Int_Tables_number   1
_chemical_formula_structural   YHo6Co6Sn23
_chemical_formula_sum   'Y1 Ho6 Co6 Sn23'
_cell_volume   810.19800191
_cell_formula_units_Z   1
loop_
 _symmetry_equiv_pos_site_id
 _symmetry_equiv_pos_as_xyz
  1  'x, y, z'
loop_
 _atom_site_type_symbol
 _atom_site_label
 _atom_site_symmetry_multiplicity
 _atom_site_fract_x
 _atom_site_fract_y
 _atom_site_fract_z
 _atom_site_occupancy
  Y  Y0  1  0.000000  0.000000  0.000000  1
  Ho  Ho1  1  0.521409  0.478591  0.693322  1
  Ho  Ho2  1  0.521409  0.042818  0.693322  1
  Ho  Ho3  1  0.957182  0.478591  0.693322  1
  Ho  Ho4  1  0.042818  0.521409  0.306678  1
  Ho  Ho5  1  0.478591  0.957182  0.306678  1
  Ho  Ho6  1  0.478591  0.521409  0.306678  1
  Co  Co7  1  0.167830  0.832170  0.802746  1
  Co  Co8  1  0.167830  0.335660  0.802746  1
  Co  Co9  1  0.664340  0.832170  0.802746  1
  Co  Co10  1  0.335660  0.167830  0.197254  1
  Co  Co11  1  0.832170  0.664340  0.197254  1
  Co  Co12  1  0.832170  0.167830  0.197254  1
  Sn  Sn13  1  0.666667  0.333333  0.181369  1
  Sn  Sn14  1  0.666667  0.333333  0.882381  1
  Sn  Sn15  1  0.333333  0.666667  0.117619  1
  Sn  Sn16  1  0.346246  0.346246  0.000000  1
  Sn  Sn17  1  0.000000  0.653754  0.000000  1
  Sn  Sn18  1  0.653754  0.000000  0.000000  1
  Sn  Sn19  1  0.653754  0.653754  0.000000  1
  Sn  Sn20  1  0.333333  0.666667  0.818631  1
  Sn  Sn21  1  0.436874  0.218437  0.452027  1
  Sn  Sn22  1  0.218437  0.781563  0.547973  1
  Sn  Sn23  1  0.218437  0.436874  0.547973  1
  Sn  Sn24  1  0.563126  0.781563  0.547973  1
  Sn  Sn25  1  0.117961  0.882039  0.274251  1
  Sn  Sn26  1  0.781563  0.563126  0.452027  1
  Sn  Sn27  1  0.781563  0.218437  0.452027  1
  Sn  Sn28  1  0.346246  0.000000  0.000000  1
  Sn  Sn29  1  0.117961  0.235923  0.274251  1
  Sn  Sn30  1  0.764077  0.882039  0.274251  1
  Sn  Sn31  1  0.235923  0.117961  0.725749  1
  Sn  Sn32  1  0.882039  0.764077  0.725749  1
  Sn  Sn33  1  0.882039  0.117961  0.725749  1
  Sn  Sn34  1  0.000000  0.000000  0.500000  1
  Sn  Sn35  1  0.000000  0.346246  0.000000  1
