# generated using pymatgen
data_Tb3ErAl18(Ir2Pd)2
_symmetry_space_group_name_H-M   'P 1'
_cell_length_a   7.58565737
_cell_length_b   7.58650050
_cell_length_c   9.47029000
_cell_angle_alpha   90.00000000
_cell_angle_beta   90.00000000
_cell_angle_gamma   119.56161535
_symmetry_Int_Tables_number   1
_chemical_formula_structural   Tb3ErAl18(Ir2Pd)2
_chemical_formula_sum   'Tb3 Er1 Al18 Ir4 Pd2'
_cell_volume   474.05660198
_cell_formula_units_Z   1
loop_
 _symmetry_equiv_pos_site_id
 _symmetry_equiv_pos_as_xyz
  1  'x, y, z'
loop_
 _atom_site_type_symbol
 _atom_site_label
 _atom_site_symmetry_multiplicity
 _atom_site_fract_x
 _atom_site_fract_y
 _atom_site_fract_z
 _atom_site_occupancy
  Tb  Tb0  1  0.995617  0.671242  0.250000  1
  Tb  Tb1  1  0.004486  0.328700  0.750000  1
  Tb  Tb2  1  0.671153  0.995501  0.250000  1
  Er  Er3  1  0.328822  0.004293  0.750000  1
  Al  Al4  1  0.131112  0.130877  0.250000  1
  Al  Al5  1  0.869617  0.869198  0.750000  1
  Al  Al6  1  0.001167  0.338761  0.076350  1
  Al  Al7  1  0.999386  0.661951  0.923106  1
  Al  Al8  1  0.999386  0.661951  0.576894  1
  Al  Al9  1  0.338663  0.001168  0.424145  1
  Al  Al10  1  0.001167  0.338761  0.423650  1
  Al  Al11  1  0.660749  0.998868  0.576915  1
  Al  Al12  1  0.660749  0.998868  0.923085  1
  Al  Al13  1  0.338663  0.001168  0.075855  1
  Al  Al14  1  0.336930  0.336488  0.555322  1
  Al  Al15  1  0.662986  0.663002  0.445440  1
  Al  Al16  1  0.662986  0.663002  0.054560  1
  Al  Al17  1  0.336930  0.336488  0.944678  1
  Al  Al18  1  0.338322  0.548273  0.250000  1
  Al  Al19  1  0.661247  0.451049  0.750000  1
  Al  Al20  1  0.548177  0.338101  0.250000  1
  Al  Al21  1  0.451617  0.662147  0.750000  1
  Ir  Ir22  1  0.671826  0.327873  0.999656  1
  Ir  Ir23  1  0.327961  0.672094  0.999684  1
  Ir  Ir24  1  0.327961  0.672094  0.500316  1
  Ir  Ir25  1  0.671826  0.327873  0.500344  1
  Pd  Pd26  1  0.000246  0.000103  0.999723  1
  Pd  Pd27  1  0.000246  0.000103  0.500277  1
