# generated using pymatgen
data_Pr8Re3TcC8
_symmetry_space_group_name_H-M   'P 1'
_cell_length_a   5.40445500
_cell_length_b   6.75913011
_cell_length_c   10.30345717
_cell_angle_alpha   90.02063187
_cell_angle_beta   90.00000000
_cell_angle_gamma   90.00000000
_symmetry_Int_Tables_number   1
_chemical_formula_structural   Pr8Re3TcC8
_chemical_formula_sum   'Pr8 Re3 Tc1 C8'
_cell_volume   376.37923340
_cell_formula_units_Z   1
loop_
 _symmetry_equiv_pos_site_id
 _symmetry_equiv_pos_as_xyz
  1  'x, y, z'
loop_
 _atom_site_type_symbol
 _atom_site_label
 _atom_site_symmetry_multiplicity
 _atom_site_fract_x
 _atom_site_fract_y
 _atom_site_fract_z
 _atom_site_occupancy
  Pr  Pr0  1  0.750000  0.524899  0.787219  1
  Pr  Pr1  1  0.250000  0.974388  0.286622  1
  Pr  Pr2  1  0.750000  0.688984  0.449657  1
  Pr  Pr3  1  0.250000  0.812363  0.949790  1
  Pr  Pr4  1  0.750000  0.188673  0.050707  1
  Pr  Pr5  1  0.250000  0.310565  0.551129  1
  Pr  Pr6  1  0.250000  0.473833  0.213422  1
  Pr  Pr7  1  0.750000  0.025284  0.713901  1
  Re  Re8  1  0.250000  0.769002  0.643752  1
  Re  Re9  1  0.750000  0.231499  0.356268  1
  Re  Re10  1  0.750000  0.731377  0.143937  1
  Tc  Tc11  1  0.250000  0.268729  0.856203  1
  C  C12  1  0.250000  0.688284  0.464954  1
  C  C13  1  0.250000  0.533411  0.756676  1
  C  C14  1  0.750000  0.468198  0.242359  1
  C  C15  1  0.750000  0.811568  0.965123  1
  C  C16  1  0.250000  0.031373  0.741761  1
  C  C17  1  0.250000  0.188006  0.033691  1
  C  C18  1  0.750000  0.311729  0.534930  1
  C  C19  1  0.750000  0.967836  0.257901  1
