# generated using pymatgen
data_Nd8Zn3Si12Pt
_symmetry_space_group_name_H-M   'P 1'
_cell_length_a   8.20176900
_cell_length_b   8.20177021
_cell_length_c   8.58403400
_cell_angle_alpha   90.00000000
_cell_angle_beta   90.00000000
_cell_angle_gamma   119.99999107
_symmetry_Int_Tables_number   1
_chemical_formula_structural   Nd8Zn3Si12Pt
_chemical_formula_sum   'Nd8 Zn3 Si12 Pt1'
_cell_volume   500.07740343
_cell_formula_units_Z   1
loop_
 _symmetry_equiv_pos_site_id
 _symmetry_equiv_pos_as_xyz
  1  'x, y, z'
loop_
 _atom_site_type_symbol
 _atom_site_label
 _atom_site_symmetry_multiplicity
 _atom_site_fract_x
 _atom_site_fract_y
 _atom_site_fract_z
 _atom_site_occupancy
  Nd  Nd0  1  0.499424  0.500576  0.750755  1
  Nd  Nd1  1  0.500362  0.499638  0.249258  1
  Nd  Nd2  1  0.001152  0.500576  0.750755  1
  Nd  Nd3  1  0.999274  0.499638  0.249258  1
  Nd  Nd4  1  0.499424  0.998848  0.750755  1
  Nd  Nd5  1  0.500362  0.000726  0.249258  1
  Nd  Nd6  1  0.000000  0.000000  0.749530  1
  Nd  Nd7  1  0.000000  0.000000  0.250712  1
  Zn  Zn8  1  0.666667  0.333333  0.995803  1
  Zn  Zn9  1  0.333333  0.666667  0.003280  1
  Zn  Zn10  1  0.333333  0.666667  0.497722  1
  Si  Si11  1  0.833401  0.166599  0.000889  1
  Si  Si12  1  0.166304  0.833696  0.999411  1
  Si  Si13  1  0.333198  0.166599  0.000889  1
  Si  Si14  1  0.164166  0.835834  0.499903  1
  Si  Si15  1  0.667394  0.833696  0.999411  1
  Si  Si16  1  0.832301  0.167699  0.500328  1
  Si  Si17  1  0.833401  0.666802  0.000889  1
  Si  Si18  1  0.671666  0.835834  0.499903  1
  Si  Si19  1  0.166304  0.332606  0.999411  1
  Si  Si20  1  0.335397  0.167699  0.500328  1
  Si  Si21  1  0.164166  0.328334  0.499903  1
  Si  Si22  1  0.832301  0.664603  0.500328  1
  Pt  Pt23  1  0.666667  0.333333  0.501317  1
