# generated using pymatgen
data_Yb2BeSi3
_symmetry_space_group_name_H-M   'P 1'
_cell_length_a   8.06653539
_cell_length_b   7.87001587
_cell_length_c   5.82903376
_cell_angle_alpha   70.35465492
_cell_angle_beta   66.75817723
_cell_angle_gamma   42.88717310
_symmetry_Int_Tables_number   1
_chemical_formula_structural   Yb2BeSi3
_chemical_formula_sum   'Yb4 Be2 Si6'
_cell_volume   230.74561159
_cell_formula_units_Z   2
loop_
 _symmetry_equiv_pos_site_id
 _symmetry_equiv_pos_as_xyz
  1  'x, y, z'
loop_
 _atom_site_type_symbol
 _atom_site_label
 _atom_site_symmetry_multiplicity
 _atom_site_fract_x
 _atom_site_fract_y
 _atom_site_fract_z
 _atom_site_occupancy
  Yb  Yb0  1  0.250000  0.250000  0.250001  1
  Yb  Yb1  1  0.242913  0.757087  0.242914  1
  Yb  Yb2  1  0.757087  0.242914  0.757088  1
  Yb  Yb3  1  0.750001  0.749999  0.750000  1
  Be  Be4  1  0.666549  0.666550  0.333451  1
  Be  Be5  1  0.333450  0.333451  0.666550  1
  Si  Si6  1  0.825959  0.346274  0.174042  1
  Si  Si7  1  0.827501  0.827501  0.172500  1
  Si  Si8  1  0.653726  0.174042  0.346274  1
  Si  Si9  1  0.346274  0.825959  0.653727  1
  Si  Si10  1  0.172499  0.172500  0.827502  1
  Si  Si11  1  0.174041  0.653727  0.825959  1
