# generated using pymatgen
data_Sm3GeBr3
_symmetry_space_group_name_H-M   'P 1'
_cell_length_a   10.29005627
_cell_length_b   10.29005652
_cell_length_c   10.29005600
_cell_angle_alpha   109.47122157
_cell_angle_beta   109.47122208
_cell_angle_gamma   109.47121868
_symmetry_Int_Tables_number   1
_chemical_formula_structural   Sm3GeBr3
_chemical_formula_sum   'Sm12 Ge4 Br12'
_cell_volume   838.74772482
_cell_formula_units_Z   4
loop_
 _symmetry_equiv_pos_site_id
 _symmetry_equiv_pos_as_xyz
  1  'x, y, z'
loop_
 _atom_site_type_symbol
 _atom_site_label
 _atom_site_symmetry_multiplicity
 _atom_site_fract_x
 _atom_site_fract_y
 _atom_site_fract_z
 _atom_site_occupancy
  Sm  Sm0  1  0.478338  0.489170  0.239170  1
  Sm  Sm1  1  0.750000  0.239170  0.260830  1
  Sm  Sm2  1  0.750000  0.010830  0.489170  1
  Sm  Sm3  1  0.239170  0.478338  0.489170  1
  Sm  Sm4  1  0.260830  0.750000  0.239170  1
  Sm  Sm5  1  0.021662  0.260830  0.010830  1
  Sm  Sm6  1  0.010830  0.021662  0.260830  1
  Sm  Sm7  1  0.489170  0.750000  0.010830  1
  Sm  Sm8  1  0.489170  0.239170  0.478338  1
  Sm  Sm9  1  0.010830  0.489170  0.750000  1
  Sm  Sm10  1  0.260830  0.010830  0.021662  1
  Sm  Sm11  1  0.239170  0.260830  0.750000  1
  Ge  Ge12  1  0.250000  0.250000  0.250000  1
  Ge  Ge13  1  0.500000  0.000000  0.250000  1
  Ge  Ge14  1  0.000000  0.250000  0.500000  1
  Ge  Ge15  1  0.250000  0.500000  0.000000  1
  Br  Br16  1  0.250000  0.755043  0.744957  1
  Br  Br17  1  0.510084  0.505043  0.755043  1
  Br  Br18  1  0.989916  0.744957  0.994957  1
  Br  Br19  1  0.744957  0.250000  0.755043  1
  Br  Br20  1  0.994957  0.989916  0.744957  1
  Br  Br21  1  0.250000  0.994957  0.505043  1
  Br  Br22  1  0.755043  0.510084  0.505043  1
  Br  Br23  1  0.505043  0.250000  0.994957  1
  Br  Br24  1  0.755043  0.744957  0.250000  1
  Br  Br25  1  0.744957  0.994957  0.989916  1
  Br  Br26  1  0.994957  0.505043  0.250000  1
  Br  Br27  1  0.505043  0.755043  0.510084  1
