# generated using pymatgen
data_HfZr(NiPt2)2
_symmetry_space_group_name_H-M   'P 1'
_cell_length_a   5.61513100
_cell_length_b   5.59443468
_cell_length_c   9.11460900
_cell_angle_alpha   90.00000000
_cell_angle_beta   90.00000000
_cell_angle_gamma   120.12245830
_symmetry_Int_Tables_number   1
_chemical_formula_structural   HfZr(NiPt2)2
_chemical_formula_sum   'Hf2 Zr2 Ni4 Pt8'
_cell_volume   247.65525321
_cell_formula_units_Z   2
loop_
 _symmetry_equiv_pos_site_id
 _symmetry_equiv_pos_as_xyz
  1  'x, y, z'
loop_
 _atom_site_type_symbol
 _atom_site_label
 _atom_site_symmetry_multiplicity
 _atom_site_fract_x
 _atom_site_fract_y
 _atom_site_fract_z
 _atom_site_occupancy
  Hf  Hf0  1  0.666104  0.332207  0.750000  1
  Hf  Hf1  1  0.333896  0.667793  0.250000  1
  Zr  Zr2  1  0.000000  0.000000  0.500000  1
  Zr  Zr3  1  0.000000  0.000000  0.000000  1
  Ni  Ni4  1  0.175561  0.351120  0.750000  1
  Ni  Ni5  1  0.824439  0.648880  0.250000  1
  Ni  Ni6  1  0.500000  0.000000  0.500000  1
  Ni  Ni7  1  0.500000  0.000000  0.000000  1
  Pt  Pt8  1  0.000000  0.500000  0.000000  1
  Pt  Pt9  1  0.340639  0.161979  0.250000  1
  Pt  Pt10  1  0.500000  0.500000  0.000000  1
  Pt  Pt11  1  0.821339  0.161979  0.250000  1
  Pt  Pt12  1  0.500000  0.500000  0.500000  1
  Pt  Pt13  1  0.178661  0.838021  0.750000  1
  Pt  Pt14  1  0.659361  0.838021  0.750000  1
  Pt  Pt15  1  0.000000  0.500000  0.500000  1
