# generated using pymatgen
data_Nb3BrCl7
_symmetry_space_group_name_H-M   'P 1'
_cell_length_a   6.86253300
_cell_length_b   6.86253283
_cell_length_c   13.76920000
_cell_angle_alpha   90.00000000
_cell_angle_beta   90.00000000
_cell_angle_gamma   119.99999602
_symmetry_Int_Tables_number   1
_chemical_formula_structural   Nb3BrCl7
_chemical_formula_sum   'Nb6 Br2 Cl14'
_cell_volume   561.57561063
_cell_formula_units_Z   2
loop_
 _symmetry_equiv_pos_site_id
 _symmetry_equiv_pos_as_xyz
  1  'x, y, z'
loop_
 _atom_site_type_symbol
 _atom_site_label
 _atom_site_symmetry_multiplicity
 _atom_site_fract_x
 _atom_site_fract_y
 _atom_site_fract_z
 _atom_site_occupancy
  Nb  Nb0  1  0.528226  0.471774  0.757215  1
  Nb  Nb1  1  0.528226  0.056451  0.757215  1
  Nb  Nb2  1  0.471774  0.528226  0.242785  1
  Nb  Nb3  1  0.471774  0.943549  0.242785  1
  Nb  Nb4  1  0.056451  0.528226  0.242785  1
  Nb  Nb5  1  0.943549  0.471774  0.757215  1
  Br  Br6  1  0.666667  0.333333  0.611316  1
  Br  Br7  1  0.333333  0.666667  0.388684  1
  Cl  Cl8  1  0.834495  0.165505  0.339816  1
  Cl  Cl9  1  0.834495  0.668989  0.339816  1
  Cl  Cl10  1  0.331011  0.165505  0.339816  1
  Cl  Cl11  1  0.668989  0.834495  0.660184  1
  Cl  Cl12  1  0.165505  0.331011  0.660184  1
  Cl  Cl13  1  0.165505  0.834495  0.660184  1
  Cl  Cl14  1  0.170189  0.829811  0.123122  1
  Cl  Cl15  1  0.170189  0.340378  0.123122  1
  Cl  Cl16  1  0.333333  0.666667  0.856540  1
  Cl  Cl17  1  0.666667  0.333333  0.143460  1
  Cl  Cl18  1  0.829811  0.170189  0.876878  1
  Cl  Cl19  1  0.829811  0.659622  0.876878  1
  Cl  Cl20  1  0.340378  0.170189  0.876878  1
  Cl  Cl21  1  0.659622  0.829811  0.123122  1
