# generated using pymatgen
data_PrSm5Nb2(Co4P3)4
_symmetry_space_group_name_H-M   'P 1'
_cell_length_a   3.75212700
_cell_length_b   10.72324300
_cell_length_c   12.44604300
_cell_angle_alpha   90.00000000
_cell_angle_beta   90.00000000
_cell_angle_gamma   90.00000000
_symmetry_Int_Tables_number   1
_chemical_formula_structural   PrSm5Nb2(Co4P3)4
_chemical_formula_sum   'Pr1 Sm5 Nb2 Co16 P12'
_cell_volume   500.76616159
_cell_formula_units_Z   1
loop_
 _symmetry_equiv_pos_site_id
 _symmetry_equiv_pos_as_xyz
  1  'x, y, z'
loop_
 _atom_site_type_symbol
 _atom_site_label
 _atom_site_symmetry_multiplicity
 _atom_site_fract_x
 _atom_site_fract_y
 _atom_site_fract_z
 _atom_site_occupancy
  Pr  Pr0  1  0.000000  0.500000  0.526748  1
  Sm  Sm1  1  0.500000  0.000000  0.474030  1
  Sm  Sm2  1  0.500000  0.819961  0.205154  1
  Sm  Sm3  1  0.500000  0.180039  0.205154  1
  Sm  Sm4  1  0.000000  0.680381  0.795056  1
  Sm  Sm5  1  0.000000  0.319619  0.795056  1
  Nb  Nb6  1  0.500000  0.500000  0.154469  1
  Nb  Nb7  1  0.000000  0.000000  0.844682  1
  Co  Co8  1  0.500000  0.500000  0.704884  1
  Co  Co9  1  0.000000  0.000000  0.296558  1
  Co  Co10  1  0.000000  0.500000  0.986633  1
  Co  Co11  1  0.500000  0.000000  0.013354  1
  Co  Co12  1  0.500000  0.332109  0.992209  1
  Co  Co13  1  0.500000  0.667891  0.992209  1
  Co  Co14  1  0.000000  0.167553  0.007661  1
  Co  Co15  1  0.000000  0.832447  0.007661  1
  Co  Co16  1  0.500000  0.293608  0.431791  1
  Co  Co17  1  0.500000  0.706392  0.431791  1
  Co  Co18  1  0.000000  0.202931  0.568130  1
  Co  Co19  1  0.000000  0.797069  0.568130  1
  Co  Co20  1  0.500000  0.879472  0.705841  1
  Co  Co21  1  0.500000  0.120528  0.705841  1
  Co  Co22  1  0.000000  0.621494  0.294015  1
  Co  Co23  1  0.000000  0.378506  0.294015  1
  P  P24  1  0.500000  0.500000  0.885083  1
  P  P25  1  0.000000  0.000000  0.115261  1
  P  P26  1  0.500000  0.500000  0.350607  1
  P  P27  1  0.000000  0.000000  0.647305  1
  P  P28  1  0.500000  0.305590  0.615291  1
  P  P29  1  0.500000  0.694410  0.615291  1
  P  P30  1  0.000000  0.191323  0.385152  1
  P  P31  1  0.000000  0.808677  0.385152  1
  P  P32  1  0.500000  0.842776  0.895069  1
  P  P33  1  0.500000  0.157224  0.895069  1
  P  P34  1  0.000000  0.657488  0.104825  1
  P  P35  1  0.000000  0.342512  0.104825  1
