# generated using pymatgen
data_Dy2Y10Co4SnRh
_symmetry_space_group_name_H-M   'P 1'
_cell_length_a   8.33830740
_cell_length_b   8.34330090
_cell_length_c   8.34330135
_cell_angle_alpha   110.86794756
_cell_angle_beta   110.60399893
_cell_angle_gamma   106.99350774
_symmetry_Int_Tables_number   1
_chemical_formula_structural   Dy2Y10Co4SnRh
_chemical_formula_sum   'Dy2 Y10 Co4 Sn1 Rh1'
_cell_volume   446.06024117
_cell_formula_units_Z   1
loop_
 _symmetry_equiv_pos_site_id
 _symmetry_equiv_pos_as_xyz
  1  'x, y, z'
loop_
 _atom_site_type_symbol
 _atom_site_label
 _atom_site_symmetry_multiplicity
 _atom_site_fract_x
 _atom_site_fract_y
 _atom_site_fract_z
 _atom_site_occupancy
  Dy  Dy0  1  0.406114  0.210562  0.195552  1
  Dy  Dy1  1  0.593886  0.789438  0.804448  1
  Y  Y2  1  0.016342  0.211865  0.804475  1
  Y  Y3  1  0.983658  0.788135  0.195525  1
  Y  Y4  1  0.186639  0.291809  0.477840  1
  Y  Y5  1  0.813361  0.708191  0.522160  1
  Y  Y6  1  0.186639  0.708799  0.894830  1
  Y  Y7  1  0.813361  0.291201  0.105170  1
  Y  Y8  1  0.313555  0.618705  0.305631  1
  Y  Y9  1  0.686445  0.381295  0.694369  1
  Y  Y10  1  0.313555  0.007923  0.694849  1
  Y  Y11  1  0.686445  0.992077  0.305151  1
  Co  Co12  1  0.380316  0.000563  0.379753  1
  Co  Co13  1  0.619684  0.999437  0.620247  1
  Co  Co14  1  0.110656  0.610772  0.499884  1
  Co  Co15  1  0.889344  0.389228  0.500116  1
  Sn  Sn16  1  0.500000  0.500000  0.000000  1
  Rh  Rh17  1  0.000000  0.000000  0.000000  1
