# generated using pymatgen
data_YEr4Tm3Ga3Co
_symmetry_space_group_name_H-M   'P 1'
_cell_length_a   9.92905900
_cell_length_b   9.92906851
_cell_length_c   6.92109800
_cell_angle_alpha   90.00000000
_cell_angle_beta   90.00000000
_cell_angle_gamma   119.99937175
_symmetry_Int_Tables_number   1
_chemical_formula_structural   YEr4Tm3Ga3Co
_chemical_formula_sum   'Y2 Er8 Tm6 Ga6 Co2'
_cell_volume   590.91495092
_cell_formula_units_Z   2
loop_
 _symmetry_equiv_pos_site_id
 _symmetry_equiv_pos_as_xyz
  1  'x, y, z'
loop_
 _atom_site_type_symbol
 _atom_site_label
 _atom_site_symmetry_multiplicity
 _atom_site_fract_x
 _atom_site_fract_y
 _atom_site_fract_z
 _atom_site_occupancy
  Y  Y0  1  0.000001  0.000001  0.269668  1
  Y  Y1  1  0.999999  0.999999  0.769668  1
  Er  Er2  1  0.333333  0.666657  0.673260  1
  Er  Er3  1  0.666667  0.333343  0.173260  1
  Er  Er4  1  0.463710  0.536288  0.292916  1
  Er  Er5  1  0.536290  0.463712  0.792916  1
  Er  Er6  1  0.463705  0.927414  0.292918  1
  Er  Er7  1  0.072583  0.536294  0.292918  1
  Er  Er8  1  0.927417  0.463706  0.792918  1
  Er  Er9  1  0.536295  0.072586  0.792918  1
  Tm  Tm10  1  0.173926  0.826073  0.990524  1
  Tm  Tm11  1  0.826074  0.173927  0.490524  1
  Tm  Tm12  1  0.173926  0.347851  0.990525  1
  Tm  Tm13  1  0.652149  0.826074  0.990524  1
  Tm  Tm14  1  0.347851  0.173926  0.490524  1
  Tm  Tm15  1  0.826074  0.652149  0.490525  1
  Ga  Ga16  1  0.163470  0.836530  0.540891  1
  Ga  Ga17  1  0.836530  0.163470  0.040891  1
  Ga  Ga18  1  0.163471  0.326942  0.540890  1
  Ga  Ga19  1  0.673059  0.836529  0.540891  1
  Ga  Ga20  1  0.326941  0.163471  0.040891  1
  Ga  Ga21  1  0.836529  0.673058  0.040890  1
  Co  Co22  1  0.333333  0.666667  0.057137  1
  Co  Co23  1  0.666667  0.333333  0.557137  1
