# generated using pymatgen
data_Y8Hf11Si16Os
_symmetry_space_group_name_H-M   'P 1'
_cell_length_a   7.24742377
_cell_length_b   7.24742367
_cell_length_c   13.25946621
_cell_angle_alpha   89.88391981
_cell_angle_beta   90.11607916
_cell_angle_gamma   90.03141328
_symmetry_Int_Tables_number   1
_chemical_formula_structural   Y8Hf11Si16Os
_chemical_formula_sum   'Y8 Hf11 Si16 Os1'
_cell_volume   696.45249726
_cell_formula_units_Z   1
loop_
 _symmetry_equiv_pos_site_id
 _symmetry_equiv_pos_as_xyz
  1  'x, y, z'
loop_
 _atom_site_type_symbol
 _atom_site_label
 _atom_site_symmetry_multiplicity
 _atom_site_fract_x
 _atom_site_fract_y
 _atom_site_fract_z
 _atom_site_occupancy
  Y  Y0  1  0.998655  0.343702  0.211810  1
  Y  Y1  1  0.005063  0.654755  0.717433  1
  Y  Y2  1  0.155859  0.494778  0.465244  1
  Y  Y3  1  0.501865  0.846376  0.032699  1
  Y  Y4  1  0.846376  0.501865  0.967301  1
  Y  Y5  1  0.494778  0.155859  0.534756  1
  Y  Y6  1  0.343702  0.998655  0.788190  1
  Y  Y7  1  0.654755  0.005063  0.282567  1
  Hf  Hf8  1  0.824758  0.824758  0.500000  1
  Hf  Hf9  1  0.324384  0.674968  0.247883  1
  Hf  Hf10  1  0.674968  0.324384  0.752117  1
  Hf  Hf11  1  0.146907  0.997665  0.371877  1
  Hf  Hf12  1  0.852719  0.004529  0.878377  1
  Hf  Hf13  1  0.502893  0.647269  0.625385  1
  Hf  Hf14  1  0.351642  0.496496  0.877083  1
  Hf  Hf15  1  0.496496  0.351642  0.122917  1
  Hf  Hf16  1  0.647269  0.502893  0.374615  1
  Hf  Hf17  1  0.997665  0.146907  0.628123  1
  Hf  Hf18  1  0.004529  0.852719  0.121623  1
  Si  Si19  1  0.360481  0.295194  0.315239  1
  Si  Si20  1  0.639132  0.704966  0.818324  1
  Si  Si21  1  0.205616  0.861512  0.566937  1
  Si  Si22  1  0.136649  0.794453  0.931290  1
  Si  Si23  1  0.794453  0.136649  0.068710  1
  Si  Si24  1  0.861512  0.205616  0.433063  1
  Si  Si25  1  0.295194  0.360481  0.684761  1
  Si  Si26  1  0.704966  0.639132  0.181676  1
  Si  Si27  1  0.292735  0.054312  0.180134  1
  Si  Si28  1  0.704016  0.950640  0.686200  1
  Si  Si29  1  0.449387  0.796352  0.434779  1
  Si  Si30  1  0.206424  0.547777  0.064334  1
  Si  Si31  1  0.547777  0.206424  0.935666  1
  Si  Si32  1  0.796352  0.449387  0.565221  1
  Si  Si33  1  0.054312  0.292735  0.819866  1
  Si  Si34  1  0.950640  0.704016  0.313800  1
  Os  Os35  1  0.175076  0.175076  0.000000  1
