# generated using pymatgen
data_ErMgCoB6
_symmetry_space_group_name_H-M   'P 1'
_cell_length_a   3.39712300
_cell_length_b   8.83639700
_cell_length_c   11.20069600
_cell_angle_alpha   90.00000000
_cell_angle_beta   90.00000000
_cell_angle_gamma   90.00000000
_symmetry_Int_Tables_number   1
_chemical_formula_structural   ErMgCoB6
_chemical_formula_sum   'Er4 Mg4 Co4 B24'
_cell_volume   336.22616060
_cell_formula_units_Z   4
loop_
 _symmetry_equiv_pos_site_id
 _symmetry_equiv_pos_as_xyz
  1  'x, y, z'
loop_
 _atom_site_type_symbol
 _atom_site_label
 _atom_site_symmetry_multiplicity
 _atom_site_fract_x
 _atom_site_fract_y
 _atom_site_fract_z
 _atom_site_occupancy
  Er  Er0  1  0.000000  0.822271  0.086208  1
  Er  Er1  1  0.000000  0.177729  0.913792  1
  Er  Er2  1  0.000000  0.322271  0.413792  1
  Er  Er3  1  0.000000  0.677729  0.586208  1
  Mg  Mg4  1  0.000000  0.445759  0.124745  1
  Mg  Mg5  1  0.000000  0.554241  0.875255  1
  Mg  Mg6  1  0.000000  0.945759  0.375255  1
  Mg  Mg7  1  0.000000  0.054241  0.624745  1
  Co  Co8  1  0.000000  0.141498  0.182002  1
  Co  Co9  1  0.000000  0.858502  0.817998  1
  Co  Co10  1  0.000000  0.641498  0.317998  1
  Co  Co11  1  0.000000  0.358502  0.682002  1
  B  B12  1  0.500000  0.056519  0.068618  1
  B  B13  1  0.500000  0.943481  0.931382  1
  B  B14  1  0.500000  0.556519  0.431382  1
  B  B15  1  0.500000  0.443481  0.568618  1
  B  B16  1  0.500000  0.253630  0.082014  1
  B  B17  1  0.500000  0.746370  0.917986  1
  B  B18  1  0.500000  0.753630  0.417986  1
  B  B19  1  0.500000  0.246370  0.582014  1
  B  B20  1  0.500000  0.292460  0.234786  1
  B  B21  1  0.500000  0.707540  0.765214  1
  B  B22  1  0.500000  0.792460  0.265214  1
  B  B23  1  0.500000  0.207540  0.734786  1
  B  B24  1  0.500000  0.128513  0.317191  1
  B  B25  1  0.500000  0.871487  0.682809  1
  B  B26  1  0.500000  0.628513  0.182809  1
  B  B27  1  0.500000  0.371487  0.817191  1
  B  B28  1  0.500000  0.484018  0.285924  1
  B  B29  1  0.500000  0.515982  0.714076  1
  B  B30  1  0.500000  0.984018  0.214076  1
  B  B31  1  0.500000  0.015982  0.785924  1
  B  B32  1  0.500000  0.098003  0.473676  1
  B  B33  1  0.500000  0.901997  0.526324  1
  B  B34  1  0.500000  0.598003  0.026324  1
  B  B35  1  0.500000  0.401997  0.973676  1
