# generated using pymatgen
data_Cs(VS2)3
_symmetry_space_group_name_H-M   'P 1'
_cell_length_a   5.55721800
_cell_length_b   5.55721753
_cell_length_c   17.80315900
_cell_angle_alpha   90.00000000
_cell_angle_beta   90.00000000
_cell_angle_gamma   119.99999088
_symmetry_Int_Tables_number   1
_chemical_formula_structural   Cs(VS2)3
_chemical_formula_sum   'Cs2 V6 S12'
_cell_volume   476.14866729
_cell_formula_units_Z   2
loop_
 _symmetry_equiv_pos_site_id
 _symmetry_equiv_pos_as_xyz
  1  'x, y, z'
loop_
 _atom_site_type_symbol
 _atom_site_label
 _atom_site_symmetry_multiplicity
 _atom_site_fract_x
 _atom_site_fract_y
 _atom_site_fract_z
 _atom_site_occupancy
  Cs  Cs0  1  0.000000  0.000000  0.500000  1
  Cs  Cs1  1  0.000000  0.000000  0.000000  1
  V  V2  1  0.000000  0.000000  0.250000  1
  V  V3  1  0.000000  0.000000  0.750000  1
  V  V4  1  0.333333  0.666667  0.250000  1
  V  V5  1  0.666667  0.333333  0.750000  1
  V  V6  1  0.666667  0.333333  0.250000  1
  V  V7  1  0.333333  0.666667  0.750000  1
  S  S8  1  0.334660  0.000000  0.167258  1
  S  S9  1  0.000000  0.334660  0.167258  1
  S  S10  1  0.665340  0.665340  0.167258  1
  S  S11  1  0.334660  0.334660  0.667258  1
  S  S12  1  0.665340  0.665340  0.332742  1
  S  S13  1  0.665340  0.000000  0.667258  1
  S  S14  1  0.000000  0.665340  0.667258  1
  S  S15  1  0.000000  0.665340  0.832742  1
  S  S16  1  0.334660  0.334660  0.832742  1
  S  S17  1  0.000000  0.334660  0.332742  1
  S  S18  1  0.334660  0.000000  0.332742  1
  S  S19  1  0.665340  0.000000  0.832742  1
