# generated using pymatgen
data_TbThZn4
_symmetry_space_group_name_H-M   'P 1'
_cell_length_a   5.72907655
_cell_length_b   5.72907524
_cell_length_c   5.72907600
_cell_angle_alpha   133.09724320
_cell_angle_beta   101.57513103
_cell_angle_gamma   96.66757820
_symmetry_Int_Tables_number   1
_chemical_formula_structural   TbThZn4
_chemical_formula_sum   'Tb1 Th1 Zn4'
_cell_volume   125.80618904
_cell_formula_units_Z   1
loop_
 _symmetry_equiv_pos_site_id
 _symmetry_equiv_pos_as_xyz
  1  'x, y, z'
loop_
 _atom_site_type_symbol
 _atom_site_label
 _atom_site_symmetry_multiplicity
 _atom_site_fract_x
 _atom_site_fract_y
 _atom_site_fract_z
 _atom_site_occupancy
  Tb  Tb0  1  0.776189  0.526189  0.250000  1
  Th  Th1  1  0.217992  0.467992  0.750000  1
  Zn  Zn2  1  0.212473  0.167319  0.045154  1
  Zn  Zn3  1  0.791017  0.835591  0.955426  1
  Zn  Zn4  1  0.622164  0.167319  0.454846  1
  Zn  Zn5  1  0.380165  0.835591  0.544574  1
