# generated using pymatgen
data_Ac2Cu23Ni3
_symmetry_space_group_name_H-M   'P 1'
_cell_length_a   8.19820285
_cell_length_b   8.18292903
_cell_length_c   8.18763131
_cell_angle_alpha   60.10445381
_cell_angle_beta   60.06770028
_cell_angle_gamma   59.97620365
_symmetry_Int_Tables_number   1
_chemical_formula_structural   Ac2Cu23Ni3
_chemical_formula_sum   'Ac2 Cu23 Ni3'
_cell_volume   388.82670533
_cell_formula_units_Z   1
loop_
 _symmetry_equiv_pos_site_id
 _symmetry_equiv_pos_as_xyz
  1  'x, y, z'
loop_
 _atom_site_type_symbol
 _atom_site_label
 _atom_site_symmetry_multiplicity
 _atom_site_fract_x
 _atom_site_fract_y
 _atom_site_fract_z
 _atom_site_occupancy
  Ac  Ac0  1  0.247510  0.251912  0.249665  1
  Ac  Ac1  1  0.750335  0.749087  0.752490  1
  Cu  Cu2  1  0.206694  0.435301  0.793306  1
  Cu  Cu3  1  0.564654  0.793733  0.435346  1
  Cu  Cu4  1  0.436423  0.204878  0.563577  1
  Cu  Cu5  1  0.295650  0.935693  0.704350  1
  Cu  Cu6  1  0.704080  0.063497  0.295920  1
  Cu  Cu7  1  0.936655  0.300399  0.063345  1
  Cu  Cu8  1  0.062221  0.702012  0.937779  1
  Cu  Cu9  1  0.204919  0.795100  0.562695  1
  Cu  Cu10  1  0.795608  0.208216  0.434017  1
  Cu  Cu11  1  0.437305  0.562714  0.795081  1
  Cu  Cu12  1  0.565983  0.437841  0.204392  1
  Cu  Cu13  1  0.704960  0.294373  0.937365  1
  Cu  Cu14  1  0.295174  0.704182  0.063456  1
  Cu  Cu15  1  0.062635  0.936698  0.295040  1
  Cu  Cu16  1  0.936544  0.062812  0.704826  1
  Cu  Cu17  1  0.563925  0.203400  0.795488  1
  Cu  Cu18  1  0.437684  0.794690  0.204250  1
  Cu  Cu19  1  0.795750  0.436625  0.562316  1
  Cu  Cu20  1  0.204512  0.562813  0.436075  1
  Cu  Cu21  1  0.936562  0.704620  0.293161  1
  Cu  Cu22  1  0.062792  0.294696  0.705933  1
  Cu  Cu23  1  0.294067  0.063423  0.937208  1
  Cu  Cu24  1  0.706839  0.934344  0.063438  1
  Ni  Ni25  1  0.499862  0.500272  0.500138  1
  Ni  Ni26  1  0.000155  0.000749  0.999845  1
  Ni  Ni27  1  0.790504  0.565920  0.209496  1
