# generated using pymatgen
data_Nd2Y3Zr(SnIr)6
_symmetry_space_group_name_H-M   'P 1'
_cell_length_a   7.50833217
_cell_length_b   7.56912395
_cell_length_c   7.91798800
_cell_angle_alpha   90.00000000
_cell_angle_beta   90.00000000
_cell_angle_gamma   120.32180049
_symmetry_Int_Tables_number   1
_chemical_formula_structural   Nd2Y3Zr(SnIr)6
_chemical_formula_sum   'Nd2 Y3 Zr1 Sn6 Ir6'
_cell_volume   388.43391037
_cell_formula_units_Z   1
loop_
 _symmetry_equiv_pos_site_id
 _symmetry_equiv_pos_as_xyz
  1  'x, y, z'
loop_
 _atom_site_type_symbol
 _atom_site_label
 _atom_site_symmetry_multiplicity
 _atom_site_fract_x
 _atom_site_fract_y
 _atom_site_fract_z
 _atom_site_occupancy
  Nd  Nd0  1  0.592881  0.589682  0.750000  1
  Nd  Nd1  1  0.000817  0.411979  0.750000  1
  Y  Y2  1  0.406263  0.004238  0.250000  1
  Y  Y3  1  0.596144  0.597142  0.250000  1
  Y  Y4  1  0.402995  0.995803  0.750000  1
  Zr  Zr5  1  0.999295  0.398694  0.250000  1
  Sn  Sn6  1  0.262290  0.258576  0.496870  1
  Sn  Sn7  1  0.262290  0.258576  0.003130  1
  Sn  Sn8  1  0.736290  0.996964  0.000713  1
  Sn  Sn9  1  0.001965  0.745487  0.487887  1
  Sn  Sn10  1  0.736290  0.996964  0.499287  1
  Sn  Sn11  1  0.001965  0.745487  0.012113  1
  Ir  Ir12  1  0.678221  0.334449  0.483282  1
  Ir  Ir13  1  0.678221  0.334449  0.016718  1
  Ir  Ir14  1  0.320789  0.657805  0.020629  1
  Ir  Ir15  1  0.320789  0.657805  0.479371  1
  Ir  Ir16  1  0.003909  0.000884  0.750000  1
  Ir  Ir17  1  0.998583  0.015014  0.250000  1
