# generated using pymatgen
data_RbSb6
_symmetry_space_group_name_H-M   'P 1'
_cell_length_a   4.32033700
_cell_length_b   11.38681100
_cell_length_c   22.68116300
_cell_angle_alpha   90.00000000
_cell_angle_beta   90.00000000
_cell_angle_gamma   90.00000000
_symmetry_Int_Tables_number   1
_chemical_formula_structural   RbSb6
_chemical_formula_sum   'Rb4 Sb24'
_cell_volume   1115.79665828
_cell_formula_units_Z   4
loop_
 _symmetry_equiv_pos_site_id
 _symmetry_equiv_pos_as_xyz
  1  'x, y, z'
loop_
 _atom_site_type_symbol
 _atom_site_label
 _atom_site_symmetry_multiplicity
 _atom_site_fract_x
 _atom_site_fract_y
 _atom_site_fract_z
 _atom_site_occupancy
  Rb  Rb0  1  0.250000  0.737250  0.573418  1
  Rb  Rb1  1  0.750000  0.262750  0.426582  1
  Rb  Rb2  1  0.750000  0.762750  0.073418  1
  Rb  Rb3  1  0.250000  0.237250  0.926582  1
  Sb  Sb4  1  0.250000  0.613522  0.873788  1
  Sb  Sb5  1  0.750000  0.386478  0.126212  1
  Sb  Sb6  1  0.750000  0.886478  0.373788  1
  Sb  Sb7  1  0.250000  0.113522  0.626212  1
  Sb  Sb8  1  0.250000  0.629638  0.244482  1
  Sb  Sb9  1  0.750000  0.370362  0.755518  1
  Sb  Sb10  1  0.750000  0.870362  0.744482  1
  Sb  Sb11  1  0.250000  0.129638  0.255518  1
  Sb  Sb12  1  0.250000  0.492335  0.049969  1
  Sb  Sb13  1  0.750000  0.507665  0.950031  1
  Sb  Sb14  1  0.750000  0.007665  0.549969  1
  Sb  Sb15  1  0.250000  0.992335  0.450031  1
  Sb  Sb16  1  0.250000  0.844351  0.923870  1
  Sb  Sb17  1  0.750000  0.155649  0.076130  1
  Sb  Sb18  1  0.750000  0.655649  0.423870  1
  Sb  Sb19  1  0.250000  0.344351  0.576130  1
  Sb  Sb20  1  0.250000  0.033923  0.135802  1
  Sb  Sb21  1  0.750000  0.966077  0.864198  1
  Sb  Sb22  1  0.750000  0.466077  0.635802  1
  Sb  Sb23  1  0.250000  0.533923  0.364198  1
  Sb  Sb24  1  0.250000  0.700613  0.748546  1
  Sb  Sb25  1  0.750000  0.299387  0.251454  1
  Sb  Sb26  1  0.750000  0.799387  0.248546  1
  Sb  Sb27  1  0.250000  0.200613  0.751454  1
