# generated using pymatgen
data_Lu4ReMoOs6
_symmetry_space_group_name_H-M   'P 1'
_cell_length_a   5.31929069
_cell_length_b   5.38097754
_cell_length_c   8.83467200
_cell_angle_alpha   90.00000000
_cell_angle_beta   90.00000000
_cell_angle_gamma   121.77882983
_symmetry_Int_Tables_number   1
_chemical_formula_structural   Lu4ReMoOs6
_chemical_formula_sum   'Lu4 Re1 Mo1 Os6'
_cell_volume   214.96555778
_cell_formula_units_Z   1
loop_
 _symmetry_equiv_pos_site_id
 _symmetry_equiv_pos_as_xyz
  1  'x, y, z'
loop_
 _atom_site_type_symbol
 _atom_site_label
 _atom_site_symmetry_multiplicity
 _atom_site_fract_x
 _atom_site_fract_y
 _atom_site_fract_z
 _atom_site_occupancy
  Lu  Lu0  1  0.339928  0.668621  0.436986  1
  Lu  Lu1  1  0.667365  0.338012  0.565292  1
  Lu  Lu2  1  0.667365  0.338012  0.934708  1
  Lu  Lu3  1  0.339928  0.668621  0.063014  1
  Re  Re4  1  0.164225  0.333050  0.750000  1
  Mo  Mo5  1  0.334680  0.163531  0.250000  1
  Os  Os6  1  0.167365  0.822197  0.750000  1
  Os  Os7  1  0.825049  0.648359  0.250000  1
  Os  Os8  1  0.644006  0.817588  0.750000  1
  Os  Os9  1  0.010861  0.015960  0.998504  1
  Os  Os10  1  0.828364  0.170093  0.250000  1
  Os  Os11  1  0.010861  0.015960  0.501496  1
