# generated using pymatgen
data_Ho20Ir11Au
_symmetry_space_group_name_H-M   'P 1'
_cell_length_a   10.90822438
_cell_length_b   10.90822438
_cell_length_c   6.33222620
_cell_angle_alpha   89.95084599
_cell_angle_beta   89.95084599
_cell_angle_gamma   89.67300889
_symmetry_Int_Tables_number   1
_chemical_formula_structural   Ho20Ir11Au
_chemical_formula_sum   'Ho20 Ir11 Au1'
_cell_volume   753.45471505
_cell_formula_units_Z   1
loop_
 _symmetry_equiv_pos_site_id
 _symmetry_equiv_pos_as_xyz
  1  'x, y, z'
loop_
 _atom_site_type_symbol
 _atom_site_label
 _atom_site_symmetry_multiplicity
 _atom_site_fract_x
 _atom_site_fract_y
 _atom_site_fract_z
 _atom_site_occupancy
  Ho  Ho0  1  0.290716  0.088221  0.377097  1
  Ho  Ho1  1  0.292330  0.911331  0.876263  1
  Ho  Ho2  1  0.704120  0.085097  0.867492  1
  Ho  Ho3  1  0.705878  0.905777  0.380195  1
  Ho  Ho4  1  0.587929  0.791215  0.878597  1
  Ho  Ho5  1  0.580591  0.209684  0.379368  1
  Ho  Ho6  1  0.411387  0.791406  0.377756  1
  Ho  Ho7  1  0.410909  0.208563  0.877686  1
  Ho  Ho8  1  0.208785  0.412071  0.621403  1
  Ho  Ho9  1  0.208594  0.588613  0.122244  1
  Ho  Ho10  1  0.790316  0.419409  0.120632  1
  Ho  Ho11  1  0.791437  0.589091  0.622314  1
  Ho  Ho12  1  0.911779  0.709284  0.122903  1
  Ho  Ho13  1  0.914903  0.295880  0.632508  1
  Ho  Ho14  1  0.088669  0.707670  0.623737  1
  Ho  Ho15  1  0.094223  0.294122  0.119805  1
  Ho  Ho16  1  0.003818  0.996247  0.501883  1
  Ho  Ho17  1  0.003753  0.996182  0.998117  1
  Ho  Ho18  1  0.499438  0.499898  0.999246  1
  Ho  Ho19  1  0.500102  0.500562  0.500754  1
  Ir  Ir20  1  0.846367  0.847730  0.749476  1
  Ir  Ir21  1  0.152270  0.153633  0.750524  1
  Ir  Ir22  1  0.154533  0.845467  0.250000  1
  Ir  Ir23  1  0.655077  0.344923  0.750000  1
  Ir  Ir24  1  0.653864  0.652963  0.249090  1
  Ir  Ir25  1  0.347037  0.346136  0.250910  1
  Ir  Ir26  1  0.346290  0.653710  0.750000  1
  Ir  Ir27  1  0.500751  0.000288  0.123849  1
  Ir  Ir28  1  0.500309  0.000690  0.621315  1
  Ir  Ir29  1  0.999310  0.499691  0.878685  1
  Ir  Ir30  1  0.999712  0.499249  0.376151  1
  Au  Au31  1  0.844802  0.155198  0.250000  1
