# generated using pymatgen
data_Ac4P3Se
_symmetry_space_group_name_H-M   'P 1'
_cell_length_a   4.44909563
_cell_length_b   9.96459874
_cell_length_c   11.78599284
_cell_angle_alpha   40.40026752
_cell_angle_beta   124.48202798
_cell_angle_gamma   132.03117997
_symmetry_Int_Tables_number   1
_chemical_formula_structural   Ac4P3Se
_chemical_formula_sum   'Ac4 P3 Se1'
_cell_volume   249.82075911
_cell_formula_units_Z   1
loop_
 _symmetry_equiv_pos_site_id
 _symmetry_equiv_pos_as_xyz
  1  'x, y, z'
loop_
 _atom_site_type_symbol
 _atom_site_label
 _atom_site_symmetry_multiplicity
 _atom_site_fract_x
 _atom_site_fract_y
 _atom_site_fract_z
 _atom_site_occupancy
  Ac  Ac0  1  0.501141  0.397139  0.284022  1
  Ac  Ac1  1  0.743560  0.659526  0.516927  1
  Ac  Ac2  1  0.229351  0.133951  0.032510  1
  Ac  Ac3  1  0.016474  0.922839  0.768510  1
  P  P4  1  0.879590  0.281418  0.652108  1
  P  P5  1  0.365678  0.775375  0.148815  1
  P  P6  1  0.622307  0.028261  0.400570  1
  Se  Se7  1  0.122967  0.528383  0.900499  1
