# generated using pymatgen
data_Y4Ga4Ir3Pd
_symmetry_space_group_name_H-M   'P 1'
_cell_length_a   4.42534500
_cell_length_b   6.83630514
_cell_length_c   7.72807547
_cell_angle_alpha   90.10923522
_cell_angle_beta   90.00000000
_cell_angle_gamma   90.00000000
_symmetry_Int_Tables_number   1
_chemical_formula_structural   Y4Ga4Ir3Pd
_chemical_formula_sum   'Y4 Ga4 Ir3 Pd1'
_cell_volume   233.79711016
_cell_formula_units_Z   1
loop_
 _symmetry_equiv_pos_site_id
 _symmetry_equiv_pos_as_xyz
  1  'x, y, z'
loop_
 _atom_site_type_symbol
 _atom_site_label
 _atom_site_symmetry_multiplicity
 _atom_site_fract_x
 _atom_site_fract_y
 _atom_site_fract_z
 _atom_site_occupancy
  Y  Y0  1  0.250000  0.982658  0.307865  1
  Y  Y1  1  0.250000  0.485796  0.197957  1
  Y  Y2  1  0.750000  0.015769  0.689164  1
  Y  Y3  1  0.750000  0.524570  0.806056  1
  Ga  Ga4  1  0.250000  0.338051  0.570336  1
  Ga  Ga5  1  0.250000  0.831550  0.926608  1
  Ga  Ga6  1  0.750000  0.663175  0.425776  1
  Ga  Ga7  1  0.750000  0.162940  0.074533  1
  Ir  Ir8  1  0.250000  0.726321  0.603776  1
  Ir  Ir9  1  0.750000  0.773745  0.102645  1
  Ir  Ir10  1  0.750000  0.271827  0.397394  1
  Pd  Pd11  1  0.250000  0.223597  0.897889  1
