# generated using pymatgen
data_CsS8I3
_symmetry_space_group_name_H-M   'P 1'
_cell_length_a   8.34187938
_cell_length_b   11.75196010
_cell_length_c   12.05981748
_cell_angle_alpha   104.64773990
_cell_angle_beta   97.13742167
_cell_angle_gamma   109.08903762
_symmetry_Int_Tables_number   1
_chemical_formula_structural   CsS8I3
_chemical_formula_sum   'Cs2 S16 I6'
_cell_volume   1052.88802564
_cell_formula_units_Z   2
loop_
 _symmetry_equiv_pos_site_id
 _symmetry_equiv_pos_as_xyz
  1  'x, y, z'
loop_
 _atom_site_type_symbol
 _atom_site_label
 _atom_site_symmetry_multiplicity
 _atom_site_fract_x
 _atom_site_fract_y
 _atom_site_fract_z
 _atom_site_occupancy
  Cs  Cs0  1  0.115965  0.848009  0.135233  1
  Cs  Cs1  1  0.884037  0.151990  0.864768  1
  S  S2  1  0.767386  0.495181  0.129752  1
  S  S3  1  0.928744  0.400469  0.164610  1
  S  S4  1  0.184687  0.523225  0.197476  1
  S  S5  1  0.689764  0.561783  0.280416  1
  S  S6  1  0.849821  0.749624  0.365448  1
  S  S7  1  0.281588  0.598743  0.376790  1
  S  S8  1  0.265491  0.775244  0.433143  1
  S  S9  1  0.956626  0.240633  0.502925  1
  S  S10  1  0.043374  0.759367  0.497075  1
  S  S11  1  0.734509  0.224756  0.566858  1
  S  S12  1  0.718412  0.401257  0.623210  1
  S  S13  1  0.150179  0.250376  0.634553  1
  S  S14  1  0.310236  0.438217  0.719585  1
  S  S15  1  0.815313  0.476775  0.802524  1
  S  S16  1  0.071257  0.599531  0.835390  1
  S  S17  1  0.232614  0.504820  0.870247  1
  I  I18  1  0.679304  0.850254  0.963483  1
  I  I19  1  0.608737  0.904652  0.202030  1
  I  I20  1  0.243755  0.201828  0.272286  1
  I  I21  1  0.756244  0.798172  0.727713  1
  I  I22  1  0.391263  0.095349  0.797971  1
  I  I23  1  0.320697  0.149746  0.036517  1
