# generated using pymatgen
data_YTm3(ZrRh)4
_symmetry_space_group_name_H-M   'P 1'
_cell_length_a   4.57308700
_cell_length_b   7.06555628
_cell_length_c   8.23464899
_cell_angle_alpha   90.02750863
_cell_angle_beta   90.00000000
_cell_angle_gamma   90.00000000
_symmetry_Int_Tables_number   1
_chemical_formula_structural   YTm3(ZrRh)4
_chemical_formula_sum   'Y1 Tm3 Zr4 Rh4'
_cell_volume   266.07303614
_cell_formula_units_Z   1
loop_
 _symmetry_equiv_pos_site_id
 _symmetry_equiv_pos_as_xyz
  1  'x, y, z'
loop_
 _atom_site_type_symbol
 _atom_site_label
 _atom_site_symmetry_multiplicity
 _atom_site_fract_x
 _atom_site_fract_y
 _atom_site_fract_z
 _atom_site_occupancy
  Y  Y0  1  0.250000  0.983465  0.323249  1
  Tm  Tm1  1  0.750000  0.517697  0.824010  1
  Tm  Tm2  1  0.250000  0.481894  0.175085  1
  Tm  Tm3  1  0.750000  0.018423  0.676357  1
  Zr  Zr4  1  0.750000  0.642977  0.424408  1
  Zr  Zr5  1  0.750000  0.144376  0.074288  1
  Zr  Zr6  1  0.250000  0.357428  0.577452  1
  Zr  Zr7  1  0.250000  0.854820  0.922787  1
  Rh  Rh8  1  0.750000  0.763517  0.090812  1
  Rh  Rh9  1  0.750000  0.267423  0.409454  1
  Rh  Rh10  1  0.250000  0.234142  0.907787  1
  Rh  Rh11  1  0.250000  0.733836  0.594309  1
