# generated using pymatgen
data_CsGePRh2
_symmetry_space_group_name_H-M   'P 1'
_cell_length_a   8.05090286
_cell_length_b   8.05090309
_cell_length_c   8.05090268
_cell_angle_alpha   151.03160666
_cell_angle_beta   151.03161642
_cell_angle_gamma   41.42918842
_symmetry_Int_Tables_number   1
_chemical_formula_structural   CsGePRh2
_chemical_formula_sum   'Cs1 Ge1 P1 Rh2'
_cell_volume   122.13552234
_cell_formula_units_Z   1
loop_
 _symmetry_equiv_pos_site_id
 _symmetry_equiv_pos_as_xyz
  1  'x, y, z'
loop_
 _atom_site_type_symbol
 _atom_site_label
 _atom_site_symmetry_multiplicity
 _atom_site_fract_x
 _atom_site_fract_y
 _atom_site_fract_z
 _atom_site_occupancy
  Cs  Cs0  1  0.006836  0.006836  0.000000  1
  Ge  Ge1  1  0.340355  0.340355  0.000000  1
  P  P2  1  0.666402  0.666402  0.000000  1
  Rh  Rh3  1  0.743204  0.243204  0.500000  1
  Rh  Rh4  1  0.243204  0.743204  0.500000  1
