# generated using pymatgen
data_Dy2Y6Re(TcB8)3
_symmetry_space_group_name_H-M   'P 1'
_cell_length_a   3.69051100
_cell_length_b   9.18328139
_cell_length_c   11.56929212
_cell_angle_alpha   90.03984037
_cell_angle_beta   90.00000000
_cell_angle_gamma   90.00000000
_symmetry_Int_Tables_number   1
_chemical_formula_structural   Dy2Y6Re(TcB8)3
_chemical_formula_sum   'Dy2 Y6 Re1 Tc3 B24'
_cell_volume   392.09479598
_cell_formula_units_Z   1
loop_
 _symmetry_equiv_pos_site_id
 _symmetry_equiv_pos_as_xyz
  1  'x, y, z'
loop_
 _atom_site_type_symbol
 _atom_site_label
 _atom_site_symmetry_multiplicity
 _atom_site_fract_x
 _atom_site_fract_y
 _atom_site_fract_z
 _atom_site_occupancy
  Dy  Dy0  1  0.000000  0.442551  0.130847  1
  Dy  Dy1  1  0.000000  0.556293  0.869709  1
  Y  Y2  1  0.000000  0.324148  0.414184  1
  Y  Y3  1  0.000000  0.676130  0.585810  1
  Y  Y4  1  0.000000  0.823747  0.085919  1
  Y  Y5  1  0.000000  0.176492  0.914390  1
  Y  Y6  1  0.000000  0.942631  0.369209  1
  Y  Y7  1  0.000000  0.057916  0.629823  1
  Re  Re8  1  0.000000  0.861545  0.820732  1
  Tc  Tc9  1  0.000000  0.638364  0.320683  1
  Tc  Tc10  1  0.000000  0.361683  0.679309  1
  Tc  Tc11  1  0.000000  0.138636  0.179406  1
  B  B12  1  0.500000  0.553569  0.432793  1
  B  B13  1  0.500000  0.446698  0.567287  1
  B  B14  1  0.500000  0.053525  0.067389  1
  B  B15  1  0.500000  0.946701  0.932891  1
  B  B16  1  0.500000  0.748761  0.418401  1
  B  B17  1  0.500000  0.251578  0.581477  1
  B  B18  1  0.500000  0.248702  0.081728  1
  B  B19  1  0.500000  0.750810  0.918483  1
  B  B20  1  0.500000  0.791502  0.265107  1
  B  B21  1  0.500000  0.208516  0.734686  1
  B  B22  1  0.500000  0.291523  0.234817  1
  B  B23  1  0.500000  0.708131  0.765380  1
  B  B24  1  0.500000  0.630733  0.185882  1
  B  B25  1  0.500000  0.368979  0.814128  1
  B  B26  1  0.500000  0.130953  0.314180  1
  B  B27  1  0.500000  0.869291  0.685668  1
  B  B28  1  0.500000  0.982626  0.211484  1
  B  B29  1  0.500000  0.017646  0.788251  1
  B  B30  1  0.500000  0.482714  0.288391  1
  B  B31  1  0.500000  0.517229  0.711783  1
  B  B32  1  0.500000  0.600040  0.028089  1
  B  B33  1  0.500000  0.399335  0.972155  1
  B  B34  1  0.500000  0.100429  0.471681  1
  B  B35  1  0.500000  0.899872  0.527849  1
