# generated using pymatgen
data_Sr3Pr5(As7Ir8)2
_symmetry_space_group_name_H-M   'P 1'
_cell_length_a   4.15521400
_cell_length_b   13.32478544
_cell_length_c   13.72306748
_cell_angle_alpha   81.51267448
_cell_angle_beta   90.00000000
_cell_angle_gamma   90.00000000
_symmetry_Int_Tables_number   1
_chemical_formula_structural   Sr3Pr5(As7Ir8)2
_chemical_formula_sum   'Sr3 Pr5 As14 Ir16'
_cell_volume   751.48864649
_cell_formula_units_Z   1
loop_
 _symmetry_equiv_pos_site_id
 _symmetry_equiv_pos_as_xyz
  1  'x, y, z'
loop_
 _atom_site_type_symbol
 _atom_site_label
 _atom_site_symmetry_multiplicity
 _atom_site_fract_x
 _atom_site_fract_y
 _atom_site_fract_z
 _atom_site_occupancy
  Sr  Sr0  1  0.250000  0.103155  0.792859  1
  Sr  Sr1  1  0.750000  0.896713  0.206934  1
  Sr  Sr2  1  0.250000  0.286736  0.104166  1
  Pr  Pr3  1  0.750000  0.713062  0.896449  1
  Pr  Pr4  1  0.250000  0.520151  0.292781  1
  Pr  Pr5  1  0.750000  0.480237  0.706414  1
  Pr  Pr6  1  0.250000  0.210438  0.438150  1
  Pr  Pr7  1  0.750000  0.790997  0.561067  1
  As  As8  1  0.250000  0.057920  0.098948  1
  As  As9  1  0.750000  0.940640  0.899891  1
  As  As10  1  0.250000  0.312499  0.686395  1
  As  As11  1  0.750000  0.686884  0.313185  1
  As  As12  1  0.250000  0.607776  0.566635  1
  As  As13  1  0.750000  0.393355  0.435339  1
  As  As14  1  0.250000  0.846586  0.721063  1
  As  As15  1  0.750000  0.153431  0.279121  1
  As  As16  1  0.750000  0.256679  0.917476  1
  As  As17  1  0.250000  0.741705  0.080805  1
  As  As18  1  0.750000  0.094499  0.586955  1
  As  As19  1  0.250000  0.905025  0.413995  1
  As  As20  1  0.750000  0.470940  0.128265  1
  As  As21  1  0.250000  0.528658  0.871836  1
  Ir  Ir22  1  0.250000  0.987095  0.574304  1
  Ir  Ir23  1  0.750000  0.013377  0.425601  1
  Ir  Ir24  1  0.250000  0.664729  0.733447  1
  Ir  Ir25  1  0.750000  0.336165  0.271962  1
  Ir  Ir26  1  0.250000  0.555822  0.045848  1
  Ir  Ir27  1  0.750000  0.448453  0.950415  1
  Ir  Ir28  1  0.250000  0.057844  0.279127  1
  Ir  Ir29  1  0.750000  0.940387  0.721155  1
  Ir  Ir30  1  0.250000  0.426523  0.526124  1
  Ir  Ir31  1  0.750000  0.575010  0.475476  1
  Ir  Ir32  1  0.250000  0.918952  0.996913  1
  Ir  Ir33  1  0.750000  0.078111  0.001680  1
  Ir  Ir34  1  0.250000  0.721163  0.402572  1
  Ir  Ir35  1  0.750000  0.278300  0.597795  1
  Ir  Ir36  1  0.250000  0.345199  0.859374  1
  Ir  Ir37  1  0.750000  0.654784  0.139478  1
