# generated using pymatgen
data_Tb3Er9Ni4
_symmetry_space_group_name_H-M   'P 1'
_cell_length_a   6.30985008
_cell_length_b   6.78797309
_cell_length_c   9.46926000
_cell_angle_alpha   90.00000000
_cell_angle_beta   90.00000000
_cell_angle_gamma   90.01850335
_symmetry_Int_Tables_number   1
_chemical_formula_structural   Tb3Er9Ni4
_chemical_formula_sum   'Tb3 Er9 Ni4'
_cell_volume   405.57873030
_cell_formula_units_Z   1
loop_
 _symmetry_equiv_pos_site_id
 _symmetry_equiv_pos_as_xyz
  1  'x, y, z'
loop_
 _atom_site_type_symbol
 _atom_site_label
 _atom_site_symmetry_multiplicity
 _atom_site_fract_x
 _atom_site_fract_y
 _atom_site_fract_z
 _atom_site_occupancy
  Tb  Tb0  1  0.861802  0.531968  0.250000  1
  Tb  Tb1  1  0.638129  0.032103  0.250000  1
  Tb  Tb2  1  0.138557  0.468105  0.750000  1
  Er  Er3  1  0.321016  0.678623  0.065542  1
  Er  Er4  1  0.179280  0.178043  0.434452  1
  Er  Er5  1  0.678892  0.321539  0.565866  1
  Er  Er6  1  0.820509  0.821912  0.934117  1
  Er  Er7  1  0.678892  0.321539  0.934134  1
  Er  Er8  1  0.820509  0.821912  0.565883  1
  Er  Er9  1  0.321016  0.678623  0.434458  1
  Er  Er10  1  0.179280  0.178043  0.065548  1
  Er  Er11  1  0.361615  0.967326  0.750000  1
  Ni  Ni12  1  0.056848  0.892129  0.250000  1
  Ni  Ni13  1  0.442649  0.392161  0.250000  1
  Ni  Ni14  1  0.944548  0.107091  0.750000  1
  Ni  Ni15  1  0.556459  0.608882  0.750000  1
