# generated using pymatgen
data_Tm12In2Ru3
_symmetry_space_group_name_H-M   'P 1'
_cell_length_a   8.33578506
_cell_length_b   8.33578524
_cell_length_c   8.33578506
_cell_angle_alpha   109.51861665
_cell_angle_beta   109.51862293
_cell_angle_gamma   109.37646390
_symmetry_Int_Tables_number   1
_chemical_formula_structural   Tm12In2Ru3
_chemical_formula_sum   'Tm12 In2 Ru3'
_cell_volume   445.87872531
_cell_formula_units_Z   1
loop_
 _symmetry_equiv_pos_site_id
 _symmetry_equiv_pos_as_xyz
  1  'x, y, z'
loop_
 _atom_site_type_symbol
 _atom_site_label
 _atom_site_symmetry_multiplicity
 _atom_site_fract_x
 _atom_site_fract_y
 _atom_site_fract_z
 _atom_site_occupancy
  Tm  Tm0  1  0.185883  0.428413  0.242530  1
  Tm  Tm1  1  0.814117  0.571587  0.757470  1
  Tm  Tm2  1  0.185883  0.943353  0.757470  1
  Tm  Tm3  1  0.943353  0.185883  0.757470  1
  Tm  Tm4  1  0.814117  0.056647  0.242530  1
  Tm  Tm5  1  0.056647  0.814117  0.242530  1
  Tm  Tm6  1  0.428413  0.185883  0.242530  1
  Tm  Tm7  1  0.571587  0.814117  0.757470  1
  Tm  Tm8  1  0.317082  0.317082  0.634164  1
  Tm  Tm9  1  0.682918  0.682918  0.365836  1
  Tm  Tm10  1  0.682918  0.317082  0.000000  1
  Tm  Tm11  1  0.317082  0.682918  0.000000  1
  In  In12  1  0.000000  0.500000  0.500000  1
  In  In13  1  0.500000  0.000000  0.500000  1
  Ru  Ru14  1  0.344964  0.344964  0.000000  1
  Ru  Ru15  1  0.655036  0.655036  0.000000  1
  Ru  Ru16  1  0.000000  0.000000  0.000000  1
