# generated using pymatgen
data_Ta5NbRe3(B2Ru)3
_symmetry_space_group_name_H-M   'P 1'
_cell_length_a   3.15380700
_cell_length_b   6.47663760
_cell_length_c   11.02357810
_cell_angle_alpha   90.10643578
_cell_angle_beta   90.00000000
_cell_angle_gamma   90.00000000
_symmetry_Int_Tables_number   1
_chemical_formula_structural   Ta5NbRe3(B2Ru)3
_chemical_formula_sum   'Ta5 Nb1 Re3 B6 Ru3'
_cell_volume   225.16793441
_cell_formula_units_Z   1
loop_
 _symmetry_equiv_pos_site_id
 _symmetry_equiv_pos_as_xyz
  1  'x, y, z'
loop_
 _atom_site_type_symbol
 _atom_site_label
 _atom_site_symmetry_multiplicity
 _atom_site_fract_x
 _atom_site_fract_y
 _atom_site_fract_z
 _atom_site_occupancy
  Ta  Ta0  1  0.000000  0.280489  0.955044  1
  Ta  Ta1  1  0.000000  0.723205  0.045575  1
  Ta  Ta2  1  0.000000  0.278330  0.544597  1
  Ta  Ta3  1  0.000000  0.722759  0.455528  1
  Ta  Ta4  1  0.000000  0.350288  0.249425  1
  Nb  Nb5  1  0.000000  0.646472  0.749606  1
  Re  Re6  1  0.500000  0.075255  0.122350  1
  Re  Re7  1  0.500000  0.697589  0.251372  1
  Re  Re8  1  0.500000  0.300017  0.749106  1
  B  B9  1  0.000000  0.949939  0.247337  1
  B  B10  1  0.000000  0.051036  0.750459  1
  B  B11  1  0.500000  0.447986  0.088001  1
  B  B12  1  0.500000  0.552257  0.912495  1
  B  B13  1  0.500000  0.451606  0.415457  1
  B  B14  1  0.500000  0.547604  0.584917  1
  Ru  Ru15  1  0.500000  0.925627  0.875805  1
  Ru  Ru16  1  0.500000  0.074490  0.379588  1
  Ru  Ru17  1  0.500000  0.925051  0.623336  1
