# generated using pymatgen
data_CsSc6(CI6)2
_symmetry_space_group_name_H-M   'P 1'
_cell_length_a   9.31934283
_cell_length_b   9.51104671
_cell_length_c   9.42055298
_cell_angle_alpha   72.84628077
_cell_angle_beta   73.11781923
_cell_angle_gamma   73.55431644
_symmetry_Int_Tables_number   1
_chemical_formula_structural   CsSc6(CI6)2
_chemical_formula_sum   'Cs1 Sc6 C2 I12'
_cell_volume   745.46286981
_cell_formula_units_Z   1
loop_
 _symmetry_equiv_pos_site_id
 _symmetry_equiv_pos_as_xyz
  1  'x, y, z'
loop_
 _atom_site_type_symbol
 _atom_site_label
 _atom_site_symmetry_multiplicity
 _atom_site_fract_x
 _atom_site_fract_y
 _atom_site_fract_z
 _atom_site_occupancy
  Cs  Cs0  1  0.999996  0.500001  0.999995  1
  Sc  Sc1  1  0.467819  0.101415  0.200141  1
  Sc  Sc2  1  0.745222  0.027217  0.418413  1
  Sc  Sc3  1  0.577595  0.763230  0.477161  1
  Sc  Sc4  1  0.422405  0.236768  0.522859  1
  Sc  Sc5  1  0.254787  0.972788  0.581580  1
  Sc  Sc6  1  0.532167  0.898582  0.799866  1
  C  C7  1  0.491200  0.024574  0.423764  1
  C  C8  1  0.508801  0.975428  0.576230  1
  I  I9  1  0.782135  0.142149  0.086849  1
  I  I10  1  0.568072  0.791207  0.144028  1
  I  I11  1  0.362044  0.412341  0.222771  1
  I  I12  1  0.144588  0.066979  0.292339  1
  I  I13  1  0.900991  0.730835  0.364128  1
  I  I14  1  0.705150  0.337057  0.440362  1
  I  I15  1  0.294851  0.662952  0.559626  1
  I  I16  1  0.099012  0.269178  0.635871  1
  I  I17  1  0.855400  0.933021  0.707676  1
  I  I18  1  0.637941  0.587638  0.777244  1
  I  I19  1  0.431973  0.208791  0.855950  1
  I  I20  1  0.217857  0.857847  0.913146  1
