# generated using pymatgen
data_Tb2Yb3Sc(Si3Ru)8
_symmetry_space_group_name_H-M   'P 1'
_cell_length_a   10.12434632
_cell_length_b   10.12434606
_cell_length_c   8.12195854
_cell_angle_alpha   89.98505290
_cell_angle_beta   89.98505358
_cell_angle_gamma   132.70128901
_symmetry_Int_Tables_number   1
_chemical_formula_structural   Tb2Yb3Sc(Si3Ru)8
_chemical_formula_sum   'Tb2 Yb3 Sc1 Si24 Ru8'
_cell_volume   611.81836160
_cell_formula_units_Z   1
loop_
 _symmetry_equiv_pos_site_id
 _symmetry_equiv_pos_as_xyz
  1  'x, y, z'
loop_
 _atom_site_type_symbol
 _atom_site_label
 _atom_site_symmetry_multiplicity
 _atom_site_fract_x
 _atom_site_fract_y
 _atom_site_fract_z
 _atom_site_occupancy
  Tb  Tb0  1  0.498537  0.998514  0.250162  1
  Tb  Tb1  1  0.001486  0.501463  0.749838  1
  Yb  Yb2  1  0.499964  0.500036  0.500000  1
  Yb  Yb3  1  0.501144  0.001100  0.749847  1
  Yb  Yb4  1  0.998900  0.498856  0.250153  1
  Sc  Sc5  1  0.000097  0.999903  0.000000  1
  Si  Si6  1  0.795328  0.204672  0.500000  1
  Si  Si7  1  0.294519  0.705481  0.000000  1
  Si  Si8  1  0.205099  0.794901  0.500000  1
  Si  Si9  1  0.705088  0.294912  0.000000  1
  Si  Si10  1  0.330869  0.335748  0.832093  1
  Si  Si11  1  0.664252  0.669131  0.167907  1
  Si  Si12  1  0.169032  0.164219  0.332259  1
  Si  Si13  1  0.835781  0.830968  0.667741  1
  Si  Si14  1  0.122818  0.890742  0.729891  1
  Si  Si15  1  0.109258  0.877182  0.270109  1
  Si  Si16  1  0.609669  0.377009  0.229267  1
  Si  Si17  1  0.622991  0.390331  0.770733  1
  Si  Si18  1  0.877124  0.108955  0.270178  1
  Si  Si19  1  0.891045  0.122876  0.729822  1
  Si  Si20  1  0.390080  0.623059  0.770437  1
  Si  Si21  1  0.376941  0.609920  0.229563  1
  Si  Si22  1  0.346228  0.113112  0.506104  1
  Si  Si23  1  0.886888  0.653772  0.493896  1
  Si  Si24  1  0.386505  0.154555  0.005778  1
  Si  Si25  1  0.845445  0.613495  0.994222  1
  Si  Si26  1  0.654010  0.886612  0.493437  1
  Si  Si27  1  0.113388  0.345990  0.506563  1
  Si  Si28  1  0.613233  0.845681  0.994946  1
  Si  Si29  1  0.154319  0.386767  0.005054  1
  Ru  Ru30  1  0.670709  0.329291  0.500000  1
  Ru  Ru31  1  0.168433  0.831567  0.000000  1
  Ru  Ru32  1  0.329908  0.670092  0.500000  1
  Ru  Ru33  1  0.830824  0.169176  0.000000  1
  Ru  Ru34  1  0.124993  0.125733  0.627653  1
  Ru  Ru35  1  0.874267  0.875007  0.372347  1
  Ru  Ru36  1  0.371464  0.370637  0.124413  1
  Ru  Ru37  1  0.629363  0.628536  0.875587  1
