# generated using pymatgen
data_Dy16Ni3Ag4Os
_symmetry_space_group_name_H-M   'P 1'
_cell_length_a   9.49789925
_cell_length_b   9.49789958
_cell_length_c   9.49771336
_cell_angle_alpha   59.52566499
_cell_angle_beta   59.52566526
_cell_angle_gamma   59.52593944
_symmetry_Int_Tables_number   1
_chemical_formula_structural   Dy16Ni3Ag4Os
_chemical_formula_sum   'Dy16 Ni3 Ag4 Os1'
_cell_volume   599.30841686
_cell_formula_units_Z   1
loop_
 _symmetry_equiv_pos_site_id
 _symmetry_equiv_pos_as_xyz
  1  'x, y, z'
loop_
 _atom_site_type_symbol
 _atom_site_label
 _atom_site_symmetry_multiplicity
 _atom_site_fract_x
 _atom_site_fract_y
 _atom_site_fract_z
 _atom_site_occupancy
  Dy  Dy0  1  0.598968  0.598968  0.598916  1
  Dy  Dy1  1  0.603964  0.603964  0.198703  1
  Dy  Dy2  1  0.603976  0.198675  0.603981  1
  Dy  Dy3  1  0.198675  0.603976  0.603981  1
  Dy  Dy4  1  0.060239  0.437664  0.437679  1
  Dy  Dy5  1  0.437415  0.060610  0.060592  1
  Dy  Dy6  1  0.437664  0.060239  0.437679  1
  Dy  Dy7  1  0.060610  0.437415  0.060592  1
  Dy  Dy8  1  0.437681  0.437681  0.060240  1
  Dy  Dy9  1  0.060595  0.060595  0.437425  1
  Dy  Dy10  1  0.184824  0.814782  0.814830  1
  Dy  Dy11  1  0.807306  0.188488  0.188477  1
  Dy  Dy12  1  0.814782  0.184824  0.814830  1
  Dy  Dy13  1  0.188488  0.807306  0.188477  1
  Dy  Dy14  1  0.814825  0.814825  0.184790  1
  Dy  Dy15  1  0.188492  0.188492  0.807301  1
  Ni  Ni16  1  0.393130  0.393130  0.822977  1
  Ni  Ni17  1  0.393069  0.822991  0.393070  1
  Ni  Ni18  1  0.822991  0.393069  0.393070  1
  Ag  Ag19  1  0.832199  0.832199  0.832211  1
  Ag  Ag20  1  0.830850  0.830850  0.504782  1
  Ag  Ag21  1  0.830846  0.504783  0.830861  1
  Ag  Ag22  1  0.504783  0.830846  0.830861  1
  Os  Os23  1  0.393627  0.393627  0.393671  1
