# generated using pymatgen
data_Tb5YHo10(CdPd)4
_symmetry_space_group_name_H-M   'P 1'
_cell_length_a   9.68735958
_cell_length_b   9.68736049
_cell_length_c   9.68832000
_cell_angle_alpha   59.99672347
_cell_angle_beta   59.99672037
_cell_angle_gamma   60.01951625
_symmetry_Int_Tables_number   1
_chemical_formula_structural   Tb5YHo10(CdPd)4
_chemical_formula_sum   'Tb5 Y1 Ho10 Cd4 Pd4'
_cell_volume   642.96428095
_cell_formula_units_Z   1
loop_
 _symmetry_equiv_pos_site_id
 _symmetry_equiv_pos_as_xyz
  1  'x, y, z'
loop_
 _atom_site_type_symbol
 _atom_site_label
 _atom_site_symmetry_multiplicity
 _atom_site_fract_x
 _atom_site_fract_y
 _atom_site_fract_z
 _atom_site_occupancy
  Tb  Tb0  1  0.935257  0.564596  0.565354  1
  Tb  Tb1  1  0.564596  0.935257  0.934793  1
  Tb  Tb2  1  0.564596  0.935257  0.565354  1
  Tb  Tb3  1  0.935257  0.564596  0.934793  1
  Tb  Tb4  1  0.565715  0.565715  0.934285  1
  Y  Y5  1  0.935659  0.935659  0.564341  1
  Ho  Ho6  1  0.353664  0.353664  0.352163  1
  Ho  Ho7  1  0.353664  0.353664  0.940509  1
  Ho  Ho8  1  0.355321  0.937253  0.353713  1
  Ho  Ho9  1  0.937253  0.355321  0.353713  1
  Ho  Ho10  1  0.811338  0.188749  0.189351  1
  Ho  Ho11  1  0.188749  0.811338  0.810561  1
  Ho  Ho12  1  0.188749  0.811338  0.189351  1
  Ho  Ho13  1  0.811338  0.188749  0.810561  1
  Ho  Ho14  1  0.189559  0.189559  0.810441  1
  Ho  Ho15  1  0.811391  0.811391  0.188609  1
  Cd  Cd16  1  0.581409  0.581409  0.582180  1
  Cd  Cd17  1  0.581409  0.581409  0.255003  1
  Cd  Cd18  1  0.581571  0.254304  0.582063  1
  Cd  Cd19  1  0.254304  0.581571  0.582063  1
  Pd  Pd20  1  0.144320  0.144320  0.145760  1
  Pd  Pd21  1  0.144320  0.144320  0.565599  1
  Pd  Pd22  1  0.143801  0.566759  0.144719  1
  Pd  Pd23  1  0.566759  0.143801  0.144719  1
