# generated using pymatgen
data_Nd16Cd3Hg(OsPd)2
_symmetry_space_group_name_H-M   'P 1'
_cell_length_a   9.98823703
_cell_length_b   9.98823753
_cell_length_c   10.08521705
_cell_angle_alpha   59.66893099
_cell_angle_beta   59.66892851
_cell_angle_gamma   59.63953057
_symmetry_Int_Tables_number   1
_chemical_formula_structural   Nd16Cd3Hg(OsPd)2
_chemical_formula_sum   'Nd16 Cd3 Hg1 Os2 Pd2'
_cell_volume   705.94565943
_cell_formula_units_Z   1
loop_
 _symmetry_equiv_pos_site_id
 _symmetry_equiv_pos_as_xyz
  1  'x, y, z'
loop_
 _atom_site_type_symbol
 _atom_site_label
 _atom_site_symmetry_multiplicity
 _atom_site_fract_x
 _atom_site_fract_y
 _atom_site_fract_z
 _atom_site_occupancy
  Nd  Nd0  1  0.348587  0.348587  0.354951  1
  Nd  Nd1  1  0.350131  0.350131  0.944425  1
  Nd  Nd2  1  0.344613  0.954451  0.350022  1
  Nd  Nd3  1  0.954451  0.344613  0.350022  1
  Nd  Nd4  1  0.815790  0.189062  0.191026  1
  Nd  Nd5  1  0.188175  0.814707  0.803049  1
  Nd  Nd6  1  0.189062  0.815790  0.191026  1
  Nd  Nd7  1  0.814707  0.188175  0.803049  1
  Nd  Nd8  1  0.189210  0.189210  0.810676  1
  Nd  Nd9  1  0.805001  0.805001  0.194406  1
  Nd  Nd10  1  0.937720  0.555556  0.566420  1
  Nd  Nd11  1  0.555577  0.938381  0.939995  1
  Nd  Nd12  1  0.555556  0.937720  0.566420  1
  Nd  Nd13  1  0.938381  0.555577  0.939995  1
  Nd  Nd14  1  0.562683  0.562683  0.937834  1
  Nd  Nd15  1  0.938881  0.938881  0.559973  1
  Cd  Cd16  1  0.579758  0.579758  0.259585  1
  Cd  Cd17  1  0.580777  0.258130  0.579940  1
  Cd  Cd18  1  0.258130  0.580777  0.579940  1
  Hg  Hg19  1  0.583282  0.583282  0.583683  1
  Os  Os20  1  0.144015  0.144015  0.137830  1
  Os  Os21  1  0.145243  0.145243  0.574573  1
  Pd  Pd22  1  0.146850  0.573420  0.140579  1
  Pd  Pd23  1  0.573420  0.146850  0.140579  1
