# generated using pymatgen
data_Nd3CuIr3RhO14
_symmetry_space_group_name_H-M   'P 1'
_cell_length_a   7.19999450
_cell_length_b   7.42698692
_cell_length_c   7.42698600
_cell_angle_alpha   59.99999521
_cell_angle_beta   58.95150130
_cell_angle_gamma   58.95149937
_symmetry_Int_Tables_number   1
_chemical_formula_structural   Nd3CuIr3RhO14
_chemical_formula_sum   'Nd3 Cu1 Ir3 Rh1 O14'
_cell_volume   276.29608593
_cell_formula_units_Z   1
loop_
 _symmetry_equiv_pos_site_id
 _symmetry_equiv_pos_as_xyz
  1  'x, y, z'
loop_
 _atom_site_type_symbol
 _atom_site_label
 _atom_site_symmetry_multiplicity
 _atom_site_fract_x
 _atom_site_fract_y
 _atom_site_fract_z
 _atom_site_occupancy
  Nd  Nd0  1  0.125000  0.625000  0.125000  1
  Nd  Nd1  1  0.125000  0.125000  0.625000  1
  Nd  Nd2  1  0.125000  0.125000  0.125000  1
  Cu  Cu3  1  0.625000  0.125000  0.125000  1
  Ir  Ir4  1  0.625000  0.125000  0.625000  1
  Ir  Ir5  1  0.625000  0.625000  0.125000  1
  Ir  Ir6  1  0.625000  0.625000  0.625000  1
  Rh  Rh7  1  0.125000  0.625000  0.625000  1
  O  O8  1  0.694048  0.699312  0.303320  1
  O  O9  1  0.286488  0.287993  0.712759  1
  O  O10  1  0.694048  0.303320  0.699312  1
  O  O11  1  0.286488  0.712759  0.287993  1
  O  O12  1  0.286488  0.712759  0.712759  1
  O  O13  1  0.694048  0.303320  0.303320  1
  O  O14  1  0.555952  0.550688  0.946680  1
  O  O15  1  0.963512  0.962007  0.537241  1
  O  O16  1  0.555952  0.946680  0.550688  1
  O  O17  1  0.963512  0.537241  0.962007  1
  O  O18  1  0.963512  0.537241  0.537241  1
  O  O19  1  0.555952  0.946680  0.946680  1
  O  O20  1  0.293296  0.235568  0.235568  1
  O  O21  1  0.956704  0.014432  0.014432  1
