# generated using pymatgen
data_Be8PdRu3Au4
_symmetry_space_group_name_H-M   'P 1'
_cell_length_a   5.74034800
_cell_length_b   4.04239600
_cell_length_c   8.07989900
_cell_angle_alpha   90.00000000
_cell_angle_beta   89.99994169
_cell_angle_gamma   90.00000000
_symmetry_Int_Tables_number   1
_chemical_formula_structural   Be8PdRu3Au4
_chemical_formula_sum   'Be8 Pd1 Ru3 Au4'
_cell_volume   187.49211545
_cell_formula_units_Z   1
loop_
 _symmetry_equiv_pos_site_id
 _symmetry_equiv_pos_as_xyz
  1  'x, y, z'
loop_
 _atom_site_type_symbol
 _atom_site_label
 _atom_site_symmetry_multiplicity
 _atom_site_fract_x
 _atom_site_fract_y
 _atom_site_fract_z
 _atom_site_occupancy
  Be  Be0  1  0.014511  0.749999  0.124989  1
  Be  Be1  1  0.485497  0.749999  0.124997  1
  Be  Be2  1  0.006232  0.249999  0.381794  1
  Be  Be3  1  0.493778  0.249999  0.381803  1
  Be  Be4  1  0.498957  0.749999  0.624978  1
  Be  Be5  1  0.001031  0.749999  0.624992  1
  Be  Be6  1  0.493786  0.249999  0.868213  1
  Be  Be7  1  0.006210  0.249999  0.868222  1
  Pd  Pd8  1  0.750004  0.249999  0.125004  1
  Ru  Ru9  1  0.250003  0.749999  0.372540  1
  Ru  Ru10  1  0.749996  0.249999  0.625003  1
  Ru  Ru11  1  0.249997  0.749999  0.877456  1
  Au  Au12  1  0.250008  0.249999  0.124999  1
  Au  Au13  1  0.750004  0.749999  0.372818  1
  Au  Au14  1  0.249992  0.249999  0.625008  1
  Au  Au15  1  0.749994  0.749999  0.877181  1
