# generated using pymatgen
data_AcPa5H8Br15
_symmetry_space_group_name_H-M   'P 1'
_cell_length_a   9.92517774
_cell_length_b   9.92516702
_cell_length_c   9.92511500
_cell_angle_alpha   110.08347807
_cell_angle_beta   110.08368902
_cell_angle_gamma   108.25322174
_symmetry_Int_Tables_number   1
_chemical_formula_structural   AcPa5H8Br15
_chemical_formula_sum   'Ac1 Pa5 H8 Br15'
_cell_volume   752.39076082
_cell_formula_units_Z   1
loop_
 _symmetry_equiv_pos_site_id
 _symmetry_equiv_pos_as_xyz
  1  'x, y, z'
loop_
 _atom_site_type_symbol
 _atom_site_label
 _atom_site_symmetry_multiplicity
 _atom_site_fract_x
 _atom_site_fract_y
 _atom_site_fract_z
 _atom_site_occupancy
  Ac  Ac0  1  0.254356  0.254343  0.000029  1
  Pa  Pa1  1  0.772308  0.772320  0.999988  1
  Pa  Pa2  1  0.234361  0.999768  0.234600  1
  Pa  Pa3  1  0.999771  0.234403  0.234641  1
  Pa  Pa4  1  0.765207  0.999730  0.765507  1
  Pa  Pa5  1  0.999727  0.765144  0.765395  1
  H  H6  1  0.176647  0.994498  0.000032  1
  H  H7  1  0.825233  0.002659  0.000114  1
  H  H8  1  0.994545  0.176716  0.000111  1
  H  H9  1  0.002657  0.825242  0.000032  1
  H  H10  1  0.002682  0.002642  0.177448  1
  H  H11  1  0.176620  0.176611  0.182173  1
  H  H12  1  0.994515  0.994477  0.817823  1
  H  H13  1  0.825219  0.825158  0.822581  1
  Br  Br14  1  0.741782  0.251416  0.999976  1
  Br  Br15  1  0.523026  0.523018  0.999821  1
  Br  Br16  1  0.251437  0.741786  0.999941  1
  Br  Br17  1  0.751014  0.004275  0.253111  1
  Br  Br18  1  0.004217  0.751028  0.253045  1
  Br  Br19  1  0.514085  0.242873  0.271387  1
  Br  Br20  1  0.242945  0.514162  0.271396  1
  Br  Br21  1  0.741672  0.741660  0.490319  1
  Br  Br22  1  0.495565  0.995670  0.499901  1
  Br  Br23  1  0.995648  0.495651  0.500021  1
  Br  Br24  1  0.251517  0.251585  0.509586  1
  Br  Br25  1  0.242940  0.971584  0.728783  1
  Br  Br26  1  0.971533  0.242829  0.728844  1
  Br  Br27  1  0.750924  0.497813  0.746690  1
  Br  Br28  1  0.497853  0.750945  0.746707  1
