# generated using pymatgen
data_HoEr7B24Ir3Ru
_symmetry_space_group_name_H-M   'P 1'
_cell_length_a   3.62684500
_cell_length_b   9.15196089
_cell_length_c   11.46747400
_cell_angle_alpha   90.02520878
_cell_angle_beta   90.00000000
_cell_angle_gamma   90.00000000
_symmetry_Int_Tables_number   1
_chemical_formula_structural   HoEr7B24Ir3Ru
_chemical_formula_sum   'Ho1 Er7 B24 Ir3 Ru1'
_cell_volume   380.63688748
_cell_formula_units_Z   1
loop_
 _symmetry_equiv_pos_site_id
 _symmetry_equiv_pos_as_xyz
  1  'x, y, z'
loop_
 _atom_site_type_symbol
 _atom_site_label
 _atom_site_symmetry_multiplicity
 _atom_site_fract_x
 _atom_site_fract_y
 _atom_site_fract_z
 _atom_site_occupancy
  Ho  Ho0  1  0.000000  0.320839  0.413237  1
  Er  Er1  1  0.000000  0.680447  0.587996  1
  Er  Er2  1  0.000000  0.820974  0.084970  1
  Er  Er3  1  0.000000  0.177232  0.912991  1
  Er  Er4  1  0.000000  0.944234  0.373970  1
  Er  Er5  1  0.000000  0.054069  0.626990  1
  Er  Er6  1  0.000000  0.444346  0.125763  1
  Er  Er7  1  0.000000  0.557472  0.874219  1
  B  B8  1  0.500000  0.553864  0.434684  1
  B  B9  1  0.500000  0.446520  0.565686  1
  B  B10  1  0.500000  0.053286  0.065570  1
  B  B11  1  0.500000  0.945880  0.933650  1
  B  B12  1  0.500000  0.749950  0.421155  1
  B  B13  1  0.500000  0.250113  0.579230  1
  B  B14  1  0.500000  0.249541  0.078942  1
  B  B15  1  0.500000  0.751660  0.920095  1
  B  B16  1  0.500000  0.793507  0.264892  1
  B  B17  1  0.500000  0.206633  0.734530  1
  B  B18  1  0.500000  0.293828  0.234915  1
  B  B19  1  0.500000  0.707501  0.765806  1
  B  B20  1  0.500000  0.632277  0.183901  1
  B  B21  1  0.500000  0.367807  0.816033  1
  B  B22  1  0.500000  0.132534  0.315900  1
  B  B23  1  0.500000  0.867886  0.685154  1
  B  B24  1  0.500000  0.981690  0.213132  1
  B  B25  1  0.500000  0.016643  0.786590  1
  B  B26  1  0.500000  0.482143  0.286384  1
  B  B27  1  0.500000  0.518129  0.713854  1
  B  B28  1  0.500000  0.610203  0.030528  1
  B  B29  1  0.500000  0.389367  0.969788  1
  B  B30  1  0.500000  0.109968  0.469765  1
  B  B31  1  0.500000  0.889761  0.529940  1
  Ir  Ir32  1  0.000000  0.638460  0.321736  1
  Ir  Ir33  1  0.000000  0.361947  0.678796  1
  Ir  Ir34  1  0.000000  0.137701  0.177993  1
  Ru  Ru35  1  0.000000  0.861587  0.821216  1
