# generated using pymatgen
data_TbY3SiI6
_symmetry_space_group_name_H-M   'P 1'
_cell_length_a   4.21992000
_cell_length_b   14.07216046
_cell_length_c   14.81520924
_cell_angle_alpha   90.13839513
_cell_angle_beta   90.00000000
_cell_angle_gamma   90.00000000
_symmetry_Int_Tables_number   1
_chemical_formula_structural   TbY3SiI6
_chemical_formula_sum   'Tb2 Y6 Si2 I12'
_cell_volume   879.77480238
_cell_formula_units_Z   2
loop_
 _symmetry_equiv_pos_site_id
 _symmetry_equiv_pos_as_xyz
  1  'x, y, z'
loop_
 _atom_site_type_symbol
 _atom_site_label
 _atom_site_symmetry_multiplicity
 _atom_site_fract_x
 _atom_site_fract_y
 _atom_site_fract_z
 _atom_site_occupancy
  Tb  Tb0  1  0.000000  0.611241  0.924948  1
  Tb  Tb1  1  0.000000  0.388759  0.075052  1
  Y  Y2  1  0.500000  0.114029  0.348171  1
  Y  Y3  1  0.500000  0.885971  0.651829  1
  Y  Y4  1  0.500000  0.614323  0.152132  1
  Y  Y5  1  0.500000  0.385677  0.847868  1
  Y  Y6  1  0.000000  0.110744  0.574831  1
  Y  Y7  1  0.000000  0.889256  0.425169  1
  Si  Si8  1  0.500000  0.000000  0.500000  1
  Si  Si9  1  0.500000  0.500000  0.000000  1
  I  I10  1  0.500000  0.245644  0.162455  1
  I  I11  1  0.500000  0.754356  0.837545  1
  I  I12  1  0.500000  0.746949  0.337479  1
  I  I13  1  0.500000  0.253051  0.662521  1
  I  I14  1  0.000000  0.258221  0.415377  1
  I  I15  1  0.000000  0.741779  0.584623  1
  I  I16  1  0.000000  0.758435  0.085759  1
  I  I17  1  0.000000  0.241565  0.914241  1
  I  I18  1  0.000000  0.999333  0.240669  1
  I  I19  1  0.000000  0.000667  0.759331  1
  I  I20  1  0.000000  0.500492  0.259976  1
  I  I21  1  0.000000  0.499508  0.740024  1
