# generated using pymatgen
data_Tb10Dy2ZnGaCo4
_symmetry_space_group_name_H-M   'P 1'
_cell_length_a   8.31256118
_cell_length_b   8.31256161
_cell_length_c   8.31256231
_cell_angle_alpha   106.97566769
_cell_angle_beta   109.37116512
_cell_angle_gamma   112.10764286
_symmetry_Int_Tables_number   1
_chemical_formula_structural   Tb10Dy2ZnGaCo4
_chemical_formula_sum   'Tb10 Dy2 Zn1 Ga1 Co4'
_cell_volume   441.27385527
_cell_formula_units_Z   1
loop_
 _symmetry_equiv_pos_site_id
 _symmetry_equiv_pos_as_xyz
  1  'x, y, z'
loop_
 _atom_site_type_symbol
 _atom_site_label
 _atom_site_symmetry_multiplicity
 _atom_site_fract_x
 _atom_site_fract_y
 _atom_site_fract_z
 _atom_site_occupancy
  Tb  Tb0  1  0.304755  0.263455  0.568208  1
  Tb  Tb1  1  0.695246  0.736545  0.431792  1
  Tb  Tb2  1  0.304755  0.736545  0.041300  1
  Tb  Tb3  1  0.695246  0.263455  0.958700  1
  Tb  Tb4  1  0.187883  0.514885  0.327002  1
  Tb  Tb5  1  0.187883  0.860880  0.672998  1
  Tb  Tb6  1  0.812172  0.485581  0.673409  1
  Tb  Tb7  1  0.812172  0.138763  0.326591  1
  Tb  Tb8  1  0.397694  0.218207  0.179487  1
  Tb  Tb9  1  0.038719  0.218207  0.820513  1
  Dy  Dy10  1  0.960846  0.781609  0.179236  1
  Dy  Dy11  1  0.602373  0.781609  0.820764  1
  Zn  Zn12  1  0.500466  0.500466  0.000000  1
  Ga  Ga13  1  0.500047  0.000047  0.500000  1
  Co  Co14  1  0.166287  0.500298  0.665989  1
  Co  Co15  1  0.834309  0.500298  0.334011  1
  Co  Co16  1  0.999575  0.114071  0.114496  1
  Co  Co17  1  0.999575  0.885079  0.885504  1
