# generated using pymatgen
data_Sc8Al7Tc9
_symmetry_space_group_name_H-M   'P 1'
_cell_length_a   5.21899900
_cell_length_b   5.27849681
_cell_length_c   17.25970600
_cell_angle_alpha   90.00000000
_cell_angle_beta   90.00000000
_cell_angle_gamma   119.62783555
_symmetry_Int_Tables_number   1
_chemical_formula_structural   Sc8Al7Tc9
_chemical_formula_sum   'Sc8 Al7 Tc9'
_cell_volume   413.31198391
_cell_formula_units_Z   1
loop_
 _symmetry_equiv_pos_site_id
 _symmetry_equiv_pos_as_xyz
  1  'x, y, z'
loop_
 _atom_site_type_symbol
 _atom_site_label
 _atom_site_symmetry_multiplicity
 _atom_site_fract_x
 _atom_site_fract_y
 _atom_site_fract_z
 _atom_site_occupancy
  Sc  Sc0  1  0.994528  0.989055  0.091824  1
  Sc  Sc1  1  0.665631  0.331263  0.158126  1
  Sc  Sc2  1  0.665631  0.331263  0.341873  1
  Sc  Sc3  1  0.994528  0.989055  0.408176  1
  Sc  Sc4  1  0.003480  0.006960  0.592418  1
  Sc  Sc5  1  0.332799  0.665597  0.659488  1
  Sc  Sc6  1  0.332799  0.665597  0.840511  1
  Sc  Sc7  1  0.003480  0.006960  0.907582  1
  Al  Al8  1  0.499767  0.999536  0.999513  1
  Al  Al9  1  0.331948  0.663895  0.126008  1
  Al  Al10  1  0.157920  0.315839  0.250000  1
  Al  Al11  1  0.331948  0.663895  0.373991  1
  Al  Al12  1  0.499767  0.999536  0.500487  1
  Al  Al13  1  0.674802  0.349603  0.625184  1
  Al  Al14  1  0.674802  0.349603  0.874815  1
  Tc  Tc15  1  0.998956  0.498711  0.001646  1
  Tc  Tc16  1  0.499757  0.498711  0.001646  1
  Tc  Tc17  1  0.153985  0.823762  0.250000  1
  Tc  Tc18  1  0.669777  0.823762  0.250000  1
  Tc  Tc19  1  0.998956  0.498711  0.498354  1
  Tc  Tc20  1  0.499757  0.498711  0.498354  1
  Tc  Tc21  1  0.329530  0.171311  0.750000  1
  Tc  Tc22  1  0.841781  0.171311  0.750000  1
  Tc  Tc23  1  0.843675  0.687350  0.750000  1
