# generated using pymatgen
data_U3Ti(GaTc2)4
_symmetry_space_group_name_H-M   'P 1'
_cell_length_a   6.07281049
_cell_length_b   6.07979060
_cell_length_c   6.54262200
_cell_angle_alpha   90.01456946
_cell_angle_beta   90.02297375
_cell_angle_gamma   89.94909528
_symmetry_Int_Tables_number   1
_chemical_formula_structural   U3Ti(GaTc2)4
_chemical_formula_sum   'U3 Ti1 Ga4 Tc8'
_cell_volume   241.56274667
_cell_formula_units_Z   1
loop_
 _symmetry_equiv_pos_site_id
 _symmetry_equiv_pos_as_xyz
  1  'x, y, z'
loop_
 _atom_site_type_symbol
 _atom_site_label
 _atom_site_symmetry_multiplicity
 _atom_site_fract_x
 _atom_site_fract_y
 _atom_site_fract_z
 _atom_site_occupancy
  U  U0  1  0.249996  0.249999  0.000030  1
  U  U1  1  0.750035  0.750002  0.000063  1
  U  U2  1  0.750002  0.749996  0.499973  1
  Ti  Ti3  1  0.250025  0.250000  0.499969  1
  Ga  Ga4  1  0.750041  0.250004  0.000007  1
  Ga  Ga5  1  0.249959  0.749997  0.000009  1
  Ga  Ga6  1  0.250020  0.750001  0.500004  1
  Ga  Ga7  1  0.749920  0.250002  0.500006  1
  Tc  Tc8  1  0.497851  0.002137  0.255326  1
  Tc  Tc9  1  0.497738  0.497746  0.255328  1
  Tc  Tc10  1  0.002228  0.002233  0.255353  1
  Tc  Tc11  1  0.002131  0.497856  0.255377  1
  Tc  Tc12  1  0.002273  0.002274  0.744596  1
  Tc  Tc13  1  0.002163  0.497847  0.744603  1
  Tc  Tc14  1  0.497854  0.002151  0.744664  1
  Tc  Tc15  1  0.497761  0.497762  0.744692  1
