# generated using pymatgen
data_Ce2U2ReB12Mo
_symmetry_space_group_name_H-M   'P 1'
_cell_length_a   3.72059800
_cell_length_b   9.33801824
_cell_length_c   11.46056016
_cell_angle_alpha   90.00376795
_cell_angle_beta   90.00000000
_cell_angle_gamma   90.00000000
_symmetry_Int_Tables_number   1
_chemical_formula_structural   Ce2U2ReB12Mo
_chemical_formula_sum   'Ce4 U4 Re2 B24 Mo2'
_cell_volume   398.17437825
_cell_formula_units_Z   2
loop_
 _symmetry_equiv_pos_site_id
 _symmetry_equiv_pos_as_xyz
  1  'x, y, z'
loop_
 _atom_site_type_symbol
 _atom_site_label
 _atom_site_symmetry_multiplicity
 _atom_site_fract_x
 _atom_site_fract_y
 _atom_site_fract_z
 _atom_site_occupancy
  Ce  Ce0  1  0.000000  0.335684  0.407768  1
  Ce  Ce1  1  0.000000  0.664316  0.592232  1
  Ce  Ce2  1  0.000000  0.835098  0.092374  1
  Ce  Ce3  1  0.000000  0.164902  0.907626  1
  U  U4  1  0.000000  0.955920  0.396102  1
  U  U5  1  0.000000  0.044080  0.603898  1
  U  U6  1  0.000000  0.457887  0.104606  1
  U  U7  1  0.000000  0.542113  0.895394  1
  Re  Re8  1  0.000000  0.146126  0.180881  1
  Re  Re9  1  0.000000  0.853874  0.819119  1
  B  B10  1  0.500000  0.553218  0.430467  1
  B  B11  1  0.500000  0.446782  0.569533  1
  B  B12  1  0.500000  0.053232  0.070119  1
  B  B13  1  0.500000  0.946768  0.929881  1
  B  B14  1  0.500000  0.744799  0.423043  1
  B  B15  1  0.500000  0.255201  0.576957  1
  B  B16  1  0.500000  0.244130  0.077757  1
  B  B17  1  0.500000  0.755870  0.922243  1
  B  B18  1  0.500000  0.803402  0.274277  1
  B  B19  1  0.500000  0.196598  0.725723  1
  B  B20  1  0.500000  0.301938  0.225305  1
  B  B21  1  0.500000  0.698062  0.774695  1
  B  B22  1  0.500000  0.643876  0.187374  1
  B  B23  1  0.500000  0.356124  0.812626  1
  B  B24  1  0.500000  0.143727  0.311182  1
  B  B25  1  0.500000  0.856273  0.688818  1
  B  B26  1  0.500000  0.989693  0.219560  1
  B  B27  1  0.500000  0.010307  0.780440  1
  B  B28  1  0.500000  0.488608  0.279448  1
  B  B29  1  0.500000  0.511392  0.720552  1
  B  B30  1  0.500000  0.638322  0.037596  1
  B  B31  1  0.500000  0.361678  0.962404  1
  B  B32  1  0.500000  0.137837  0.461201  1
  B  B33  1  0.500000  0.862163  0.538799  1
  Mo  Mo34  1  0.000000  0.646732  0.318193  1
  Mo  Mo35  1  0.000000  0.353268  0.681807  1
