# generated using pymatgen
data_KPuAuSe3
_symmetry_space_group_name_H-M   'P 1'
_cell_length_a   7.71880232
_cell_length_b   7.71880244
_cell_length_c   10.70307100
_cell_angle_alpha   90.00000000
_cell_angle_beta   90.00000000
_cell_angle_gamma   148.15813777
_symmetry_Int_Tables_number   1
_chemical_formula_structural   KPuAuSe3
_chemical_formula_sum   'K2 Pu2 Au2 Se6'
_cell_volume   336.42928109
_cell_formula_units_Z   2
loop_
 _symmetry_equiv_pos_site_id
 _symmetry_equiv_pos_as_xyz
  1  'x, y, z'
loop_
 _atom_site_type_symbol
 _atom_site_label
 _atom_site_symmetry_multiplicity
 _atom_site_fract_x
 _atom_site_fract_y
 _atom_site_fract_z
 _atom_site_occupancy
  K  K0  1  0.253984  0.746014  0.250000  1
  K  K1  1  0.746014  0.253984  0.750000  1
  Pu  Pu2  1  0.499999  0.499999  0.000000  1
  Pu  Pu3  1  0.499999  0.499999  0.500000  1
  Au  Au4  1  0.960754  0.039244  0.250000  1
  Au  Au5  1  0.039244  0.960754  0.750000  1
  Se  Se6  1  0.873006  0.126992  0.042799  1
  Se  Se7  1  0.572332  0.427666  0.250000  1
  Se  Se8  1  0.873006  0.126992  0.457201  1
  Se  Se9  1  0.126992  0.873006  0.542799  1
  Se  Se10  1  0.427666  0.572332  0.750000  1
  Se  Se11  1  0.126992  0.873006  0.957201  1
