# generated using pymatgen
data_Zr12Zn11CuC4
_symmetry_space_group_name_H-M   'P 1'
_cell_length_a   8.66830413
_cell_length_b   8.65030328
_cell_length_c   8.65030400
_cell_angle_alpha   59.99999726
_cell_angle_beta   60.06866786
_cell_angle_gamma   60.06867135
_symmetry_Int_Tables_number   1
_chemical_formula_structural   Zr12Zn11CuC4
_chemical_formula_sum   'Zr12 Zn11 Cu1 C4'
_cell_volume   459.12594072
_cell_formula_units_Z   1
loop_
 _symmetry_equiv_pos_site_id
 _symmetry_equiv_pos_as_xyz
  1  'x, y, z'
loop_
 _atom_site_type_symbol
 _atom_site_label
 _atom_site_symmetry_multiplicity
 _atom_site_fract_x
 _atom_site_fract_y
 _atom_site_fract_z
 _atom_site_occupancy
  Zr  Zr0  1  0.439822  0.440307  0.059936  1
  Zr  Zr1  1  0.061021  0.440360  0.058260  1
  Zr  Zr2  1  0.439822  0.059936  0.059936  1
  Zr  Zr3  1  0.061021  0.058260  0.440360  1
  Zr  Zr4  1  0.439822  0.059936  0.440307  1
  Zr  Zr5  1  0.061021  0.440360  0.440360  1
  Zr  Zr6  1  0.810178  0.809693  0.190064  1
  Zr  Zr7  1  0.188979  0.809640  0.191740  1
  Zr  Zr8  1  0.810178  0.190064  0.190064  1
  Zr  Zr9  1  0.188979  0.191740  0.809640  1
  Zr  Zr10  1  0.810178  0.190064  0.809693  1
  Zr  Zr11  1  0.188979  0.809640  0.809640  1
  Zn  Zn12  1  0.834026  0.828270  0.509435  1
  Zn  Zn13  1  0.834026  0.509435  0.828270  1
  Zn  Zn14  1  0.507872  0.830709  0.830709  1
  Zn  Zn15  1  0.834026  0.828270  0.828270  1
  Zn  Zn16  1  0.415974  0.421730  0.740565  1
  Zn  Zn17  1  0.415974  0.740565  0.421730  1
  Zn  Zn18  1  0.742128  0.419291  0.419291  1
  Zn  Zn19  1  0.415974  0.421730  0.421730  1
  Zn  Zn20  1  0.625000  0.625000  0.125000  1
  Zn  Zn21  1  0.625000  0.125000  0.625000  1
  Zn  Zn22  1  0.625000  0.625000  0.625000  1
  Cu  Cu23  1  0.125000  0.625000  0.625000  1
  C  C24  1  0.125000  0.125000  0.625000  1
  C  C25  1  0.125000  0.625000  0.125000  1
  C  C26  1  0.625000  0.125000  0.125000  1
  C  C27  1  0.125000  0.125000  0.125000  1
