# generated using pymatgen
data_YbY4HfH18
_symmetry_space_group_name_H-M   'P 1'
_cell_length_a   6.24624503
_cell_length_b   6.24842035
_cell_length_c   6.52414404
_cell_angle_alpha   89.91858928
_cell_angle_beta   89.84882304
_cell_angle_gamma   119.72071757
_symmetry_Int_Tables_number   1
_chemical_formula_structural   YbY4HfH18
_chemical_formula_sum   'Yb1 Y4 Hf1 H18'
_cell_volume   221.13379132
_cell_formula_units_Z   1
loop_
 _symmetry_equiv_pos_site_id
 _symmetry_equiv_pos_as_xyz
  1  'x, y, z'
loop_
 _atom_site_type_symbol
 _atom_site_label
 _atom_site_symmetry_multiplicity
 _atom_site_fract_x
 _atom_site_fract_y
 _atom_site_fract_z
 _atom_site_occupancy
  Yb  Yb0  1  0.332592  0.002457  0.751096  1
  Y  Y1  1  0.004057  0.331333  0.751143  1
  Y  Y2  1  0.331777  0.328754  0.254808  1
  Y  Y3  1  0.666795  0.998304  0.247518  1
  Y  Y4  1  0.999730  0.671933  0.249492  1
  Hf  Hf5  1  0.679375  0.679392  0.752707  1
  H  H6  1  0.292404  0.304134  0.589481  1
  H  H7  1  0.713261  0.977265  0.596259  1
  H  H8  1  0.970809  0.700020  0.597486  1
  H  H9  1  0.694102  0.691857  0.079419  1
  H  H10  1  0.309226  0.003339  0.094585  1
  H  H11  1  0.001598  0.304764  0.091540  1
  H  H12  1  0.380378  0.392894  0.902165  1
  H  H13  1  0.652953  0.976134  0.902364  1
  H  H14  1  0.973232  0.637252  0.904818  1
  H  H15  1  0.642562  0.641555  0.427296  1
  H  H16  1  0.355421  0.998264  0.406700  1
  H  H17  1  0.990289  0.353583  0.410179  1
  H  H18  1  0.979323  0.980778  0.822730  1
  H  H19  1  0.999638  0.001073  0.313706  1
  H  H20  1  0.358773  0.666801  0.700309  1
  H  H21  1  0.672359  0.359660  0.704577  1
  H  H22  1  0.667881  0.333459  0.201698  1
  H  H23  1  0.331465  0.664998  0.203941  1
