# generated using pymatgen
data_Ho6ZrV(Co4P3)4
_symmetry_space_group_name_H-M   'P 1'
_cell_length_a   3.71325700
_cell_length_b   10.63037900
_cell_length_c   12.34295200
_cell_angle_alpha   90.00000000
_cell_angle_beta   90.00000000
_cell_angle_gamma   90.00000000
_symmetry_Int_Tables_number   1
_chemical_formula_structural   Ho6ZrV(Co4P3)4
_chemical_formula_sum   'Ho6 Zr1 V1 Co16 P12'
_cell_volume   487.21740802
_cell_formula_units_Z   1
loop_
 _symmetry_equiv_pos_site_id
 _symmetry_equiv_pos_as_xyz
  1  'x, y, z'
loop_
 _atom_site_type_symbol
 _atom_site_label
 _atom_site_symmetry_multiplicity
 _atom_site_fract_x
 _atom_site_fract_y
 _atom_site_fract_z
 _atom_site_occupancy
  Ho  Ho0  1  0.000000  0.500000  0.529444  1
  Ho  Ho1  1  0.500000  0.000000  0.476629  1
  Ho  Ho2  1  0.500000  0.822168  0.205144  1
  Ho  Ho3  1  0.500000  0.177832  0.205144  1
  Ho  Ho4  1  0.000000  0.681437  0.795707  1
  Ho  Ho5  1  0.000000  0.318563  0.795707  1
  Zr  Zr6  1  0.500000  0.500000  0.155560  1
  V  V7  1  0.000000  0.000000  0.842934  1
  Co  Co8  1  0.000000  0.500000  0.983451  1
  Co  Co9  1  0.500000  0.000000  0.010740  1
  Co  Co10  1  0.500000  0.293858  0.434530  1
  Co  Co11  1  0.500000  0.706142  0.434530  1
  Co  Co12  1  0.000000  0.203028  0.569629  1
  Co  Co13  1  0.000000  0.796972  0.569629  1
  Co  Co14  1  0.500000  0.879366  0.706465  1
  Co  Co15  1  0.500000  0.120634  0.706465  1
  Co  Co16  1  0.000000  0.623373  0.298426  1
  Co  Co17  1  0.000000  0.376627  0.298426  1
  Co  Co18  1  0.500000  0.327708  0.988671  1
  Co  Co19  1  0.500000  0.672292  0.988671  1
  Co  Co20  1  0.000000  0.163347  0.002838  1
  Co  Co21  1  0.000000  0.836653  0.002838  1
  Co  Co22  1  0.500000  0.500000  0.702535  1
  Co  Co23  1  0.000000  0.000000  0.297060  1
  P  P24  1  0.500000  0.309782  0.617429  1
  P  P25  1  0.500000  0.690218  0.617429  1
  P  P26  1  0.000000  0.187857  0.385620  1
  P  P27  1  0.000000  0.812143  0.385620  1
  P  P28  1  0.500000  0.500000  0.881619  1
  P  P29  1  0.000000  0.000000  0.116395  1
  P  P30  1  0.500000  0.847940  0.888283  1
  P  P31  1  0.500000  0.152060  0.888283  1
  P  P32  1  0.000000  0.664408  0.102189  1
  P  P33  1  0.000000  0.335592  0.102189  1
  P  P34  1  0.500000  0.500000  0.362523  1
  P  P35  1  0.000000  0.000000  0.651248  1
