# generated using pymatgen
data_Tb8Ho9Mg3Pb16
_symmetry_space_group_name_H-M   'P 1'
_cell_length_a   8.00953030
_cell_length_b   8.20580413
_cell_length_c   15.70335300
_cell_angle_alpha   90.00000000
_cell_angle_beta   90.00000000
_cell_angle_gamma   90.17277221
_symmetry_Int_Tables_number   1
_chemical_formula_structural   Tb8Ho9Mg3Pb16
_chemical_formula_sum   'Tb8 Ho9 Mg3 Pb16'
_cell_volume   1032.09248007
_cell_formula_units_Z   1
loop_
 _symmetry_equiv_pos_site_id
 _symmetry_equiv_pos_as_xyz
  1  'x, y, z'
loop_
 _atom_site_type_symbol
 _atom_site_label
 _atom_site_symmetry_multiplicity
 _atom_site_fract_x
 _atom_site_fract_y
 _atom_site_fract_z
 _atom_site_occupancy
  Tb  Tb0  1  0.522679  0.317808  0.905511  1
  Tb  Tb1  1  0.024432  0.180960  0.595192  1
  Tb  Tb2  1  0.479219  0.677023  0.405675  1
  Tb  Tb3  1  0.974101  0.816741  0.095453  1
  Tb  Tb4  1  0.479219  0.677023  0.094325  1
  Tb  Tb5  1  0.974101  0.816741  0.404547  1
  Tb  Tb6  1  0.522679  0.317808  0.594489  1
  Tb  Tb7  1  0.024432  0.180960  0.904808  1
  Ho  Ho8  1  0.368554  0.842617  0.877421  1
  Ho  Ho9  1  0.868981  0.663096  0.624730  1
  Ho  Ho10  1  0.636356  0.161422  0.378419  1
  Ho  Ho11  1  0.128520  0.340841  0.123148  1
  Ho  Ho12  1  0.636356  0.161422  0.121581  1
  Ho  Ho13  1  0.128520  0.340841  0.376852  1
  Ho  Ho14  1  0.368554  0.842617  0.622579  1
  Ho  Ho15  1  0.868981  0.663096  0.875270  1
  Ho  Ho16  1  0.305098  0.005699  0.250000  1
  Mg  Mg17  1  0.192447  0.507435  0.750000  1
  Mg  Mg18  1  0.693753  0.994037  0.750000  1
  Mg  Mg19  1  0.804590  0.496452  0.250000  1
  Pb  Pb20  1  0.290244  0.035592  0.043406  1
  Pb  Pb21  1  0.793661  0.461035  0.460381  1
  Pb  Pb22  1  0.710557  0.960975  0.541913  1
  Pb  Pb23  1  0.208475  0.539112  0.957571  1
  Pb  Pb24  1  0.710557  0.960975  0.958087  1
  Pb  Pb25  1  0.208475  0.539112  0.542429  1
  Pb  Pb26  1  0.290244  0.035592  0.456594  1
  Pb  Pb27  1  0.793661  0.461035  0.039619  1
  Pb  Pb28  1  0.555195  0.613412  0.750000  1
  Pb  Pb29  1  0.057048  0.890711  0.750000  1
  Pb  Pb30  1  0.444640  0.382368  0.250000  1
  Pb  Pb31  1  0.937129  0.116749  0.250000  1
  Pb  Pb32  1  0.335094  0.158940  0.750000  1
  Pb  Pb33  1  0.832812  0.343177  0.750000  1
  Pb  Pb34  1  0.663153  0.843817  0.250000  1
  Pb  Pb35  1  0.167477  0.652759  0.250000  1
