# generated using pymatgen
data_Ho11ErTcRu3
_symmetry_space_group_name_H-M   'P 1'
_cell_length_a   6.26757183
_cell_length_b   7.33546104
_cell_length_c   9.11752559
_cell_angle_alpha   90.00912257
_cell_angle_beta   89.95959295
_cell_angle_gamma   90.01789626
_symmetry_Int_Tables_number   1
_chemical_formula_structural   Ho11ErTcRu3
_chemical_formula_sum   'Ho11 Er1 Tc1 Ru3'
_cell_volume   419.18293168
_cell_formula_units_Z   1
loop_
 _symmetry_equiv_pos_site_id
 _symmetry_equiv_pos_as_xyz
  1  'x, y, z'
loop_
 _atom_site_type_symbol
 _atom_site_label
 _atom_site_symmetry_multiplicity
 _atom_site_fract_x
 _atom_site_fract_y
 _atom_site_fract_z
 _atom_site_occupancy
  Ho  Ho0  1  0.167395  0.176060  0.436036  1
  Ho  Ho1  1  0.667905  0.323577  0.564079  1
  Ho  Ho2  1  0.834521  0.824493  0.937304  1
  Ho  Ho3  1  0.667664  0.323826  0.936092  1
  Ho  Ho4  1  0.834457  0.824530  0.562809  1
  Ho  Ho5  1  0.333193  0.676332  0.435394  1
  Ho  Ho6  1  0.167473  0.176106  0.063921  1
  Ho  Ho7  1  0.868318  0.539927  0.249838  1
  Ho  Ho8  1  0.627485  0.041417  0.249882  1
  Ho  Ho9  1  0.134258  0.458018  0.750144  1
  Ho  Ho10  1  0.366252  0.958113  0.750166  1
  Er  Er11  1  0.333267  0.675973  0.064403  1
  Tc  Tc12  1  0.037416  0.884766  0.249814  1
  Ru  Ru13  1  0.461482  0.384436  0.249823  1
  Ru  Ru14  1  0.960684  0.117066  0.749938  1
  Ru  Ru15  1  0.538231  0.615360  0.750356  1
