# generated using pymatgen
data_NdTh7(Si4Mo3)4
_symmetry_space_group_name_H-M   'P 1'
_cell_length_a   7.01054500
_cell_length_b   7.07724312
_cell_length_c   13.18488808
_cell_angle_alpha   90.12704568
_cell_angle_beta   89.92487457
_cell_angle_gamma   89.88985141
_symmetry_Int_Tables_number   1
_chemical_formula_structural   NdTh7(Si4Mo3)4
_chemical_formula_sum   'Nd1 Th7 Si16 Mo12'
_cell_volume   654.16920870
_cell_formula_units_Z   1
loop_
 _symmetry_equiv_pos_site_id
 _symmetry_equiv_pos_as_xyz
  1  'x, y, z'
loop_
 _atom_site_type_symbol
 _atom_site_label
 _atom_site_symmetry_multiplicity
 _atom_site_fract_x
 _atom_site_fract_y
 _atom_site_fract_z
 _atom_site_occupancy
  Nd  Nd0  1  0.994588  0.165509  0.094417  1
  Th  Th1  1  0.491486  0.338566  0.095966  1
  Th  Th2  1  0.991927  0.161939  0.404699  1
  Th  Th3  1  0.508566  0.664442  0.595538  1
  Th  Th4  1  0.006711  0.835233  0.904791  1
  Th  Th5  1  0.508435  0.662648  0.905763  1
  Th  Th6  1  0.009753  0.837220  0.594991  1
  Th  Th7  1  0.490433  0.334800  0.403341  1
  Si  Si8  1  0.655877  0.049637  0.548567  1
  Si  Si9  1  0.153499  0.449384  0.951780  1
  Si  Si10  1  0.342464  0.952247  0.049007  1
  Si  Si11  1  0.841923  0.547793  0.451775  1
  Si  Si12  1  0.347924  0.947301  0.449528  1
  Si  Si13  1  0.845925  0.547170  0.048747  1
  Si  Si14  1  0.655360  0.048849  0.952960  1
  Si  Si15  1  0.155671  0.450557  0.548221  1
  Si  Si16  1  0.538524  0.350747  0.749683  1
  Si  Si17  1  0.038520  0.148227  0.751445  1
  Si  Si18  1  0.460589  0.651175  0.253718  1
  Si  Si19  1  0.962670  0.855084  0.246955  1
  Si  Si20  1  0.816535  0.615020  0.749917  1
  Si  Si21  1  0.315000  0.884868  0.750990  1
  Si  Si22  1  0.180888  0.384794  0.249403  1
  Si  Si23  1  0.687967  0.116272  0.247462  1
  Mo  Mo24  1  0.833021  0.336129  0.625594  1
  Mo  Mo25  1  0.334330  0.164101  0.875093  1
  Mo  Mo26  1  0.167471  0.662904  0.125498  1
  Mo  Mo27  1  0.678887  0.840327  0.373532  1
  Mo  Mo28  1  0.160925  0.662278  0.373743  1
  Mo  Mo29  1  0.661888  0.833548  0.124944  1
  Mo  Mo30  1  0.829098  0.338305  0.873577  1
  Mo  Mo31  1  0.331852  0.161471  0.626108  1
  Mo  Mo32  1  0.670704  0.997687  0.750914  1
  Mo  Mo33  1  0.171851  0.500635  0.749838  1
  Mo  Mo34  1  0.331286  0.001179  0.250610  1
  Mo  Mo35  1  0.827451  0.501950  0.250886  1
