# generated using pymatgen
data_Tb6Si(P3Rh5)4
_symmetry_space_group_name_H-M   'P 1'
_cell_length_a   13.33272900
_cell_length_b   13.33272737
_cell_length_c   3.92420300
_cell_angle_alpha   90.00000000
_cell_angle_beta   90.00000000
_cell_angle_gamma   119.99999660
_symmetry_Int_Tables_number   1
_chemical_formula_structural   Tb6Si(P3Rh5)4
_chemical_formula_sum   'Tb6 Si1 P12 Rh20'
_cell_volume   604.11575561
_cell_formula_units_Z   1
loop_
 _symmetry_equiv_pos_site_id
 _symmetry_equiv_pos_as_xyz
  1  'x, y, z'
loop_
 _atom_site_type_symbol
 _atom_site_label
 _atom_site_symmetry_multiplicity
 _atom_site_fract_x
 _atom_site_fract_y
 _atom_site_fract_z
 _atom_site_occupancy
  Tb  Tb0  1  0.530493  0.717039  0.247897  1
  Tb  Tb1  1  0.282961  0.813453  0.247897  1
  Tb  Tb2  1  0.186547  0.469507  0.247897  1
  Tb  Tb3  1  0.469507  0.282961  0.752103  1
  Tb  Tb4  1  0.717039  0.186547  0.752103  1
  Tb  Tb5  1  0.813453  0.530493  0.752103  1
  Si  Si6  1  0.000000  0.000000  0.000000  1
  P  P7  1  0.525869  0.138996  0.250727  1
  P  P8  1  0.861004  0.386874  0.250727  1
  P  P9  1  0.613126  0.474131  0.250727  1
  P  P10  1  0.946944  0.716078  0.253153  1
  P  P11  1  0.283922  0.230865  0.253153  1
  P  P12  1  0.769135  0.053056  0.253153  1
  P  P13  1  0.386874  0.525869  0.749273  1
  P  P14  1  0.474131  0.861004  0.749273  1
  P  P15  1  0.138996  0.613126  0.749273  1
  P  P16  1  0.716078  0.769135  0.746847  1
  P  P17  1  0.230865  0.946944  0.746847  1
  P  P18  1  0.053056  0.283922  0.746847  1
  Rh  Rh19  1  0.333333  0.666667  0.751993  1
  Rh  Rh20  1  0.920212  0.249945  0.253647  1
  Rh  Rh21  1  0.750055  0.670265  0.253647  1
  Rh  Rh22  1  0.329735  0.079788  0.253647  1
  Rh  Rh23  1  0.440009  0.024443  0.751495  1
  Rh  Rh24  1  0.975557  0.415566  0.751495  1
  Rh  Rh25  1  0.584434  0.559991  0.751495  1
  Rh  Rh26  1  0.666667  0.333333  0.248007  1
  Rh  Rh27  1  0.094292  0.190699  0.247033  1
  Rh  Rh28  1  0.809301  0.903593  0.247033  1
  Rh  Rh29  1  0.096407  0.905708  0.247033  1
  Rh  Rh30  1  0.024443  0.584434  0.248505  1
  Rh  Rh31  1  0.415566  0.440009  0.248505  1
  Rh  Rh32  1  0.559991  0.975557  0.248505  1
  Rh  Rh33  1  0.670265  0.920212  0.746353  1
  Rh  Rh34  1  0.079788  0.750055  0.746353  1
  Rh  Rh35  1  0.249945  0.329735  0.746353  1
  Rh  Rh36  1  0.905708  0.809301  0.752967  1
  Rh  Rh37  1  0.190699  0.096407  0.752967  1
  Rh  Rh38  1  0.903593  0.094292  0.752967  1
