# generated using pymatgen
data_Tb3Y(Er3Sn4)2
_symmetry_space_group_name_H-M   'P 1'
_cell_length_a   8.00677300
_cell_length_b   8.14520108
_cell_length_c   15.39210500
_cell_angle_alpha   89.99191056
_cell_angle_beta   90.00000000
_cell_angle_gamma   90.00000000
_symmetry_Int_Tables_number   1
_chemical_formula_structural   Tb3Y(Er3Sn4)2
_chemical_formula_sum   'Tb6 Y2 Er12 Sn16'
_cell_volume   1003.82345543
_cell_formula_units_Z   2
loop_
 _symmetry_equiv_pos_site_id
 _symmetry_equiv_pos_as_xyz
  1  'x, y, z'
loop_
 _atom_site_type_symbol
 _atom_site_label
 _atom_site_symmetry_multiplicity
 _atom_site_fract_x
 _atom_site_fract_y
 _atom_site_fract_z
 _atom_site_occupancy
  Tb  Tb0  1  0.520969  0.320592  0.902629  1
  Tb  Tb1  1  0.020969  0.179408  0.597371  1
  Tb  Tb2  1  0.478953  0.679379  0.402742  1
  Tb  Tb3  1  0.978953  0.820621  0.097258  1
  Tb  Tb4  1  0.478949  0.679415  0.097283  1
  Tb  Tb5  1  0.978949  0.820585  0.402717  1
  Y  Y6  1  0.521428  0.320070  0.597590  1
  Y  Y7  1  0.021428  0.179930  0.902410  1
  Er  Er8  1  0.367321  0.836618  0.877444  1
  Er  Er9  1  0.867321  0.663382  0.622556  1
  Er  Er10  1  0.632707  0.163444  0.377631  1
  Er  Er11  1  0.132707  0.336556  0.122369  1
  Er  Er12  1  0.632738  0.163424  0.122333  1
  Er  Er13  1  0.132738  0.336576  0.377667  1
  Er  Er14  1  0.367454  0.836496  0.622546  1
  Er  Er15  1  0.867454  0.663504  0.877454  1
  Er  Er16  1  0.198163  0.503584  0.749957  1
  Er  Er17  1  0.698163  0.996416  0.750043  1
  Er  Er18  1  0.801758  0.496265  0.249978  1
  Er  Er19  1  0.301758  0.003735  0.250022  1
  Sn  Sn20  1  0.294055  0.037551  0.041432  1
  Sn  Sn21  1  0.794055  0.462449  0.458568  1
  Sn  Sn22  1  0.705491  0.962533  0.541759  1
  Sn  Sn23  1  0.205491  0.537467  0.958241  1
  Sn  Sn24  1  0.705782  0.962733  0.958140  1
  Sn  Sn25  1  0.205782  0.537267  0.541860  1
  Sn  Sn26  1  0.294303  0.037288  0.458434  1
  Sn  Sn27  1  0.794303  0.462712  0.041566  1
  Sn  Sn28  1  0.564620  0.620831  0.750214  1
  Sn  Sn29  1  0.064620  0.879169  0.749786  1
  Sn  Sn30  1  0.435337  0.379976  0.249990  1
  Sn  Sn31  1  0.935337  0.120024  0.250010  1
  Sn  Sn32  1  0.329553  0.147241  0.750027  1
  Sn  Sn33  1  0.829553  0.352759  0.749973  1
  Sn  Sn34  1  0.670419  0.852626  0.250005  1
  Sn  Sn35  1  0.170419  0.647374  0.249995  1
