# generated using pymatgen
data_YbCe(BrO)2
_symmetry_space_group_name_H-M   'P 1'
_cell_length_a   3.91470000
_cell_length_b   3.91470000
_cell_length_c   8.51660300
_cell_angle_alpha   90.00000000
_cell_angle_beta   90.00000000
_cell_angle_gamma   90.00000000
_symmetry_Int_Tables_number   1
_chemical_formula_structural   YbCe(BrO)2
_chemical_formula_sum   'Yb1 Ce1 Br2 O2'
_cell_volume   130.51588568
_cell_formula_units_Z   1
loop_
 _symmetry_equiv_pos_site_id
 _symmetry_equiv_pos_as_xyz
  1  'x, y, z'
loop_
 _atom_site_type_symbol
 _atom_site_label
 _atom_site_symmetry_multiplicity
 _atom_site_fract_x
 _atom_site_fract_y
 _atom_site_fract_z
 _atom_site_occupancy
  Yb  Yb0  1  0.000000  0.500000  0.148078  1
  Ce  Ce1  1  0.500000  0.000000  0.878757  1
  Br  Br2  1  0.000000  0.500000  0.671948  1
  Br  Br3  1  0.500000  0.000000  0.312890  1
  O  O4  1  0.000000  0.000000  0.994164  1
  O  O5  1  0.500000  0.500000  0.994164  1
