# generated using pymatgen
data_YMn(PIr)2
_symmetry_space_group_name_H-M   'P 1'
_cell_length_a   3.87026900
_cell_length_b   11.10844000
_cell_length_c   12.82748200
_cell_angle_alpha   90.00000000
_cell_angle_beta   90.00000000
_cell_angle_gamma   90.00000000
_symmetry_Int_Tables_number   1
_chemical_formula_structural   YMn(PIr)2
_chemical_formula_sum   'Y6 Mn6 P12 Ir12'
_cell_volume   551.48745645
_cell_formula_units_Z   6
loop_
 _symmetry_equiv_pos_site_id
 _symmetry_equiv_pos_as_xyz
  1  'x, y, z'
loop_
 _atom_site_type_symbol
 _atom_site_label
 _atom_site_symmetry_multiplicity
 _atom_site_fract_x
 _atom_site_fract_y
 _atom_site_fract_z
 _atom_site_occupancy
  Y  Y0  1  0.000000  0.500000  0.516890  1
  Y  Y1  1  0.500000  0.000000  0.482461  1
  Y  Y2  1  0.500000  0.820638  0.199778  1
  Y  Y3  1  0.500000  0.179362  0.199778  1
  Y  Y4  1  0.000000  0.677486  0.796480  1
  Y  Y5  1  0.000000  0.322514  0.796480  1
  Mn  Mn6  1  0.500000  0.500000  0.166691  1
  Mn  Mn7  1  0.000000  0.000000  0.840888  1
  Mn  Mn8  1  0.000000  0.500000  0.985870  1
  Mn  Mn9  1  0.500000  0.000000  0.007923  1
  Mn  Mn10  1  0.500000  0.344268  0.998474  1
  Mn  Mn11  1  0.500000  0.655732  0.998474  1
  P  P12  1  0.500000  0.500000  0.882163  1
  P  P13  1  0.000000  0.000000  0.111398  1
  P  P14  1  0.500000  0.500000  0.345775  1
  P  P15  1  0.000000  0.000000  0.656915  1
  P  P16  1  0.500000  0.313492  0.618718  1
  P  P17  1  0.500000  0.686508  0.618718  1
  P  P18  1  0.000000  0.184609  0.379378  1
  P  P19  1  0.000000  0.815391  0.379378  1
  P  P20  1  0.500000  0.844037  0.897001  1
  P  P21  1  0.500000  0.155963  0.897001  1
  P  P22  1  0.000000  0.646798  0.106179  1
  P  P23  1  0.000000  0.353202  0.106179  1
  Ir  Ir24  1  0.500000  0.500000  0.698655  1
  Ir  Ir25  1  0.000000  0.000000  0.295487  1
  Ir  Ir26  1  0.000000  0.173322  0.004410  1
  Ir  Ir27  1  0.000000  0.826678  0.004410  1
  Ir  Ir28  1  0.500000  0.290733  0.430063  1
  Ir  Ir29  1  0.500000  0.709267  0.430063  1
  Ir  Ir30  1  0.000000  0.205338  0.571187  1
  Ir  Ir31  1  0.000000  0.794662  0.571187  1
  Ir  Ir32  1  0.500000  0.873204  0.716920  1
  Ir  Ir33  1  0.500000  0.126796  0.716920  1
  Ir  Ir34  1  0.000000  0.626704  0.285858  1
  Ir  Ir35  1  0.000000  0.373296  0.285858  1
