# generated using pymatgen
data_BTe28
_symmetry_space_group_name_H-M   'P 1'
_cell_length_a   11.94840564
_cell_length_b   10.77129257
_cell_length_c   12.42422500
_cell_angle_alpha   114.70317048
_cell_angle_beta   123.63460921
_cell_angle_gamma   88.59305117
_symmetry_Int_Tables_number   1
_chemical_formula_structural   BTe28
_chemical_formula_sum   'B1 Te28'
_cell_volume   1163.32830564
_cell_formula_units_Z   1
loop_
 _symmetry_equiv_pos_site_id
 _symmetry_equiv_pos_as_xyz
  1  'x, y, z'
loop_
 _atom_site_type_symbol
 _atom_site_label
 _atom_site_symmetry_multiplicity
 _atom_site_fract_x
 _atom_site_fract_y
 _atom_site_fract_z
 _atom_site_occupancy
  B  B0  1  0.500000  0.000000  0.000000  1
  Te  Te1  1  0.223004  0.112720  0.417858  1
  Te  Te2  1  0.587179  0.174391  0.434213  1
  Te  Te3  1  0.284915  0.271594  0.911214  1
  Te  Te4  1  0.932211  0.315165  0.909081  1
  Te  Te5  1  0.204997  0.519132  0.716073  1
  Te  Te6  1  0.806794  0.507320  0.621600  1
  Te  Te7  1  0.412821  0.825609  0.565787  1
  Te  Te8  1  0.776996  0.887280  0.582142  1
  Te  Te9  1  0.067789  0.684835  0.090919  1
  Te  Te10  1  0.715085  0.728406  0.088786  1
  Te  Te11  1  0.193206  0.492680  0.378400  1
  Te  Te12  1  0.795003  0.480868  0.283927  1
  Te  Te13  1  0.767327  0.124833  0.898027  1
  Te  Te14  1  0.309231  0.979857  0.806578  1
  Te  Te15  1  0.790954  0.661675  0.871128  1
  Te  Te16  1  0.375192  0.693320  0.030154  1
  Te  Te17  1  0.533266  0.257601  0.220792  1
  Te  Te18  1  0.032597  0.285112  0.357655  1
  Te  Te19  1  0.690769  0.020143  0.193422  1
  Te  Te20  1  0.232673  0.875167  0.101973  1
  Te  Te21  1  0.624808  0.306680  0.969846  1
  Te  Te22  1  0.209046  0.338325  0.128872  1
  Te  Te23  1  0.967403  0.714888  0.642345  1
  Te  Te24  1  0.466734  0.742399  0.779208  1
  Te  Te25  1  0.035611  0.339355  0.718870  1
  Te  Te26  1  0.481006  0.306886  0.587420  1
  Te  Te27  1  0.518994  0.693114  0.412580  1
  Te  Te28  1  0.964389  0.660645  0.281130  1
