# generated using pymatgen
data_LiHo2Th2Pd11
_symmetry_space_group_name_H-M   'P 1'
_cell_length_a   5.92969900
_cell_length_b   5.88502350
_cell_length_c   9.64086500
_cell_angle_alpha   90.00000000
_cell_angle_beta   90.00000000
_cell_angle_gamma   120.25143483
_symmetry_Int_Tables_number   1
_chemical_formula_structural   LiHo2Th2Pd11
_chemical_formula_sum   'Li1 Ho2 Th2 Pd11'
_cell_volume   290.61736371
_cell_formula_units_Z   1
loop_
 _symmetry_equiv_pos_site_id
 _symmetry_equiv_pos_as_xyz
  1  'x, y, z'
loop_
 _atom_site_type_symbol
 _atom_site_label
 _atom_site_symmetry_multiplicity
 _atom_site_fract_x
 _atom_site_fract_y
 _atom_site_fract_z
 _atom_site_occupancy
  Li  Li0  1  0.795402  0.590803  0.250000  1
  Ho  Ho1  1  0.332463  0.664926  0.250000  1
  Ho  Ho2  1  0.668454  0.336908  0.750000  1
  Th  Th3  1  0.004204  0.008409  0.504324  1
  Th  Th4  1  0.004204  0.008409  0.995676  1
  Pd  Pd5  1  0.506172  0.507107  0.496447  1
  Pd  Pd6  1  0.501881  0.003763  0.496739  1
  Pd  Pd7  1  0.000935  0.507107  0.496447  1
  Pd  Pd8  1  0.506172  0.507107  0.003553  1
  Pd  Pd9  1  0.501881  0.003763  0.003261  1
  Pd  Pd10  1  0.000935  0.507107  0.003553  1
  Pd  Pd11  1  0.345624  0.172517  0.250000  1
  Pd  Pd12  1  0.826892  0.172517  0.250000  1
  Pd  Pd13  1  0.175901  0.351801  0.750000  1
  Pd  Pd14  1  0.651492  0.828879  0.750000  1
  Pd  Pd15  1  0.177387  0.828879  0.750000  1
