# generated using pymatgen
data_Rb2Pb(WO4)3
_symmetry_space_group_name_H-M   'P 1'
_cell_length_a   7.55126127
_cell_length_b   7.55126148
_cell_length_c   7.54288129
_cell_angle_alpha   59.31445658
_cell_angle_beta   59.31445851
_cell_angle_gamma   59.27126788
_symmetry_Int_Tables_number   1
_chemical_formula_structural   Rb2Pb(WO4)3
_chemical_formula_sum   'Rb2 Pb1 W3 O12'
_cell_volume   299.28415327
_cell_formula_units_Z   1
loop_
 _symmetry_equiv_pos_site_id
 _symmetry_equiv_pos_as_xyz
  1  'x, y, z'
loop_
 _atom_site_type_symbol
 _atom_site_label
 _atom_site_symmetry_multiplicity
 _atom_site_fract_x
 _atom_site_fract_y
 _atom_site_fract_z
 _atom_site_occupancy
  Rb  Rb0  1  0.826053  0.894923  0.384972  1
  Rb  Rb1  1  0.105077  0.173947  0.615028  1
  Pb  Pb2  1  0.498530  0.501470  0.000000  1
  W  W3  1  0.995763  0.504593  0.001186  1
  W  W4  1  0.495407  0.004237  0.998814  1
  W  W5  1  0.497143  0.502857  0.500000  1
  O  O6  1  0.195210  0.196979  0.063404  1
  O  O7  1  0.579245  0.572928  0.652632  1
  O  O8  1  0.152659  0.572644  0.079645  1
  O  O9  1  0.564274  0.196577  0.695412  1
  O  O10  1  0.574889  0.153603  0.075604  1
  O  O11  1  0.196437  0.563957  0.696947  1
  O  O12  1  0.803021  0.804790  0.936596  1
  O  O13  1  0.427072  0.420755  0.347368  1
  O  O14  1  0.846397  0.425111  0.924396  1
  O  O15  1  0.436043  0.803563  0.303053  1
  O  O16  1  0.427356  0.847341  0.920355  1
  O  O17  1  0.803423  0.435726  0.304588  1
