# generated using pymatgen
data_Eu2MgRh2
_symmetry_space_group_name_H-M   'P 1'
_cell_length_a   5.75678509
_cell_length_b   5.75678513
_cell_length_c   5.75678583
_cell_angle_alpha   136.17289876
_cell_angle_beta   117.42024938
_cell_angle_gamma   79.51685397
_symmetry_Int_Tables_number   1
_chemical_formula_structural   Eu2MgRh2
_chemical_formula_sum   'Eu2 Mg1 Rh2'
_cell_volume   113.71278036
_cell_formula_units_Z   1
loop_
 _symmetry_equiv_pos_site_id
 _symmetry_equiv_pos_as_xyz
  1  'x, y, z'
loop_
 _atom_site_type_symbol
 _atom_site_label
 _atom_site_symmetry_multiplicity
 _atom_site_fract_x
 _atom_site_fract_y
 _atom_site_fract_z
 _atom_site_occupancy
  Eu  Eu0  1  0.701938  0.201937  0.500001  1
  Eu  Eu1  1  0.298063  0.798063  0.500000  1
  Mg  Mg2  1  0.000000  0.000000  0.000000  1
  Rh  Rh3  1  0.729223  0.500000  0.229223  1
  Rh  Rh4  1  0.270778  0.500000  0.770778  1
