# generated using pymatgen
data_Ho4TmRu3
_symmetry_space_group_name_H-M   'P 1'
_cell_length_a   10.74383000
_cell_length_b   10.74383000
_cell_length_c   6.34805200
_cell_angle_alpha   90.00000000
_cell_angle_beta   90.00000000
_cell_angle_gamma   90.00000000
_symmetry_Int_Tables_number   1
_chemical_formula_structural   Ho4TmRu3
_chemical_formula_sum   'Ho16 Tm4 Ru12'
_cell_volume   732.75490008
_cell_formula_units_Z   4
loop_
 _symmetry_equiv_pos_site_id
 _symmetry_equiv_pos_as_xyz
  1  'x, y, z'
loop_
 _atom_site_type_symbol
 _atom_site_label
 _atom_site_symmetry_multiplicity
 _atom_site_fract_x
 _atom_site_fract_y
 _atom_site_fract_z
 _atom_site_occupancy
  Ho  Ho0  1  0.291626  0.086498  0.376567  1
  Ho  Ho1  1  0.291626  0.913502  0.876567  1
  Ho  Ho2  1  0.708374  0.086498  0.876567  1
  Ho  Ho3  1  0.708374  0.913502  0.376567  1
  Ho  Ho4  1  0.586498  0.791626  0.876567  1
  Ho  Ho5  1  0.586498  0.208374  0.376567  1
  Ho  Ho6  1  0.413502  0.791626  0.376567  1
  Ho  Ho7  1  0.413502  0.208374  0.876567  1
  Ho  Ho8  1  0.208374  0.413502  0.623433  1
  Ho  Ho9  1  0.208374  0.586498  0.123433  1
  Ho  Ho10  1  0.791626  0.413502  0.123433  1
  Ho  Ho11  1  0.791626  0.586498  0.623433  1
  Ho  Ho12  1  0.913502  0.708374  0.123433  1
  Ho  Ho13  1  0.913502  0.291626  0.623433  1
  Ho  Ho14  1  0.086498  0.708374  0.623433  1
  Ho  Ho15  1  0.086498  0.291626  0.123433  1
  Tm  Tm16  1  0.000000  0.000000  0.500000  1
  Tm  Tm17  1  0.000000  0.000000  0.000000  1
  Tm  Tm18  1  0.500000  0.500000  0.000000  1
  Tm  Tm19  1  0.500000  0.500000  0.500000  1
  Ru  Ru20  1  0.847512  0.152488  0.250000  1
  Ru  Ru21  1  0.847512  0.847512  0.750000  1
  Ru  Ru22  1  0.152488  0.152488  0.750000  1
  Ru  Ru23  1  0.152488  0.847512  0.250000  1
  Ru  Ru24  1  0.652488  0.347512  0.750000  1
  Ru  Ru25  1  0.652488  0.652488  0.250000  1
  Ru  Ru26  1  0.347512  0.347512  0.250000  1
  Ru  Ru27  1  0.347512  0.652488  0.750000  1
  Ru  Ru28  1  0.500000  0.000000  0.125042  1
  Ru  Ru29  1  0.500000  0.000000  0.625042  1
  Ru  Ru30  1  0.000000  0.500000  0.874958  1
  Ru  Ru31  1  0.000000  0.500000  0.374958  1
