# generated using pymatgen
data_Sc2Ni(SnRh2)3
_symmetry_space_group_name_H-M   'P 1'
_cell_length_a   4.34925848
_cell_length_b   6.85872000
_cell_length_c   13.02945033
_cell_angle_alpha   90.00000000
_cell_angle_beta   89.87798335
_cell_angle_gamma   90.00000000
_symmetry_Int_Tables_number   1
_chemical_formula_structural   Sc2Ni(SnRh2)3
_chemical_formula_sum   'Sc4 Ni2 Sn6 Rh12'
_cell_volume   388.67213217
_cell_formula_units_Z   2
loop_
 _symmetry_equiv_pos_site_id
 _symmetry_equiv_pos_as_xyz
  1  'x, y, z'
loop_
 _atom_site_type_symbol
 _atom_site_label
 _atom_site_symmetry_multiplicity
 _atom_site_fract_x
 _atom_site_fract_y
 _atom_site_fract_z
 _atom_site_occupancy
  Sc  Sc0  1  0.999871  0.000000  0.329184  1
  Sc  Sc1  1  0.499805  0.499999  0.497580  1
  Sc  Sc2  1  0.999772  0.000000  0.669144  1
  Sc  Sc3  1  0.500131  0.499999  0.837334  1
  Ni  Ni4  1  0.999966  0.000000  0.001976  1
  Ni  Ni5  1  0.500423  0.499999  0.164955  1
  Sn  Sn6  1  0.000454  0.499999  0.008356  1
  Sn  Sn7  1  0.499838  0.000000  0.158078  1
  Sn  Sn8  1  0.999916  0.499999  0.320704  1
  Sn  Sn9  1  0.499872  0.000000  0.495710  1
  Sn  Sn10  1  0.999686  0.499999  0.670874  1
  Sn  Sn11  1  0.499955  0.000000  0.846014  1
  Rh  Rh12  1  0.500510  0.256125  0.002852  1
  Rh  Rh13  1  0.500510  0.743875  0.002852  1
  Rh  Rh14  1  0.999967  0.244322  0.163950  1
  Rh  Rh15  1  0.999967  0.755679  0.163950  1
  Rh  Rh16  1  0.500013  0.254102  0.327419  1
  Rh  Rh17  1  0.500013  0.745898  0.327419  1
  Rh  Rh18  1  0.999745  0.253293  0.498530  1
  Rh  Rh19  1  0.999745  0.746708  0.498530  1
  Rh  Rh20  1  0.499845  0.246498  0.668090  1
  Rh  Rh21  1  0.499845  0.753502  0.668090  1
  Rh  Rh22  1  0.000074  0.245949  0.839203  1
  Rh  Rh23  1  0.000074  0.754052  0.839203  1
