# generated using pymatgen
data_Zr5Sc6URu12
_symmetry_space_group_name_H-M   'P 1'
_cell_length_a   4.62745200
_cell_length_b   6.48879100
_cell_length_c   13.81266600
_cell_angle_alpha   90.00000000
_cell_angle_beta   89.99985519
_cell_angle_gamma   90.00000000
_symmetry_Int_Tables_number   1
_chemical_formula_structural   Zr5Sc6URu12
_chemical_formula_sum   'Zr5 Sc6 U1 Ru12'
_cell_volume   414.74696721
_cell_formula_units_Z   1
loop_
 _symmetry_equiv_pos_site_id
 _symmetry_equiv_pos_as_xyz
  1  'x, y, z'
loop_
 _atom_site_type_symbol
 _atom_site_label
 _atom_site_symmetry_multiplicity
 _atom_site_fract_x
 _atom_site_fract_y
 _atom_site_fract_z
 _atom_site_occupancy
  Zr  Zr0  1  0.499985  0.000000  0.169075  1
  Zr  Zr1  1  0.999988  0.500001  0.336114  1
  Zr  Zr2  1  0.500000  0.000000  0.500000  1
  Zr  Zr3  1  0.000012  0.500001  0.663886  1
  Zr  Zr4  1  0.500013  0.000000  0.830925  1
  Sc  Sc5  1  0.000000  0.000000  0.000000  1
  Sc  Sc6  1  0.499994  0.500001  0.172632  1
  Sc  Sc7  1  0.999991  0.000000  0.333901  1
  Sc  Sc8  1  0.500000  0.500001  0.500000  1
  Sc  Sc9  1  0.000009  0.000000  0.666099  1
  Sc  Sc10  1  0.500006  0.500001  0.827368  1
  U  U11  1  0.000000  0.500001  0.000000  1
  Ru  Ru12  1  0.500000  0.257016  0.000000  1
  Ru  Ru13  1  0.500000  0.742984  0.000000  1
  Ru  Ru14  1  0.999991  0.256115  0.161896  1
  Ru  Ru15  1  0.999991  0.743885  0.161896  1
  Ru  Ru16  1  0.499985  0.249905  0.332701  1
  Ru  Ru17  1  0.499985  0.750095  0.332701  1
  Ru  Ru18  1  0.000000  0.249161  0.500000  1
  Ru  Ru19  1  0.000000  0.750839  0.500000  1
  Ru  Ru20  1  0.500015  0.249905  0.667299  1
  Ru  Ru21  1  0.500015  0.750095  0.667299  1
  Ru  Ru22  1  0.000009  0.256115  0.838104  1
  Ru  Ru23  1  0.000009  0.743885  0.838104  1
