# generated using pymatgen
data_Ca2Lu2Ni13C4
_symmetry_space_group_name_H-M   'P 1'
_cell_length_a   8.33134439
_cell_length_b   8.33134399
_cell_length_c   3.88309300
_cell_angle_alpha   90.00000000
_cell_angle_beta   90.00000000
_cell_angle_gamma   90.62387388
_symmetry_Int_Tables_number   1
_chemical_formula_structural   Ca2Lu2Ni13C4
_chemical_formula_sum   'Ca2 Lu2 Ni13 C4'
_cell_volume   269.51453957
_cell_formula_units_Z   1
loop_
 _symmetry_equiv_pos_site_id
 _symmetry_equiv_pos_as_xyz
  1  'x, y, z'
loop_
 _atom_site_type_symbol
 _atom_site_label
 _atom_site_symmetry_multiplicity
 _atom_site_fract_x
 _atom_site_fract_y
 _atom_site_fract_z
 _atom_site_occupancy
  Ca  Ca0  1  0.851644  0.851644  0.000000  1
  Ca  Ca1  1  0.148356  0.148356  0.000000  1
  Lu  Lu2  1  0.312491  0.687509  0.000000  1
  Lu  Lu3  1  0.687509  0.312491  0.000000  1
  Ni  Ni4  1  0.500000  0.500000  0.500000  1
  Ni  Ni5  1  0.714109  0.075336  0.500000  1
  Ni  Ni6  1  0.285891  0.924664  0.500000  1
  Ni  Ni7  1  0.924664  0.285891  0.500000  1
  Ni  Ni8  1  0.075336  0.714109  0.500000  1
  Ni  Ni9  1  0.500000  0.000000  0.000000  1
  Ni  Ni10  1  0.000000  0.500000  0.000000  1
  Ni  Ni11  1  0.569856  0.788340  0.500000  1
  Ni  Ni12  1  0.430144  0.211660  0.500000  1
  Ni  Ni13  1  0.211660  0.430144  0.500000  1
  Ni  Ni14  1  0.788340  0.569856  0.500000  1
  Ni  Ni15  1  0.620814  0.620814  0.000000  1
  Ni  Ni16  1  0.379186  0.379186  0.000000  1
  C  C17  1  0.500000  0.000000  0.500000  1
  C  C18  1  0.000000  0.500000  0.500000  1
  C  C19  1  0.943318  0.056682  0.500000  1
  C  C20  1  0.056682  0.943318  0.500000  1
