# generated using pymatgen
data_CeNd2P3
_symmetry_space_group_name_H-M   'P 1'
_cell_length_a   7.22567945
_cell_length_b   7.22567939
_cell_length_c   7.22568002
_cell_angle_alpha   146.36129141
_cell_angle_beta   131.81092010
_cell_angle_gamma   60.05147489
_symmetry_Int_Tables_number   1
_chemical_formula_structural   CeNd2P3
_chemical_formula_sum   'Ce1 Nd2 P3'
_cell_volume   154.33503039
_cell_formula_units_Z   1
loop_
 _symmetry_equiv_pos_site_id
 _symmetry_equiv_pos_as_xyz
  1  'x, y, z'
loop_
 _atom_site_type_symbol
 _atom_site_label
 _atom_site_symmetry_multiplicity
 _atom_site_fract_x
 _atom_site_fract_y
 _atom_site_fract_z
 _atom_site_occupancy
  Ce  Ce0  1  0.000000  0.000000  0.000000  1
  Nd  Nd1  1  0.667244  0.667244  0.000000  1
  Nd  Nd2  1  0.332756  0.332756  0.000000  1
  P  P3  1  0.838683  0.338683  0.500000  1
  P  P4  1  0.500000  0.000000  0.500000  1
  P  P5  1  0.161317  0.661317  0.500000  1
