# generated using pymatgen
data_Na4LuPtO6
_symmetry_space_group_name_H-M   'P 1'
_cell_length_a   5.61595003
_cell_length_b   5.61562586
_cell_length_c   5.81009344
_cell_angle_alpha   99.38897753
_cell_angle_beta   99.38570120
_cell_angle_gamma   119.99359218
_symmetry_Int_Tables_number   1
_chemical_formula_structural   Na4LuPtO6
_chemical_formula_sum   'Na4 Lu1 Pt1 O6'
_cell_volume   150.01534627
_cell_formula_units_Z   1
loop_
 _symmetry_equiv_pos_site_id
 _symmetry_equiv_pos_as_xyz
  1  'x, y, z'
loop_
 _atom_site_type_symbol
 _atom_site_label
 _atom_site_symmetry_multiplicity
 _atom_site_fract_x
 _atom_site_fract_y
 _atom_site_fract_z
 _atom_site_occupancy
  Na  Na0  1  0.501402  0.499080  0.000075  1
  Na  Na1  1  0.988857  0.011337  0.500063  1
  Na  Na2  1  0.663126  0.337050  0.499934  1
  Na  Na3  1  0.343182  0.657496  0.499778  1
  Lu  Lu4  1  0.166453  0.833288  0.999889  1
  Pt  Pt5  1  0.833410  0.166476  0.000030  1
  O  O6  1  0.593512  0.945787  0.209516  1
  O  O7  1  0.925720  0.548391  0.214740  1
  O  O8  1  0.197424  0.218297  0.215131  1
  O  O9  1  0.781497  0.802407  0.784816  1
  O  O10  1  0.451455  0.074164  0.785380  1
  O  O11  1  0.053965  0.406226  0.790646  1
