# generated using pymatgen
data_TbNd4(SnBi)2
_symmetry_space_group_name_H-M   'P 1'
_cell_length_a   8.38338100
_cell_length_b   8.42635100
_cell_length_c   16.11100800
_cell_angle_alpha   90.00000000
_cell_angle_beta   90.00000000
_cell_angle_gamma   90.00000000
_symmetry_Int_Tables_number   1
_chemical_formula_structural   TbNd4(SnBi)2
_chemical_formula_sum   'Tb4 Nd16 Sn8 Bi8'
_cell_volume   1138.10272460
_cell_formula_units_Z   4
loop_
 _symmetry_equiv_pos_site_id
 _symmetry_equiv_pos_as_xyz
  1  'x, y, z'
loop_
 _atom_site_type_symbol
 _atom_site_label
 _atom_site_symmetry_multiplicity
 _atom_site_fract_x
 _atom_site_fract_y
 _atom_site_fract_z
 _atom_site_occupancy
  Tb  Tb0  1  0.217507  0.496557  0.750000  1
  Tb  Tb1  1  0.717507  0.003443  0.750000  1
  Tb  Tb2  1  0.782493  0.503443  0.250000  1
  Tb  Tb3  1  0.282493  0.996557  0.250000  1
  Nd  Nd4  1  0.387625  0.838259  0.878428  1
  Nd  Nd5  1  0.887625  0.661741  0.621572  1
  Nd  Nd6  1  0.612375  0.161741  0.378428  1
  Nd  Nd7  1  0.112375  0.338259  0.121572  1
  Nd  Nd8  1  0.612375  0.161741  0.121572  1
  Nd  Nd9  1  0.112375  0.338259  0.378428  1
  Nd  Nd10  1  0.387625  0.838259  0.621572  1
  Nd  Nd11  1  0.887625  0.661741  0.878428  1
  Nd  Nd12  1  0.551344  0.326942  0.890641  1
  Nd  Nd13  1  0.051344  0.173058  0.609359  1
  Nd  Nd14  1  0.448656  0.673058  0.390641  1
  Nd  Nd15  1  0.948656  0.826942  0.109359  1
  Nd  Nd16  1  0.448656  0.673058  0.109359  1
  Nd  Nd17  1  0.948656  0.826942  0.390641  1
  Nd  Nd18  1  0.551344  0.326942  0.609359  1
  Nd  Nd19  1  0.051344  0.173058  0.890641  1
  Sn  Sn20  1  0.584887  0.625417  0.750000  1
  Sn  Sn21  1  0.084887  0.874583  0.750000  1
  Sn  Sn22  1  0.415113  0.374583  0.250000  1
  Sn  Sn23  1  0.915113  0.125417  0.250000  1
  Sn  Sn24  1  0.354975  0.143100  0.750000  1
  Sn  Sn25  1  0.854975  0.356900  0.750000  1
  Sn  Sn26  1  0.645025  0.856900  0.250000  1
  Sn  Sn27  1  0.145025  0.643100  0.250000  1
  Bi  Bi28  1  0.270254  0.019872  0.047009  1
  Bi  Bi29  1  0.770254  0.480128  0.452991  1
  Bi  Bi30  1  0.729746  0.980128  0.547009  1
  Bi  Bi31  1  0.229746  0.519872  0.952991  1
  Bi  Bi32  1  0.729746  0.980128  0.952991  1
  Bi  Bi33  1  0.229746  0.519872  0.547009  1
  Bi  Bi34  1  0.270254  0.019872  0.452991  1
  Bi  Bi35  1  0.770254  0.480128  0.047009  1
