# generated using pymatgen
data_YTh7(AlRu)8
_symmetry_space_group_name_H-M   'P 1'
_cell_length_a   4.09648200
_cell_length_b   7.30743683
_cell_length_c   16.23703376
_cell_angle_alpha   90.80105822
_cell_angle_beta   90.00000000
_cell_angle_gamma   90.00000000
_symmetry_Int_Tables_number   1
_chemical_formula_structural   YTh7(AlRu)8
_chemical_formula_sum   'Y1 Th7 Al8 Ru8'
_cell_volume   486.00458567
_cell_formula_units_Z   1
loop_
 _symmetry_equiv_pos_site_id
 _symmetry_equiv_pos_as_xyz
  1  'x, y, z'
loop_
 _atom_site_type_symbol
 _atom_site_label
 _atom_site_symmetry_multiplicity
 _atom_site_fract_x
 _atom_site_fract_y
 _atom_site_fract_z
 _atom_site_occupancy
  Y  Y0  1  0.750000  0.959110  0.216635  1
  Th  Th1  1  0.250000  0.165781  0.560573  1
  Th  Th2  1  0.750000  0.831889  0.436526  1
  Th  Th3  1  0.750000  0.459413  0.280862  1
  Th  Th4  1  0.750000  0.333692  0.062731  1
  Th  Th5  1  0.250000  0.668949  0.939683  1
  Th  Th6  1  0.250000  0.041383  0.782522  1
  Th  Th7  1  0.250000  0.541107  0.717920  1
  Al  Al8  1  0.750000  0.502460  0.560994  1
  Al  Al9  1  0.750000  0.365146  0.851291  1
  Al  Al10  1  0.750000  0.003375  0.938976  1
  Al  Al11  1  0.750000  0.865721  0.649699  1
  Al  Al12  1  0.250000  0.492540  0.437793  1
  Al  Al13  1  0.250000  0.999208  0.067077  1
  Al  Al14  1  0.250000  0.643213  0.151042  1
  Al  Al15  1  0.250000  0.126569  0.343814  1
  Ru  Ru16  1  0.750000  0.743027  0.815494  1
  Ru  Ru17  1  0.250000  0.237422  0.936706  1
  Ru  Ru18  1  0.750000  0.257185  0.434214  1
  Ru  Ru19  1  0.250000  0.744014  0.320310  1
  Ru  Ru20  1  0.750000  0.762611  0.062946  1
  Ru  Ru21  1  0.750000  0.247823  0.682837  1
  Ru  Ru22  1  0.250000  0.271761  0.184032  1
  Ru  Ru23  1  0.250000  0.736603  0.565324  1
