# generated using pymatgen
data_MgCd3(BrO3)8
_symmetry_space_group_name_H-M   'P 1'
_cell_length_a   5.70838671
_cell_length_b   11.01630900
_cell_length_c   11.08364442
_cell_angle_alpha   119.54625380
_cell_angle_beta   89.93047756
_cell_angle_gamma   90.36431697
_symmetry_Int_Tables_number   1
_chemical_formula_structural   MgCd3(BrO3)8
_chemical_formula_sum   'Mg1 Cd3 Br8 O24'
_cell_volume   606.34593503
_cell_formula_units_Z   1
loop_
 _symmetry_equiv_pos_site_id
 _symmetry_equiv_pos_as_xyz
  1  'x, y, z'
loop_
 _atom_site_type_symbol
 _atom_site_label
 _atom_site_symmetry_multiplicity
 _atom_site_fract_x
 _atom_site_fract_y
 _atom_site_fract_z
 _atom_site_occupancy
  Mg  Mg0  1  0.146462  0.761777  0.507908  1
  Cd  Cd1  1  0.645199  0.237902  0.494102  1
  Cd  Cd2  1  0.144733  0.265133  0.007494  1
  Cd  Cd3  1  0.639533  0.733462  0.994752  1
  Br  Br4  1  0.265392  0.426023  0.354755  1
  Br  Br5  1  0.776256  0.589811  0.649411  1
  Br  Br6  1  0.261203  0.915026  0.841264  1
  Br  Br7  1  0.760344  0.082424  0.148997  1
  Br  Br8  1  0.786238  0.071438  0.677248  1
  Br  Br9  1  0.273037  0.907137  0.317163  1
  Br  Br10  1  0.276999  0.413860  0.808694  1
  Br  Br11  1  0.785253  0.591187  0.201458  1
  O  O12  1  0.415361  0.884509  0.952728  1
  O  O13  1  0.909981  0.106721  0.031640  1
  O  O14  1  0.366062  0.803460  0.680922  1
  O  O15  1  0.874977  0.199631  0.305004  1
  O  O16  1  0.382836  0.315572  0.197535  1
  O  O17  1  0.883902  0.701198  0.809277  1
  O  O18  1  0.908220  0.212121  0.813502  1
  O  O19  1  0.409140  0.771154  0.183608  1
  O  O20  1  0.937837  0.930690  0.654790  1
  O  O21  1  0.413300  0.051408  0.337522  1
  O  O22  1  0.371371  0.071461  0.871941  1
  O  O23  1  0.865927  0.928746  0.125910  1
  O  O24  1  0.404035  0.272948  0.676716  1
  O  O25  1  0.927875  0.724098  0.335418  1
  O  O26  1  0.359839  0.407140  0.952187  1
  O  O27  1  0.867296  0.604242  0.061049  1
  O  O28  1  0.422921  0.554304  0.822732  1
  O  O29  1  0.916077  0.443498  0.176475  1
  O  O30  1  0.356649  0.585510  0.385037  1
  O  O31  1  0.880242  0.433316  0.619922  1
  O  O32  1  0.426476  0.400832  0.467619  1
  O  O33  1  0.934370  0.621467  0.539584  1
  O  O34  1  0.864295  0.090304  0.539527  1
  O  O35  1  0.349963  0.890492  0.456107  1
