# generated using pymatgen
data_Pr6DyHo3(Sn5Rh2)4
_symmetry_space_group_name_H-M   'P 1'
_cell_length_a   14.19868905
_cell_length_b   14.19868905
_cell_length_c   4.59034100
_cell_angle_alpha   90.00000000
_cell_angle_beta   90.00000000
_cell_angle_gamma   89.99066235
_symmetry_Int_Tables_number   1
_chemical_formula_structural   Pr6DyHo3(Sn5Rh2)4
_chemical_formula_sum   'Pr6 Dy1 Ho3 Sn20 Rh8'
_cell_volume   925.42545157
_cell_formula_units_Z   1
loop_
 _symmetry_equiv_pos_site_id
 _symmetry_equiv_pos_as_xyz
  1  'x, y, z'
loop_
 _atom_site_type_symbol
 _atom_site_label
 _atom_site_symmetry_multiplicity
 _atom_site_fract_x
 _atom_site_fract_y
 _atom_site_fract_z
 _atom_site_occupancy
  Pr  Pr0  1  0.500003  0.499990  0.000000  1
  Pr  Pr1  1  0.000010  0.999997  0.000000  1
  Pr  Pr2  1  0.888062  0.388052  0.500000  1
  Pr  Pr3  1  0.111948  0.611938  0.500000  1
  Pr  Pr4  1  0.388082  0.111918  0.500000  1
  Pr  Pr5  1  0.611913  0.888087  0.500000  1
  Dy  Dy6  1  0.822895  0.677105  0.500000  1
  Ho  Ho7  1  0.677045  0.177000  0.500000  1
  Ho  Ho8  1  0.323000  0.822955  0.500000  1
  Ho  Ho9  1  0.177022  0.322978  0.500000  1
  Sn  Sn10  1  0.570211  0.070218  0.000000  1
  Sn  Sn11  1  0.429782  0.929789  0.000000  1
  Sn  Sn12  1  0.070233  0.429767  0.000000  1
  Sn  Sn13  1  0.929876  0.570124  0.000000  1
  Sn  Sn14  1  0.654525  0.698179  0.000000  1
  Sn  Sn15  1  0.345384  0.301851  0.000000  1
  Sn  Sn16  1  0.154628  0.801855  0.000000  1
  Sn  Sn17  1  0.845372  0.198146  0.000000  1
  Sn  Sn18  1  0.301854  0.654628  0.000000  1
  Sn  Sn19  1  0.698145  0.345372  0.000000  1
  Sn  Sn20  1  0.198149  0.154616  0.000000  1
  Sn  Sn21  1  0.801821  0.845475  0.000000  1
  Sn  Sn22  1  0.664053  0.505570  0.500000  1
  Sn  Sn23  1  0.335895  0.494377  0.500000  1
  Sn  Sn24  1  0.164073  0.994370  0.500000  1
  Sn  Sn25  1  0.835891  0.005599  0.500000  1
  Sn  Sn26  1  0.494401  0.664109  0.500000  1
  Sn  Sn27  1  0.505630  0.335927  0.500000  1
  Sn  Sn28  1  0.005623  0.164105  0.500000  1
  Sn  Sn29  1  0.994430  0.835947  0.500000  1
  Rh  Rh30  1  0.747193  0.529377  0.000000  1
  Rh  Rh31  1  0.252740  0.470475  0.000000  1
  Rh  Rh32  1  0.247259  0.970495  0.000000  1
  Rh  Rh33  1  0.752743  0.029545  0.000000  1
  Rh  Rh34  1  0.470455  0.747257  0.000000  1
  Rh  Rh35  1  0.529505  0.252741  0.000000  1
  Rh  Rh36  1  0.029525  0.247260  0.000000  1
  Rh  Rh37  1  0.970623  0.752807  0.000000  1
