# generated using pymatgen
data_Tm12Tc3Hg2
_symmetry_space_group_name_H-M   'P 1'
_cell_length_a   8.31401311
_cell_length_b   8.31401308
_cell_length_c   8.31401269
_cell_angle_alpha   109.20003557
_cell_angle_beta   109.20004553
_cell_angle_gamma   110.01495001
_symmetry_Int_Tables_number   1
_chemical_formula_structural   Tm12Tc3Hg2
_chemical_formula_sum   'Tm12 Tc3 Hg2'
_cell_volume   442.36509205
_cell_formula_units_Z   1
loop_
 _symmetry_equiv_pos_site_id
 _symmetry_equiv_pos_as_xyz
  1  'x, y, z'
loop_
 _atom_site_type_symbol
 _atom_site_label
 _atom_site_symmetry_multiplicity
 _atom_site_fract_x
 _atom_site_fract_y
 _atom_site_fract_z
 _atom_site_occupancy
  Tm  Tm0  1  0.188255  0.430462  0.242206  1
  Tm  Tm1  1  0.811745  0.569538  0.757794  1
  Tm  Tm2  1  0.188255  0.946050  0.757794  1
  Tm  Tm3  1  0.946050  0.188255  0.757794  1
  Tm  Tm4  1  0.811745  0.053950  0.242206  1
  Tm  Tm5  1  0.053950  0.811745  0.242206  1
  Tm  Tm6  1  0.430462  0.188255  0.242206  1
  Tm  Tm7  1  0.569538  0.811745  0.757794  1
  Tm  Tm8  1  0.308089  0.308089  0.616179  1
  Tm  Tm9  1  0.691911  0.691911  0.383821  1
  Tm  Tm10  1  0.691911  0.308089  0.000000  1
  Tm  Tm11  1  0.308089  0.691911  0.000000  1
  Tc  Tc12  1  0.365605  0.365605  0.000000  1
  Tc  Tc13  1  0.634395  0.634395  0.000000  1
  Tc  Tc14  1  0.000000  0.000000  0.000000  1
  Hg  Hg15  1  0.000000  0.500000  0.500000  1
  Hg  Hg16  1  0.500000  0.000000  0.500000  1
