# generated using pymatgen
data_Tb3Dy(Si2Tc)2
_symmetry_space_group_name_H-M   'P 1'
_cell_length_a   5.83187197
_cell_length_b   5.83187215
_cell_length_c   10.12946138
_cell_angle_alpha   63.45507588
_cell_angle_beta   63.45507435
_cell_angle_gamma   42.13544055
_symmetry_Int_Tables_number   1
_chemical_formula_structural   Tb3Dy(Si2Tc)2
_chemical_formula_sum   'Tb3 Dy1 Si4 Tc2'
_cell_volume   202.89787256
_cell_formula_units_Z   1
loop_
 _symmetry_equiv_pos_site_id
 _symmetry_equiv_pos_as_xyz
  1  'x, y, z'
loop_
 _atom_site_type_symbol
 _atom_site_label
 _atom_site_symmetry_multiplicity
 _atom_site_fract_x
 _atom_site_fract_y
 _atom_site_fract_z
 _atom_site_occupancy
  Tb  Tb0  1  0.812294  0.812294  0.108815  1
  Tb  Tb1  1  0.187747  0.187747  0.891030  1
  Tb  Tb2  1  0.005030  0.005030  0.322896  1
  Dy  Dy3  1  0.995251  0.995251  0.676918  1
  Si  Si4  1  0.500458  0.500458  0.122202  1
  Si  Si5  1  0.499422  0.499422  0.877504  1
  Si  Si6  1  0.643937  0.643937  0.439147  1
  Si  Si7  1  0.356005  0.356005  0.561076  1
  Tc  Tc8  1  0.272781  0.272781  0.371164  1
  Tc  Tc9  1  0.727075  0.727075  0.629248  1
