# generated using pymatgen
data_Hf6Zn17Cu7
_symmetry_space_group_name_H-M   'P 1'
_cell_length_a   8.63517358
_cell_length_b   8.64152735
_cell_length_c   8.64152700
_cell_angle_alpha   60.00000518
_cell_angle_beta   59.97566208
_cell_angle_gamma   59.97566347
_symmetry_Int_Tables_number   1
_chemical_formula_structural   Hf6Zn17Cu7
_chemical_formula_sum   'Hf6 Zn17 Cu7'
_cell_volume   455.80305840
_cell_formula_units_Z   1
loop_
 _symmetry_equiv_pos_site_id
 _symmetry_equiv_pos_as_xyz
  1  'x, y, z'
loop_
 _atom_site_type_symbol
 _atom_site_label
 _atom_site_symmetry_multiplicity
 _atom_site_fract_x
 _atom_site_fract_y
 _atom_site_fract_z
 _atom_site_occupancy
  Hf  Hf0  1  0.725839  0.273719  0.273719  1
  Hf  Hf1  1  0.277336  0.716386  0.716386  1
  Hf  Hf2  1  0.277336  0.716386  0.289893  1
  Hf  Hf3  1  0.725839  0.273719  0.726724  1
  Hf  Hf4  1  0.277336  0.289893  0.716386  1
  Hf  Hf5  1  0.725839  0.726724  0.273719  1
  Zn  Zn6  1  0.358342  0.880553  0.880553  1
  Zn  Zn7  1  0.501076  0.999363  0.999363  1
  Zn  Zn8  1  0.001553  0.499432  0.499432  1
  Zn  Zn9  1  0.001553  0.499432  0.999581  1
  Zn  Zn10  1  0.501076  0.999363  0.500199  1
  Zn  Zn11  1  0.001553  0.999581  0.499432  1
  Zn  Zn12  1  0.501076  0.500199  0.999363  1
  Zn  Zn13  1  0.336873  0.335721  0.335721  1
  Zn  Zn14  1  0.663345  0.658986  0.658986  1
  Zn  Zn15  1  0.336873  0.335721  0.991683  1
  Zn  Zn16  1  0.336873  0.991683  0.335721  1
  Zn  Zn17  1  0.663345  0.658986  0.018684  1
  Zn  Zn18  1  0.663345  0.018684  0.658986  1
  Zn  Zn19  1  0.987674  0.337442  0.337442  1
  Zn  Zn20  1  0.998123  0.667292  0.667292  1
  Zn  Zn21  1  0.988524  0.003826  0.003826  1
  Zn  Zn22  1  0.514178  0.495274  0.495274  1
  Cu  Cu23  1  0.122103  0.119767  0.119767  1
  Cu  Cu24  1  0.879679  0.878026  0.878026  1
  Cu  Cu25  1  0.122103  0.119767  0.638363  1
  Cu  Cu26  1  0.122103  0.638363  0.119767  1
  Cu  Cu27  1  0.879679  0.878026  0.364270  1
  Cu  Cu28  1  0.879679  0.364270  0.878026  1
  Cu  Cu29  1  0.629747  0.123417  0.123417  1
