# generated using pymatgen
data_Ba6Cu(SbO6)2
_symmetry_space_group_name_H-M   'P 1'
_cell_length_a   9.42668802
_cell_length_b   9.42668743
_cell_length_c   7.25069816
_cell_angle_alpha   67.16562364
_cell_angle_beta   67.16562547
_cell_angle_gamma   36.85655380
_symmetry_Int_Tables_number   1
_chemical_formula_structural   Ba6Cu(SbO6)2
_chemical_formula_sum   'Ba6 Cu1 Sb2 O12'
_cell_volume   352.65837493
_cell_formula_units_Z   1
loop_
 _symmetry_equiv_pos_site_id
 _symmetry_equiv_pos_as_xyz
  1  'x, y, z'
loop_
 _atom_site_type_symbol
 _atom_site_label
 _atom_site_symmetry_multiplicity
 _atom_site_fract_x
 _atom_site_fract_y
 _atom_site_fract_z
 _atom_site_occupancy
  Ba  Ba0  1  0.205252  0.205252  0.710377  1
  Ba  Ba1  1  0.889379  0.889379  0.708061  1
  Ba  Ba2  1  0.547281  0.547281  0.719951  1
  Ba  Ba3  1  0.794748  0.794748  0.289623  1
  Ba  Ba4  1  0.452719  0.452719  0.280049  1
  Ba  Ba5  1  0.110621  0.110621  0.291939  1
  Cu  Cu6  1  0.000000  0.000000  0.000000  1
  Sb  Sb7  1  0.667871  0.667871  0.001345  1
  Sb  Sb8  1  0.332129  0.332129  0.998655  1
  O  O9  1  0.277390  0.277390  0.303778  1
  O  O10  1  0.949319  0.949319  0.306628  1
  O  O11  1  0.620943  0.620943  0.306439  1
  O  O12  1  0.722610  0.722610  0.696222  1
  O  O13  1  0.379057  0.379057  0.693561  1
  O  O14  1  0.050681  0.050681  0.693372  1
  O  O15  1  0.000000  0.500000  0.000000  1
  O  O16  1  0.647257  0.173956  0.000415  1
  O  O17  1  0.352743  0.826044  0.999585  1
  O  O18  1  0.500000  0.000000  0.000000  1
  O  O19  1  0.173956  0.647257  0.000415  1
  O  O20  1  0.826044  0.352743  0.999585  1
