# generated using pymatgen
data_Nd3Hf2Zr(SnRh)6
_symmetry_space_group_name_H-M   'P 1'
_cell_length_a   7.53195521
_cell_length_b   7.51050690
_cell_length_c   7.70326100
_cell_angle_alpha   90.00000000
_cell_angle_beta   90.00000000
_cell_angle_gamma   119.90550150
_symmetry_Int_Tables_number   1
_chemical_formula_structural   Nd3Hf2Zr(SnRh)6
_chemical_formula_sum   'Nd3 Hf2 Zr1 Sn6 Rh6'
_cell_volume   377.74174605
_cell_formula_units_Z   1
loop_
 _symmetry_equiv_pos_site_id
 _symmetry_equiv_pos_as_xyz
  1  'x, y, z'
loop_
 _atom_site_type_symbol
 _atom_site_label
 _atom_site_symmetry_multiplicity
 _atom_site_fract_x
 _atom_site_fract_y
 _atom_site_fract_z
 _atom_site_occupancy
  Nd  Nd0  1  0.999925  0.408055  0.750000  1
  Nd  Nd1  1  0.591582  0.591476  0.750000  1
  Nd  Nd2  1  0.408539  0.000103  0.750000  1
  Hf  Hf3  1  0.605691  0.605196  0.250000  1
  Hf  Hf4  1  0.394721  0.000353  0.250000  1
  Zr  Zr5  1  0.999574  0.394300  0.250000  1
  Sn  Sn6  1  0.264098  0.264342  0.487426  1
  Sn  Sn7  1  0.000423  0.735703  0.488104  1
  Sn  Sn8  1  0.000423  0.735703  0.011896  1
  Sn  Sn9  1  0.735455  0.999450  0.487431  1
  Sn  Sn10  1  0.735455  0.999450  0.012569  1
  Sn  Sn11  1  0.264098  0.264342  0.012574  1
  Rh  Rh12  1  0.336229  0.669059  0.453197  1
  Rh  Rh13  1  0.663776  0.332852  0.453851  1
  Rh  Rh14  1  0.336229  0.669059  0.046803  1
  Rh  Rh15  1  0.000011  0.999451  0.750000  1
  Rh  Rh16  1  0.999994  0.998257  0.250000  1
  Rh  Rh17  1  0.663776  0.332852  0.046149  1
