# generated using pymatgen
data_LaYb9(Tm5Sn8)2
_symmetry_space_group_name_H-M   'P 1'
_cell_length_a   7.87309310
_cell_length_b   8.38736648
_cell_length_c   15.81565700
_cell_angle_alpha   90.05779879
_cell_angle_beta   90.16614366
_cell_angle_gamma   90.01285261
_symmetry_Int_Tables_number   1
_chemical_formula_structural   LaYb9(Tm5Sn8)2
_chemical_formula_sum   'La1 Yb9 Tm10 Sn16'
_cell_volume   1044.37432497
_cell_formula_units_Z   1
loop_
 _symmetry_equiv_pos_site_id
 _symmetry_equiv_pos_as_xyz
  1  'x, y, z'
loop_
 _atom_site_type_symbol
 _atom_site_label
 _atom_site_symmetry_multiplicity
 _atom_site_fract_x
 _atom_site_fract_y
 _atom_site_fract_z
 _atom_site_occupancy
  La  La0  1  0.506079  0.679449  0.594791  1
  Yb  Yb1  1  0.001898  0.817463  0.905922  1
  Yb  Yb2  1  0.494162  0.312961  0.090996  1
  Yb  Yb3  1  0.996063  0.187053  0.408272  1
  Yb  Yb4  1  0.494440  0.313763  0.407734  1
  Yb  Yb5  1  0.994227  0.187767  0.091155  1
  Yb  Yb6  1  0.502596  0.683287  0.904261  1
  Yb  Yb7  1  0.002492  0.817872  0.594455  1
  Yb  Yb8  1  0.162208  0.489931  0.249738  1
  Yb  Yb9  1  0.662684  0.010395  0.249725  1
  Tm  Tm10  1  0.675767  0.162916  0.625401  1
  Tm  Tm11  1  0.176542  0.337040  0.875492  1
  Tm  Tm12  1  0.326309  0.834748  0.121329  1
  Tm  Tm13  1  0.827278  0.665823  0.377992  1
  Tm  Tm14  1  0.325773  0.835175  0.377403  1
  Tm  Tm15  1  0.825692  0.664911  0.121213  1
  Tm  Tm16  1  0.677514  0.161310  0.875404  1
  Tm  Tm17  1  0.174891  0.335990  0.625847  1
  Tm  Tm18  1  0.840989  0.505810  0.751842  1
  Tm  Tm19  1  0.336937  0.993638  0.751149  1
  Sn  Sn20  1  0.671964  0.962457  0.461005  1
  Sn  Sn21  1  0.171416  0.538199  0.039250  1
  Sn  Sn22  1  0.330587  0.034649  0.955905  1
  Sn  Sn23  1  0.832863  0.461657  0.543422  1
  Sn  Sn24  1  0.329472  0.035741  0.544092  1
  Sn  Sn25  1  0.828914  0.465680  0.955730  1
  Sn  Sn26  1  0.671508  0.962655  0.039605  1
  Sn  Sn27  1  0.173945  0.539266  0.460906  1
  Sn  Sn28  1  0.478553  0.373956  0.750415  1
  Sn  Sn29  1  0.977305  0.128239  0.750121  1
  Sn  Sn30  1  0.526406  0.625303  0.249547  1
  Sn  Sn31  1  0.026378  0.874496  0.249216  1
  Sn  Sn32  1  0.706492  0.859027  0.750737  1
  Sn  Sn33  1  0.206833  0.640805  0.750029  1
  Sn  Sn34  1  0.281581  0.127964  0.249897  1
  Sn  Sn35  1  0.781239  0.372606  0.250002  1
