# generated using pymatgen
data_Te3MoF24
_symmetry_space_group_name_H-M   'P 1'
_cell_length_a   5.28544000
_cell_length_b   9.07145800
_cell_length_c   10.11856900
_cell_angle_alpha   90.00000000
_cell_angle_beta   89.99704782
_cell_angle_gamma   90.00000000
_symmetry_Int_Tables_number   1
_chemical_formula_structural   Te3MoF24
_chemical_formula_sum   'Te3 Mo1 F24'
_cell_volume   485.15145538
_cell_formula_units_Z   1
loop_
 _symmetry_equiv_pos_site_id
 _symmetry_equiv_pos_as_xyz
  1  'x, y, z'
loop_
 _atom_site_type_symbol
 _atom_site_label
 _atom_site_symmetry_multiplicity
 _atom_site_fract_x
 _atom_site_fract_y
 _atom_site_fract_z
 _atom_site_occupancy
  Te  Te0  1  0.097244  0.250000  0.872386  1
  Te  Te1  1  0.402881  0.250000  0.372235  1
  Te  Te2  1  0.902945  0.750000  0.127694  1
  Mo  Mo3  1  0.597132  0.750000  0.627697  1
  F  F4  1  0.554787  0.395359  0.268760  1
  F  F5  1  0.054785  0.604659  0.231265  1
  F  F6  1  0.445042  0.895495  0.731349  1
  F  F7  1  0.945164  0.104617  0.768709  1
  F  F8  1  0.182521  0.750000  0.015030  1
  F  F9  1  0.682511  0.250000  0.484981  1
  F  F10  1  0.817486  0.250000  0.984938  1
  F  F11  1  0.317163  0.750000  0.514935  1
  F  F12  1  0.622546  0.750000  0.240114  1
  F  F13  1  0.122587  0.250000  0.259937  1
  F  F14  1  0.377426  0.250000  0.759895  1
  F  F15  1  0.877796  0.750000  0.740209  1
  F  F16  1  0.749985  0.895483  0.024474  1
  F  F17  1  0.250003  0.104479  0.475529  1
  F  F18  1  0.249979  0.395486  0.975486  1
  F  F19  1  0.750136  0.604368  0.524401  1
  F  F20  1  0.249979  0.104514  0.975486  1
  F  F21  1  0.750136  0.895632  0.524401  1
  F  F22  1  0.749985  0.604517  0.024474  1
  F  F23  1  0.250003  0.395521  0.475529  1
  F  F24  1  0.054785  0.895341  0.231265  1
  F  F25  1  0.554787  0.104641  0.268760  1
  F  F26  1  0.945164  0.395383  0.768709  1
  F  F27  1  0.445042  0.604505  0.731349  1
