# generated using pymatgen
data_Ho3ErTm4(OsC2)4
_symmetry_space_group_name_H-M   'P 1'
_cell_length_a   5.07221900
_cell_length_b   6.41777523
_cell_length_c   9.68676635
_cell_angle_alpha   90.03089446
_cell_angle_beta   90.00000000
_cell_angle_gamma   90.00000000
_symmetry_Int_Tables_number   1
_chemical_formula_structural   Ho3ErTm4(OsC2)4
_chemical_formula_sum   'Ho3 Er1 Tm4 Os4 C8'
_cell_volume   315.32707398
_cell_formula_units_Z   1
loop_
 _symmetry_equiv_pos_site_id
 _symmetry_equiv_pos_as_xyz
  1  'x, y, z'
loop_
 _atom_site_type_symbol
 _atom_site_label
 _atom_site_symmetry_multiplicity
 _atom_site_fract_x
 _atom_site_fract_y
 _atom_site_fract_z
 _atom_site_occupancy
  Ho  Ho0  1  0.250000  0.528149  0.217778  1
  Ho  Ho1  1  0.750000  0.471932  0.782218  1
  Ho  Ho2  1  0.750000  0.971896  0.717767  1
  Er  Er3  1  0.250000  0.028147  0.282075  1
  Tm  Tm4  1  0.250000  0.679500  0.553780  1
  Tm  Tm5  1  0.750000  0.320449  0.446083  1
  Tm  Tm6  1  0.750000  0.820571  0.053915  1
  Tm  Tm7  1  0.250000  0.179528  0.946203  1
  Os  Os8  1  0.250000  0.723074  0.867269  1
  Os  Os9  1  0.750000  0.276878  0.132942  1
  Os  Os10  1  0.750000  0.777151  0.367082  1
  Os  Os11  1  0.250000  0.222985  0.632790  1
  C  C12  1  0.250000  0.457979  0.758457  1
  C  C13  1  0.750000  0.542074  0.241521  1
  C  C14  1  0.750000  0.042081  0.258564  1
  C  C15  1  0.250000  0.957968  0.741529  1
  C  C16  1  0.250000  0.829560  0.055946  1
  C  C17  1  0.750000  0.170647  0.944329  1
  C  C18  1  0.750000  0.670737  0.555648  1
  C  C19  1  0.250000  0.328695  0.444105  1
