# generated using pymatgen
data_ErTaCu(Ni10B3)2
_symmetry_space_group_name_H-M   'P 1'
_cell_length_a   7.48237490
_cell_length_b   7.48237437
_cell_length_c   7.48237500
_cell_angle_alpha   60.00000163
_cell_angle_beta   60.00000396
_cell_angle_gamma   59.99999776
_symmetry_Int_Tables_number   1
_chemical_formula_structural   ErTaCu(Ni10B3)2
_chemical_formula_sum   'Er1 Ta1 Cu1 Ni20 B6'
_cell_volume   296.21249988
_cell_formula_units_Z   1
loop_
 _symmetry_equiv_pos_site_id
 _symmetry_equiv_pos_as_xyz
  1  'x, y, z'
loop_
 _atom_site_type_symbol
 _atom_site_label
 _atom_site_symmetry_multiplicity
 _atom_site_fract_x
 _atom_site_fract_y
 _atom_site_fract_z
 _atom_site_occupancy
  Er  Er0  1  0.750000  0.750000  0.750000  1
  Ta  Ta1  1  0.250000  0.250000  0.250000  1
  Cu  Cu2  1  0.000000  0.000000  0.000000  1
  Ni  Ni3  1  0.609982  0.609982  0.170053  1
  Ni  Ni4  1  0.609982  0.170053  0.609982  1
  Ni  Ni5  1  0.170053  0.609982  0.609982  1
  Ni  Ni6  1  0.609982  0.609982  0.609982  1
  Ni  Ni7  1  0.382166  0.382166  0.853500  1
  Ni  Ni8  1  0.382166  0.853500  0.382166  1
  Ni  Ni9  1  0.853500  0.382166  0.382166  1
  Ni  Ni10  1  0.382166  0.382166  0.382166  1
  Ni  Ni11  1  0.002641  0.002641  0.337656  1
  Ni  Ni12  1  0.657061  0.002641  0.337656  1
  Ni  Ni13  1  0.002641  0.657061  0.337656  1
  Ni  Ni14  1  0.657061  0.337656  0.002641  1
  Ni  Ni15  1  0.002641  0.337656  0.002641  1
  Ni  Ni16  1  0.002641  0.337656  0.657061  1
  Ni  Ni17  1  0.337656  0.657061  0.002641  1
  Ni  Ni18  1  0.337656  0.002641  0.657061  1
  Ni  Ni19  1  0.337656  0.002641  0.002641  1
  Ni  Ni20  1  0.002641  0.002641  0.657061  1
  Ni  Ni21  1  0.002641  0.657061  0.002641  1
  Ni  Ni22  1  0.657061  0.002641  0.002641  1
  B  B23  1  0.731210  0.731210  0.268790  1
  B  B24  1  0.268790  0.731210  0.268790  1
  B  B25  1  0.731210  0.268790  0.268790  1
  B  B26  1  0.268790  0.268790  0.731210  1
  B  B27  1  0.731210  0.268790  0.731210  1
  B  B28  1  0.268790  0.731210  0.731210  1
