# generated using pymatgen
data_HgIrF7
_symmetry_space_group_name_H-M   'P 1'
_cell_length_a   7.40128100
_cell_length_b   8.09519500
_cell_length_c   10.81708000
_cell_angle_alpha   90.00000000
_cell_angle_beta   90.00000000
_cell_angle_gamma   90.00000000
_symmetry_Int_Tables_number   1
_chemical_formula_structural   HgIrF7
_chemical_formula_sum   'Hg4 Ir4 F28'
_cell_volume   648.10332481
_cell_formula_units_Z   4
loop_
 _symmetry_equiv_pos_site_id
 _symmetry_equiv_pos_as_xyz
  1  'x, y, z'
loop_
 _atom_site_type_symbol
 _atom_site_label
 _atom_site_symmetry_multiplicity
 _atom_site_fract_x
 _atom_site_fract_y
 _atom_site_fract_z
 _atom_site_occupancy
  Hg  Hg0  1  0.250000  0.136630  0.244559  1
  Hg  Hg1  1  0.750000  0.863370  0.755441  1
  Hg  Hg2  1  0.750000  0.363370  0.744559  1
  Hg  Hg3  1  0.250000  0.636630  0.255441  1
  Ir  Ir4  1  0.250000  0.299316  0.559274  1
  Ir  Ir5  1  0.750000  0.700684  0.440726  1
  Ir  Ir6  1  0.250000  0.799316  0.940726  1
  Ir  Ir7  1  0.750000  0.200684  0.059274  1
  F  F8  1  0.750000  0.410309  0.130010  1
  F  F9  1  0.571933  0.270849  0.939280  1
  F  F10  1  0.929038  0.123973  0.177255  1
  F  F11  1  0.750000  0.988026  0.985371  1
  F  F12  1  0.071933  0.729151  0.060720  1
  F  F13  1  0.070962  0.876027  0.822745  1
  F  F14  1  0.429038  0.876027  0.822745  1
  F  F15  1  0.250000  0.511974  0.485371  1
  F  F16  1  0.928067  0.770849  0.560720  1
  F  F17  1  0.428067  0.229151  0.439280  1
  F  F18  1  0.250000  0.889858  0.317033  1
  F  F19  1  0.750000  0.910309  0.369990  1
  F  F20  1  0.750000  0.488026  0.514629  1
  F  F21  1  0.571933  0.770849  0.560720  1
  F  F22  1  0.250000  0.589691  0.869990  1
  F  F23  1  0.570962  0.623973  0.322745  1
  F  F24  1  0.750000  0.610142  0.817033  1
  F  F25  1  0.250000  0.011974  0.014629  1
  F  F26  1  0.070962  0.376027  0.677255  1
  F  F27  1  0.250000  0.389858  0.182967  1
  F  F28  1  0.929038  0.623973  0.322745  1
  F  F29  1  0.429038  0.376027  0.677255  1
  F  F30  1  0.928067  0.270849  0.939280  1
  F  F31  1  0.071933  0.229151  0.439280  1
  F  F32  1  0.570962  0.123973  0.177255  1
  F  F33  1  0.428067  0.729151  0.060720  1
  F  F34  1  0.750000  0.110142  0.682967  1
  F  F35  1  0.250000  0.089691  0.630010  1
