# generated using pymatgen
data_La2Ho3GaSi3
_symmetry_space_group_name_H-M   'P 1'
_cell_length_a   7.58926800
_cell_length_b   7.90479753
_cell_length_c   15.03224889
_cell_angle_alpha   90.00580892
_cell_angle_beta   89.87515102
_cell_angle_gamma   89.92877890
_symmetry_Int_Tables_number   1
_chemical_formula_structural   La2Ho3GaSi3
_chemical_formula_sum   'La8 Ho12 Ga4 Si12'
_cell_volume   901.80622536
_cell_formula_units_Z   4
loop_
 _symmetry_equiv_pos_site_id
 _symmetry_equiv_pos_as_xyz
  1  'x, y, z'
loop_
 _atom_site_type_symbol
 _atom_site_label
 _atom_site_symmetry_multiplicity
 _atom_site_fract_x
 _atom_site_fract_y
 _atom_site_fract_z
 _atom_site_occupancy
  La  La0  1  0.981000  0.823202  0.097840  1
  La  La1  1  0.476096  0.677792  0.402734  1
  La  La2  1  0.520256  0.320701  0.899428  1
  La  La3  1  0.021991  0.180689  0.599430  1
  La  La4  1  0.024104  0.176136  0.899407  1
  La  La5  1  0.524913  0.322260  0.599821  1
  La  La6  1  0.474603  0.676460  0.098255  1
  La  La7  1  0.977434  0.824062  0.402814  1
  Ho  Ho8  1  0.648559  0.995548  0.251752  1
  Ho  Ho9  1  0.154267  0.509451  0.249381  1
  Ho  Ho10  1  0.848548  0.492755  0.748856  1
  Ho  Ho11  1  0.348349  0.007748  0.751418  1
  Ho  Ho12  1  0.680515  0.824101  0.874519  1
  Ho  Ho13  1  0.180235  0.675437  0.624666  1
  Ho  Ho14  1  0.821308  0.322423  0.124550  1
  Ho  Ho15  1  0.317017  0.177932  0.376767  1
  Ho  Ho16  1  0.318161  0.176116  0.123305  1
  Ho  Ho17  1  0.820746  0.320158  0.377066  1
  Ho  Ho18  1  0.181739  0.675669  0.875811  1
  Ho  Ho19  1  0.683191  0.823698  0.623664  1
  Ga  Ga20  1  0.770692  0.620139  0.250090  1
  Ga  Ga21  1  0.851656  0.533777  0.959849  1
  Ga  Ga22  1  0.351234  0.966413  0.540037  1
  Ga  Ga23  1  0.648034  0.033810  0.039887  1
  Si  Si24  1  0.269841  0.882475  0.250889  1
  Si  Si25  1  0.728186  0.120727  0.749669  1
  Si  Si26  1  0.227126  0.379821  0.748911  1
  Si  Si27  1  0.024977  0.115274  0.250149  1
  Si  Si28  1  0.523229  0.380071  0.251646  1
  Si  Si29  1  0.477607  0.616781  0.750112  1
  Si  Si30  1  0.977414  0.883442  0.748795  1
  Si  Si31  1  0.143843  0.467354  0.460914  1
  Si  Si32  1  0.146900  0.465547  0.040064  1
  Si  Si33  1  0.645959  0.033160  0.459851  1
  Si  Si34  1  0.353177  0.965773  0.959743  1
  Si  Si35  1  0.857093  0.533097  0.537909  1
