# generated using pymatgen
data_FeSnSbO6
_symmetry_space_group_name_H-M   'P 1'
_cell_length_a   4.74193500
_cell_length_b   9.47963001
_cell_length_c   9.47571800
_cell_angle_alpha   89.99921428
_cell_angle_beta   89.99992746
_cell_angle_gamma   90.00209759
_symmetry_Int_Tables_number   1
_chemical_formula_structural   FeSnSbO6
_chemical_formula_sum   'Fe4 Sn4 Sb4 O24'
_cell_volume   425.95047908
_cell_formula_units_Z   4
loop_
 _symmetry_equiv_pos_site_id
 _symmetry_equiv_pos_as_xyz
  1  'x, y, z'
loop_
 _atom_site_type_symbol
 _atom_site_label
 _atom_site_symmetry_multiplicity
 _atom_site_fract_x
 _atom_site_fract_y
 _atom_site_fract_z
 _atom_site_occupancy
  Fe  Fe0  1  0.500003  0.750011  0.167274  1
  Fe  Fe1  1  0.000004  0.499977  0.667233  1
  Fe  Fe2  1  0.499994  0.250024  0.167231  1
  Fe  Fe3  1  0.000018  0.999982  0.667224  1
  Sn  Sn4  1  0.499997  0.249989  0.499475  1
  Sn  Sn5  1  0.500000  0.749964  0.499476  1
  Sn  Sn6  1  0.999992  0.999999  0.999426  1
  Sn  Sn7  1  0.999976  0.500037  0.999435  1
  Sb  Sb8  1  0.500004  0.249991  0.833192  1
  Sb  Sb9  1  0.499987  0.750005  0.833207  1
  Sb  Sb10  1  0.999982  0.000025  0.333200  1
  Sb  Sb11  1  0.000010  0.499985  0.333206  1
  O  O12  1  0.195161  0.402439  0.171672  1
  O  O13  1  0.195165  0.902483  0.171693  1
  O  O14  1  0.804824  0.097563  0.171674  1
  O  O15  1  0.804793  0.597540  0.171688  1
  O  O16  1  0.304772  0.152463  0.671687  1
  O  O17  1  0.304762  0.652459  0.671693  1
  O  O18  1  0.695177  0.347532  0.671675  1
  O  O19  1  0.695223  0.847546  0.671684  1
  O  O20  1  0.188889  0.405654  0.498051  1
  O  O21  1  0.188865  0.905676  0.498042  1
  O  O22  1  0.811132  0.094328  0.498062  1
  O  O23  1  0.811163  0.594328  0.498049  1
  O  O24  1  0.311140  0.155638  0.998043  1
  O  O25  1  0.311125  0.655666  0.998044  1
  O  O26  1  0.688891  0.344338  0.998030  1
  O  O27  1  0.688896  0.844363  0.998047  1
  O  O28  1  0.198516  0.400826  0.830353  1
  O  O29  1  0.198532  0.900845  0.830302  1
  O  O30  1  0.801516  0.099168  0.830296  1
  O  O31  1  0.801462  0.599159  0.830299  1
  O  O32  1  0.301295  0.150934  0.330328  1
  O  O33  1  0.301319  0.650933  0.330333  1
  O  O34  1  0.698717  0.349048  0.330321  1
  O  O35  1  0.698699  0.849084  0.330357  1
