# generated using pymatgen
data_Dy2Co12Si2P5
_symmetry_space_group_name_H-M   'P 1'
_cell_length_a   9.06832509
_cell_length_b   9.06313046
_cell_length_c   3.58813700
_cell_angle_alpha   90.00000000
_cell_angle_beta   90.00000000
_cell_angle_gamma   120.22630914
_symmetry_Int_Tables_number   1
_chemical_formula_structural   Dy2Co12Si2P5
_chemical_formula_sum   'Dy2 Co12 Si2 P5'
_cell_volume   254.80623681
_cell_formula_units_Z   1
loop_
 _symmetry_equiv_pos_site_id
 _symmetry_equiv_pos_as_xyz
  1  'x, y, z'
loop_
 _atom_site_type_symbol
 _atom_site_label
 _atom_site_symmetry_multiplicity
 _atom_site_fract_x
 _atom_site_fract_y
 _atom_site_fract_z
 _atom_site_occupancy
  Dy  Dy0  1  0.000796  0.998978  0.000000  1
  Dy  Dy1  1  0.335553  0.667095  0.500000  1
  Co  Co2  1  0.102232  0.386261  0.000000  1
  Co  Co3  1  0.605947  0.709934  0.000000  1
  Co  Co4  1  0.295131  0.902271  0.000000  1
  Co  Co5  1  0.049402  0.772753  0.500000  1
  Co  Co6  1  0.231876  0.281354  0.500000  1
  Co  Co7  1  0.717924  0.949245  0.500000  1
  Co  Co8  1  0.817551  0.613488  0.000000  1
  Co  Co9  1  0.387600  0.211838  0.000000  1
  Co  Co10  1  0.790552  0.175489  0.000000  1
  Co  Co11  1  0.897228  0.433289  0.500000  1
  Co  Co12  1  0.562573  0.464479  0.500000  1
  Co  Co13  1  0.538523  0.102543  0.500000  1
  Si  Si14  1  0.668284  0.333478  0.000000  1
  Si  Si15  1  0.067667  0.622096  0.000000  1
  P  P16  1  0.777012  0.735603  0.500000  1
  P  P17  1  0.266434  0.042487  0.500000  1
  P  P18  1  0.958135  0.222261  0.500000  1
  P  P19  1  0.374898  0.445784  0.000000  1
  P  P20  1  0.554679  0.929274  0.000000  1
