# generated using pymatgen
data_KLiTiF6
_symmetry_space_group_name_H-M   'P 1'
_cell_length_a   5.87270600
_cell_length_b   7.82322500
_cell_length_c   11.07071400
_cell_angle_alpha   90.00000000
_cell_angle_beta   90.00000000
_cell_angle_gamma   90.00000000
_symmetry_Int_Tables_number   1
_chemical_formula_structural   KLiTiF6
_chemical_formula_sum   'K4 Li4 Ti4 F24'
_cell_volume   508.62735305
_cell_formula_units_Z   4
loop_
 _symmetry_equiv_pos_site_id
 _symmetry_equiv_pos_as_xyz
  1  'x, y, z'
loop_
 _atom_site_type_symbol
 _atom_site_label
 _atom_site_symmetry_multiplicity
 _atom_site_fract_x
 _atom_site_fract_y
 _atom_site_fract_z
 _atom_site_occupancy
  K  K0  1  0.032551  0.753929  0.459023  1
  K  K1  1  0.532551  0.253929  0.040977  1
  K  K2  1  0.467449  0.753929  0.959023  1
  K  K3  1  0.967449  0.253929  0.540977  1
  Li  Li4  1  0.462491  0.505673  0.645930  1
  Li  Li5  1  0.537509  0.005673  0.354070  1
  Li  Li6  1  0.962491  0.005673  0.854070  1
  Li  Li7  1  0.037509  0.505673  0.145930  1
  Ti  Ti8  1  0.458716  0.000519  0.642669  1
  Ti  Ti9  1  0.041284  0.000519  0.142669  1
  Ti  Ti10  1  0.541284  0.500519  0.357331  1
  Ti  Ti11  1  0.958716  0.500519  0.857331  1
  F  F12  1  0.609443  0.264624  0.362333  1
  F  F13  1  0.176433  0.039812  0.720272  1
  F  F14  1  0.780439  0.968989  0.042994  1
  F  F15  1  0.484701  0.738249  0.355248  1
  F  F16  1  0.390557  0.764624  0.637667  1
  F  F17  1  0.515299  0.238249  0.644752  1
  F  F18  1  0.131848  0.471044  0.715989  1
  F  F19  1  0.280439  0.468989  0.457006  1
  F  F20  1  0.698217  0.527261  0.509374  1
  F  F21  1  0.676433  0.539812  0.779728  1
  F  F22  1  0.368152  0.471044  0.215989  1
  F  F23  1  0.868152  0.971044  0.284011  1
  F  F24  1  0.219561  0.468989  0.957006  1
  F  F25  1  0.719561  0.968989  0.542994  1
  F  F26  1  0.198217  0.027261  0.990626  1
  F  F27  1  0.984701  0.238249  0.144752  1
  F  F28  1  0.801783  0.527261  0.009374  1
  F  F29  1  0.823567  0.539812  0.279728  1
  F  F30  1  0.015299  0.738249  0.855248  1
  F  F31  1  0.323567  0.039812  0.220272  1
  F  F32  1  0.301783  0.027261  0.490626  1
  F  F33  1  0.890557  0.264624  0.862333  1
  F  F34  1  0.631848  0.971044  0.784011  1
  F  F35  1  0.109443  0.764624  0.137667  1
