# generated using pymatgen
data_Ta3NbSi4(IrRh)2
_symmetry_space_group_name_H-M   'P 1'
_cell_length_a   3.79554900
_cell_length_b   6.43248096
_cell_length_c   7.34368924
_cell_angle_alpha   90.04904593
_cell_angle_beta   90.00000000
_cell_angle_gamma   90.00000000
_symmetry_Int_Tables_number   1
_chemical_formula_structural   Ta3NbSi4(IrRh)2
_chemical_formula_sum   'Ta3 Nb1 Si4 Ir2 Rh2'
_cell_volume   179.29461391
_cell_formula_units_Z   1
loop_
 _symmetry_equiv_pos_site_id
 _symmetry_equiv_pos_as_xyz
  1  'x, y, z'
loop_
 _atom_site_type_symbol
 _atom_site_label
 _atom_site_symmetry_multiplicity
 _atom_site_fract_x
 _atom_site_fract_y
 _atom_site_fract_z
 _atom_site_occupancy
  Ta  Ta0  1  0.750000  0.474822  0.327478  1
  Ta  Ta1  1  0.250000  0.024706  0.827170  1
  Ta  Ta2  1  0.750000  0.974891  0.171707  1
  Nb  Nb3  1  0.250000  0.525352  0.672582  1
  Si  Si4  1  0.250000  0.267799  0.122983  1
  Si  Si5  1  0.750000  0.731996  0.873662  1
  Si  Si6  1  0.250000  0.767818  0.377175  1
  Si  Si7  1  0.750000  0.232773  0.626029  1
  Ir  Ir8  1  0.250000  0.145140  0.435221  1
  Ir  Ir9  1  0.250000  0.645667  0.064855  1
  Rh  Rh10  1  0.750000  0.855821  0.563465  1
  Rh  Rh11  1  0.750000  0.353215  0.937672  1
