# generated using pymatgen
data_PaNi2(PRu)3
_symmetry_space_group_name_H-M   'P 1'
_cell_length_a   3.80718600
_cell_length_b   10.72821500
_cell_length_c   12.11244900
_cell_angle_alpha   90.00000000
_cell_angle_beta   90.00000000
_cell_angle_gamma   90.00000000
_symmetry_Int_Tables_number   1
_chemical_formula_structural   PaNi2(PRu)3
_chemical_formula_sum   'Pa4 Ni8 P12 Ru12'
_cell_volume   494.72462125
_cell_formula_units_Z   4
loop_
 _symmetry_equiv_pos_site_id
 _symmetry_equiv_pos_as_xyz
  1  'x, y, z'
loop_
 _atom_site_type_symbol
 _atom_site_label
 _atom_site_symmetry_multiplicity
 _atom_site_fract_x
 _atom_site_fract_y
 _atom_site_fract_z
 _atom_site_occupancy
  Pa  Pa0  1  0.250000  0.592185  0.705292  1
  Pa  Pa1  1  0.250000  0.907815  0.205292  1
  Pa  Pa2  1  0.750000  0.407815  0.294708  1
  Pa  Pa3  1  0.750000  0.092185  0.794708  1
  Ni  Ni4  1  0.250000  0.892835  0.697412  1
  Ni  Ni5  1  0.250000  0.607165  0.197412  1
  Ni  Ni6  1  0.750000  0.107165  0.302588  1
  Ni  Ni7  1  0.750000  0.392835  0.802588  1
  Ni  Ni8  1  0.250000  0.467652  0.932624  1
  Ni  Ni9  1  0.250000  0.032348  0.432624  1
  Ni  Ni10  1  0.750000  0.532348  0.067376  1
  Ni  Ni11  1  0.750000  0.967652  0.567376  1
  P  P12  1  0.250000  0.416378  0.110390  1
  P  P13  1  0.250000  0.083622  0.610390  1
  P  P14  1  0.750000  0.583622  0.889610  1
  P  P15  1  0.750000  0.916378  0.389610  1
  P  P16  1  0.250000  0.277856  0.875810  1
  P  P17  1  0.250000  0.222144  0.375810  1
  P  P18  1  0.750000  0.722144  0.124190  1
  P  P19  1  0.750000  0.777856  0.624190  1
  P  P20  1  0.250000  0.599693  0.385216  1
  P  P21  1  0.250000  0.900307  0.885216  1
  P  P22  1  0.750000  0.400307  0.614784  1
  P  P23  1  0.750000  0.099693  0.114784  1
  Ru  Ru24  1  0.250000  0.713722  0.984947  1
  Ru  Ru25  1  0.250000  0.786278  0.484947  1
  Ru  Ru26  1  0.750000  0.286278  0.015053  1
  Ru  Ru27  1  0.750000  0.213722  0.515053  1
  Ru  Ru28  1  0.250000  0.406751  0.480027  1
  Ru  Ru29  1  0.250000  0.093249  0.980027  1
  Ru  Ru30  1  0.750000  0.593249  0.519973  1
  Ru  Ru31  1  0.750000  0.906751  0.019973  1
  Ru  Ru32  1  0.250000  0.218358  0.182637  1
  Ru  Ru33  1  0.250000  0.281642  0.682637  1
  Ru  Ru34  1  0.750000  0.781642  0.817363  1
  Ru  Ru35  1  0.750000  0.718358  0.317363  1
