# generated using pymatgen
data_Th2Al3Si2Ni3
_symmetry_space_group_name_H-M   'P 1'
_cell_length_a   8.21681421
_cell_length_b   8.21681300
_cell_length_c   8.21681295
_cell_angle_alpha   138.61240082
_cell_angle_beta   103.33869537
_cell_angle_gamma   91.09091443
_symmetry_Int_Tables_number   1
_chemical_formula_structural   Th2Al3Si2Ni3
_chemical_formula_sum   'Th4 Al6 Si4 Ni6'
_cell_volume   340.60120740
_cell_formula_units_Z   2
loop_
 _symmetry_equiv_pos_site_id
 _symmetry_equiv_pos_as_xyz
  1  'x, y, z'
loop_
 _atom_site_type_symbol
 _atom_site_label
 _atom_site_symmetry_multiplicity
 _atom_site_fract_x
 _atom_site_fract_y
 _atom_site_fract_z
 _atom_site_occupancy
  Th  Th0  1  0.376509  0.628665  0.747844  1
  Th  Th1  1  0.623491  0.371335  0.252156  1
  Th  Th2  1  0.119178  0.871335  0.247844  1
  Th  Th3  1  0.880822  0.128665  0.752156  1
  Al  Al4  1  0.000000  0.750000  0.750000  1
  Al  Al5  1  0.000000  0.250000  0.250000  1
  Al  Al6  1  0.748981  0.498981  0.750000  1
  Al  Al7  1  0.251019  0.001019  0.750000  1
  Al  Al8  1  0.251019  0.501019  0.250000  1
  Al  Al9  1  0.748981  0.998981  0.250000  1
  Si  Si10  1  0.249601  0.388100  0.861501  1
  Si  Si11  1  0.750399  0.611900  0.138499  1
  Si  Si12  1  0.526598  0.888100  0.638499  1
  Si  Si13  1  0.473402  0.111900  0.361501  1
  Ni  Ni14  1  0.994162  0.628953  0.365209  1
  Ni  Ni15  1  0.263744  0.128953  0.134791  1
  Ni  Ni16  1  0.500000  0.750000  0.250000  1
  Ni  Ni17  1  0.500000  0.250000  0.750000  1
  Ni  Ni18  1  0.005838  0.371047  0.634791  1
  Ni  Ni19  1  0.736256  0.871047  0.865209  1
