# generated using pymatgen
data_Tb7YTi11Si16Ir
_symmetry_space_group_name_H-M   'P 1'
_cell_length_a   7.05892814
_cell_length_b   7.05955820
_cell_length_c   12.92412900
_cell_angle_alpha   90.12916888
_cell_angle_beta   89.87125447
_cell_angle_gamma   89.84653630
_symmetry_Int_Tables_number   1
_chemical_formula_structural   Tb7YTi11Si16Ir
_chemical_formula_sum   'Tb7 Y1 Ti11 Si16 Ir1'
_cell_volume   644.04142831
_cell_formula_units_Z   1
loop_
 _symmetry_equiv_pos_site_id
 _symmetry_equiv_pos_as_xyz
  1  'x, y, z'
loop_
 _atom_site_type_symbol
 _atom_site_label
 _atom_site_symmetry_multiplicity
 _atom_site_fract_x
 _atom_site_fract_y
 _atom_site_fract_z
 _atom_site_occupancy
  Tb  Tb0  1  0.496483  0.841239  0.717951  1
  Tb  Tb1  1  0.500871  0.158900  0.215042  1
  Tb  Tb2  1  0.841148  0.496505  0.282058  1
  Tb  Tb3  1  0.158951  0.500900  0.784952  1
  Tb  Tb4  1  0.658094  0.997752  0.968558  1
  Tb  Tb5  1  0.004291  0.340228  0.532595  1
  Tb  Tb6  1  0.997755  0.658075  0.031434  1
  Y  Y7  1  0.340398  0.004006  0.467372  1
  Ti  Ti8  1  0.175436  0.827134  0.248225  1
  Ti  Ti9  1  0.827105  0.175497  0.751695  1
  Ti  Ti10  1  0.673643  0.673631  0.500016  1
  Ti  Ti11  1  0.150122  0.003347  0.876357  1
  Ti  Ti12  1  0.493306  0.657254  0.125209  1
  Ti  Ti13  1  0.507003  0.348935  0.628197  1
  Ti  Ti14  1  0.657171  0.493305  0.874826  1
  Ti  Ti15  1  0.348869  0.507123  0.371866  1
  Ti  Ti16  1  0.848140  0.993214  0.375389  1
  Ti  Ti17  1  0.003459  0.150054  0.123624  1
  Ti  Ti18  1  0.993175  0.848087  0.624653  1
  Si  Si19  1  0.201923  0.131691  0.686028  1
  Si  Si20  1  0.373357  0.700480  0.934551  1
  Si  Si21  1  0.630060  0.296390  0.435006  1
  Si  Si22  1  0.700456  0.373326  0.065418  1
  Si  Si23  1  0.296511  0.630361  0.565005  1
  Si  Si24  1  0.797017  0.869330  0.184560  1
  Si  Si25  1  0.131675  0.201784  0.314007  1
  Si  Si26  1  0.869295  0.797009  0.815451  1
  Si  Si27  1  0.286120  0.951441  0.064171  1
  Si  Si28  1  0.547060  0.791469  0.315864  1
  Si  Si29  1  0.449563  0.210306  0.818389  1
  Si  Si30  1  0.791433  0.547137  0.684143  1
  Si  Si31  1  0.210317  0.449555  0.181635  1
  Si  Si32  1  0.708883  0.048122  0.565737  1
  Si  Si33  1  0.951473  0.286089  0.935784  1
  Si  Si34  1  0.048247  0.709158  0.434207  1
  Ir  Ir35  1  0.331189  0.331167  0.000026  1
