# generated using pymatgen
data_Dy5Co16Si7P5W3
_symmetry_space_group_name_H-M   'P 1'
_cell_length_a   12.25803949
_cell_length_b   12.25803893
_cell_length_c   3.73462500
_cell_angle_alpha   90.00000000
_cell_angle_beta   90.00000000
_cell_angle_gamma   119.90194799
_symmetry_Int_Tables_number   1
_chemical_formula_structural   Dy5Co16Si7P5W3
_chemical_formula_sum   'Dy5 Co16 Si7 P5 W3'
_cell_volume   486.46085145
_cell_formula_units_Z   1
loop_
 _symmetry_equiv_pos_site_id
 _symmetry_equiv_pos_as_xyz
  1  'x, y, z'
loop_
 _atom_site_type_symbol
 _atom_site_label
 _atom_site_symmetry_multiplicity
 _atom_site_fract_x
 _atom_site_fract_y
 _atom_site_fract_z
 _atom_site_occupancy
  Dy  Dy0  1  0.665263  0.333313  0.000000  1
  Dy  Dy1  1  0.333313  0.665263  0.000000  1
  Dy  Dy2  1  0.182728  0.182728  0.500000  1
  Dy  Dy3  1  0.815438  0.000416  0.500000  1
  Dy  Dy4  1  0.000416  0.815438  0.500000  1
  Co  Co5  1  0.821586  0.194026  0.000000  1
  Co  Co6  1  0.807577  0.629735  0.000000  1
  Co  Co7  1  0.371066  0.173928  0.000000  1
  Co  Co8  1  0.194026  0.821586  0.000000  1
  Co  Co9  1  0.629735  0.807577  0.000000  1
  Co  Co10  1  0.173928  0.371066  0.000000  1
  Co  Co11  1  0.644702  0.121362  0.500000  1
  Co  Co12  1  0.878864  0.523766  0.500000  1
  Co  Co13  1  0.478673  0.355659  0.500000  1
  Co  Co14  1  0.121362  0.644702  0.500000  1
  Co  Co15  1  0.523766  0.878864  0.500000  1
  Co  Co16  1  0.355659  0.478673  0.500000  1
  Co  Co17  1  0.723794  0.723794  0.500000  1
  Co  Co18  1  0.277019  0.997877  0.500000  1
  Co  Co19  1  0.997877  0.277019  0.500000  1
  Co  Co20  1  0.999964  0.999964  0.000000  1
  Si  Si21  1  0.361532  0.361532  0.000000  1
  Si  Si22  1  0.832703  0.312866  0.500000  1
  Si  Si23  1  0.688329  0.521850  0.500000  1
  Si  Si24  1  0.477996  0.165581  0.500000  1
  Si  Si25  1  0.312866  0.832703  0.500000  1
  Si  Si26  1  0.521850  0.688329  0.500000  1
  Si  Si27  1  0.165581  0.477996  0.500000  1
  P  P28  1  0.638978  0.000681  0.000000  1
  P  P29  1  0.000681  0.638978  0.000000  1
  P  P30  1  0.820669  0.820669  0.000000  1
  P  P31  1  0.180163  0.999138  0.000000  1
  P  P32  1  0.999138  0.180163  0.000000  1
  W  W33  1  0.563502  0.563502  0.000000  1
  W  W34  1  0.440523  0.998734  0.000000  1
  W  W35  1  0.998734  0.440523  0.000000  1
