# generated using pymatgen
data_CeSm3Ho4(B6Os)4
_symmetry_space_group_name_H-M   'P 1'
_cell_length_a   3.67947100
_cell_length_b   9.18679572
_cell_length_c   11.57316290
_cell_angle_alpha   90.04526908
_cell_angle_beta   90.00000000
_cell_angle_gamma   90.00000000
_symmetry_Int_Tables_number   1
_chemical_formula_structural   CeSm3Ho4(B6Os)4
_chemical_formula_sum   'Ce1 Sm3 Ho4 B24 Os4'
_cell_volume   391.20227734
_cell_formula_units_Z   1
loop_
 _symmetry_equiv_pos_site_id
 _symmetry_equiv_pos_as_xyz
  1  'x, y, z'
loop_
 _atom_site_type_symbol
 _atom_site_label
 _atom_site_symmetry_multiplicity
 _atom_site_fract_x
 _atom_site_fract_y
 _atom_site_fract_z
 _atom_site_occupancy
  Ce  Ce0  1  0.000000  0.322797  0.413805  1
  Sm  Sm1  1  0.000000  0.678666  0.586553  1
  Sm  Sm2  1  0.000000  0.821827  0.085628  1
  Sm  Sm3  1  0.000000  0.177877  0.913874  1
  Ho  Ho4  1  0.000000  0.943969  0.373188  1
  Ho  Ho5  1  0.000000  0.055146  0.626974  1
  Ho  Ho6  1  0.000000  0.444243  0.126762  1
  Ho  Ho7  1  0.000000  0.556134  0.873213  1
  B  B8  1  0.500000  0.554745  0.431182  1
  B  B9  1  0.500000  0.444636  0.568292  1
  B  B10  1  0.500000  0.055297  0.068777  1
  B  B11  1  0.500000  0.944769  0.931594  1
  B  B12  1  0.500000  0.749286  0.418456  1
  B  B13  1  0.500000  0.251102  0.581198  1
  B  B14  1  0.500000  0.249126  0.081308  1
  B  B15  1  0.500000  0.750967  0.918560  1
  B  B16  1  0.500000  0.790717  0.266692  1
  B  B17  1  0.500000  0.209142  0.733634  1
  B  B18  1  0.500000  0.291034  0.233492  1
  B  B19  1  0.500000  0.709236  0.766864  1
  B  B20  1  0.500000  0.631244  0.184974  1
  B  B21  1  0.500000  0.368713  0.814795  1
  B  B22  1  0.500000  0.131526  0.314866  1
  B  B23  1  0.500000  0.868728  0.685346  1
  B  B24  1  0.500000  0.984419  0.213681  1
  B  B25  1  0.500000  0.015367  0.786203  1
  B  B26  1  0.500000  0.484634  0.286329  1
  B  B27  1  0.500000  0.515082  0.714016  1
  B  B28  1  0.500000  0.605672  0.028968  1
  B  B29  1  0.500000  0.394237  0.970895  1
  B  B30  1  0.500000  0.106027  0.470888  1
  B  B31  1  0.500000  0.893736  0.528959  1
  Os  Os32  1  0.000000  0.637777  0.320644  1
  Os  Os33  1  0.000000  0.361168  0.678248  1
  Os  Os34  1  0.000000  0.139396  0.180937  1
  Os  Os35  1  0.000000  0.861558  0.820207  1
