# generated using pymatgen
data_Ce6Al18ZnSi5Ru8
_symmetry_space_group_name_H-M   'P 1'
_cell_length_a   8.78186300
_cell_length_b   8.78186459
_cell_length_c   9.55436500
_cell_angle_alpha   90.00000000
_cell_angle_beta   90.00000000
_cell_angle_gamma   119.99999777
_symmetry_Int_Tables_number   1
_chemical_formula_structural   Ce6Al18ZnSi5Ru8
_chemical_formula_sum   'Ce6 Al18 Zn1 Si5 Ru8'
_cell_volume   638.12515352
_cell_formula_units_Z   1
loop_
 _symmetry_equiv_pos_site_id
 _symmetry_equiv_pos_as_xyz
  1  'x, y, z'
loop_
 _atom_site_type_symbol
 _atom_site_label
 _atom_site_symmetry_multiplicity
 _atom_site_fract_x
 _atom_site_fract_y
 _atom_site_fract_z
 _atom_site_occupancy
  Ce  Ce0  1  0.808213  0.616426  0.750000  1
  Ce  Ce1  1  0.192170  0.807830  0.250000  1
  Ce  Ce2  1  0.615660  0.807830  0.250000  1
  Ce  Ce3  1  0.383574  0.191787  0.750000  1
  Ce  Ce4  1  0.808213  0.191787  0.750000  1
  Ce  Ce5  1  0.192170  0.384340  0.250000  1
  Al  Al6  1  0.165230  0.330459  0.576554  1
  Al  Al7  1  0.669541  0.834770  0.576554  1
  Al  Al8  1  0.165230  0.834770  0.576554  1
  Al  Al9  1  0.837109  0.162891  0.077384  1
  Al  Al10  1  0.837109  0.162891  0.422616  1
  Al  Al11  1  0.837109  0.674218  0.077384  1
  Al  Al12  1  0.325782  0.162891  0.077384  1
  Al  Al13  1  0.669541  0.834770  0.923446  1
  Al  Al14  1  0.165230  0.330459  0.923446  1
  Al  Al15  1  0.837109  0.674218  0.422616  1
  Al  Al16  1  0.563935  0.127868  0.250000  1
  Al  Al17  1  0.435769  0.564231  0.750000  1
  Al  Al18  1  0.128461  0.564231  0.750000  1
  Al  Al19  1  0.872132  0.436065  0.250000  1
  Al  Al20  1  0.563935  0.436065  0.250000  1
  Al  Al21  1  0.435769  0.871539  0.750000  1
  Al  Al22  1  0.165230  0.834770  0.923446  1
  Al  Al23  1  0.325782  0.162891  0.422616  1
  Zn  Zn24  1  0.000000  0.000000  0.250000  1
  Si  Si25  1  0.333333  0.666667  0.465170  1
  Si  Si26  1  0.666667  0.333333  0.967643  1
  Si  Si27  1  0.666667  0.333333  0.532357  1
  Si  Si28  1  0.333333  0.666667  0.034830  1
  Si  Si29  1  0.000000  0.000000  0.750000  1
  Ru  Ru30  1  0.000000  0.000000  0.512218  1
  Ru  Ru31  1  0.000000  0.000000  0.987782  1
  Ru  Ru32  1  0.500284  0.000568  0.500315  1
  Ru  Ru33  1  0.500284  0.499716  0.999685  1
  Ru  Ru34  1  0.999432  0.499716  0.999685  1
  Ru  Ru35  1  0.999432  0.499716  0.500315  1
  Ru  Ru36  1  0.500284  0.499716  0.500315  1
  Ru  Ru37  1  0.500284  0.000568  0.999685  1
