# generated using pymatgen
data_TaTi11(NbP4)2
_symmetry_space_group_name_H-M   'P 1'
_cell_length_a   7.57397477
_cell_length_b   7.57397392
_cell_length_c   13.60299680
_cell_angle_alpha   75.65893823
_cell_angle_beta   75.65894053
_cell_angle_gamma   26.00500843
_symmetry_Int_Tables_number   1
_chemical_formula_structural   TaTi11(NbP4)2
_chemical_formula_sum   'Ta1 Ti11 Nb2 P8'
_cell_volume   330.89888041
_cell_formula_units_Z   1
loop_
 _symmetry_equiv_pos_site_id
 _symmetry_equiv_pos_as_xyz
  1  'x, y, z'
loop_
 _atom_site_type_symbol
 _atom_site_label
 _atom_site_symmetry_multiplicity
 _atom_site_fract_x
 _atom_site_fract_y
 _atom_site_fract_z
 _atom_site_occupancy
  Ta  Ta0  1  0.500000  0.500000  0.500000  1
  Ti  Ti1  1  0.000000  0.000000  0.000000  1
  Ti  Ti2  1  0.197536  0.197536  0.690691  1
  Ti  Ti3  1  0.802464  0.802464  0.309309  1
  Ti  Ti4  1  0.206322  0.206322  0.205587  1
  Ti  Ti5  1  0.793678  0.793678  0.794413  1
  Ti  Ti6  1  0.339367  0.339367  0.968369  1
  Ti  Ti7  1  0.660633  0.660633  0.031631  1
  Ti  Ti8  1  0.003645  0.003645  0.336486  1
  Ti  Ti9  1  0.996355  0.996355  0.663514  1
  Ti  Ti10  1  0.177090  0.177090  0.459148  1
  Ti  Ti11  1  0.822910  0.822910  0.540852  1
  Nb  Nb12  1  0.427135  0.427135  0.172057  1
  Nb  Nb13  1  0.572865  0.572865  0.827943  1
  P  P14  1  0.180539  0.180539  0.891262  1
  P  P15  1  0.819461  0.819461  0.108738  1
  P  P16  1  0.372895  0.372895  0.393930  1
  P  P17  1  0.627105  0.627105  0.606070  1
  P  P18  1  0.368487  0.368487  0.660437  1
  P  P19  1  0.631513  0.631513  0.339563  1
  P  P20  1  0.063466  0.063466  0.150852  1
  P  P21  1  0.936534  0.936534  0.849148  1
