# generated using pymatgen
data_Sc6Ti2Al15Os4Rh3
_symmetry_space_group_name_H-M   'P 1'
_cell_length_a   8.82338149
_cell_length_b   8.82973520
_cell_length_c   8.83410531
_cell_angle_alpha   119.97283534
_cell_angle_beta   119.84346038
_cell_angle_gamma   90.00962963
_symmetry_Int_Tables_number   1
_chemical_formula_structural   Sc6Ti2Al15Os4Rh3
_chemical_formula_sum   'Sc6 Ti2 Al15 Os4 Rh3'
_cell_volume   487.97222358
_cell_formula_units_Z   1
loop_
 _symmetry_equiv_pos_site_id
 _symmetry_equiv_pos_as_xyz
  1  'x, y, z'
loop_
 _atom_site_type_symbol
 _atom_site_label
 _atom_site_symmetry_multiplicity
 _atom_site_fract_x
 _atom_site_fract_y
 _atom_site_fract_z
 _atom_site_occupancy
  Sc  Sc0  1  0.773975  0.278109  0.055677  1
  Sc  Sc1  1  0.227600  0.284139  0.505427  1
  Sc  Sc2  1  0.222333  0.721213  0.508997  1
  Sc  Sc3  1  0.231589  0.727000  0.944899  1
  Sc  Sc4  1  0.780018  0.722497  0.496379  1
  Sc  Sc5  1  0.769576  0.269238  0.491950  1
  Ti  Ti6  1  0.373860  0.121519  0.744667  1
  Ti  Ti7  1  0.379154  0.630646  0.256716  1
  Al  Al8  1  0.994871  0.494551  0.500373  1
  Al  Al9  1  0.154414  0.342016  0.184709  1
  Al  Al10  1  0.156877  0.976968  0.818029  1
  Al  Al11  1  0.153585  0.344129  0.812574  1
  Al  Al12  1  0.525317  0.341504  0.184348  1
  Al  Al13  1  0.845488  0.654107  0.809754  1
  Al  Al14  1  0.844782  0.028962  0.186160  1
  Al  Al15  1  0.842165  0.658041  0.181955  1
  Al  Al16  1  0.483922  0.660570  0.821733  1
  Al  Al17  1  0.376581  0.124706  0.255187  1
  Al  Al18  1  0.866225  0.123380  0.744357  1
  Al  Al19  1  0.624098  0.873416  0.251318  1
  Al  Al20  1  0.622942  0.369779  0.747376  1
  Al  Al21  1  0.620696  0.875142  0.743335  1
  Al  Al22  1  0.133344  0.876654  0.256918  1
  Os  Os23  1  0.002246  0.001587  0.502351  1
  Os  Os24  1  0.498223  0.000674  0.997832  1
  Os  Os25  1  0.498135  0.499685  0.001218  1
  Os  Os26  1  0.498020  0.501016  0.496735  1
  Rh  Rh27  1  0.000972  0.499777  0.000633  1
  Rh  Rh28  1  0.000148  0.000125  0.999184  1
  Rh  Rh29  1  0.498840  0.998845  0.499208  1
