# generated using pymatgen
data_Ho19TmCoBi8Ru3
_symmetry_space_group_name_H-M   'P 1'
_cell_length_a   7.95256997
_cell_length_b   8.97578050
_cell_length_c   12.39739117
_cell_angle_alpha   89.98261157
_cell_angle_beta   89.79201664
_cell_angle_gamma   89.96607416
_symmetry_Int_Tables_number   1
_chemical_formula_structural   Ho19TmCoBi8Ru3
_chemical_formula_sum   'Ho19 Tm1 Co1 Bi8 Ru3'
_cell_volume   884.92623294
_cell_formula_units_Z   1
loop_
 _symmetry_equiv_pos_site_id
 _symmetry_equiv_pos_as_xyz
  1  'x, y, z'
loop_
 _atom_site_type_symbol
 _atom_site_label
 _atom_site_symmetry_multiplicity
 _atom_site_fract_x
 _atom_site_fract_y
 _atom_site_fract_z
 _atom_site_occupancy
  Ho  Ho0  1  0.345035  0.749751  0.701492  1
  Ho  Ho1  1  0.656902  0.250046  0.293379  1
  Ho  Ho2  1  0.843202  0.250107  0.792312  1
  Ho  Ho3  1  0.155435  0.749930  0.205883  1
  Ho  Ho4  1  0.879616  0.749923  0.806520  1
  Ho  Ho5  1  0.119725  0.250045  0.192890  1
  Ho  Ho6  1  0.379648  0.250187  0.692148  1
  Ho  Ho7  1  0.616598  0.749677  0.312321  1
  Ho  Ho8  1  0.325400  0.461970  0.437077  1
  Ho  Ho9  1  0.175747  0.458025  0.935707  1
  Ho  Ho10  1  0.324930  0.037902  0.436867  1
  Ho  Ho11  1  0.823820  0.542867  0.064478  1
  Ho  Ho12  1  0.675588  0.956255  0.563800  1
  Ho  Ho13  1  0.823792  0.957108  0.064445  1
  Ho  Ho14  1  0.175734  0.041985  0.935764  1
  Ho  Ho15  1  0.054540  0.749803  0.497073  1
  Ho  Ho16  1  0.946827  0.250268  0.503262  1
  Ho  Ho17  1  0.554886  0.249999  0.003415  1
  Ho  Ho18  1  0.445499  0.749979  0.995877  1
  Tm  Tm19  1  0.674476  0.543962  0.563638  1
  Co  Co20  1  0.430088  0.749671  0.491184  1
  Bi  Bi21  1  0.570974  0.508556  0.826859  1
  Bi  Bi22  1  0.428757  0.492143  0.173056  1
  Bi  Bi23  1  0.071560  0.491800  0.672026  1
  Bi  Bi24  1  0.428820  0.007846  0.173058  1
  Bi  Bi25  1  0.928816  0.508799  0.328257  1
  Bi  Bi26  1  0.570810  0.991433  0.826967  1
  Bi  Bi27  1  0.928646  0.991209  0.328286  1
  Bi  Bi28  1  0.071974  0.008205  0.672105  1
  Ru  Ru29  1  0.073672  0.750020  0.989066  1
  Ru  Ru30  1  0.925401  0.249988  0.010550  1
  Ru  Ru31  1  0.573083  0.250540  0.510239  1
