# generated using pymatgen
data_Ho10Si4HgPt
_symmetry_space_group_name_H-M   'P 1'
_cell_length_a   7.35106745
_cell_length_b   7.35106773
_cell_length_c   8.86769000
_cell_angle_alpha   114.48694600
_cell_angle_beta   114.48694696
_cell_angle_gamma   90.00001073
_symmetry_Int_Tables_number   1
_chemical_formula_structural   Ho10Si4HgPt
_chemical_formula_sum   'Ho10 Si4 Hg1 Pt1'
_cell_volume   388.23665912
_cell_formula_units_Z   1
loop_
 _symmetry_equiv_pos_site_id
 _symmetry_equiv_pos_as_xyz
  1  'x, y, z'
loop_
 _atom_site_type_symbol
 _atom_site_label
 _atom_site_symmetry_multiplicity
 _atom_site_fract_x
 _atom_site_fract_y
 _atom_site_fract_z
 _atom_site_occupancy
  Ho  Ho0  1  0.476349  0.476357  0.952712  1
  Ho  Ho1  1  0.023636  0.023643  0.047288  1
  Ho  Ho2  1  0.950428  0.796767  0.281753  1
  Ho  Ho3  1  0.331312  0.484982  0.281749  1
  Ho  Ho4  1  0.796759  0.331319  0.281754  1
  Ho  Ho5  1  0.484971  0.950430  0.281747  1
  Ho  Ho6  1  0.015004  0.168681  0.718246  1
  Ho  Ho7  1  0.703223  0.549570  0.718253  1
  Ho  Ho8  1  0.168674  0.703233  0.718247  1
  Ho  Ho9  1  0.549561  0.015018  0.718251  1
  Si  Si10  1  0.621530  0.878490  0.000023  1
  Si  Si11  1  0.378460  0.121514  0.999977  1
  Si  Si12  1  0.878483  0.378486  0.000023  1
  Si  Si13  1  0.121507  0.621510  0.999977  1
  Hg  Hg14  1  0.250148  0.250000  0.500000  1
  Pt  Pt15  1  0.749955  0.750000  0.500000  1
