# generated using pymatgen
data_Ta3TiB12(Ru3W2)4
_symmetry_space_group_name_H-M   'P 1'
_cell_length_a   3.03964400
_cell_length_b   8.93824491
_cell_length_c   15.78158438
_cell_angle_alpha   90.17034058
_cell_angle_beta   90.00000000
_cell_angle_gamma   90.00000000
_symmetry_Int_Tables_number   1
_chemical_formula_structural   Ta3TiB12(Ru3W2)4
_chemical_formula_sum   'Ta3 Ti1 B12 Ru12 W8'
_cell_volume   428.76927315
_cell_formula_units_Z   1
loop_
 _symmetry_equiv_pos_site_id
 _symmetry_equiv_pos_as_xyz
  1  'x, y, z'
loop_
 _atom_site_type_symbol
 _atom_site_label
 _atom_site_symmetry_multiplicity
 _atom_site_fract_x
 _atom_site_fract_y
 _atom_site_fract_z
 _atom_site_occupancy
  Ta  Ta0  1  0.000000  0.302208  0.801452  1
  Ta  Ta1  1  0.000000  0.196015  0.299397  1
  Ta  Ta2  1  0.000000  0.802560  0.699020  1
  Ti  Ti3  1  0.000000  0.695738  0.200153  1
  B  B4  1  0.500000  0.603654  0.495772  1
  B  B5  1  0.500000  0.396124  0.503676  1
  B  B6  1  0.500000  0.105060  0.004208  1
  B  B7  1  0.500000  0.896538  0.996402  1
  B  B8  1  0.000000  0.601614  0.832252  1
  B  B9  1  0.000000  0.399645  0.168300  1
  B  B10  1  0.000000  0.101984  0.667967  1
  B  B11  1  0.000000  0.896212  0.330710  1
  B  B12  1  0.500000  0.712520  0.594073  1
  B  B13  1  0.500000  0.287749  0.404509  1
  B  B14  1  0.500000  0.213478  0.906027  1
  B  B15  1  0.500000  0.788621  0.096993  1
  Ru  Ru16  1  0.500000  0.723049  0.350779  1
  Ru  Ru17  1  0.500000  0.276037  0.648862  1
  Ru  Ru18  1  0.500000  0.224278  0.149112  1
  Ru  Ru19  1  0.500000  0.776292  0.851342  1
  Ru  Ru20  1  0.500000  0.521471  0.091367  1
  Ru  Ru21  1  0.500000  0.483407  0.911981  1
  Ru  Ru22  1  0.500000  0.018025  0.409480  1
  Ru  Ru23  1  0.500000  0.982089  0.588106  1
  Ru  Ru24  1  0.500000  0.546281  0.735499  1
  Ru  Ru25  1  0.500000  0.451246  0.265525  1
  Ru  Ru26  1  0.500000  0.045347  0.764164  1
  Ru  Ru27  1  0.500000  0.947672  0.233578  1
  W  W28  1  0.000000  0.790292  0.491642  1
  W  W29  1  0.000000  0.209356  0.506699  1
  W  W30  1  0.000000  0.292680  0.007918  1
  W  W31  1  0.000000  0.710814  0.993957  1
  W  W32  1  0.000000  0.513256  0.590969  1
  W  W33  1  0.000000  0.486921  0.408517  1
  W  W34  1  0.000000  0.014103  0.908856  1
  W  W35  1  0.000000  0.987666  0.090734  1
