# generated using pymatgen
data_AlV4ZnSn4
_symmetry_space_group_name_H-M   'P 1'
_cell_length_a   9.86012280
_cell_length_b   9.86012166
_cell_length_c   6.72850100
_cell_angle_alpha   90.00000000
_cell_angle_beta   90.00000000
_cell_angle_gamma   146.96117606
_symmetry_Int_Tables_number   1
_chemical_formula_structural   AlV4ZnSn4
_chemical_formula_sum   'Al2 V8 Zn2 Sn8'
_cell_volume   356.65186482
_cell_formula_units_Z   2
loop_
 _symmetry_equiv_pos_site_id
 _symmetry_equiv_pos_as_xyz
  1  'x, y, z'
loop_
 _atom_site_type_symbol
 _atom_site_label
 _atom_site_symmetry_multiplicity
 _atom_site_fract_x
 _atom_site_fract_y
 _atom_site_fract_z
 _atom_site_occupancy
  Al  Al0  1  0.233864  0.266136  0.250000  1
  Al  Al1  1  0.266136  0.233864  0.750000  1
  V  V2  1  0.573204  0.415051  0.475146  1
  V  V3  1  0.415051  0.573204  0.524854  1
  V  V4  1  0.084949  0.926796  0.024854  1
  V  V5  1  0.907499  0.592501  0.750000  1
  V  V6  1  0.406771  0.093229  0.750000  1
  V  V7  1  0.592501  0.907499  0.250000  1
  V  V8  1  0.926796  0.084949  0.975146  1
  V  V9  1  0.093229  0.406771  0.250000  1
  Zn  Zn10  1  0.765287  0.734713  0.750000  1
  Zn  Zn11  1  0.734713  0.765287  0.250000  1
  Sn  Sn12  1  0.721738  0.274912  0.421014  1
  Sn  Sn13  1  0.399389  0.613897  0.926138  1
  Sn  Sn14  1  0.274912  0.721738  0.578986  1
  Sn  Sn15  1  0.225088  0.778262  0.078986  1
  Sn  Sn16  1  0.778262  0.225088  0.921014  1
  Sn  Sn17  1  0.886103  0.100611  0.573862  1
  Sn  Sn18  1  0.613897  0.399389  0.073862  1
  Sn  Sn19  1  0.100611  0.886103  0.426138  1
