# generated using pymatgen
data_Y3InSn2PdPt2
_symmetry_space_group_name_H-M   'P 1'
_cell_length_a   7.72532451
_cell_length_b   7.67667183
_cell_length_c   3.84444500
_cell_angle_alpha   90.00000000
_cell_angle_beta   90.00000000
_cell_angle_gamma   119.79188334
_symmetry_Int_Tables_number   1
_chemical_formula_structural   Y3InSn2PdPt2
_chemical_formula_sum   'Y3 In1 Sn2 Pd1 Pt2'
_cell_volume   197.86133927
_cell_formula_units_Z   1
loop_
 _symmetry_equiv_pos_site_id
 _symmetry_equiv_pos_as_xyz
  1  'x, y, z'
loop_
 _atom_site_type_symbol
 _atom_site_label
 _atom_site_symmetry_multiplicity
 _atom_site_fract_x
 _atom_site_fract_y
 _atom_site_fract_z
 _atom_site_occupancy
  Y  Y0  1  0.402237  0.997430  0.500000  1
  Y  Y1  1  0.000000  0.407208  0.500000  1
  Y  Y2  1  0.597763  0.595193  0.500000  1
  In  In3  1  0.000000  0.737718  0.000000  1
  Sn  Sn4  1  0.737971  0.998269  0.000000  1
  Sn  Sn5  1  0.262029  0.260298  0.000000  1
  Pd  Pd6  1  0.000000  0.004955  0.500000  1
  Pt  Pt7  1  0.665560  0.332244  0.000000  1
  Pt  Pt8  1  0.334440  0.666685  0.000000  1
