# generated using pymatgen
data_Y2AlTc2Os
_symmetry_space_group_name_H-M   'P 1'
_cell_length_a   5.36351600
_cell_length_b   5.43088891
_cell_length_c   8.87241800
_cell_angle_alpha   90.00000000
_cell_angle_beta   90.00000000
_cell_angle_gamma   120.41640209
_symmetry_Int_Tables_number   1
_chemical_formula_structural   Y2AlTc2Os
_chemical_formula_sum   'Y4 Al2 Tc4 Os2'
_cell_volume   222.87200266
_cell_formula_units_Z   2
loop_
 _symmetry_equiv_pos_site_id
 _symmetry_equiv_pos_as_xyz
  1  'x, y, z'
loop_
 _atom_site_type_symbol
 _atom_site_label
 _atom_site_symmetry_multiplicity
 _atom_site_fract_x
 _atom_site_fract_y
 _atom_site_fract_z
 _atom_site_occupancy
  Y  Y0  1  0.341736  0.670868  0.444489  1
  Y  Y1  1  0.671125  0.335562  0.565089  1
  Y  Y2  1  0.671125  0.335562  0.934911  1
  Y  Y3  1  0.341736  0.670868  0.055511  1
  Al  Al4  1  0.816599  0.160672  0.250000  1
  Al  Al5  1  0.816599  0.655928  0.250000  1
  Tc  Tc6  1  0.314039  0.157021  0.250000  1
  Tc  Tc7  1  0.169646  0.832932  0.750000  1
  Tc  Tc8  1  0.169646  0.336714  0.750000  1
  Tc  Tc9  1  0.653799  0.826899  0.750000  1
  Os  Os10  1  0.016975  0.008488  0.495114  1
  Os  Os11  1  0.016975  0.008488  0.004886  1
