# generated using pymatgen
data_NaZrTc2Ni10P7
_symmetry_space_group_name_H-M   'P 1'
_cell_length_a   9.01708196
_cell_length_b   9.11214749
_cell_length_c   3.64430500
_cell_angle_alpha   90.00000000
_cell_angle_beta   90.00000000
_cell_angle_gamma   119.89811094
_symmetry_Int_Tables_number   1
_chemical_formula_structural   NaZrTc2Ni10P7
_chemical_formula_sum   'Na1 Zr1 Tc2 Ni10 P7'
_cell_volume   259.58349926
_cell_formula_units_Z   1
loop_
 _symmetry_equiv_pos_site_id
 _symmetry_equiv_pos_as_xyz
  1  'x, y, z'
loop_
 _atom_site_type_symbol
 _atom_site_label
 _atom_site_symmetry_multiplicity
 _atom_site_fract_x
 _atom_site_fract_y
 _atom_site_fract_z
 _atom_site_occupancy
  Na  Na0  1  0.000038  0.001783  0.000000  1
  Zr  Zr1  1  0.329417  0.663398  0.500000  1
  Tc  Tc2  1  0.879727  0.455347  0.500000  1
  Tc  Tc3  1  0.544934  0.432665  0.500000  1
  Ni  Ni4  1  0.294999  0.396435  0.000000  1
  Ni  Ni5  1  0.103071  0.705112  0.000000  1
  Ni  Ni6  1  0.388194  0.170780  0.000000  1
  Ni  Ni7  1  0.790434  0.621162  0.000000  1
  Ni  Ni8  1  0.821269  0.208561  0.000000  1
  Ni  Ni9  1  0.234454  0.947707  0.500000  1
  Ni  Ni10  1  0.057059  0.284575  0.500000  1
  Ni  Ni11  1  0.717004  0.773738  0.500000  1
  Ni  Ni12  1  0.568831  0.105873  0.500000  1
  Ni  Ni13  1  0.602136  0.895805  0.000000  1
  P  P14  1  0.667511  0.334192  0.000000  1
  P  P15  1  0.077685  0.449642  0.000000  1
  P  P16  1  0.258126  0.213379  0.500000  1
  P  P17  1  0.784607  0.045106  0.500000  1
  P  P18  1  0.959726  0.745167  0.500000  1
  P  P19  1  0.548598  0.630899  0.000000  1
  P  P20  1  0.372180  0.918675  0.000000  1
