# generated using pymatgen
data_HoAl3CdNi
_symmetry_space_group_name_H-M   'P 1'
_cell_length_a   8.14536470
_cell_length_b   8.14536557
_cell_length_c   6.63654600
_cell_angle_alpha   90.00000000
_cell_angle_beta   90.00000000
_cell_angle_gamma   150.80275300
_symmetry_Int_Tables_number   1
_chemical_formula_structural   HoAl3CdNi
_chemical_formula_sum   'Ho2 Al6 Cd2 Ni2'
_cell_volume   214.79333038
_cell_formula_units_Z   2
loop_
 _symmetry_equiv_pos_site_id
 _symmetry_equiv_pos_as_xyz
  1  'x, y, z'
loop_
 _atom_site_type_symbol
 _atom_site_label
 _atom_site_symmetry_multiplicity
 _atom_site_fract_x
 _atom_site_fract_y
 _atom_site_fract_z
 _atom_site_occupancy
  Ho  Ho0  1  0.874930  0.125070  0.250000  1
  Ho  Ho1  1  0.125070  0.874930  0.750000  1
  Al  Al2  1  0.921317  0.078683  0.750000  1
  Al  Al3  1  0.078683  0.921317  0.250000  1
  Al  Al4  1  0.309362  0.690638  0.947043  1
  Al  Al5  1  0.690638  0.309362  0.052957  1
  Al  Al6  1  0.690638  0.309362  0.447043  1
  Al  Al7  1  0.309362  0.690638  0.552957  1
  Cd  Cd8  1  0.500000  0.500000  0.000000  1
  Cd  Cd9  1  0.500000  0.500000  0.500000  1
  Ni  Ni10  1  0.225901  0.774099  0.250000  1
  Ni  Ni11  1  0.774099  0.225901  0.750000  1
