# generated using pymatgen
data_Lu4Al23ZnPt9
_symmetry_space_group_name_H-M   'P 1'
_cell_length_a   7.50781434
_cell_length_b   7.52401714
_cell_length_c   13.09867428
_cell_angle_alpha   84.58727973
_cell_angle_beta   79.04639607
_cell_angle_gamma   59.90902594
_symmetry_Int_Tables_number   1
_chemical_formula_structural   Lu4Al23ZnPt9
_chemical_formula_sum   'Lu4 Al23 Zn1 Pt9'
_cell_volume   628.54582003
_cell_formula_units_Z   1
loop_
 _symmetry_equiv_pos_site_id
 _symmetry_equiv_pos_as_xyz
  1  'x, y, z'
loop_
 _atom_site_type_symbol
 _atom_site_label
 _atom_site_symmetry_multiplicity
 _atom_site_fract_x
 _atom_site_fract_y
 _atom_site_fract_z
 _atom_site_occupancy
  Lu  Lu0  1  0.394514  0.167288  0.808626  1
  Lu  Lu1  1  0.606606  0.831663  0.190553  1
  Lu  Lu2  1  0.733276  0.499583  0.808589  1
  Lu  Lu3  1  0.266670  0.501383  0.191645  1
  Al  Al4  1  0.321561  0.161646  0.055050  1
  Al  Al5  1  0.146906  0.832090  0.562175  1
  Al  Al6  1  0.853363  0.167934  0.438226  1
  Al  Al7  1  0.480310  0.166449  0.559348  1
  Al  Al8  1  0.519940  0.833495  0.440813  1
  Al  Al9  1  0.218632  0.165177  0.327241  1
  Al  Al10  1  0.782074  0.834494  0.672303  1
  Al  Al11  1  0.436178  0.506390  0.673259  1
  Al  Al12  1  0.563411  0.494054  0.327407  1
  Al  Al13  1  0.108649  0.160446  0.671698  1
  Al  Al14  1  0.890772  0.839545  0.329019  1
  Al  Al15  1  0.353960  0.499154  0.943443  1
  Al  Al16  1  0.647475  0.505645  0.054984  1
  Al  Al17  1  0.016578  0.168209  0.952730  1
  Al  Al18  1  0.980501  0.831337  0.044881  1
  Al  Al19  1  0.186659  0.499479  0.441043  1
  Al  Al20  1  0.813515  0.500481  0.559401  1
  Al  Al21  1  0.733604  0.164593  0.183109  1
  Al  Al22  1  0.265407  0.835933  0.817304  1
  Al  Al23  1  0.057836  0.631134  0.817678  1
  Al  Al24  1  0.939125  0.369381  0.184223  1
  Al  Al25  1  0.851618  0.041805  0.818399  1
  Al  Al26  1  0.145280  0.957625  0.183773  1
  Zn  Zn27  1  0.684715  0.833720  0.937594  1
  Pt  Pt28  1  0.120230  0.491026  0.639499  1
  Pt  Pt29  1  0.880069  0.509036  0.361128  1
  Pt  Pt30  1  0.656528  0.179117  0.001041  1
  Pt  Pt31  1  0.336352  0.827861  0.001769  1
  Pt  Pt32  1  0.536913  0.167009  0.360977  1
  Pt  Pt33  1  0.462863  0.833077  0.639287  1
  Pt  Pt34  1  0.778219  0.175678  0.638200  1
  Pt  Pt35  1  0.222000  0.824231  0.362536  1
  Pt  Pt36  1  0.007691  0.492833  0.001048  1
