# generated using pymatgen
data_DyLu(Th2In5)2
_symmetry_space_group_name_H-M   'P 1'
_cell_length_a   6.58071800
_cell_length_b   6.58071949
_cell_length_c   10.32437900
_cell_angle_alpha   90.00000000
_cell_angle_beta   90.00000000
_cell_angle_gamma   102.36371174
_symmetry_Int_Tables_number   1
_chemical_formula_structural   DyLu(Th2In5)2
_chemical_formula_sum   'Dy1 Lu1 Th4 In10'
_cell_volume   436.73685637
_cell_formula_units_Z   1
loop_
 _symmetry_equiv_pos_site_id
 _symmetry_equiv_pos_as_xyz
  1  'x, y, z'
loop_
 _atom_site_type_symbol
 _atom_site_label
 _atom_site_symmetry_multiplicity
 _atom_site_fract_x
 _atom_site_fract_y
 _atom_site_fract_z
 _atom_site_occupancy
  Dy  Dy0  1  0.130310  0.130310  0.750000  1
  Lu  Lu1  1  0.869523  0.869523  0.250000  1
  Th  Th2  1  0.704893  0.293888  0.000130  1
  Th  Th3  1  0.704893  0.293888  0.499870  1
  Th  Th4  1  0.293888  0.704893  0.000130  1
  Th  Th5  1  0.293888  0.704893  0.499870  1
  In  In6  1  0.509903  0.509903  0.750000  1
  In  In7  1  0.491283  0.491283  0.250000  1
  In  In8  1  0.810479  0.810479  0.544935  1
  In  In9  1  0.188929  0.188929  0.453036  1
  In  In10  1  0.810479  0.810479  0.955065  1
  In  In11  1  0.188929  0.188929  0.046964  1
  In  In12  1  0.992115  0.568323  0.750000  1
  In  In13  1  0.434610  0.007551  0.250000  1
  In  In14  1  0.007551  0.434610  0.250000  1
  In  In15  1  0.568323  0.992115  0.750000  1
