# generated using pymatgen
data_Na4GdUS6
_symmetry_space_group_name_H-M   'P 1'
_cell_length_a   6.97772084
_cell_length_b   6.97772114
_cell_length_c   7.03107326
_cell_angle_alpha   80.40997524
_cell_angle_beta   99.59002482
_cell_angle_gamma   60.02110526
_symmetry_Int_Tables_number   1
_chemical_formula_structural   Na4GdUS6
_chemical_formula_sum   'Na4 Gd1 U1 S6'
_cell_volume   279.59890534
_cell_formula_units_Z   1
loop_
 _symmetry_equiv_pos_site_id
 _symmetry_equiv_pos_as_xyz
  1  'x, y, z'
loop_
 _atom_site_type_symbol
 _atom_site_label
 _atom_site_symmetry_multiplicity
 _atom_site_fract_x
 _atom_site_fract_y
 _atom_site_fract_z
 _atom_site_occupancy
  Na  Na0  1  0.500394  0.500395  0.499999  1
  Na  Na1  1  0.160650  0.160651  0.499999  1
  Na  Na2  1  0.839336  0.839338  0.499999  1
  Na  Na3  1  0.000024  0.000024  0.000000  1
  Gd  Gd4  1  0.332918  0.332918  0.000000  1
  U  U5  1  0.667192  0.667192  0.000000  1
  S  S6  1  0.439790  0.909942  0.224902  1
  S  S7  1  0.909942  0.439791  0.775099  1
  S  S8  1  0.574203  0.062386  0.771583  1
  S  S9  1  0.062386  0.574203  0.228418  1
  S  S10  1  0.285978  0.727187  0.771206  1
  S  S11  1  0.727187  0.285978  0.228795  1
