# generated using pymatgen
data_Tb2DyZr(Al3Rh)6
_symmetry_space_group_name_H-M   'P 1'
_cell_length_a   7.54478731
_cell_length_b   7.52878784
_cell_length_c   9.42377700
_cell_angle_alpha   90.00000000
_cell_angle_beta   90.00000000
_cell_angle_gamma   119.48734696
_symmetry_Int_Tables_number   1
_chemical_formula_structural   Tb2DyZr(Al3Rh)6
_chemical_formula_sum   'Tb2 Dy1 Zr1 Al18 Rh6'
_cell_volume   465.95940883
_cell_formula_units_Z   1
loop_
 _symmetry_equiv_pos_site_id
 _symmetry_equiv_pos_as_xyz
  1  'x, y, z'
loop_
 _atom_site_type_symbol
 _atom_site_label
 _atom_site_symmetry_multiplicity
 _atom_site_fract_x
 _atom_site_fract_y
 _atom_site_fract_z
 _atom_site_occupancy
  Tb  Tb0  1  0.006074  0.327770  0.250000  1
  Tb  Tb1  1  0.328940  0.006439  0.250000  1
  Dy  Dy2  1  0.671527  0.995648  0.750000  1
  Zr  Zr3  1  0.996314  0.671797  0.750000  1
  Al  Al4  1  0.123868  0.121353  0.750000  1
  Al  Al5  1  0.871432  0.869853  0.250000  1
  Al  Al6  1  0.000058  0.338601  0.579919  1
  Al  Al7  1  0.999420  0.664971  0.429203  1
  Al  Al8  1  0.999420  0.664971  0.070797  1
  Al  Al9  1  0.331995  0.997490  0.920020  1
  Al  Al10  1  0.000058  0.338601  0.920081  1
  Al  Al11  1  0.664428  0.998134  0.074904  1
  Al  Al12  1  0.664428  0.998134  0.425096  1
  Al  Al13  1  0.331995  0.997490  0.579980  1
  Al  Al14  1  0.333847  0.333857  0.047549  1
  Al  Al15  1  0.669678  0.667413  0.943988  1
  Al  Al16  1  0.669678  0.667413  0.556012  1
  Al  Al17  1  0.333847  0.333857  0.452451  1
  Al  Al18  1  0.335952  0.551369  0.750000  1
  Al  Al19  1  0.661097  0.451277  0.250000  1
  Al  Al20  1  0.556775  0.344503  0.750000  1
  Al  Al21  1  0.449843  0.659046  0.250000  1
  Rh  Rh22  1  0.672799  0.328349  0.501480  1
  Rh  Rh23  1  0.327735  0.672542  0.502089  1
  Rh  Rh24  1  0.327735  0.672542  0.997911  1
  Rh  Rh25  1  0.672799  0.328349  0.998520  1
  Rh  Rh26  1  0.999130  0.999116  0.501389  1
  Rh  Rh27  1  0.999130  0.999116  0.998611  1
