# generated using pymatgen
data_Sc3GaPt8
_symmetry_space_group_name_H-M   'P 1'
_cell_length_a   16.83992300
_cell_length_b   4.07010500
_cell_length_c   5.65094700
_cell_angle_alpha   90.00000000
_cell_angle_beta   90.00000000
_cell_angle_gamma   90.00000000
_symmetry_Int_Tables_number   1
_chemical_formula_structural   Sc3GaPt8
_chemical_formula_sum   'Sc6 Ga2 Pt16'
_cell_volume   387.31734725
_cell_formula_units_Z   2
loop_
 _symmetry_equiv_pos_site_id
 _symmetry_equiv_pos_as_xyz
  1  'x, y, z'
loop_
 _atom_site_type_symbol
 _atom_site_label
 _atom_site_symmetry_multiplicity
 _atom_site_fract_x
 _atom_site_fract_y
 _atom_site_fract_z
 _atom_site_occupancy
  Sc  Sc0  1  0.089524  0.000000  0.299762  1
  Sc  Sc1  1  0.410476  0.000000  0.299762  1
  Sc  Sc2  1  0.589524  0.000000  0.700237  1
  Sc  Sc3  1  0.910477  0.000000  0.700237  1
  Sc  Sc4  1  0.250000  0.000000  0.791572  1
  Sc  Sc5  1  0.750000  0.000000  0.208428  1
  Ga  Ga6  1  0.000000  0.500001  0.000000  1
  Ga  Ga7  1  0.500000  0.500001  0.000000  1
  Pt  Pt8  1  0.163210  0.500001  0.043752  1
  Pt  Pt9  1  0.336790  0.500001  0.043752  1
  Pt  Pt10  1  0.663210  0.500001  0.956247  1
  Pt  Pt11  1  0.836789  0.500001  0.956247  1
  Pt  Pt12  1  0.166068  0.500001  0.546084  1
  Pt  Pt13  1  0.333932  0.500001  0.546084  1
  Pt  Pt14  1  0.666068  0.500001  0.453915  1
  Pt  Pt15  1  0.833932  0.500001  0.453915  1
  Pt  Pt16  1  0.074762  0.000000  0.795121  1
  Pt  Pt17  1  0.425238  0.000000  0.795121  1
  Pt  Pt18  1  0.574762  0.000000  0.204880  1
  Pt  Pt19  1  0.925238  0.000000  0.204880  1
  Pt  Pt20  1  0.250000  0.000000  0.286965  1
  Pt  Pt21  1  0.750000  0.000000  0.713034  1
  Pt  Pt22  1  0.000000  0.500001  0.500000  1
  Pt  Pt23  1  0.500000  0.500001  0.500000  1
