# generated using pymatgen
data_Ho5Er7Th4(MgRu)4
_symmetry_space_group_name_H-M   'P 1'
_cell_length_a   9.71717376
_cell_length_b   9.71055961
_cell_length_c   9.71055354
_cell_angle_alpha   59.97360136
_cell_angle_beta   59.98779161
_cell_angle_gamma   59.98371130
_symmetry_Int_Tables_number   1
_chemical_formula_structural   Ho5Er7Th4(MgRu)4
_chemical_formula_sum   'Ho5 Er7 Th4 Mg4 Ru4'
_cell_volume   647.63895986
_cell_formula_units_Z   1
loop_
 _symmetry_equiv_pos_site_id
 _symmetry_equiv_pos_as_xyz
  1  'x, y, z'
loop_
 _atom_site_type_symbol
 _atom_site_label
 _atom_site_symmetry_multiplicity
 _atom_site_fract_x
 _atom_site_fract_y
 _atom_site_fract_z
 _atom_site_occupancy
  Ho  Ho0  1  0.564593  0.935409  0.935404  1
  Ho  Ho1  1  0.565026  0.935075  0.564609  1
  Ho  Ho2  1  0.935264  0.564616  0.935077  1
  Ho  Ho3  1  0.565043  0.564610  0.935071  1
  Ho  Ho4  1  0.935274  0.935081  0.564612  1
  Er  Er5  1  0.814155  0.185914  0.185887  1
  Er  Er6  1  0.185745  0.814194  0.814322  1
  Er  Er7  1  0.185743  0.813806  0.185968  1
  Er  Er8  1  0.814440  0.185990  0.813808  1
  Er  Er9  1  0.185740  0.185981  0.813873  1
  Er  Er10  1  0.814488  0.813766  0.185966  1
  Er  Er11  1  0.935220  0.564817  0.564771  1
  Th  Th12  1  0.346147  0.346548  0.346499  1
  Th  Th13  1  0.346392  0.346678  0.960505  1
  Th  Th14  1  0.346418  0.960499  0.346665  1
  Th  Th15  1  0.960813  0.346519  0.346478  1
  Mg  Mg16  1  0.580226  0.579854  0.579811  1
  Mg  Mg17  1  0.579977  0.579804  0.260262  1
  Mg  Mg18  1  0.579959  0.260265  0.579809  1
  Mg  Mg19  1  0.260111  0.579810  0.579836  1
  Ru  Ru20  1  0.142822  0.143343  0.143371  1
  Ru  Ru21  1  0.142982  0.143788  0.570242  1
  Ru  Ru22  1  0.142951  0.570291  0.143792  1
  Ru  Ru23  1  0.570472  0.143341  0.143361  1
