# generated using pymatgen
data_PrNd7Sc11Si16Au
_symmetry_space_group_name_H-M   'P 1'
_cell_length_a   7.16943766
_cell_length_b   7.53603169
_cell_length_c   14.23886231
_cell_angle_alpha   90.02274970
_cell_angle_beta   90.00717435
_cell_angle_gamma   90.21469677
_symmetry_Int_Tables_number   1
_chemical_formula_structural   PrNd7Sc11Si16Au
_chemical_formula_sum   'Pr1 Nd7 Sc11 Si16 Au1'
_cell_volume   769.30758133
_cell_formula_units_Z   1
loop_
 _symmetry_equiv_pos_site_id
 _symmetry_equiv_pos_as_xyz
  1  'x, y, z'
loop_
 _atom_site_type_symbol
 _atom_site_label
 _atom_site_symmetry_multiplicity
 _atom_site_fract_x
 _atom_site_fract_y
 _atom_site_fract_z
 _atom_site_occupancy
  Pr  Pr0  1  0.012490  0.173469  0.097338  1
  Nd  Nd1  1  0.012430  0.173808  0.402476  1
  Nd  Nd2  1  0.511513  0.329608  0.402552  1
  Nd  Nd3  1  0.492085  0.683043  0.897964  1
  Nd  Nd4  1  0.491999  0.683052  0.601943  1
  Nd  Nd5  1  0.979606  0.827635  0.602777  1
  Nd  Nd6  1  0.979597  0.827683  0.897083  1
  Nd  Nd7  1  0.511412  0.329719  0.097498  1
  Sc  Sc8  1  0.335611  0.172418  0.625393  1
  Sc  Sc9  1  0.671850  0.821824  0.374164  1
  Sc  Sc10  1  0.171607  0.676879  0.376064  1
  Sc  Sc11  1  0.826605  0.313443  0.874347  1
  Sc  Sc12  1  0.826712  0.313334  0.625625  1
  Sc  Sc13  1  0.840520  0.501789  0.250072  1
  Sc  Sc14  1  0.340147  0.998334  0.250036  1
  Sc  Sc15  1  0.335754  0.172367  0.874580  1
  Sc  Sc16  1  0.171651  0.676770  0.124022  1
  Sc  Sc17  1  0.671855  0.821802  0.125918  1
  Sc  Sc18  1  0.158278  0.494109  0.749993  1
  Si  Si19  1  0.279471  0.881828  0.749960  1
  Si  Si20  1  0.466964  0.622421  0.250049  1
  Si  Si21  1  0.043152  0.122248  0.749954  1
  Si  Si22  1  0.530832  0.387226  0.749940  1
  Si  Si23  1  0.153900  0.465964  0.541225  1
  Si  Si24  1  0.967204  0.874561  0.250314  1
  Si  Si25  1  0.710571  0.118549  0.250405  1
  Si  Si26  1  0.849029  0.537074  0.037074  1
  Si  Si27  1  0.349141  0.962993  0.038765  1
  Si  Si28  1  0.154035  0.466713  0.958524  1
  Si  Si29  1  0.654895  0.041167  0.530715  1
  Si  Si30  1  0.348216  0.963543  0.461049  1
  Si  Si31  1  0.849290  0.536249  0.462732  1
  Si  Si32  1  0.792134  0.593658  0.749955  1
  Si  Si33  1  0.211220  0.384396  0.250353  1
  Si  Si34  1  0.654446  0.041016  0.969135  1
  Au  Au35  1  0.643779  0.009310  0.750005  1
