# generated using pymatgen
data_Li5TcN4
_symmetry_space_group_name_H-M   'P 1'
_cell_length_a   4.89335700
_cell_length_b   6.61458300
_cell_length_c   6.70324600
_cell_angle_alpha   90.00000000
_cell_angle_beta   90.00000000
_cell_angle_gamma   90.00000000
_symmetry_Int_Tables_number   1
_chemical_formula_structural   Li5TcN4
_chemical_formula_sum   'Li10 Tc2 N8'
_cell_volume   216.96742233
_cell_formula_units_Z   2
loop_
 _symmetry_equiv_pos_site_id
 _symmetry_equiv_pos_as_xyz
  1  'x, y, z'
loop_
 _atom_site_type_symbol
 _atom_site_label
 _atom_site_symmetry_multiplicity
 _atom_site_fract_x
 _atom_site_fract_y
 _atom_site_fract_z
 _atom_site_occupancy
  Li  Li0  1  0.303145  0.000000  0.000000  1
  Li  Li1  1  0.696855  0.500000  0.500000  1
  Li  Li2  1  0.245178  0.761629  0.300772  1
  Li  Li3  1  0.245178  0.238371  0.699228  1
  Li  Li4  1  0.754822  0.261629  0.199228  1
  Li  Li5  1  0.754822  0.738371  0.800772  1
  Li  Li6  1  0.754822  0.738371  0.199228  1
  Li  Li7  1  0.754822  0.261629  0.800772  1
  Li  Li8  1  0.245178  0.761629  0.699228  1
  Li  Li9  1  0.245178  0.238371  0.300772  1
  Tc  Tc10  1  0.277814  0.500000  0.000000  1
  Tc  Tc11  1  0.722186  0.000000  0.500000  1
  N  N12  1  0.073437  0.730733  0.000000  1
  N  N13  1  0.519086  0.000000  0.729429  1
  N  N14  1  0.480914  0.500000  0.229429  1
  N  N15  1  0.480914  0.500000  0.770571  1
  N  N16  1  0.073437  0.269267  0.000000  1
  N  N17  1  0.926563  0.230733  0.500000  1
  N  N18  1  0.926563  0.769267  0.500000  1
  N  N19  1  0.519086  0.000000  0.270571  1
