# generated using pymatgen
data_Li4La4IrPd3
_symmetry_space_group_name_H-M   'P 1'
_cell_length_a   7.35743711
_cell_length_b   4.11594200
_cell_length_c   8.78664200
_cell_angle_alpha   90.00000000
_cell_angle_beta   91.27202326
_cell_angle_gamma   90.00000000
_symmetry_Int_Tables_number   1
_chemical_formula_structural   Li4La4IrPd3
_chemical_formula_sum   'Li4 La4 Ir1 Pd3'
_cell_volume   266.01841372
_cell_formula_units_Z   1
loop_
 _symmetry_equiv_pos_site_id
 _symmetry_equiv_pos_as_xyz
  1  'x, y, z'
loop_
 _atom_site_type_symbol
 _atom_site_label
 _atom_site_symmetry_multiplicity
 _atom_site_fract_x
 _atom_site_fract_y
 _atom_site_fract_z
 _atom_site_occupancy
  Li  Li0  1  0.622111  0.250000  0.551203  1
  Li  Li1  1  0.126139  0.250000  0.946764  1
  Li  Li2  1  0.375172  0.750000  0.447059  1
  Li  Li3  1  0.876200  0.750000  0.057014  1
  La  La4  1  0.054479  0.250000  0.330211  1
  La  La5  1  0.546123  0.250000  0.179586  1
  La  La6  1  0.964104  0.750000  0.683373  1
  La  La7  1  0.447563  0.750000  0.800519  1
  Ir  Ir8  1  0.239281  0.250000  0.626419  1
  Pd  Pd9  1  0.744145  0.250000  0.879615  1
  Pd  Pd10  1  0.749965  0.750000  0.374772  1
  Pd  Pd11  1  0.254720  0.750000  0.123465  1
