# generated using pymatgen
data_DyEr5(InPd2)6
_symmetry_space_group_name_H-M   'P 1'
_cell_length_a   4.76183800
_cell_length_b   6.70568511
_cell_length_c   14.36140700
_cell_angle_alpha   89.99449743
_cell_angle_beta   89.99937432
_cell_angle_gamma   89.99132742
_symmetry_Int_Tables_number   1
_chemical_formula_structural   DyEr5(InPd2)6
_chemical_formula_sum   'Dy1 Er5 In6 Pd12'
_cell_volume   458.57962538
_cell_formula_units_Z   1
loop_
 _symmetry_equiv_pos_site_id
 _symmetry_equiv_pos_as_xyz
  1  'x, y, z'
loop_
 _atom_site_type_symbol
 _atom_site_label
 _atom_site_symmetry_multiplicity
 _atom_site_fract_x
 _atom_site_fract_y
 _atom_site_fract_z
 _atom_site_occupancy
  Dy  Dy0  1  0.500019  0.999991  0.833290  1
  Er  Er1  1  0.999833  0.499971  0.999097  1
  Er  Er2  1  0.500103  0.000014  0.167098  1
  Er  Er3  1  0.000019  0.500036  0.333367  1
  Er  Er4  1  0.500202  0.000029  0.499596  1
  Er  Er5  1  0.999875  0.499967  0.667584  1
  In  In6  1  0.999640  0.000031  0.001276  1
  In  In7  1  0.500073  0.500016  0.166153  1
  In  In8  1  0.000103  0.999981  0.333361  1
  In  In9  1  0.500151  0.500011  0.500480  1
  In  In10  1  0.999895  0.999967  0.665360  1
  In  In11  1  0.499937  0.500026  0.833332  1
  Pd  Pd12  1  0.499955  0.252695  0.000597  1
  Pd  Pd13  1  0.499610  0.747261  0.000576  1
  Pd  Pd14  1  0.999955  0.250353  0.166481  1
  Pd  Pd15  1  0.000331  0.749662  0.166472  1
  Pd  Pd16  1  0.500173  0.251574  0.333357  1
  Pd  Pd17  1  0.499845  0.748509  0.333361  1
  Pd  Pd18  1  0.000059  0.250336  0.500233  1
  Pd  Pd19  1  0.000445  0.749706  0.500236  1
  Pd  Pd20  1  0.500036  0.252696  0.665969  1
  Pd  Pd21  1  0.499653  0.747262  0.665988  1
  Pd  Pd22  1  0.999866  0.248413  0.833368  1
  Pd  Pd23  1  0.000219  0.751485  0.833369  1
