# generated using pymatgen
data_EuP12Os3Ru
_symmetry_space_group_name_H-M   'P 1'
_cell_length_a   7.04326380
_cell_length_b   7.04542361
_cell_length_c   7.04542404
_cell_angle_alpha   109.47742312
_cell_angle_beta   109.46501050
_cell_angle_gamma   109.46501322
_symmetry_Int_Tables_number   1
_chemical_formula_structural   EuP12Os3Ru
_chemical_formula_sum   'Eu1 P12 Os3 Ru1'
_cell_volume   269.15324075
_cell_formula_units_Z   1
loop_
 _symmetry_equiv_pos_site_id
 _symmetry_equiv_pos_as_xyz
  1  'x, y, z'
loop_
 _atom_site_type_symbol
 _atom_site_label
 _atom_site_symmetry_multiplicity
 _atom_site_fract_x
 _atom_site_fract_y
 _atom_site_fract_z
 _atom_site_occupancy
  Eu  Eu0  1  0.000000  0.000000  0.000000  1
  P  P1  1  0.358018  0.215112  0.857281  1
  P  P2  1  0.641982  0.784888  0.142719  1
  P  P3  1  0.642218  0.499750  0.857515  1
  P  P4  1  0.357782  0.500250  0.142485  1
  P  P5  1  0.215297  0.857515  0.357765  1
  P  P6  1  0.784703  0.142485  0.642235  1
  P  P7  1  0.499263  0.857281  0.642169  1
  P  P8  1  0.500737  0.142719  0.357831  1
  P  P9  1  0.857094  0.357831  0.215112  1
  P  P10  1  0.142906  0.642169  0.784888  1
  P  P11  1  0.857532  0.642235  0.499750  1
  P  P12  1  0.142468  0.357765  0.500250  1
  Os  Os13  1  0.000000  0.000000  0.500000  1
  Os  Os14  1  0.000000  0.500000  0.000000  1
  Os  Os15  1  0.500000  0.500000  0.500000  1
  Ru  Ru16  1  0.500000  0.000000  0.000000  1
