# generated using pymatgen
data_Tb7Au10
_symmetry_space_group_name_H-M   'P 1'
_cell_length_a   8.77018753
_cell_length_b   8.77018754
_cell_length_c   10.44853500
_cell_angle_alpha   90.00000000
_cell_angle_beta   90.00000000
_cell_angle_gamma   107.12619866
_symmetry_Int_Tables_number   1
_chemical_formula_structural   Tb7Au10
_chemical_formula_sum   'Tb14 Au20'
_cell_volume   768.02591223
_cell_formula_units_Z   2
loop_
 _symmetry_equiv_pos_site_id
 _symmetry_equiv_pos_as_xyz
  1  'x, y, z'
loop_
 _atom_site_type_symbol
 _atom_site_label
 _atom_site_symmetry_multiplicity
 _atom_site_fract_x
 _atom_site_fract_y
 _atom_site_fract_z
 _atom_site_occupancy
  Tb  Tb0  1  0.692604  0.307396  0.000000  1
  Tb  Tb1  1  0.307396  0.692604  0.000000  1
  Tb  Tb2  1  0.807396  0.192604  0.500000  1
  Tb  Tb3  1  0.192604  0.807396  0.500000  1
  Tb  Tb4  1  0.000000  0.000000  0.000000  1
  Tb  Tb5  1  0.500000  0.500000  0.500000  1
  Tb  Tb6  1  0.002634  0.502634  0.250000  1
  Tb  Tb7  1  0.997366  0.497366  0.750000  1
  Tb  Tb8  1  0.497366  0.997366  0.750000  1
  Tb  Tb9  1  0.502634  0.002634  0.250000  1
  Tb  Tb10  1  0.313397  0.313397  0.187955  1
  Tb  Tb11  1  0.686603  0.686603  0.812045  1
  Tb  Tb12  1  0.186603  0.186603  0.687955  1
  Tb  Tb13  1  0.813397  0.813397  0.312045  1
  Au  Au14  1  0.859938  0.149556  0.209382  1
  Au  Au15  1  0.140062  0.850444  0.790618  1
  Au  Au16  1  0.640062  0.350444  0.709382  1
  Au  Au17  1  0.649556  0.359938  0.290618  1
  Au  Au18  1  0.359938  0.649556  0.290618  1
  Au  Au19  1  0.350444  0.640062  0.709382  1
  Au  Au20  1  0.850444  0.140062  0.790618  1
  Au  Au21  1  0.149556  0.859938  0.209382  1
  Au  Au22  1  0.937791  0.644878  0.002333  1
  Au  Au23  1  0.062209  0.355122  0.997667  1
  Au  Au24  1  0.562209  0.855122  0.502333  1
  Au  Au25  1  0.144878  0.437791  0.497667  1
  Au  Au26  1  0.437791  0.144878  0.497667  1
  Au  Au27  1  0.855122  0.562209  0.502333  1
  Au  Au28  1  0.355122  0.062209  0.997667  1
  Au  Au29  1  0.644878  0.937791  0.002333  1
  Au  Au30  1  0.105333  0.105333  0.397473  1
  Au  Au31  1  0.894667  0.894667  0.602527  1
  Au  Au32  1  0.394667  0.394667  0.897473  1
  Au  Au33  1  0.605333  0.605333  0.102527  1
