# generated using pymatgen
data_Pr2SbRuO8
_symmetry_space_group_name_H-M   'P 1'
_cell_length_a   5.14748800
_cell_length_b   5.42784516
_cell_length_c   13.53868200
_cell_angle_alpha   70.43871114
_cell_angle_beta   90.00000000
_cell_angle_gamma   90.00000000
_symmetry_Int_Tables_number   1
_chemical_formula_structural   Pr2SbRuO8
_chemical_formula_sum   'Pr4 Sb2 Ru2 O16'
_cell_volume   356.43549192
_cell_formula_units_Z   2
loop_
 _symmetry_equiv_pos_site_id
 _symmetry_equiv_pos_as_xyz
  1  'x, y, z'
loop_
 _atom_site_type_symbol
 _atom_site_label
 _atom_site_symmetry_multiplicity
 _atom_site_fract_x
 _atom_site_fract_y
 _atom_site_fract_z
 _atom_site_occupancy
  Pr  Pr0  1  0.800857  0.655672  0.338671  1
  Pr  Pr1  1  0.699143  0.655672  0.838671  1
  Pr  Pr2  1  0.198515  0.343839  0.661090  1
  Pr  Pr3  1  0.301485  0.343839  0.161090  1
  Sb  Sb4  1  0.246337  0.081552  0.930582  1
  Sb  Sb5  1  0.253663  0.081552  0.430582  1
  Ru  Ru6  1  0.749891  0.915593  0.070849  1
  Ru  Ru7  1  0.750109  0.915593  0.570849  1
  O  O8  1  0.435917  0.752679  0.030958  1
  O  O9  1  0.064083  0.752679  0.530958  1
  O  O10  1  0.558603  0.249174  0.972379  1
  O  O11  1  0.941397  0.249174  0.472379  1
  O  O12  1  0.605513  0.991721  0.186361  1
  O  O13  1  0.894487  0.991721  0.686361  1
  O  O14  1  0.399053  0.008222  0.810333  1
  O  O15  1  0.100947  0.008222  0.310333  1
  O  O16  1  0.065935  0.131640  0.059495  1
  O  O17  1  0.434065  0.131640  0.559495  1
  O  O18  1  0.927835  0.861193  0.943763  1
  O  O19  1  0.572165  0.861193  0.443763  1
  O  O20  1  0.882653  0.594850  0.167043  1
  O  O21  1  0.617347  0.594850  0.667043  1
  O  O22  1  0.114161  0.413863  0.828477  1
  O  O23  1  0.385839  0.413863  0.328477  1
