# generated using pymatgen
data_Pr2Cd2IrRh3O14
_symmetry_space_group_name_H-M   'P 1'
_cell_length_a   7.32935442
_cell_length_b   7.31150045
_cell_length_c   7.22460700
_cell_angle_alpha   60.39236769
_cell_angle_beta   60.47164785
_cell_angle_gamma   61.48798971
_symmetry_Int_Tables_number   1
_chemical_formula_structural   Pr2Cd2IrRh3O14
_chemical_formula_sum   'Pr2 Cd2 Ir1 Rh3 O14'
_cell_volume   278.54012530
_cell_formula_units_Z   1
loop_
 _symmetry_equiv_pos_site_id
 _symmetry_equiv_pos_as_xyz
  1  'x, y, z'
loop_
 _atom_site_type_symbol
 _atom_site_label
 _atom_site_symmetry_multiplicity
 _atom_site_fract_x
 _atom_site_fract_y
 _atom_site_fract_z
 _atom_site_occupancy
  Pr  Pr0  1  0.625000  0.125000  0.125000  1
  Pr  Pr1  1  0.125000  0.625000  0.125000  1
  Cd  Cd2  1  0.125000  0.125000  0.625000  1
  Cd  Cd3  1  0.125000  0.125000  0.125000  1
  Ir  Ir4  1  0.125000  0.625000  0.625000  1
  Rh  Rh5  1  0.625000  0.625000  0.625000  1
  Rh  Rh6  1  0.625000  0.125000  0.625000  1
  Rh  Rh7  1  0.625000  0.625000  0.125000  1
  O  O8  1  0.951287  0.551736  0.549011  1
  O  O9  1  0.299208  0.309566  0.695613  1
  O  O10  1  0.951287  0.551736  0.947967  1
  O  O11  1  0.704401  0.298809  0.296254  1
  O  O12  1  0.536502  0.541849  0.960825  1
  O  O13  1  0.545599  0.951191  0.549464  1
  O  O14  1  0.545599  0.951191  0.953746  1
  O  O15  1  0.238282  0.238952  0.261383  1
  O  O16  1  0.298713  0.698264  0.700989  1
  O  O17  1  0.704401  0.298809  0.700536  1
  O  O18  1  0.011718  0.011048  0.988617  1
  O  O19  1  0.950792  0.940434  0.554387  1
  O  O20  1  0.298713  0.698264  0.302033  1
  O  O21  1  0.713498  0.708151  0.289175  1
