# generated using pymatgen
data_Lu2Ga10Tc2Os
_symmetry_space_group_name_H-M   'P 1'
_cell_length_a   9.09777200
_cell_length_b   9.09777200
_cell_length_c   6.15394700
_cell_angle_alpha   90.00000000
_cell_angle_beta   90.00000000
_cell_angle_gamma   90.00000000
_symmetry_Int_Tables_number   1
_chemical_formula_structural   Lu2Ga10Tc2Os
_chemical_formula_sum   'Lu4 Ga20 Tc4 Os2'
_cell_volume   509.35884153
_cell_formula_units_Z   2
loop_
 _symmetry_equiv_pos_site_id
 _symmetry_equiv_pos_as_xyz
  1  'x, y, z'
loop_
 _atom_site_type_symbol
 _atom_site_label
 _atom_site_symmetry_multiplicity
 _atom_site_fract_x
 _atom_site_fract_y
 _atom_site_fract_z
 _atom_site_occupancy
  Lu  Lu0  1  0.183316  0.316684  0.000000  1
  Lu  Lu1  1  0.683316  0.183316  0.000000  1
  Lu  Lu2  1  0.816684  0.683316  0.000000  1
  Lu  Lu3  1  0.316684  0.816684  0.000000  1
  Ga  Ga4  1  0.500000  0.000000  0.278946  1
  Ga  Ga5  1  0.500000  0.000000  0.721054  1
  Ga  Ga6  1  0.292808  0.559816  0.711315  1
  Ga  Ga7  1  0.000000  0.500000  0.278946  1
  Ga  Ga8  1  0.000000  0.500000  0.721054  1
  Ga  Ga9  1  0.059816  0.792808  0.711315  1
  Ga  Ga10  1  0.207192  0.059816  0.288685  1
  Ga  Ga11  1  0.059816  0.792808  0.288685  1
  Ga  Ga12  1  0.707192  0.440184  0.711315  1
  Ga  Ga13  1  0.207192  0.059816  0.711315  1
  Ga  Ga14  1  0.940184  0.207192  0.711315  1
  Ga  Ga15  1  0.707192  0.440184  0.288685  1
  Ga  Ga16  1  0.559816  0.707192  0.288685  1
  Ga  Ga17  1  0.940184  0.207192  0.288685  1
  Ga  Ga18  1  0.559816  0.707192  0.711315  1
  Ga  Ga19  1  0.792808  0.940184  0.288685  1
  Ga  Ga20  1  0.440184  0.292808  0.711315  1
  Ga  Ga21  1  0.792808  0.940184  0.711315  1
  Ga  Ga22  1  0.440184  0.292808  0.288685  1
  Ga  Ga23  1  0.292808  0.559816  0.288685  1
  Tc  Tc24  1  0.179245  0.320755  0.500000  1
  Tc  Tc25  1  0.320755  0.820755  0.500000  1
  Tc  Tc26  1  0.820755  0.679245  0.500000  1
  Tc  Tc27  1  0.679245  0.179245  0.500000  1
  Os  Os28  1  0.000000  0.000000  0.000000  1
  Os  Os29  1  0.500000  0.500000  0.000000  1
