# generated using pymatgen
data_Sr10AlTc3N14
_symmetry_space_group_name_H-M   'P 1'
_cell_length_a   6.44412204
_cell_length_b   9.19675928
_cell_length_c   9.26933714
_cell_angle_alpha   113.91556457
_cell_angle_beta   98.17616344
_cell_angle_gamma   89.83505748
_symmetry_Int_Tables_number   1
_chemical_formula_structural   Sr10AlTc3N14
_chemical_formula_sum   'Sr10 Al1 Tc3 N14'
_cell_volume   496.16673431
_cell_formula_units_Z   1
loop_
 _symmetry_equiv_pos_site_id
 _symmetry_equiv_pos_as_xyz
  1  'x, y, z'
loop_
 _atom_site_type_symbol
 _atom_site_label
 _atom_site_symmetry_multiplicity
 _atom_site_fract_x
 _atom_site_fract_y
 _atom_site_fract_z
 _atom_site_occupancy
  Sr  Sr0  1  0.852367  0.577781  0.341904  1
  Sr  Sr1  1  0.264982  0.995237  0.561305  1
  Sr  Sr2  1  0.699835  0.405903  0.837496  1
  Sr  Sr3  1  0.295485  0.584502  0.152904  1
  Sr  Sr4  1  0.399829  0.780938  0.905178  1
  Sr  Sr5  1  0.605035  0.213759  0.105663  1
  Sr  Sr6  1  0.150577  0.405790  0.648995  1
  Sr  Sr7  1  0.881836  0.845277  0.761490  1
  Sr  Sr8  1  0.118367  0.158561  0.248015  1
  Sr  Sr9  1  0.730556  0.032868  0.433841  1
  Al  Al10  1  0.580157  0.359104  0.475451  1
  Tc  Tc11  1  0.418440  0.655158  0.526898  1
  Tc  Tc12  1  0.123423  0.216195  0.914710  1
  Tc  Tc13  1  0.875731  0.776103  0.084808  1
  N  N14  1  0.547023  0.550454  0.664731  1
  N  N15  1  0.459368  0.453607  0.336631  1
  N  N16  1  0.158584  0.711396  0.579833  1
  N  N17  1  0.846879  0.298724  0.417960  1
  N  N18  1  0.413303  0.194720  0.482875  1
  N  N19  1  0.587939  0.811124  0.522642  1
  N  N20  1  0.952635  0.141985  0.720122  1
  N  N21  1  0.042444  0.849080  0.279918  1
  N  N22  1  0.229359  0.052523  0.961881  1
  N  N23  1  0.766993  0.942547  0.041690  1
  N  N24  1  0.351268  0.329862  0.908143  1
  N  N25  1  0.973195  0.342914  0.070071  1
  N  N26  1  0.025780  0.655134  0.925540  1
  N  N27  1  0.648609  0.658750  0.089302  1
