# generated using pymatgen
data_RbInH5
_symmetry_space_group_name_H-M   'P 1'
_cell_length_a   11.09326000
_cell_length_b   8.15774537
_cell_length_c   5.90212153
_cell_angle_alpha   92.05702967
_cell_angle_beta   90.00000000
_cell_angle_gamma   90.00000000
_symmetry_Int_Tables_number   1
_chemical_formula_structural   RbInH5
_chemical_formula_sum   'Rb4 In4 H20'
_cell_volume   533.77414443
_cell_formula_units_Z   4
loop_
 _symmetry_equiv_pos_site_id
 _symmetry_equiv_pos_as_xyz
  1  'x, y, z'
loop_
 _atom_site_type_symbol
 _atom_site_label
 _atom_site_symmetry_multiplicity
 _atom_site_fract_x
 _atom_site_fract_y
 _atom_site_fract_z
 _atom_site_occupancy
  Rb  Rb0  1  0.694768  0.166860  0.265832  1
  Rb  Rb1  1  0.186410  0.274784  0.250808  1
  Rb  Rb2  1  0.805232  0.666860  0.765832  1
  Rb  Rb3  1  0.313590  0.774785  0.750808  1
  In  In4  1  0.568209  0.686146  0.279221  1
  In  In5  1  0.040496  0.757073  0.260478  1
  In  In6  1  0.931791  0.186145  0.779220  1
  In  In7  1  0.459504  0.257074  0.760477  1
  H  H8  1  0.389049  0.103081  0.923489  1
  H  H9  1  0.885604  0.351073  0.970063  1
  H  H10  1  0.080225  0.720649  0.970136  1
  H  H11  1  0.570572  0.760947  0.998645  1
  H  H12  1  0.674070  0.523597  0.305877  1
  H  H13  1  0.280827  0.911471  0.260365  1
  H  H14  1  0.347701  0.922555  0.241671  1
  H  H15  1  0.881294  0.749550  0.288012  1
  H  H16  1  0.097009  0.949493  0.364487  1
  H  H17  1  0.421213  0.622722  0.354912  1
  H  H18  1  0.110951  0.603081  0.423488  1
  H  H19  1  0.614396  0.851072  0.470062  1
  H  H20  1  0.419776  0.220649  0.470138  1
  H  H21  1  0.929429  0.260947  0.498647  1
  H  H22  1  0.825931  0.023596  0.805877  1
  H  H23  1  0.219173  0.411472  0.760365  1
  H  H24  1  0.152299  0.422554  0.741671  1
  H  H25  1  0.618706  0.249550  0.788012  1
  H  H26  1  0.402991  0.449493  0.864489  1
  H  H27  1  0.078787  0.122722  0.854914  1
