# generated using pymatgen
data_Hf6Ti4Al4Ga8Rh7
_symmetry_space_group_name_H-M   'P 1'
_cell_length_a   8.74662796
_cell_length_b   8.74662811
_cell_length_c   8.74662800
_cell_angle_alpha   60.00000043
_cell_angle_beta   59.99999985
_cell_angle_gamma   60.00000048
_symmetry_Int_Tables_number   1
_chemical_formula_structural   Hf6Ti4Al4Ga8Rh7
_chemical_formula_sum   'Hf6 Ti4 Al4 Ga8 Rh7'
_cell_volume   473.15885974
_cell_formula_units_Z   1
loop_
 _symmetry_equiv_pos_site_id
 _symmetry_equiv_pos_as_xyz
  1  'x, y, z'
loop_
 _atom_site_type_symbol
 _atom_site_label
 _atom_site_symmetry_multiplicity
 _atom_site_fract_x
 _atom_site_fract_y
 _atom_site_fract_z
 _atom_site_occupancy
  Hf  Hf0  1  0.691747  0.691747  0.308253  1
  Hf  Hf1  1  0.308253  0.691747  0.308253  1
  Hf  Hf2  1  0.691747  0.308253  0.308253  1
  Hf  Hf3  1  0.308253  0.308253  0.691747  1
  Hf  Hf4  1  0.691747  0.308253  0.691747  1
  Hf  Hf5  1  0.308253  0.691747  0.691747  1
  Ti  Ti6  1  0.878359  0.878359  0.364923  1
  Ti  Ti7  1  0.878359  0.364923  0.878359  1
  Ti  Ti8  1  0.364923  0.878359  0.878359  1
  Ti  Ti9  1  0.878359  0.878359  0.878359  1
  Al  Al10  1  0.120239  0.120239  0.639281  1
  Al  Al11  1  0.120239  0.639281  0.120239  1
  Al  Al12  1  0.639281  0.120239  0.120239  1
  Al  Al13  1  0.120239  0.120239  0.120239  1
  Ga  Ga14  1  0.658940  0.658940  0.023180  1
  Ga  Ga15  1  0.658940  0.023180  0.658940  1
  Ga  Ga16  1  0.023180  0.658940  0.658940  1
  Ga  Ga17  1  0.658940  0.658940  0.658940  1
  Ga  Ga18  1  0.340719  0.340719  0.977842  1
  Ga  Ga19  1  0.340719  0.977842  0.340719  1
  Ga  Ga20  1  0.977842  0.340719  0.340719  1
  Ga  Ga21  1  0.340719  0.340719  0.340719  1
  Rh  Rh22  1  0.000000  0.000000  0.000000  1
  Rh  Rh23  1  0.998704  0.998704  0.501296  1
  Rh  Rh24  1  0.501296  0.998704  0.501296  1
  Rh  Rh25  1  0.998704  0.501296  0.501296  1
  Rh  Rh26  1  0.501296  0.501296  0.998704  1
  Rh  Rh27  1  0.998704  0.501296  0.998704  1
  Rh  Rh28  1  0.501296  0.998704  0.998704  1
