# generated using pymatgen
data_Pr2NdDy5(CdIr)2
_symmetry_space_group_name_H-M   'P 1'
_cell_length_a   9.76440739
_cell_length_b   9.76440799
_cell_length_c   9.76643700
_cell_angle_alpha   59.99312928
_cell_angle_beta   59.99312726
_cell_angle_gamma   60.01375333
_symmetry_Int_Tables_number   1
_chemical_formula_structural   Pr2NdDy5(CdIr)2
_chemical_formula_sum   'Pr4 Nd2 Dy10 Cd4 Ir4'
_cell_volume   658.43507525
_cell_formula_units_Z   2
loop_
 _symmetry_equiv_pos_site_id
 _symmetry_equiv_pos_as_xyz
  1  'x, y, z'
loop_
 _atom_site_type_symbol
 _atom_site_label
 _atom_site_symmetry_multiplicity
 _atom_site_fract_x
 _atom_site_fract_y
 _atom_site_fract_z
 _atom_site_occupancy
  Pr  Pr0  1  0.940723  0.559277  0.559277  1
  Pr  Pr1  1  0.559277  0.940723  0.940723  1
  Pr  Pr2  1  0.559277  0.940723  0.559277  1
  Pr  Pr3  1  0.940723  0.559277  0.940723  1
  Nd  Nd4  1  0.558682  0.558682  0.941318  1
  Nd  Nd5  1  0.941318  0.941318  0.558682  1
  Dy  Dy6  1  0.347370  0.347370  0.347257  1
  Dy  Dy7  1  0.347370  0.347370  0.958003  1
  Dy  Dy8  1  0.347257  0.958003  0.347370  1
  Dy  Dy9  1  0.958003  0.347257  0.347370  1
  Dy  Dy10  1  0.812403  0.187597  0.187597  1
  Dy  Dy11  1  0.187597  0.812403  0.812403  1
  Dy  Dy12  1  0.187597  0.812403  0.187597  1
  Dy  Dy13  1  0.812403  0.187597  0.812403  1
  Dy  Dy14  1  0.187488  0.187488  0.812512  1
  Dy  Dy15  1  0.812512  0.812512  0.187488  1
  Cd  Cd16  1  0.579244  0.579244  0.579714  1
  Cd  Cd17  1  0.579244  0.579244  0.261797  1
  Cd  Cd18  1  0.579714  0.261797  0.579244  1
  Cd  Cd19  1  0.261797  0.579714  0.579244  1
  Ir  Ir20  1  0.141096  0.141096  0.141752  1
  Ir  Ir21  1  0.141096  0.141096  0.576056  1
  Ir  Ir22  1  0.141752  0.576056  0.141096  1
  Ir  Ir23  1  0.576056  0.141752  0.141096  1
