# generated using pymatgen
data_Hf3Sc5V12Si15P
_symmetry_space_group_name_H-M   'P 1'
_cell_length_a   6.61281484
_cell_length_b   6.60456084
_cell_length_c   12.22111597
_cell_angle_alpha   89.99573871
_cell_angle_beta   89.95740489
_cell_angle_gamma   89.99740577
_symmetry_Int_Tables_number   1
_chemical_formula_structural   Hf3Sc5V12Si15P
_chemical_formula_sum   'Hf3 Sc5 V12 Si15 P1'
_cell_volume   533.75388763
_cell_formula_units_Z   1
loop_
 _symmetry_equiv_pos_site_id
 _symmetry_equiv_pos_as_xyz
  1  'x, y, z'
loop_
 _atom_site_type_symbol
 _atom_site_label
 _atom_site_symmetry_multiplicity
 _atom_site_fract_x
 _atom_site_fract_y
 _atom_site_fract_z
 _atom_site_occupancy
  Hf  Hf0  1  0.005460  0.662377  0.029676  1
  Hf  Hf1  1  0.838790  0.503802  0.280109  1
  Hf  Hf2  1  0.160141  0.495963  0.780153  1
  Sc  Sc3  1  0.501201  0.837404  0.720481  1
  Sc  Sc4  1  0.496624  0.160475  0.218824  1
  Sc  Sc5  1  0.998797  0.337958  0.529384  1
  Sc  Sc6  1  0.658200  0.001115  0.971151  1
  Sc  Sc7  1  0.338166  0.998807  0.470252  1
  V  V8  1  0.329931  0.331888  0.000511  1
  V  V9  1  0.166656  0.832766  0.247354  1
  V  V10  1  0.834695  0.168812  0.750061  1
  V  V11  1  0.667526  0.667063  0.499748  1
  V  V12  1  0.008654  0.155252  0.124732  1
  V  V13  1  0.342190  0.505841  0.375697  1
  V  V14  1  0.659639  0.494979  0.876846  1
  V  V15  1  0.505693  0.343612  0.624491  1
  V  V16  1  0.491202  0.662197  0.122671  1
  V  V17  1  0.994869  0.841918  0.627621  1
  V  V18  1  0.158840  0.003821  0.877028  1
  V  V19  1  0.842162  0.993584  0.372789  1
  Si  Si20  1  0.538223  0.794769  0.315162  1
  Si  Si21  1  0.462152  0.205814  0.814525  1
  Si  Si22  1  0.792712  0.540222  0.684547  1
  Si  Si23  1  0.208817  0.458318  0.185957  1
  Si  Si24  1  0.706564  0.038812  0.564538  1
  Si  Si25  1  0.957703  0.290961  0.935341  1
  Si  Si26  1  0.040582  0.707878  0.436052  1
  Si  Si27  1  0.703573  0.371797  0.071499  1
  Si  Si28  1  0.129121  0.203572  0.320757  1
  Si  Si29  1  0.869747  0.797668  0.821411  1
  Si  Si30  1  0.204500  0.128011  0.679648  1
  Si  Si31  1  0.794236  0.872372  0.179357  1
  Si  Si32  1  0.296929  0.630071  0.570930  1
  Si  Si33  1  0.373796  0.702526  0.927185  1
  Si  Si34  1  0.628714  0.295584  0.429392  1
  P  P35  1  0.293197  0.961991  0.064121  1
