# generated using pymatgen
data_TbTmInAu2
_symmetry_space_group_name_H-M   'P 1'
_cell_length_a   7.98523589
_cell_length_b   7.98523589
_cell_length_c   7.36301400
_cell_angle_alpha   90.00000000
_cell_angle_beta   90.00000000
_cell_angle_gamma   90.07886996
_symmetry_Int_Tables_number   1
_chemical_formula_structural   TbTmInAu2
_chemical_formula_sum   'Tb4 Tm4 In4 Au8'
_cell_volume   469.49472275
_cell_formula_units_Z   4
loop_
 _symmetry_equiv_pos_site_id
 _symmetry_equiv_pos_as_xyz
  1  'x, y, z'
loop_
 _atom_site_type_symbol
 _atom_site_label
 _atom_site_symmetry_multiplicity
 _atom_site_fract_x
 _atom_site_fract_y
 _atom_site_fract_z
 _atom_site_occupancy
  Tb  Tb0  1  0.840410  0.159590  0.500000  1
  Tb  Tb1  1  0.159590  0.840410  0.500000  1
  Tb  Tb2  1  0.681958  0.681958  0.500000  1
  Tb  Tb3  1  0.318042  0.318042  0.500000  1
  Tm  Tm4  1  0.341161  0.341161  0.000000  1
  Tm  Tm5  1  0.658839  0.658839  0.000000  1
  Tm  Tm6  1  0.180198  0.819802  0.000000  1
  Tm  Tm7  1  0.819802  0.180198  0.000000  1
  In  In8  1  0.500000  0.000000  0.249985  1
  In  In9  1  0.000000  0.500000  0.750015  1
  In  In10  1  0.500000  0.000000  0.750015  1
  In  In11  1  0.000000  0.500000  0.249985  1
  Au  Au12  1  0.628035  0.371965  0.263686  1
  Au  Au13  1  0.371965  0.628035  0.263686  1
  Au  Au14  1  0.128125  0.128125  0.778035  1
  Au  Au15  1  0.871875  0.871875  0.778035  1
  Au  Au16  1  0.371965  0.628035  0.736314  1
  Au  Au17  1  0.628035  0.371965  0.736314  1
  Au  Au18  1  0.871875  0.871875  0.221965  1
  Au  Au19  1  0.128125  0.128125  0.221965  1
