# generated using pymatgen
data_Tl(Ag3O4)2
_symmetry_space_group_name_H-M   'P 1'
_cell_length_a   7.15541064
_cell_length_b   7.15541178
_cell_length_c   7.15541100
_cell_angle_alpha   59.99999900
_cell_angle_beta   59.99999373
_cell_angle_gamma   59.99999309
_symmetry_Int_Tables_number   1
_chemical_formula_structural   Tl(Ag3O4)2
_chemical_formula_sum   'Tl1 Ag6 O8'
_cell_volume   259.05306462
_cell_formula_units_Z   1
loop_
 _symmetry_equiv_pos_site_id
 _symmetry_equiv_pos_as_xyz
  1  'x, y, z'
loop_
 _atom_site_type_symbol
 _atom_site_label
 _atom_site_symmetry_multiplicity
 _atom_site_fract_x
 _atom_site_fract_y
 _atom_site_fract_z
 _atom_site_occupancy
  Tl  Tl0  1  0.000000  0.000000  0.000000  1
  Ag  Ag1  1  0.500000  0.000000  0.500000  1
  Ag  Ag2  1  0.500000  0.000000  0.000000  1
  Ag  Ag3  1  0.000000  0.000000  0.500000  1
  Ag  Ag4  1  0.000000  0.500000  0.000000  1
  Ag  Ag5  1  0.000000  0.500000  0.500000  1
  Ag  Ag6  1  0.500000  0.500000  0.000000  1
  O  O7  1  0.859215  0.422354  0.859215  1
  O  O8  1  0.140785  0.140785  0.140785  1
  O  O9  1  0.859215  0.859215  0.859215  1
  O  O10  1  0.577646  0.140785  0.140785  1
  O  O11  1  0.859215  0.859215  0.422354  1
  O  O12  1  0.422354  0.859215  0.859215  1
  O  O13  1  0.140785  0.140785  0.577646  1
  O  O14  1  0.140785  0.577646  0.140785  1
