# generated using pymatgen
data_Ho2Lu2B12IrRh
_symmetry_space_group_name_H-M   'P 1'
_cell_length_a   3.61062700
_cell_length_b   9.10610751
_cell_length_c   11.45402521
_cell_angle_alpha   90.08006850
_cell_angle_beta   90.00000000
_cell_angle_gamma   90.00000000
_symmetry_Int_Tables_number   1
_chemical_formula_structural   Ho2Lu2B12IrRh
_chemical_formula_sum   'Ho4 Lu4 B24 Ir2 Rh2'
_cell_volume   376.59375136
_cell_formula_units_Z   2
loop_
 _symmetry_equiv_pos_site_id
 _symmetry_equiv_pos_as_xyz
  1  'x, y, z'
loop_
 _atom_site_type_symbol
 _atom_site_label
 _atom_site_symmetry_multiplicity
 _atom_site_fract_x
 _atom_site_fract_y
 _atom_site_fract_z
 _atom_site_occupancy
  Ho  Ho0  1  0.500000  0.322384  0.414264  1
  Ho  Ho1  1  0.500000  0.677616  0.585736  1
  Ho  Ho2  1  0.500000  0.179597  0.912971  1
  Ho  Ho3  1  0.500000  0.820403  0.087029  1
  Lu  Lu4  1  0.500000  0.445207  0.126466  1
  Lu  Lu5  1  0.500000  0.554793  0.873534  1
  Lu  Lu6  1  0.500000  0.056360  0.625787  1
  Lu  Lu7  1  0.500000  0.943640  0.374213  1
  B  B8  1  0.000000  0.106837  0.470986  1
  B  B9  1  0.000000  0.893163  0.529014  1
  B  B10  1  0.000000  0.393481  0.971215  1
  B  B11  1  0.000000  0.606519  0.028785  1
  B  B12  1  0.000000  0.131671  0.316772  1
  B  B13  1  0.000000  0.868329  0.683228  1
  B  B14  1  0.000000  0.367711  0.816802  1
  B  B15  1  0.000000  0.632289  0.183198  1
  B  B16  1  0.000000  0.054354  0.065853  1
  B  B17  1  0.000000  0.945646  0.934147  1
  B  B18  1  0.000000  0.446175  0.565459  1
  B  B19  1  0.000000  0.553825  0.434541  1
  B  B20  1  0.000000  0.482312  0.286436  1
  B  B21  1  0.000000  0.517688  0.713564  1
  B  B22  1  0.000000  0.017963  0.785827  1
  B  B23  1  0.000000  0.982037  0.214173  1
  B  B24  1  0.000000  0.251360  0.079699  1
  B  B25  1  0.000000  0.748640  0.920301  1
  B  B26  1  0.000000  0.249633  0.579686  1
  B  B27  1  0.000000  0.750367  0.420314  1
  B  B28  1  0.000000  0.294737  0.235384  1
  B  B29  1  0.000000  0.705263  0.764616  1
  B  B30  1  0.000000  0.205294  0.735752  1
  B  B31  1  0.000000  0.794706  0.264248  1
  Ir  Ir32  1  0.500000  0.139559  0.178749  1
  Ir  Ir33  1  0.500000  0.860441  0.821251  1
  Rh  Rh34  1  0.500000  0.359747  0.680699  1
  Rh  Rh35  1  0.500000  0.640253  0.319301  1
