# generated using pymatgen
data_TmBiIr2O7
_symmetry_space_group_name_H-M   'P 1'
_cell_length_a   7.33966189
_cell_length_b   7.29416657
_cell_length_c   7.29416600
_cell_angle_alpha   59.57337229
_cell_angle_beta   59.79345440
_cell_angle_gamma   59.79346341
_symmetry_Int_Tables_number   1
_chemical_formula_structural   TmBiIr2O7
_chemical_formula_sum   'Tm2 Bi2 Ir4 O14'
_cell_volume   274.37110289
_cell_formula_units_Z   2
loop_
 _symmetry_equiv_pos_site_id
 _symmetry_equiv_pos_as_xyz
  1  'x, y, z'
loop_
 _atom_site_type_symbol
 _atom_site_label
 _atom_site_symmetry_multiplicity
 _atom_site_fract_x
 _atom_site_fract_y
 _atom_site_fract_z
 _atom_site_occupancy
  Tm  Tm0  1  0.125000  0.625000  0.125000  1
  Tm  Tm1  1  0.125000  0.125000  0.625000  1
  Bi  Bi2  1  0.625000  0.125000  0.125000  1
  Bi  Bi3  1  0.125000  0.125000  0.125000  1
  Ir  Ir4  1  0.125000  0.625000  0.625000  1
  Ir  Ir5  1  0.625000  0.125000  0.625000  1
  Ir  Ir6  1  0.625000  0.625000  0.125000  1
  Ir  Ir7  1  0.625000  0.625000  0.625000  1
  O  O8  1  0.720713  0.701711  0.289446  1
  O  O9  1  0.288130  0.289446  0.701711  1
  O  O10  1  0.720713  0.289446  0.701711  1
  O  O11  1  0.288130  0.701711  0.289446  1
  O  O12  1  0.288994  0.711006  0.711006  1
  O  O13  1  0.707812  0.292188  0.292188  1
  O  O14  1  0.529287  0.548289  0.960554  1
  O  O15  1  0.961870  0.960554  0.548289  1
  O  O16  1  0.529287  0.960554  0.548289  1
  O  O17  1  0.961870  0.548289  0.960554  1
  O  O18  1  0.961006  0.538994  0.538994  1
  O  O19  1  0.542188  0.957812  0.957812  1
  O  O20  1  0.241556  0.258444  0.258444  1
  O  O21  1  0.008444  0.991556  0.991556  1
