# generated using pymatgen
data_Tb15Y5(SiBi2)4
_symmetry_space_group_name_H-M   'P 1'
_cell_length_a   12.15252130
_cell_length_b   9.20777900
_cell_length_c   8.11189720
_cell_angle_alpha   90.00000000
_cell_angle_beta   89.97437512
_cell_angle_gamma   90.00000000
_symmetry_Int_Tables_number   1
_chemical_formula_structural   Tb15Y5(SiBi2)4
_chemical_formula_sum   'Tb15 Y5 Si4 Bi8'
_cell_volume   907.70279593
_cell_formula_units_Z   1
loop_
 _symmetry_equiv_pos_site_id
 _symmetry_equiv_pos_as_xyz
  1  'x, y, z'
loop_
 _atom_site_type_symbol
 _atom_site_label
 _atom_site_symmetry_multiplicity
 _atom_site_fract_x
 _atom_site_fract_y
 _atom_site_fract_z
 _atom_site_occupancy
  Tb  Tb0  1  0.063614  0.551676  0.819990  1
  Tb  Tb1  1  0.563496  0.948300  0.679913  1
  Tb  Tb2  1  0.936388  0.051793  0.179949  1
  Tb  Tb3  1  0.436387  0.448409  0.320029  1
  Tb  Tb4  1  0.936388  0.448207  0.179949  1
  Tb  Tb5  1  0.436387  0.051591  0.320029  1
  Tb  Tb6  1  0.063614  0.948324  0.819990  1
  Tb  Tb7  1  0.563496  0.551700  0.679913  1
  Tb  Tb8  1  0.711329  0.750000  0.335705  1
  Tb  Tb9  1  0.788636  0.250000  0.835695  1
  Tb  Tb10  1  0.288541  0.250000  0.664338  1
  Tb  Tb11  1  0.295310  0.750000  0.635093  1
  Tb  Tb12  1  0.795444  0.750000  0.864835  1
  Tb  Tb13  1  0.704690  0.250000  0.364863  1
  Tb  Tb14  1  0.204613  0.250000  0.135180  1
  Y  Y15  1  0.000668  0.750000  0.459711  1
  Y  Y16  1  0.500899  0.750000  0.040401  1
  Y  Y17  1  0.999279  0.250000  0.540182  1
  Y  Y18  1  0.499225  0.250000  0.959851  1
  Y  Y19  1  0.211234  0.750000  0.164013  1
  Si  Si20  1  0.480336  0.750000  0.414181  1
  Si  Si21  1  0.980452  0.750000  0.085986  1
  Si  Si22  1  0.519745  0.250000  0.585950  1
  Si  Si23  1  0.019853  0.250000  0.913980  1
  Bi  Bi24  1  0.326302  0.510969  0.931747  1
  Bi  Bi25  1  0.826395  0.989310  0.568537  1
  Bi  Bi26  1  0.673629  0.010737  0.068440  1
  Bi  Bi27  1  0.173661  0.489414  0.431412  1
  Bi  Bi28  1  0.673629  0.489263  0.068440  1
  Bi  Bi29  1  0.173661  0.010586  0.431412  1
  Bi  Bi30  1  0.326302  0.989031  0.931747  1
  Bi  Bi31  1  0.826395  0.510690  0.568537  1
