# generated using pymatgen
data_La7NpH24
_symmetry_space_group_name_H-M   'P 1'
_cell_length_a   7.02540000
_cell_length_b   7.02540000
_cell_length_c   7.02540000
_cell_angle_alpha   90.00000000
_cell_angle_beta   90.00000000
_cell_angle_gamma   90.00000000
_symmetry_Int_Tables_number   1
_chemical_formula_structural   La7NpH24
_chemical_formula_sum   'La7 Np1 H24'
_cell_volume   346.74736475
_cell_formula_units_Z   1
loop_
 _symmetry_equiv_pos_site_id
 _symmetry_equiv_pos_as_xyz
  1  'x, y, z'
loop_
 _atom_site_type_symbol
 _atom_site_label
 _atom_site_symmetry_multiplicity
 _atom_site_fract_x
 _atom_site_fract_y
 _atom_site_fract_z
 _atom_site_occupancy
  La  La0  1  0.000000  0.000000  0.000000  1
  La  La1  1  0.252490  0.000000  0.500000  1
  La  La2  1  0.747510  0.000000  0.500000  1
  La  La3  1  0.000000  0.500000  0.252490  1
  La  La4  1  0.000000  0.500000  0.747510  1
  La  La5  1  0.500000  0.747510  0.000000  1
  La  La6  1  0.500000  0.252490  0.000000  1
  Np  Np7  1  0.500000  0.500000  0.500000  1
  H  H8  1  0.000000  0.155315  0.309013  1
  H  H9  1  0.500000  0.208158  0.650542  1
  H  H10  1  0.500000  0.791842  0.349458  1
  H  H11  1  0.791842  0.650542  0.500000  1
  H  H12  1  0.208158  0.650542  0.500000  1
  H  H13  1  0.349458  0.500000  0.791842  1
  H  H14  1  0.650542  0.500000  0.791842  1
  H  H15  1  0.309013  0.000000  0.155315  1
  H  H16  1  0.155315  0.309013  0.000000  1
  H  H17  1  0.844685  0.690987  0.000000  1
  H  H18  1  0.309013  0.000000  0.844685  1
  H  H19  1  0.844685  0.309013  0.000000  1
  H  H20  1  0.690987  0.000000  0.155315  1
  H  H21  1  0.690987  0.000000  0.844685  1
  H  H22  1  0.155315  0.690987  0.000000  1
  H  H23  1  0.000000  0.844685  0.690987  1
  H  H24  1  0.000000  0.155315  0.690987  1
  H  H25  1  0.000000  0.844685  0.309013  1
  H  H26  1  0.650542  0.500000  0.208158  1
  H  H27  1  0.349458  0.500000  0.208158  1
  H  H28  1  0.791842  0.349458  0.500000  1
  H  H29  1  0.208158  0.349458  0.500000  1
  H  H30  1  0.500000  0.791842  0.650542  1
  H  H31  1  0.500000  0.208158  0.349458  1
