# generated using pymatgen
data_Dy3In3PtRhPb
_symmetry_space_group_name_H-M   'P 1'
_cell_length_a   7.92638500
_cell_length_b   7.92638532
_cell_length_c   3.88873500
_cell_angle_alpha   90.00000000
_cell_angle_beta   90.00000000
_cell_angle_gamma   119.99998617
_symmetry_Int_Tables_number   1
_chemical_formula_structural   Dy3In3PtRhPb
_chemical_formula_sum   'Dy3 In3 Pt1 Rh1 Pb1'
_cell_volume   211.58719662
_cell_formula_units_Z   1
loop_
 _symmetry_equiv_pos_site_id
 _symmetry_equiv_pos_as_xyz
  1  'x, y, z'
loop_
 _atom_site_type_symbol
 _atom_site_label
 _atom_site_symmetry_multiplicity
 _atom_site_fract_x
 _atom_site_fract_y
 _atom_site_fract_z
 _atom_site_occupancy
  Dy  Dy0  1  0.029982  0.614767  0.500000  1
  Dy  Dy1  1  0.584785  0.970018  0.500000  1
  Dy  Dy2  1  0.385233  0.415215  0.500000  1
  In  In3  1  0.009290  0.252847  0.000000  1
  In  In4  1  0.243557  0.990710  0.000000  1
  In  In5  1  0.747153  0.756443  0.000000  1
  Pt  Pt6  1  0.333333  0.666667  0.000000  1
  Rh  Rh7  1  0.000000  0.000000  0.500000  1
  Pb  Pb8  1  0.666667  0.333333  0.000000  1
