# generated using pymatgen
data_Rb4NaIO6
_symmetry_space_group_name_H-M   'P 1'
_cell_length_a   10.38877400
_cell_length_b   11.74409600
_cell_length_c   13.81935800
_cell_angle_alpha   90.00000000
_cell_angle_beta   90.00000000
_cell_angle_gamma   90.00000000
_symmetry_Int_Tables_number   1
_chemical_formula_structural   Rb4NaIO6
_chemical_formula_sum   'Rb32 Na8 I8 O48'
_cell_volume   1686.05508350
_cell_formula_units_Z   8
loop_
 _symmetry_equiv_pos_site_id
 _symmetry_equiv_pos_as_xyz
  1  'x, y, z'
loop_
 _atom_site_type_symbol
 _atom_site_label
 _atom_site_symmetry_multiplicity
 _atom_site_fract_x
 _atom_site_fract_y
 _atom_site_fract_z
 _atom_site_occupancy
  Rb  Rb0  1  0.874961  0.413403  0.689618  1
  Rb  Rb1  1  0.874961  0.086597  0.189618  1
  Rb  Rb2  1  0.064474  0.554679  0.886833  1
  Rb  Rb3  1  0.935526  0.054679  0.613167  1
  Rb  Rb4  1  0.798668  0.812237  0.320846  1
  Rb  Rb5  1  0.837151  0.973364  0.932749  1
  Rb  Rb6  1  0.064474  0.945321  0.386833  1
  Rb  Rb7  1  0.564474  0.945321  0.113167  1
  Rb  Rb8  1  0.435526  0.054679  0.886833  1
  Rb  Rb9  1  0.374961  0.086597  0.310382  1
  Rb  Rb10  1  0.162849  0.026636  0.067251  1
  Rb  Rb11  1  0.298668  0.812237  0.179154  1
  Rb  Rb12  1  0.201332  0.187763  0.679154  1
  Rb  Rb13  1  0.201332  0.312237  0.179154  1
  Rb  Rb14  1  0.435526  0.445321  0.386833  1
  Rb  Rb15  1  0.162849  0.473364  0.567251  1
  Rb  Rb16  1  0.701332  0.312237  0.320846  1
  Rb  Rb17  1  0.564474  0.554679  0.613167  1
  Rb  Rb18  1  0.625039  0.586597  0.189618  1
  Rb  Rb19  1  0.337151  0.526636  0.067251  1
  Rb  Rb20  1  0.701332  0.187763  0.820846  1
  Rb  Rb21  1  0.798668  0.687763  0.820846  1
  Rb  Rb22  1  0.662849  0.026636  0.432749  1
  Rb  Rb23  1  0.125039  0.586597  0.310382  1
  Rb  Rb24  1  0.625039  0.913403  0.689618  1
  Rb  Rb25  1  0.935526  0.445321  0.113167  1
  Rb  Rb26  1  0.337151  0.973364  0.567251  1
  Rb  Rb27  1  0.298668  0.687763  0.679154  1
  Rb  Rb28  1  0.125039  0.913403  0.810382  1
  Rb  Rb29  1  0.374961  0.413403  0.810382  1
  Rb  Rb30  1  0.837151  0.526636  0.432749  1
  Rb  Rb31  1  0.662849  0.473364  0.932749  1
  Na  Na32  1  0.804971  0.247845  0.515588  1
  Na  Na33  1  0.195029  0.752155  0.484412  1
  Na  Na34  1  0.195029  0.747845  0.984412  1
  Na  Na35  1  0.804971  0.252155  0.015588  1
  Na  Na36  1  0.695029  0.747845  0.515588  1
  Na  Na37  1  0.304971  0.247845  0.984412  1
  Na  Na38  1  0.695029  0.752155  0.015588  1
  Na  Na39  1  0.304971  0.252155  0.484412  1
  I  I40  1  0.544131  0.255881  0.614536  1
  I  I41  1  0.044131  0.244119  0.385464  1
  I  I42  1  0.455869  0.744119  0.385464  1
  I  I43  1  0.544131  0.244119  0.114536  1
  I  I44  1  0.955869  0.744119  0.114536  1
  I  I45  1  0.044131  0.255881  0.885464  1
  I  I46  1  0.955869  0.755881  0.614536  1
  I  I47  1  0.455869  0.755881  0.885464  1
  O  O48  1  0.608046  0.648422  0.394147  1
  O  O49  1  0.807235  0.657529  0.623241  1
  O  O50  1  0.516454  0.664032  0.992314  1
  O  O51  1  0.016454  0.835968  0.007687  1
  O  O52  1  0.630602  0.147027  0.022001  1
  O  O53  1  0.483546  0.164032  0.507687  1
  O  O54  1  0.983546  0.335968  0.492313  1
  O  O55  1  0.692765  0.342471  0.123241  1
  O  O56  1  0.891954  0.351578  0.894147  1
  O  O57  1  0.108046  0.851578  0.605853  1
  O  O58  1  0.392347  0.853107  0.784365  1
  O  O59  1  0.369398  0.852973  0.977999  1
  O  O60  1  0.192765  0.157529  0.876759  1
  O  O61  1  0.539455  0.841016  0.294529  1
  O  O62  1  0.307235  0.657529  0.876759  1
  O  O63  1  0.607653  0.146893  0.215635  1
  O  O64  1  0.692765  0.157529  0.623241  1
  O  O65  1  0.869398  0.852973  0.522001  1
  O  O66  1  0.607653  0.353107  0.715635  1
  O  O67  1  0.608046  0.851578  0.894147  1
  O  O68  1  0.391954  0.148422  0.105853  1
  O  O69  1  0.483546  0.335968  0.007687  1
  O  O70  1  0.107653  0.353107  0.784365  1
  O  O71  1  0.807235  0.842471  0.123241  1
  O  O72  1  0.960545  0.341016  0.294529  1
  O  O73  1  0.892347  0.853107  0.715635  1
  O  O74  1  0.960545  0.158984  0.794529  1
  O  O75  1  0.891954  0.148422  0.394147  1
  O  O76  1  0.130602  0.352973  0.977999  1
  O  O77  1  0.892347  0.646893  0.215635  1
  O  O78  1  0.307235  0.842471  0.376759  1
  O  O79  1  0.016454  0.664032  0.507687  1
  O  O80  1  0.107653  0.146893  0.284365  1
  O  O81  1  0.539455  0.658984  0.794529  1
  O  O82  1  0.460545  0.341016  0.205471  1
  O  O83  1  0.039455  0.658984  0.705471  1
  O  O84  1  0.391954  0.351578  0.605853  1
  O  O85  1  0.983546  0.164032  0.992314  1
  O  O86  1  0.039455  0.841016  0.205471  1
  O  O87  1  0.460545  0.158984  0.705471  1
  O  O88  1  0.516454  0.835968  0.492313  1
  O  O89  1  0.192765  0.342471  0.376759  1
  O  O90  1  0.130602  0.147027  0.477999  1
  O  O91  1  0.869398  0.647027  0.022001  1
  O  O92  1  0.369398  0.647027  0.477999  1
  O  O93  1  0.108046  0.648422  0.105853  1
  O  O94  1  0.392347  0.646893  0.284365  1
  O  O95  1  0.630602  0.352973  0.522001  1
