# generated using pymatgen
data_Ca3Hf5(B6Os)4
_symmetry_space_group_name_H-M   'P 1'
_cell_length_a   3.53734400
_cell_length_b   8.98260651
_cell_length_c   11.34723282
_cell_angle_alpha   90.01312078
_cell_angle_beta   90.00000000
_cell_angle_gamma   90.00000000
_symmetry_Int_Tables_number   1
_chemical_formula_structural   Ca3Hf5(B6Os)4
_chemical_formula_sum   'Ca3 Hf5 B24 Os4'
_cell_volume   360.55342578
_cell_formula_units_Z   1
loop_
 _symmetry_equiv_pos_site_id
 _symmetry_equiv_pos_as_xyz
  1  'x, y, z'
loop_
 _atom_site_type_symbol
 _atom_site_label
 _atom_site_symmetry_multiplicity
 _atom_site_fract_x
 _atom_site_fract_y
 _atom_site_fract_z
 _atom_site_occupancy
  Ca  Ca0  1  0.000000  0.321905  0.414069  1
  Ca  Ca1  1  0.000000  0.678256  0.586494  1
  Ca  Ca2  1  0.000000  0.821495  0.086128  1
  Hf  Hf3  1  0.000000  0.181382  0.913200  1
  Hf  Hf4  1  0.000000  0.943987  0.374120  1
  Hf  Hf5  1  0.000000  0.054821  0.625778  1
  Hf  Hf6  1  0.000000  0.445067  0.125354  1
  Hf  Hf7  1  0.000000  0.555895  0.875060  1
  B  B8  1  0.500000  0.553470  0.433384  1
  B  B9  1  0.500000  0.445073  0.568413  1
  B  B10  1  0.500000  0.054206  0.063933  1
  B  B11  1  0.500000  0.948024  0.933911  1
  B  B12  1  0.500000  0.752228  0.417748  1
  B  B13  1  0.500000  0.246894  0.582507  1
  B  B14  1  0.500000  0.251751  0.078642  1
  B  B15  1  0.500000  0.747664  0.918221  1
  B  B16  1  0.500000  0.794529  0.263352  1
  B  B17  1  0.500000  0.204080  0.738634  1
  B  B18  1  0.500000  0.294146  0.234723  1
  B  B19  1  0.500000  0.706540  0.764243  1
  B  B20  1  0.500000  0.629420  0.182884  1
  B  B21  1  0.500000  0.368411  0.819341  1
  B  B22  1  0.500000  0.129924  0.315586  1
  B  B23  1  0.500000  0.870871  0.683119  1
  B  B24  1  0.500000  0.982016  0.211838  1
  B  B25  1  0.500000  0.020211  0.788347  1
  B  B26  1  0.500000  0.481429  0.286980  1
  B  B27  1  0.500000  0.518283  0.714025  1
  B  B28  1  0.500000  0.599404  0.026764  1
  B  B29  1  0.500000  0.395796  0.971994  1
  B  B30  1  0.500000  0.100689  0.472895  1
  B  B31  1  0.500000  0.900206  0.526901  1
  Os  Os32  1  0.000000  0.641363  0.317624  1
  Os  Os33  1  0.000000  0.356044  0.685879  1
  Os  Os34  1  0.000000  0.141588  0.177077  1
  Os  Os35  1  0.000000  0.862933  0.820834  1
