# generated using pymatgen
data_Eu(AlAu)3
_symmetry_space_group_name_H-M   'P 1'
_cell_length_a   4.41778500
_cell_length_b   7.18308400
_cell_length_c   8.68475000
_cell_angle_alpha   90.00000000
_cell_angle_beta   90.00000000
_cell_angle_gamma   90.00000000
_symmetry_Int_Tables_number   1
_chemical_formula_structural   Eu(AlAu)3
_chemical_formula_sum   'Eu2 Al6 Au6'
_cell_volume   275.59595737
_cell_formula_units_Z   2
loop_
 _symmetry_equiv_pos_site_id
 _symmetry_equiv_pos_as_xyz
  1  'x, y, z'
loop_
 _atom_site_type_symbol
 _atom_site_label
 _atom_site_symmetry_multiplicity
 _atom_site_fract_x
 _atom_site_fract_y
 _atom_site_fract_z
 _atom_site_occupancy
  Eu  Eu0  1  0.000000  0.500000  0.256949  1
  Eu  Eu1  1  0.500000  0.000000  0.743051  1
  Al  Al2  1  0.500000  0.500000  0.634426  1
  Al  Al3  1  0.000000  0.306866  0.892391  1
  Al  Al4  1  0.000000  0.693134  0.892391  1
  Al  Al5  1  0.500000  0.806866  0.107609  1
  Al  Al6  1  0.000000  0.000000  0.365574  1
  Al  Al7  1  0.500000  0.193134  0.107609  1
  Au  Au8  1  0.000000  0.722432  0.600035  1
  Au  Au9  1  0.500000  0.500000  0.948634  1
  Au  Au10  1  0.000000  0.277568  0.600035  1
  Au  Au11  1  0.500000  0.777568  0.399965  1
  Au  Au12  1  0.000000  0.000000  0.051366  1
  Au  Au13  1  0.500000  0.222432  0.399965  1
