# generated using pymatgen
data_Nd4Ga18(IrPt)3
_symmetry_space_group_name_H-M   'P 1'
_cell_length_a   7.71328676
_cell_length_b   7.71328650
_cell_length_c   9.59663829
_cell_angle_alpha   89.97738490
_cell_angle_beta   89.97738068
_cell_angle_gamma   119.90558688
_symmetry_Int_Tables_number   1
_chemical_formula_structural   Nd4Ga18(IrPt)3
_chemical_formula_sum   'Nd4 Ga18 Ir3 Pt3'
_cell_volume   494.92677798
_cell_formula_units_Z   1
loop_
 _symmetry_equiv_pos_site_id
 _symmetry_equiv_pos_as_xyz
  1  'x, y, z'
loop_
 _atom_site_type_symbol
 _atom_site_label
 _atom_site_symmetry_multiplicity
 _atom_site_fract_x
 _atom_site_fract_y
 _atom_site_fract_z
 _atom_site_occupancy
  Nd  Nd0  1  0.999218  0.669329  0.249637  1
  Nd  Nd1  1  0.003857  0.333317  0.750279  1
  Nd  Nd2  1  0.666683  0.996143  0.249721  1
  Nd  Nd3  1  0.330671  0.000782  0.750363  1
  Ga  Ga4  1  0.125309  0.127113  0.250368  1
  Ga  Ga5  1  0.872887  0.874691  0.749632  1
  Ga  Ga6  1  0.000776  0.331081  0.079622  1
  Ga  Ga7  1  0.998257  0.668939  0.919700  1
  Ga  Ga8  1  0.995401  0.665364  0.578328  1
  Ga  Ga9  1  0.334636  0.004600  0.421672  1
  Ga  Ga10  1  0.996663  0.331194  0.421956  1
  Ga  Ga11  1  0.668806  0.003337  0.578044  1
  Ga  Ga12  1  0.668919  0.999224  0.920378  1
  Ga  Ga13  1  0.331061  0.001744  0.080300  1
  Ga  Ga14  1  0.331961  0.328341  0.560536  1
  Ga  Ga15  1  0.671659  0.668039  0.439464  1
  Ga  Ga16  1  0.670232  0.670016  0.064131  1
  Ga  Ga17  1  0.329984  0.329768  0.935869  1
  Ga  Ga18  1  0.341785  0.541282  0.250714  1
  Ga  Ga19  1  0.656996  0.453506  0.746946  1
  Ga  Ga20  1  0.546494  0.343004  0.253054  1
  Ga  Ga21  1  0.458718  0.658215  0.749286  1
  Ir  Ir22  1  0.671091  0.328909  0.500000  1
  Ir  Ir23  1  0.000114  0.999886  0.000000  1
  Ir  Ir24  1  0.999760  0.000240  0.500000  1
  Pt  Pt25  1  0.670684  0.329316  0.000000  1
  Pt  Pt26  1  0.329070  0.670930  0.000000  1
  Pt  Pt27  1  0.328313  0.671687  0.500000  1
