# generated using pymatgen
data_KVTe3O8
_symmetry_space_group_name_H-M   'P 1'
_cell_length_a   5.68820751
_cell_length_b   7.46316434
_cell_length_c   10.89959271
_cell_angle_alpha   99.33332400
_cell_angle_beta   89.89511259
_cell_angle_gamma   107.94097665
_symmetry_Int_Tables_number   1
_chemical_formula_structural   KVTe3O8
_chemical_formula_sum   'K2 V2 Te6 O16'
_cell_volume   433.81137787
_cell_formula_units_Z   2
loop_
 _symmetry_equiv_pos_site_id
 _symmetry_equiv_pos_as_xyz
  1  'x, y, z'
loop_
 _atom_site_type_symbol
 _atom_site_label
 _atom_site_symmetry_multiplicity
 _atom_site_fract_x
 _atom_site_fract_y
 _atom_site_fract_z
 _atom_site_occupancy
  K  K0  1  0.829665  0.113704  0.170888  1
  K  K1  1  0.170335  0.886296  0.829112  1
  V  V2  1  0.500000  0.500000  0.000000  1
  V  V3  1  0.000000  0.500000  0.500000  1
  Te  Te4  1  0.225041  0.987332  0.413673  1
  Te  Te5  1  0.774959  0.012668  0.586327  1
  Te  Te6  1  0.051243  0.661392  0.143159  1
  Te  Te7  1  0.948757  0.338608  0.856841  1
  Te  Te8  1  0.522386  0.534954  0.339355  1
  Te  Te9  1  0.477614  0.465046  0.660645  1
  O  O10  1  0.181167  0.724012  0.417871  1
  O  O11  1  0.818833  0.275988  0.582129  1
  O  O12  1  0.237459  0.925061  0.220773  1
  O  O13  1  0.762541  0.074939  0.779227  1
  O  O14  1  0.883035  0.969634  0.392644  1
  O  O15  1  0.116965  0.030366  0.607356  1
  O  O16  1  0.247580  0.658455  0.000829  1
  O  O17  1  0.752420  0.341545  0.999171  1
  O  O18  1  0.792758  0.733353  0.075030  1
  O  O19  1  0.207242  0.266647  0.924970  1
  O  O20  1  0.392338  0.442587  0.171039  1
  O  O21  1  0.607662  0.557413  0.828961  1
  O  O22  1  0.255868  0.368359  0.414639  1
  O  O23  1  0.744132  0.631641  0.585361  1
  O  O24  1  0.752235  0.395609  0.348801  1
  O  O25  1  0.247765  0.604391  0.651199  1
