# generated using pymatgen
data_Pr3In5Rh
_symmetry_space_group_name_H-M   'P 1'
_cell_length_a   7.66958000
_cell_length_b   7.66958127
_cell_length_c   4.65101600
_cell_angle_alpha   90.00000000
_cell_angle_beta   90.00000000
_cell_angle_gamma   120.00000317
_symmetry_Int_Tables_number   1
_chemical_formula_structural   Pr3In5Rh
_chemical_formula_sum   'Pr3 In5 Rh1'
_cell_volume   236.93089050
_cell_formula_units_Z   1
loop_
 _symmetry_equiv_pos_site_id
 _symmetry_equiv_pos_as_xyz
  1  'x, y, z'
loop_
 _atom_site_type_symbol
 _atom_site_label
 _atom_site_symmetry_multiplicity
 _atom_site_fract_x
 _atom_site_fract_y
 _atom_site_fract_z
 _atom_site_occupancy
  Pr  Pr0  1  0.000000  0.608749  0.500000  1
  Pr  Pr1  1  0.391251  0.391251  0.500000  1
  Pr  Pr2  1  0.608749  0.000000  0.500000  1
  In  In3  1  0.766366  0.766366  0.000000  1
  In  In4  1  0.000000  0.233634  0.000000  1
  In  In5  1  0.233634  0.000000  0.000000  1
  In  In6  1  0.333333  0.666667  0.000000  1
  In  In7  1  0.666667  0.333333  0.000000  1
  Rh  Rh8  1  0.000000  0.000000  0.500000  1
