# generated using pymatgen
data_La3Nd2IrPt2
_symmetry_space_group_name_H-M   'P 1'
_cell_length_a   11.56609300
_cell_length_b   11.56609300
_cell_length_c   6.60664200
_cell_angle_alpha   90.00000000
_cell_angle_beta   90.00000000
_cell_angle_gamma   90.00000000
_symmetry_Int_Tables_number   1
_chemical_formula_structural   La3Nd2IrPt2
_chemical_formula_sum   'La12 Nd8 Ir4 Pt8'
_cell_volume   883.80027836
_cell_formula_units_Z   4
loop_
 _symmetry_equiv_pos_site_id
 _symmetry_equiv_pos_as_xyz
  1  'x, y, z'
loop_
 _atom_site_type_symbol
 _atom_site_label
 _atom_site_symmetry_multiplicity
 _atom_site_fract_x
 _atom_site_fract_y
 _atom_site_fract_z
 _atom_site_occupancy
  La  La0  1  0.089194  0.294787  0.118155  1
  La  La1  1  0.794787  0.410806  0.118155  1
  La  La2  1  0.205213  0.589194  0.118155  1
  La  La3  1  0.910806  0.705213  0.118155  1
  La  La4  1  0.410104  0.794376  0.382452  1
  La  La5  1  0.589896  0.205624  0.382452  1
  La  La6  1  0.294376  0.089896  0.382452  1
  La  La7  1  0.705624  0.910104  0.382452  1
  La  La8  1  0.409928  0.205702  0.881050  1
  La  La9  1  0.705702  0.090072  0.881050  1
  La  La10  1  0.294298  0.909928  0.881050  1
  La  La11  1  0.590072  0.794298  0.881050  1
  Nd  Nd12  1  0.087804  0.703778  0.618053  1
  Nd  Nd13  1  0.912196  0.296222  0.618053  1
  Nd  Nd14  1  0.203778  0.412196  0.618053  1
  Nd  Nd15  1  0.796222  0.587804  0.618053  1
  Nd  Nd16  1  0.000000  0.000000  0.999676  1
  Nd  Nd17  1  0.500000  0.500000  0.999676  1
  Nd  Nd18  1  0.500000  0.500000  0.501211  1
  Nd  Nd19  1  0.000000  0.000000  0.501211  1
  Ir  Ir20  1  0.000000  0.500000  0.378720  1
  Ir  Ir21  1  0.500000  0.000000  0.120820  1
  Ir  Ir22  1  0.500000  0.000000  0.620571  1
  Ir  Ir23  1  0.000000  0.500000  0.881103  1
  Pt  Pt24  1  0.152564  0.847091  0.250631  1
  Pt  Pt25  1  0.347091  0.347436  0.250631  1
  Pt  Pt26  1  0.652909  0.652564  0.250631  1
  Pt  Pt27  1  0.847436  0.152909  0.250631  1
  Pt  Pt28  1  0.345744  0.652424  0.748913  1
  Pt  Pt29  1  0.152424  0.154256  0.748913  1
  Pt  Pt30  1  0.847576  0.845744  0.748913  1
  Pt  Pt31  1  0.654256  0.347576  0.748913  1
