# generated using pymatgen
data_Pr3Th(CdAu2)2
_symmetry_space_group_name_H-M   'P 1'
_cell_length_a   8.24021333
_cell_length_b   8.24021333
_cell_length_c   3.86523400
_cell_angle_alpha   90.00000000
_cell_angle_beta   90.00000000
_cell_angle_gamma   90.67586802
_symmetry_Int_Tables_number   1
_chemical_formula_structural   Pr3Th(CdAu2)2
_chemical_formula_sum   'Pr3 Th1 Cd2 Au4'
_cell_volume   262.43544109
_cell_formula_units_Z   1
loop_
 _symmetry_equiv_pos_site_id
 _symmetry_equiv_pos_as_xyz
  1  'x, y, z'
loop_
 _atom_site_type_symbol
 _atom_site_label
 _atom_site_symmetry_multiplicity
 _atom_site_fract_x
 _atom_site_fract_y
 _atom_site_fract_z
 _atom_site_occupancy
  Pr  Pr0  1  0.325358  0.825358  0.500000  1
  Pr  Pr1  1  0.173780  0.326678  0.500000  1
  Pr  Pr2  1  0.826678  0.673780  0.500000  1
  Th  Th3  1  0.671550  0.171550  0.500000  1
  Cd  Cd4  1  0.000799  0.000449  0.000000  1
  Cd  Cd5  1  0.500449  0.500799  0.000000  1
  Au  Au6  1  0.124185  0.624185  0.000000  1
  Au  Au7  1  0.868484  0.368484  0.000000  1
  Au  Au8  1  0.629916  0.878800  0.000000  1
  Au  Au9  1  0.378800  0.129916  0.000000  1
