# generated using pymatgen
data_K3Er(PO4)2
_symmetry_space_group_name_H-M   'P 1'
_cell_length_a   5.68119700
_cell_length_b   5.68119645
_cell_length_c   7.78234600
_cell_angle_alpha   90.00000000
_cell_angle_beta   90.00000000
_cell_angle_gamma   120.00000904
_symmetry_Int_Tables_number   1
_chemical_formula_structural   K3Er(PO4)2
_chemical_formula_sum   'K3 Er1 P2 O8'
_cell_volume   217.53081326
_cell_formula_units_Z   1
loop_
 _symmetry_equiv_pos_site_id
 _symmetry_equiv_pos_as_xyz
  1  'x, y, z'
loop_
 _atom_site_type_symbol
 _atom_site_label
 _atom_site_symmetry_multiplicity
 _atom_site_fract_x
 _atom_site_fract_y
 _atom_site_fract_z
 _atom_site_occupancy
  K  K0  1  0.333333  0.666667  0.732238  1
  K  K1  1  0.666667  0.333333  0.267762  1
  K  K2  1  0.000000  0.000000  0.000000  1
  Er  Er3  1  0.000000  0.000000  0.500000  1
  P  P4  1  0.333333  0.666667  0.261139  1
  P  P5  1  0.666667  0.333333  0.738861  1
  O  O6  1  0.333333  0.666667  0.065907  1
  O  O7  1  0.666667  0.333333  0.934093  1
  O  O8  1  0.184277  0.815723  0.333325  1
  O  O9  1  0.815723  0.184277  0.666675  1
  O  O10  1  0.184277  0.368553  0.333325  1
  O  O11  1  0.815723  0.631447  0.666675  1
  O  O12  1  0.631447  0.815723  0.333325  1
  O  O13  1  0.368553  0.184277  0.666675  1
