# generated using pymatgen
data_Ho4Al18Ni2OsPd3
_symmetry_space_group_name_H-M   'P 1'
_cell_length_a   7.54476391
_cell_length_b   7.54476332
_cell_length_c   9.41100401
_cell_angle_alpha   90.04791858
_cell_angle_beta   90.04791696
_cell_angle_gamma   119.51187131
_symmetry_Int_Tables_number   1
_chemical_formula_structural   Ho4Al18Ni2OsPd3
_chemical_formula_sum   'Ho4 Al18 Ni2 Os1 Pd3'
_cell_volume   466.20023564
_cell_formula_units_Z   1
loop_
 _symmetry_equiv_pos_site_id
 _symmetry_equiv_pos_as_xyz
  1  'x, y, z'
loop_
 _atom_site_type_symbol
 _atom_site_label
 _atom_site_symmetry_multiplicity
 _atom_site_fract_x
 _atom_site_fract_y
 _atom_site_fract_z
 _atom_site_occupancy
  Ho  Ho0  1  0.992455  0.669088  0.248644  1
  Ho  Ho1  1  0.002122  0.325672  0.751186  1
  Ho  Ho2  1  0.674328  0.997878  0.248814  1
  Ho  Ho3  1  0.330912  0.007545  0.751356  1
  Al  Al4  1  0.132125  0.132571  0.249545  1
  Al  Al5  1  0.867429  0.867875  0.750455  1
  Al  Al6  1  0.003634  0.340507  0.074207  1
  Al  Al7  1  0.004745  0.660465  0.926335  1
  Al  Al8  1  0.008400  0.666002  0.576518  1
  Al  Al9  1  0.333998  0.991600  0.423482  1
  Al  Al10  1  0.008589  0.342603  0.424257  1
  Al  Al11  1  0.657397  0.991411  0.575743  1
  Al  Al12  1  0.659493  0.996366  0.925793  1
  Al  Al13  1  0.339535  0.995255  0.073665  1
  Al  Al14  1  0.333806  0.340373  0.558654  1
  Al  Al15  1  0.659627  0.666195  0.441346  1
  Al  Al16  1  0.662754  0.662915  0.051759  1
  Al  Al17  1  0.337086  0.337246  0.948241  1
  Al  Al18  1  0.337975  0.558246  0.248666  1
  Al  Al19  1  0.660798  0.454912  0.753393  1
  Al  Al20  1  0.545088  0.339202  0.246607  1
  Al  Al21  1  0.441754  0.662025  0.751334  1
  Ni  Ni22  1  0.329891  0.670109  0.000000  1
  Ni  Ni23  1  0.329353  0.670647  0.500000  1
  Os  Os24  1  0.672921  0.327079  0.000000  1
  Pd  Pd25  1  0.672379  0.327621  0.500000  1
  Pd  Pd26  1  0.001278  0.998722  0.000000  1
  Pd  Pd27  1  0.000131  0.999869  0.500000  1
