# generated using pymatgen
data_HgBi6(SO8)2
_symmetry_space_group_name_H-M   'P 1'
_cell_length_a   5.82315853
_cell_length_b   8.23484144
_cell_length_c   9.24563500
_cell_angle_alpha   94.54054904
_cell_angle_beta   97.51811493
_cell_angle_gamma   106.51554545
_symmetry_Int_Tables_number   1
_chemical_formula_structural   HgBi6(SO8)2
_chemical_formula_sum   'Hg1 Bi6 S2 O16'
_cell_volume   418.23871772
_cell_formula_units_Z   1
loop_
 _symmetry_equiv_pos_site_id
 _symmetry_equiv_pos_as_xyz
  1  'x, y, z'
loop_
 _atom_site_type_symbol
 _atom_site_label
 _atom_site_symmetry_multiplicity
 _atom_site_fract_x
 _atom_site_fract_y
 _atom_site_fract_z
 _atom_site_occupancy
  Hg  Hg0  1  0.000000  0.500000  0.500000  1
  Bi  Bi1  1  0.682303  0.510195  0.801475  1
  Bi  Bi2  1  0.317697  0.489805  0.198525  1
  Bi  Bi3  1  0.645024  0.831492  0.532625  1
  Bi  Bi4  1  0.354976  0.168508  0.467375  1
  Bi  Bi5  1  0.310163  0.854281  0.817461  1
  Bi  Bi6  1  0.689837  0.145719  0.182539  1
  S  S7  1  0.139744  0.226254  0.846517  1
  S  S8  1  0.860256  0.773746  0.153483  1
  O  O9  1  0.981395  0.673141  0.707460  1
  O  O10  1  0.018605  0.326859  0.292540  1
  O  O11  1  0.500788  0.689948  0.720180  1
  O  O12  1  0.499212  0.310052  0.279820  1
  O  O13  1  0.018402  0.041676  0.790981  1
  O  O14  1  0.981598  0.958324  0.209019  1
  O  O15  1  0.660992  0.365897  0.592983  1
  O  O16  1  0.339008  0.634103  0.407017  1
  O  O17  1  0.366596  0.242845  0.951993  1
  O  O18  1  0.633404  0.757155  0.048007  1
  O  O19  1  0.409784  0.965286  0.623570  1
  O  O20  1  0.590216  0.034714  0.376430  1
  O  O21  1  0.214442  0.323062  0.720401  1
  O  O22  1  0.785558  0.676938  0.279599  1
  O  O23  1  0.974468  0.300108  0.921726  1
  O  O24  1  0.025532  0.699892  0.078274  1
