# generated using pymatgen
data_Er2Sc(Ni10P3)2
_symmetry_space_group_name_H-M   'P 1'
_cell_length_a   7.92586301
_cell_length_b   7.92586366
_cell_length_c   7.92586300
_cell_angle_alpha   60.00000692
_cell_angle_beta   60.00000420
_cell_angle_gamma   60.00000311
_symmetry_Int_Tables_number   1
_chemical_formula_structural   Er2Sc(Ni10P3)2
_chemical_formula_sum   'Er2 Sc1 Ni20 P6'
_cell_volume   352.06655351
_cell_formula_units_Z   1
loop_
 _symmetry_equiv_pos_site_id
 _symmetry_equiv_pos_as_xyz
  1  'x, y, z'
loop_
 _atom_site_type_symbol
 _atom_site_label
 _atom_site_symmetry_multiplicity
 _atom_site_fract_x
 _atom_site_fract_y
 _atom_site_fract_z
 _atom_site_occupancy
  Er  Er0  1  0.750000  0.750000  0.750000  1
  Er  Er1  1  0.250000  0.250000  0.250000  1
  Sc  Sc2  1  0.000000  0.000000  0.000000  1
  Ni  Ni3  1  0.000000  0.648950  0.000000  1
  Ni  Ni4  1  0.161850  0.612716  0.612716  1
  Ni  Ni5  1  0.000000  0.000000  0.648950  1
  Ni  Ni6  1  0.000000  0.000000  0.351050  1
  Ni  Ni7  1  0.648950  0.000000  0.351050  1
  Ni  Ni8  1  0.351050  0.000000  0.000000  1
  Ni  Ni9  1  0.838150  0.387284  0.387284  1
  Ni  Ni10  1  0.000000  0.648950  0.351050  1
  Ni  Ni11  1  0.612716  0.612716  0.612716  1
  Ni  Ni12  1  0.387284  0.838150  0.387284  1
  Ni  Ni13  1  0.648950  0.351050  0.000000  1
  Ni  Ni14  1  0.000000  0.351050  0.648950  1
  Ni  Ni15  1  0.351050  0.648950  0.000000  1
  Ni  Ni16  1  0.351050  0.000000  0.648950  1
  Ni  Ni17  1  0.387284  0.387284  0.387284  1
  Ni  Ni18  1  0.648950  0.000000  0.000000  1
  Ni  Ni19  1  0.000000  0.351050  0.000000  1
  Ni  Ni20  1  0.612716  0.612716  0.161850  1
  Ni  Ni21  1  0.387284  0.387284  0.838150  1
  Ni  Ni22  1  0.612716  0.161850  0.612716  1
  P  P23  1  0.260606  0.739394  0.260606  1
  P  P24  1  0.739394  0.739394  0.260606  1
  P  P25  1  0.739394  0.260606  0.260606  1
  P  P26  1  0.260606  0.739394  0.739394  1
  P  P27  1  0.260606  0.260606  0.739394  1
  P  P28  1  0.739394  0.260606  0.739394  1
