# generated using pymatgen
data_YbNb8CuSe16
_symmetry_space_group_name_H-M   'P 1'
_cell_length_a   7.00631400
_cell_length_b   7.00631408
_cell_length_c   13.88251900
_cell_angle_alpha   90.00000000
_cell_angle_beta   90.00000000
_cell_angle_gamma   119.99999964
_symmetry_Int_Tables_number   1
_chemical_formula_structural   YbNb8CuSe16
_chemical_formula_sum   'Yb1 Nb8 Cu1 Se16'
_cell_volume   590.17133097
_cell_formula_units_Z   1
loop_
 _symmetry_equiv_pos_site_id
 _symmetry_equiv_pos_as_xyz
  1  'x, y, z'
loop_
 _atom_site_type_symbol
 _atom_site_label
 _atom_site_symmetry_multiplicity
 _atom_site_fract_x
 _atom_site_fract_y
 _atom_site_fract_z
 _atom_site_occupancy
  Yb  Yb0  1  0.000000  0.000000  0.500000  1
  Nb  Nb1  1  0.981206  0.490603  0.232346  1
  Nb  Nb2  1  0.018794  0.509397  0.767654  1
  Nb  Nb3  1  0.490603  0.509397  0.767654  1
  Nb  Nb4  1  0.509397  0.018794  0.232346  1
  Nb  Nb5  1  0.000000  0.000000  0.769367  1
  Nb  Nb6  1  0.000000  0.000000  0.230633  1
  Nb  Nb7  1  0.509397  0.490603  0.232346  1
  Nb  Nb8  1  0.490603  0.981206  0.767654  1
  Cu  Cu9  1  0.000000  0.000000  0.000000  1
  Se  Se10  1  0.333333  0.666667  0.639801  1
  Se  Se11  1  0.666667  0.333333  0.107070  1
  Se  Se12  1  0.666667  0.333333  0.360199  1
  Se  Se13  1  0.333333  0.666667  0.892930  1
  Se  Se14  1  0.168461  0.336923  0.351050  1
  Se  Se15  1  0.829849  0.170151  0.886196  1
  Se  Se16  1  0.340302  0.170151  0.886196  1
  Se  Se17  1  0.663077  0.831539  0.351050  1
  Se  Se18  1  0.168461  0.831539  0.351050  1
  Se  Se19  1  0.829849  0.659698  0.886196  1
  Se  Se20  1  0.170151  0.340302  0.113804  1
  Se  Se21  1  0.831539  0.168461  0.648950  1
  Se  Se22  1  0.336923  0.168461  0.648950  1
  Se  Se23  1  0.659698  0.829849  0.113804  1
  Se  Se24  1  0.170151  0.829849  0.113804  1
  Se  Se25  1  0.831539  0.663077  0.648950  1
