# generated using pymatgen
data_Tb2Fe3P7Ru8Pt
_symmetry_space_group_name_H-M   'P 1'
_cell_length_a   3.86188900
_cell_length_b   9.29247139
_cell_length_c   9.38229144
_cell_angle_alpha   119.93381970
_cell_angle_beta   90.00000000
_cell_angle_gamma   90.00000000
_symmetry_Int_Tables_number   1
_chemical_formula_structural   Tb2Fe3P7Ru8Pt
_chemical_formula_sum   'Tb2 Fe3 P7 Ru8 Pt1'
_cell_volume   291.78287895
_cell_formula_units_Z   1
loop_
 _symmetry_equiv_pos_site_id
 _symmetry_equiv_pos_as_xyz
  1  'x, y, z'
loop_
 _atom_site_type_symbol
 _atom_site_label
 _atom_site_symmetry_multiplicity
 _atom_site_fract_x
 _atom_site_fract_y
 _atom_site_fract_z
 _atom_site_occupancy
  Tb  Tb0  1  0.000000  0.666535  0.333866  1
  Tb  Tb1  1  0.500000  0.332713  0.664591  1
  Fe  Fe2  1  0.000000  0.891085  0.735659  1
  Fe  Fe3  1  0.000000  0.271260  0.159376  1
  Fe  Fe4  1  0.000000  0.841979  0.110854  1
  P  P5  1  0.000000  0.097164  0.685349  1
  P  P6  1  0.000000  0.302931  0.411289  1
  P  P7  1  0.000000  0.598107  0.891065  1
  P  P8  1  0.500000  0.718706  0.604570  1
  P  P9  1  0.500000  0.400559  0.129186  1
  P  P10  1  0.500000  0.882344  0.280459  1
  P  P11  1  0.000000  0.002093  0.002168  1
  Ru  Ru12  1  0.000000  0.059889  0.420957  1
  Ru  Ru13  1  0.000000  0.576811  0.638855  1
  Ru  Ru14  1  0.500000  0.945621  0.561409  1
  Ru  Ru15  1  0.500000  0.437697  0.390262  1
  Ru  Ru16  1  0.500000  0.610388  0.051149  1
  Ru  Ru17  1  0.500000  0.124940  0.913059  1
  Ru  Ru18  1  0.500000  0.085873  0.204162  1
  Ru  Ru19  1  0.500000  0.794864  0.883154  1
  Pt  Pt20  1  0.000000  0.358442  0.928562  1
