# generated using pymatgen
data_Ta3Nb4(GaAs)2
_symmetry_space_group_name_H-M   'P 1'
_cell_length_a   3.53330000
_cell_length_b   7.98545637
_cell_length_c   14.32098536
_cell_angle_alpha   104.19674972
_cell_angle_beta   90.00000000
_cell_angle_gamma   102.78148932
_symmetry_Int_Tables_number   1
_chemical_formula_structural   Ta3Nb4(GaAs)2
_chemical_formula_sum   'Ta6 Nb8 Ga4 As4'
_cell_volume   381.39004052
_cell_formula_units_Z   2
loop_
 _symmetry_equiv_pos_site_id
 _symmetry_equiv_pos_as_xyz
  1  'x, y, z'
loop_
 _atom_site_type_symbol
 _atom_site_label
 _atom_site_symmetry_multiplicity
 _atom_site_fract_x
 _atom_site_fract_y
 _atom_site_fract_z
 _atom_site_occupancy
  Ta  Ta0  1  0.000000  0.000000  0.000000  1
  Ta  Ta1  1  0.500000  0.000000  0.500000  1
  Ta  Ta2  1  0.429257  0.858514  0.826153  1
  Ta  Ta3  1  0.570743  0.141486  0.173847  1
  Ta  Ta4  1  0.197962  0.395926  0.306685  1
  Ta  Ta5  1  0.802038  0.604074  0.693315  1
  Nb  Nb6  1  0.209794  0.419589  0.795005  1
  Nb  Nb7  1  0.790206  0.580411  0.204995  1
  Nb  Nb8  1  0.334707  0.669413  0.033303  1
  Nb  Nb9  1  0.665293  0.330587  0.966697  1
  Nb  Nb10  1  0.000958  0.001916  0.662062  1
  Nb  Nb11  1  0.999042  0.998084  0.337938  1
  Nb  Nb12  1  0.179174  0.358347  0.549016  1
  Nb  Nb13  1  0.820826  0.641653  0.450984  1
  Ga  Ga14  1  0.175175  0.350350  0.106959  1
  Ga  Ga15  1  0.824825  0.649650  0.893041  1
  Ga  Ga16  1  0.369822  0.739643  0.597859  1
  Ga  Ga17  1  0.630178  0.260357  0.402141  1
  As  As18  1  0.373047  0.746094  0.335273  1
  As  As19  1  0.626953  0.253906  0.664727  1
  As  As20  1  0.063080  0.126163  0.847322  1
  As  As21  1  0.936920  0.873837  0.152678  1
