# generated using pymatgen
data_TbDy5(SnRh)6
_symmetry_space_group_name_H-M   'P 1'
_cell_length_a   7.49809321
_cell_length_b   7.50243234
_cell_length_c   7.88194200
_cell_angle_alpha   90.00000000
_cell_angle_beta   90.00000000
_cell_angle_gamma   120.01310909
_symmetry_Int_Tables_number   1
_chemical_formula_structural   TbDy5(SnRh)6
_chemical_formula_sum   'Tb1 Dy5 Sn6 Rh6'
_cell_volume   383.93650354
_cell_formula_units_Z   1
loop_
 _symmetry_equiv_pos_site_id
 _symmetry_equiv_pos_as_xyz
  1  'x, y, z'
loop_
 _atom_site_type_symbol
 _atom_site_label
 _atom_site_symmetry_multiplicity
 _atom_site_fract_x
 _atom_site_fract_y
 _atom_site_fract_z
 _atom_site_occupancy
  Tb  Tb0  1  0.999888  0.593179  0.250000  1
  Dy  Dy1  1  0.594828  0.003427  0.750000  1
  Dy  Dy2  1  0.405185  0.408687  0.750000  1
  Dy  Dy3  1  0.000059  0.592414  0.750000  1
  Dy  Dy4  1  0.591684  0.997745  0.250000  1
  Dy  Dy5  1  0.408375  0.405880  0.250000  1
  Sn  Sn6  1  0.259582  0.001029  0.998838  1
  Sn  Sn7  1  0.740395  0.741614  0.501081  1
  Sn  Sn8  1  0.000010  0.257337  0.498080  1
  Sn  Sn9  1  0.000010  0.257337  0.001920  1
  Sn  Sn10  1  0.740395  0.741614  0.998919  1
  Sn  Sn11  1  0.259582  0.001029  0.501162  1
  Rh  Rh12  1  0.668112  0.334377  0.999911  1
  Rh  Rh13  1  0.668112  0.334377  0.500089  1
  Rh  Rh14  1  0.331859  0.666176  0.000350  1
  Rh  Rh15  1  0.331859  0.666176  0.499650  1
  Rh  Rh16  1  0.000002  0.000557  0.750000  1
  Rh  Rh17  1  0.000064  0.997041  0.250000  1
