# generated using pymatgen
data_Yb2AlVO5
_symmetry_space_group_name_H-M   'P 1'
_cell_length_a   7.78883130
_cell_length_b   8.11966749
_cell_length_c   7.79642472
_cell_angle_alpha   118.68794339
_cell_angle_beta   93.15965400
_cell_angle_gamma   88.47883295
_symmetry_Int_Tables_number   1
_chemical_formula_structural   Yb2AlVO5
_chemical_formula_sum   'Yb8 Al4 V4 O20'
_cell_volume   431.88419658
_cell_formula_units_Z   4
loop_
 _symmetry_equiv_pos_site_id
 _symmetry_equiv_pos_as_xyz
  1  'x, y, z'
loop_
 _atom_site_type_symbol
 _atom_site_label
 _atom_site_symmetry_multiplicity
 _atom_site_fract_x
 _atom_site_fract_y
 _atom_site_fract_z
 _atom_site_occupancy
  Yb  Yb0  1  0.227470  0.216436  0.868822  1
  Yb  Yb1  1  0.727443  0.216489  0.368838  1
  Yb  Yb2  1  0.227180  0.783436  0.151894  1
  Yb  Yb3  1  0.727205  0.783490  0.651929  1
  Yb  Yb4  1  0.261025  0.783468  0.619675  1
  Yb  Yb5  1  0.760992  0.783514  0.119689  1
  Yb  Yb6  1  0.260749  0.216460  0.336135  1
  Yb  Yb7  1  0.760779  0.216507  0.836174  1
  Al  Al8  1  0.440697  0.499934  0.766103  1
  Al  Al9  1  0.940692  0.499927  0.266101  1
  Al  Al10  1  0.015967  0.499952  0.690360  1
  Al  Al11  1  0.515970  0.499949  0.190358  1
  V  V12  1  0.500146  0.999846  0.000163  1
  V  V13  1  0.000068  0.999809  0.000054  1
  V  V14  1  0.000143  0.999862  0.500164  1
  V  V15  1  0.500035  0.999821  0.500067  1
  O  O16  1  0.239306  0.499928  0.634636  1
  O  O17  1  0.739307  0.499960  0.134653  1
  O  O18  1  0.384682  0.499971  0.989054  1
  O  O19  1  0.884682  0.499983  0.489062  1
  O  O20  1  0.974424  0.291981  0.697204  1
  O  O21  1  0.474345  0.291965  0.197154  1
  O  O22  1  0.551995  0.707769  0.828882  1
  O  O23  1  0.051967  0.707769  0.328872  1
  O  O24  1  0.551416  0.291825  0.620625  1
  O  O25  1  0.051451  0.291820  0.120631  1
  O  O26  1  0.975076  0.707735  0.905638  1
  O  O27  1  0.475157  0.707723  0.405679  1
  O  O28  1  0.495395  0.965995  0.233062  1
  O  O29  1  0.995396  0.966011  0.733073  1
  O  O30  1  0.249995  0.034055  0.514703  1
  O  O31  1  0.749998  0.034236  0.014787  1
  O  O32  1  0.997360  0.033553  0.266888  1
  O  O33  1  0.497361  0.033538  0.766892  1
  O  O34  1  0.249961  0.965726  0.978476  1
  O  O35  1  0.749957  0.965897  0.478552  1
