# generated using pymatgen
data_Y20Zn3Cd3Co2
_symmetry_space_group_name_H-M   'P 1'
_cell_length_a   9.57555100
_cell_length_b   9.57555175
_cell_length_c   9.62638400
_cell_angle_alpha   90.00000000
_cell_angle_beta   90.00000000
_cell_angle_gamma   120.00000086
_symmetry_Int_Tables_number   1
_chemical_formula_structural   Y20Zn3Cd3Co2
_chemical_formula_sum   'Y20 Zn3 Cd3 Co2'
_cell_volume   764.40125473
_cell_formula_units_Z   1
loop_
 _symmetry_equiv_pos_site_id
 _symmetry_equiv_pos_as_xyz
  1  'x, y, z'
loop_
 _atom_site_type_symbol
 _atom_site_label
 _atom_site_symmetry_multiplicity
 _atom_site_fract_x
 _atom_site_fract_y
 _atom_site_fract_z
 _atom_site_occupancy
  Y  Y0  1  0.000000  0.000000  0.472873  1
  Y  Y1  1  0.000000  0.000000  0.027127  1
  Y  Y2  1  0.209725  0.790275  0.434642  1
  Y  Y3  1  0.209725  0.419450  0.434642  1
  Y  Y4  1  0.580550  0.790275  0.434642  1
  Y  Y5  1  0.790030  0.209970  0.561837  1
  Y  Y6  1  0.790030  0.580059  0.561837  1
  Y  Y7  1  0.419941  0.209970  0.561837  1
  Y  Y8  1  0.790030  0.209970  0.938163  1
  Y  Y9  1  0.790030  0.580059  0.938163  1
  Y  Y10  1  0.419941  0.209970  0.938163  1
  Y  Y11  1  0.209725  0.790275  0.065358  1
  Y  Y12  1  0.209725  0.419450  0.065358  1
  Y  Y13  1  0.580550  0.790275  0.065358  1
  Y  Y14  1  0.542873  0.457127  0.250000  1
  Y  Y15  1  0.542873  0.085745  0.250000  1
  Y  Y16  1  0.914255  0.457127  0.250000  1
  Y  Y17  1  0.456893  0.543107  0.750000  1
  Y  Y18  1  0.456893  0.913786  0.750000  1
  Y  Y19  1  0.086214  0.543107  0.750000  1
  Zn  Zn20  1  0.876160  0.123840  0.250000  1
  Zn  Zn21  1  0.876160  0.752323  0.250000  1
  Zn  Zn22  1  0.247677  0.123840  0.250000  1
  Cd  Cd23  1  0.110550  0.889450  0.750000  1
  Cd  Cd24  1  0.110550  0.221100  0.750000  1
  Cd  Cd25  1  0.778900  0.889450  0.750000  1
  Co  Co26  1  0.333333  0.666667  0.250000  1
  Co  Co27  1  0.666667  0.333333  0.750000  1
