# generated using pymatgen
data_Lu4Sc6Ga7Te
_symmetry_space_group_name_H-M   'P 1'
_cell_length_a   7.19787300
_cell_length_b   7.43667322
_cell_length_c   14.39456100
_cell_angle_alpha   90.00000000
_cell_angle_beta   90.00000000
_cell_angle_gamma   90.16332772
_symmetry_Int_Tables_number   1
_chemical_formula_structural   Lu4Sc6Ga7Te
_chemical_formula_sum   'Lu8 Sc12 Ga14 Te2'
_cell_volume   770.51223193
_cell_formula_units_Z   2
loop_
 _symmetry_equiv_pos_site_id
 _symmetry_equiv_pos_as_xyz
  1  'x, y, z'
loop_
 _atom_site_type_symbol
 _atom_site_label
 _atom_site_symmetry_multiplicity
 _atom_site_fract_x
 _atom_site_fract_y
 _atom_site_fract_z
 _atom_site_occupancy
  Lu  Lu0  1  0.001409  0.169887  0.089336  1
  Lu  Lu1  1  0.998591  0.830113  0.910664  1
  Lu  Lu2  1  0.480340  0.679005  0.908060  1
  Lu  Lu3  1  0.998591  0.830113  0.589336  1
  Lu  Lu4  1  0.519660  0.320995  0.091940  1
  Lu  Lu5  1  0.001409  0.169887  0.410664  1
  Lu  Lu6  1  0.519660  0.320995  0.408060  1
  Lu  Lu7  1  0.480340  0.679005  0.591940  1
  Sc  Sc8  1  0.176960  0.500644  0.750000  1
  Sc  Sc9  1  0.823040  0.499356  0.250000  1
  Sc  Sc10  1  0.342108  0.987989  0.250000  1
  Sc  Sc11  1  0.657892  0.012011  0.750000  1
  Sc  Sc12  1  0.325698  0.170167  0.620680  1
  Sc  Sc13  1  0.674302  0.829833  0.379320  1
  Sc  Sc14  1  0.170057  0.679648  0.378555  1
  Sc  Sc15  1  0.674302  0.829833  0.120680  1
  Sc  Sc16  1  0.829943  0.320352  0.621445  1
  Sc  Sc17  1  0.325698  0.170167  0.879320  1
  Sc  Sc18  1  0.829943  0.320352  0.878555  1
  Sc  Sc19  1  0.170057  0.679648  0.121445  1
  Ga  Ga20  1  0.031568  0.115764  0.750000  1
  Ga  Ga21  1  0.968432  0.884236  0.250000  1
  Ga  Ga22  1  0.475769  0.629737  0.250000  1
  Ga  Ga23  1  0.524231  0.370263  0.750000  1
  Ga  Ga24  1  0.287957  0.867383  0.750000  1
  Ga  Ga25  1  0.712043  0.132617  0.250000  1
  Ga  Ga26  1  0.159651  0.464507  0.540041  1
  Ga  Ga27  1  0.840349  0.535493  0.459959  1
  Ga  Ga28  1  0.337812  0.967650  0.457606  1
  Ga  Ga29  1  0.840349  0.535493  0.040041  1
  Ga  Ga30  1  0.662188  0.032350  0.542394  1
  Ga  Ga31  1  0.159651  0.464507  0.959959  1
  Ga  Ga32  1  0.662188  0.032350  0.957606  1
  Ga  Ga33  1  0.337812  0.967650  0.042394  1
  Te  Te34  1  0.202972  0.356883  0.250000  1
  Te  Te35  1  0.797028  0.643117  0.750000  1
