# generated using pymatgen
data_La11Cd9Ni4
_symmetry_space_group_name_H-M   'P 1'
_cell_length_a   13.60731955
_cell_length_b   13.60731871
_cell_length_c   3.76727000
_cell_angle_alpha   90.00000000
_cell_angle_beta   90.00000000
_cell_angle_gamma   111.91080708
_symmetry_Int_Tables_number   1
_chemical_formula_structural   La11Cd9Ni4
_chemical_formula_sum   'La11 Cd9 Ni4'
_cell_volume   647.15794440
_cell_formula_units_Z   1
loop_
 _symmetry_equiv_pos_site_id
 _symmetry_equiv_pos_as_xyz
  1  'x, y, z'
loop_
 _atom_site_type_symbol
 _atom_site_label
 _atom_site_symmetry_multiplicity
 _atom_site_fract_x
 _atom_site_fract_y
 _atom_site_fract_z
 _atom_site_occupancy
  La  La0  1  0.312461  0.312461  0.000000  1
  La  La1  1  0.687539  0.687539  0.000000  1
  La  La2  1  0.000000  0.000000  0.000000  1
  La  La3  1  0.079864  0.419042  0.000000  1
  La  La4  1  0.920136  0.580958  0.000000  1
  La  La5  1  0.419042  0.079864  0.000000  1
  La  La6  1  0.580958  0.920136  0.000000  1
  La  La7  1  0.837370  0.162630  0.000000  1
  La  La8  1  0.162630  0.837370  0.000000  1
  La  La9  1  0.625301  0.374699  0.000000  1
  La  La10  1  0.374699  0.625301  0.000000  1
  Cd  Cd11  1  0.834321  0.365108  0.500000  1
  Cd  Cd12  1  0.165679  0.634892  0.500000  1
  Cd  Cd13  1  0.365108  0.834321  0.500000  1
  Cd  Cd14  1  0.634892  0.165679  0.500000  1
  Cd  Cd15  1  0.080131  0.219326  0.500000  1
  Cd  Cd16  1  0.919869  0.780674  0.500000  1
  Cd  Cd17  1  0.219326  0.080131  0.500000  1
  Cd  Cd18  1  0.780674  0.919869  0.500000  1
  Cd  Cd19  1  0.500000  0.500000  0.500000  1
  Ni  Ni20  1  0.244386  0.448317  0.500000  1
  Ni  Ni21  1  0.755614  0.551683  0.500000  1
  Ni  Ni22  1  0.448317  0.244386  0.500000  1
  Ni  Ni23  1  0.551683  0.755614  0.500000  1
