# generated using pymatgen
data_Tb4Ho2CoCl10
_symmetry_space_group_name_H-M   'P 1'
_cell_length_a   7.07973751
_cell_length_b   8.75231953
_cell_length_c   8.91614946
_cell_angle_alpha   108.64309417
_cell_angle_beta   96.45819841
_cell_angle_gamma   105.36311186
_symmetry_Int_Tables_number   1
_chemical_formula_structural   Tb4Ho2CoCl10
_chemical_formula_sum   'Tb4 Ho2 Co1 Cl10'
_cell_volume   492.89129818
_cell_formula_units_Z   1
loop_
 _symmetry_equiv_pos_site_id
 _symmetry_equiv_pos_as_xyz
  1  'x, y, z'
loop_
 _atom_site_type_symbol
 _atom_site_label
 _atom_site_symmetry_multiplicity
 _atom_site_fract_x
 _atom_site_fract_y
 _atom_site_fract_z
 _atom_site_occupancy
  Tb  Tb0  1  0.534537  0.705791  0.905135  1
  Tb  Tb1  1  0.465463  0.294209  0.094865  1
  Tb  Tb2  1  0.635622  0.055743  0.755304  1
  Tb  Tb3  1  0.364378  0.944257  0.244696  1
  Ho  Ho4  1  0.860829  0.136914  0.185729  1
  Ho  Ho5  1  0.139171  0.863086  0.814271  1
  Co  Co6  1  0.500000  0.000000  0.000000  1
  Cl  Cl7  1  0.739676  0.079658  0.449246  1
  Cl  Cl8  1  0.260324  0.920342  0.550754  1
  Cl  Cl9  1  0.951459  0.825828  0.076197  1
  Cl  Cl10  1  0.048541  0.174172  0.923803  1
  Cl  Cl11  1  0.276889  0.246772  0.341126  1
  Cl  Cl12  1  0.723111  0.753228  0.658874  1
  Cl  Cl13  1  0.589071  0.373260  0.837632  1
  Cl  Cl14  1  0.410929  0.626740  0.162368  1
  Cl  Cl15  1  0.843680  0.448291  0.274288  1
  Cl  Cl16  1  0.156320  0.551709  0.725712  1
