# generated using pymatgen
data_NdHoFe3Tc14C3
_symmetry_space_group_name_H-M   'P 1'
_cell_length_a   6.89527291
_cell_length_b   6.89527330
_cell_length_c   6.89527134
_cell_angle_alpha   82.50698823
_cell_angle_beta   82.50698804
_cell_angle_gamma   82.50698784
_symmetry_Int_Tables_number   1
_chemical_formula_structural   NdHoFe3Tc14C3
_chemical_formula_sum   'Nd1 Ho1 Fe3 Tc14 C3'
_cell_volume   320.10769931
_cell_formula_units_Z   1
loop_
 _symmetry_equiv_pos_site_id
 _symmetry_equiv_pos_as_xyz
  1  'x, y, z'
loop_
 _atom_site_type_symbol
 _atom_site_label
 _atom_site_symmetry_multiplicity
 _atom_site_fract_x
 _atom_site_fract_y
 _atom_site_fract_z
 _atom_site_occupancy
  Nd  Nd0  1  0.650482  0.650482  0.650482  1
  Ho  Ho1  1  0.347482  0.347482  0.347482  1
  Fe  Fe2  1  0.999589  0.999589  0.500219  1
  Fe  Fe3  1  0.500219  0.999589  0.999589  1
  Fe  Fe4  1  0.999589  0.500219  0.999589  1
  Tc  Tc5  1  0.723941  0.275529  0.000642  1
  Tc  Tc6  1  0.000642  0.723941  0.275529  1
  Tc  Tc7  1  0.275529  0.000642  0.723941  1
  Tc  Tc8  1  0.000642  0.275529  0.723941  1
  Tc  Tc9  1  0.723941  0.000642  0.275529  1
  Tc  Tc10  1  0.275529  0.723941  0.000642  1
  Tc  Tc11  1  0.346980  0.863370  0.346980  1
  Tc  Tc12  1  0.346980  0.346980  0.863370  1
  Tc  Tc13  1  0.863370  0.346980  0.346980  1
  Tc  Tc14  1  0.651546  0.140497  0.651546  1
  Tc  Tc15  1  0.651546  0.651546  0.140497  1
  Tc  Tc16  1  0.140497  0.651546  0.651546  1
  Tc  Tc17  1  0.899730  0.899730  0.899730  1
  Tc  Tc18  1  0.100989  0.100989  0.100989  1
  C  C19  1  0.496719  0.496719  0.007343  1
  C  C20  1  0.007343  0.496719  0.496719  1
  C  C21  1  0.496719  0.007343  0.496719  1
