# generated using pymatgen
data_LiNd2Ho2Al17Pd6
_symmetry_space_group_name_H-M   'P 1'
_cell_length_a   7.65753805
_cell_length_b   7.65753737
_cell_length_c   9.53903400
_cell_angle_alpha   90.00000000
_cell_angle_beta   90.00000000
_cell_angle_gamma   119.34512291
_symmetry_Int_Tables_number   1
_chemical_formula_structural   LiNd2Ho2Al17Pd6
_chemical_formula_sum   'Li1 Nd2 Ho2 Al17 Pd6'
_cell_volume   487.57514260
_cell_formula_units_Z   1
loop_
 _symmetry_equiv_pos_site_id
 _symmetry_equiv_pos_as_xyz
  1  'x, y, z'
loop_
 _atom_site_type_symbol
 _atom_site_label
 _atom_site_symmetry_multiplicity
 _atom_site_fract_x
 _atom_site_fract_y
 _atom_site_fract_z
 _atom_site_occupancy
  Li  Li0  1  0.128569  0.128569  0.250000  1
  Nd  Nd1  1  0.008041  0.331330  0.750000  1
  Nd  Nd2  1  0.331330  0.008041  0.750000  1
  Ho  Ho3  1  0.994882  0.664625  0.250000  1
  Ho  Ho4  1  0.664625  0.994882  0.250000  1
  Al  Al5  1  0.864391  0.864391  0.750000  1
  Al  Al6  1  0.000779  0.328575  0.083052  1
  Al  Al7  1  0.998416  0.665345  0.929622  1
  Al  Al8  1  0.998416  0.665345  0.570378  1
  Al  Al9  1  0.328575  0.000779  0.416948  1
  Al  Al10  1  0.000779  0.328575  0.416948  1
  Al  Al11  1  0.665345  0.998416  0.570378  1
  Al  Al12  1  0.665345  0.998416  0.929622  1
  Al  Al13  1  0.328575  0.000779  0.083052  1
  Al  Al14  1  0.336079  0.336079  0.540054  1
  Al  Al15  1  0.671695  0.671696  0.436746  1
  Al  Al16  1  0.671695  0.671696  0.063254  1
  Al  Al17  1  0.336079  0.336079  0.959946  1
  Al  Al18  1  0.340653  0.543189  0.250000  1
  Al  Al19  1  0.659335  0.454618  0.750000  1
  Al  Al20  1  0.543189  0.340653  0.250000  1
  Al  Al21  1  0.454618  0.659335  0.750000  1
  Pd  Pd22  1  0.675273  0.330373  0.002364  1
  Pd  Pd23  1  0.330373  0.675273  0.002364  1
  Pd  Pd24  1  0.330373  0.675273  0.497636  1
  Pd  Pd25  1  0.675273  0.330373  0.497636  1
  Pd  Pd26  1  0.998650  0.998650  0.995941  1
  Pd  Pd27  1  0.998650  0.998650  0.504059  1
