# generated using pymatgen
data_Yb3Mn2O6
_symmetry_space_group_name_H-M   'P 1'
_cell_length_a   6.35993377
_cell_length_b   6.36091413
_cell_length_c   6.36030500
_cell_angle_alpha   91.88864219
_cell_angle_beta   91.88010897
_cell_angle_gamma   91.88513436
_symmetry_Int_Tables_number   1
_chemical_formula_structural   Yb3Mn2O6
_chemical_formula_sum   'Yb6 Mn4 O12'
_cell_volume   256.87914674
_cell_formula_units_Z   2
loop_
 _symmetry_equiv_pos_site_id
 _symmetry_equiv_pos_as_xyz
  1  'x, y, z'
loop_
 _atom_site_type_symbol
 _atom_site_label
 _atom_site_symmetry_multiplicity
 _atom_site_fract_x
 _atom_site_fract_y
 _atom_site_fract_z
 _atom_site_occupancy
  Yb  Yb0  1  0.887429  0.612550  0.249959  1
  Yb  Yb1  1  0.612543  0.250000  0.887466  1
  Yb  Yb2  1  0.250015  0.887442  0.612579  1
  Yb  Yb3  1  0.112571  0.387450  0.750041  1
  Yb  Yb4  1  0.749985  0.112558  0.387421  1
  Yb  Yb5  1  0.387457  0.750000  0.112534  1
  Mn  Mn6  1  0.000000  0.000000  0.000000  1
  Mn  Mn7  1  0.500000  0.500000  0.500000  1
  Mn  Mn8  1  0.250000  0.249960  0.249877  1
  Mn  Mn9  1  0.750000  0.750040  0.750123  1
  O  O10  1  0.579356  0.789445  0.448422  1
  O  O11  1  0.448441  0.579342  0.789430  1
  O  O12  1  0.789475  0.448418  0.579321  1
  O  O13  1  0.920657  0.051588  0.710525  1
  O  O14  1  0.710554  0.920674  0.051557  1
  O  O15  1  0.051554  0.710554  0.920627  1
  O  O16  1  0.420644  0.210555  0.551578  1
  O  O17  1  0.551559  0.420658  0.210570  1
  O  O18  1  0.210525  0.551582  0.420679  1
  O  O19  1  0.079343  0.948412  0.289475  1
  O  O20  1  0.948446  0.289446  0.079373  1
  O  O21  1  0.289446  0.079326  0.948443  1
