# generated using pymatgen
data_La19Tm(Ga2Sn)4
_symmetry_space_group_name_H-M   'P 1'
_cell_length_a   8.18249400
_cell_length_b   8.18249400
_cell_length_c   14.84438300
_cell_angle_alpha   90.00000000
_cell_angle_beta   90.00000000
_cell_angle_gamma   90.00000000
_symmetry_Int_Tables_number   1
_chemical_formula_structural   La19Tm(Ga2Sn)4
_chemical_formula_sum   'La19 Tm1 Ga8 Sn4'
_cell_volume   993.87906352
_cell_formula_units_Z   1
loop_
 _symmetry_equiv_pos_site_id
 _symmetry_equiv_pos_as_xyz
  1  'x, y, z'
loop_
 _atom_site_type_symbol
 _atom_site_label
 _atom_site_symmetry_multiplicity
 _atom_site_fract_x
 _atom_site_fract_y
 _atom_site_fract_z
 _atom_site_occupancy
  La  La0  1  0.339133  0.319962  0.106169  1
  La  La1  1  0.837432  0.824254  0.893311  1
  La  La2  1  0.000000  0.500000  0.221811  1
  La  La3  1  0.837261  0.177221  0.393706  1
  La  La4  1  0.162568  0.175746  0.893311  1
  La  La5  1  0.660867  0.680038  0.106169  1
  La  La6  1  0.000000  0.500000  0.722035  1
  La  La7  1  0.826620  0.837361  0.607975  1
  La  La8  1  0.322779  0.337261  0.393706  1
  La  La9  1  0.180038  0.839133  0.106169  1
  La  La10  1  0.173380  0.162639  0.607975  1
  La  La11  1  0.819962  0.160867  0.106169  1
  La  La12  1  0.337361  0.673380  0.607975  1
  La  La13  1  0.500000  0.000000  0.284559  1
  La  La14  1  0.675746  0.337432  0.893311  1
  La  La15  1  0.662639  0.326620  0.607975  1
  La  La16  1  0.324254  0.662568  0.893311  1
  La  La17  1  0.162739  0.822779  0.393706  1
  La  La18  1  0.677221  0.662739  0.393706  1
  Tm  Tm19  1  0.500000  0.000000  0.763879  1
  Ga  Ga20  1  0.620879  0.378883  0.249872  1
  Ga  Ga21  1  0.871366  0.120299  0.751982  1
  Ga  Ga22  1  0.878883  0.879121  0.249872  1
  Ga  Ga23  1  0.128634  0.879701  0.751982  1
  Ga  Ga24  1  0.379701  0.371366  0.751982  1
  Ga  Ga25  1  0.121117  0.120879  0.249872  1
  Ga  Ga26  1  0.379121  0.621117  0.249872  1
  Ga  Ga27  1  0.620299  0.628634  0.751982  1
  Sn  Sn28  1  0.500000  0.000000  0.505570  1
  Sn  Sn29  1  0.000000  0.500000  0.002184  1
  Sn  Sn30  1  0.500000  0.000000  0.986249  1
  Sn  Sn31  1  0.000000  0.500000  0.501653  1
