# generated using pymatgen
data_CaPa(Be12Cu)2
_symmetry_space_group_name_H-M   'P 1'
_cell_length_a   7.31279854
_cell_length_b   7.35233652
_cell_length_c   7.29539316
_cell_angle_alpha   59.89856254
_cell_angle_beta   59.77676904
_cell_angle_gamma   59.66414963
_symmetry_Int_Tables_number   1
_chemical_formula_structural   CaPa(Be12Cu)2
_chemical_formula_sum   'Ca1 Pa1 Be24 Cu2'
_cell_volume   275.97049957
_cell_formula_units_Z   1
loop_
 _symmetry_equiv_pos_site_id
 _symmetry_equiv_pos_as_xyz
  1  'x, y, z'
loop_
 _atom_site_type_symbol
 _atom_site_label
 _atom_site_symmetry_multiplicity
 _atom_site_fract_x
 _atom_site_fract_y
 _atom_site_fract_z
 _atom_site_occupancy
  Ca  Ca0  1  0.251180  0.248820  0.251180  1
  Pa  Pa1  1  0.748262  0.751738  0.748262  1
  Be  Be2  1  0.499441  0.500559  0.499441  1
  Be  Be3  1  0.999781  0.000219  0.999781  1
  Be  Be4  1  0.567291  0.790050  0.437814  1
  Be  Be5  1  0.437814  0.204844  0.567291  1
  Be  Be6  1  0.292595  0.934808  0.711612  1
  Be  Be7  1  0.711612  0.060985  0.292595  1
  Be  Be8  1  0.928654  0.280660  0.067021  1
  Be  Be9  1  0.067021  0.723666  0.928654  1
  Be  Be10  1  0.207469  0.795782  0.558430  1
  Be  Be11  1  0.787726  0.200660  0.444422  1
  Be  Be12  1  0.444422  0.567193  0.787726  1
  Be  Be13  1  0.558430  0.438318  0.207469  1
  Be  Be14  1  0.713446  0.289660  0.934346  1
  Be  Be15  1  0.291964  0.716440  0.059344  1
  Be  Be16  1  0.059344  0.932252  0.291964  1
  Be  Be17  1  0.934346  0.062547  0.713446  1
  Be  Be18  1  0.568038  0.205018  0.788788  1
  Be  Be19  1  0.435747  0.790683  0.206910  1
  Be  Be20  1  0.788788  0.438155  0.568038  1
  Be  Be21  1  0.206910  0.566660  0.435747  1
  Be  Be22  1  0.934649  0.714740  0.292774  1
  Be  Be23  1  0.060221  0.289147  0.712450  1
  Be  Be24  1  0.292774  0.057837  0.934649  1
  Be  Be25  1  0.712450  0.938182  0.060221  1
  Cu  Cu26  1  0.802772  0.557968  0.196853  1
  Cu  Cu27  1  0.196853  0.442407  0.802772  1
