# generated using pymatgen
data_Li2ErTm2AgPb3
_symmetry_space_group_name_H-M   'P 1'
_cell_length_a   7.34257500
_cell_length_b   7.33262545
_cell_length_c   4.62178700
_cell_angle_alpha   90.00000000
_cell_angle_beta   90.00000000
_cell_angle_gamma   120.04488209
_symmetry_Int_Tables_number   1
_chemical_formula_structural   Li2ErTm2AgPb3
_chemical_formula_sum   'Li2 Er1 Tm2 Ag1 Pb3'
_cell_volume   215.40305533
_cell_formula_units_Z   1
loop_
 _symmetry_equiv_pos_site_id
 _symmetry_equiv_pos_as_xyz
  1  'x, y, z'
loop_
 _atom_site_type_symbol
 _atom_site_label
 _atom_site_symmetry_multiplicity
 _atom_site_fract_x
 _atom_site_fract_y
 _atom_site_fract_z
 _atom_site_occupancy
  Li  Li0  1  0.771375  0.767365  0.000000  1
  Li  Li1  1  0.004009  0.232635  0.000000  1
  Er  Er2  1  0.550953  0.000000  0.500000  1
  Tm  Tm3  1  0.433315  0.429240  0.500000  1
  Tm  Tm4  1  0.004074  0.570760  0.500000  1
  Ag  Ag5  1  0.236475  0.000000  0.000000  1
  Pb  Pb6  1  0.984863  0.000000  0.500000  1
  Pb  Pb7  1  0.336155  0.657377  0.000000  1
  Pb  Pb8  1  0.678780  0.342623  0.000000  1
