# generated using pymatgen
data_YAg4HgO8
_symmetry_space_group_name_H-M   'P 1'
_cell_length_a   6.66063697
_cell_length_b   6.66063773
_cell_length_c   6.66063690
_cell_angle_alpha   126.08172782
_cell_angle_beta   126.08173666
_cell_angle_gamma   79.75384841
_symmetry_Int_Tables_number   1
_chemical_formula_structural   YAg4HgO8
_chemical_formula_sum   'Y1 Ag4 Hg1 O8'
_cell_volume   186.43135855
_cell_formula_units_Z   1
loop_
 _symmetry_equiv_pos_site_id
 _symmetry_equiv_pos_as_xyz
  1  'x, y, z'
loop_
 _atom_site_type_symbol
 _atom_site_label
 _atom_site_symmetry_multiplicity
 _atom_site_fract_x
 _atom_site_fract_y
 _atom_site_fract_z
 _atom_site_occupancy
  Y  Y0  1  0.750000  0.250000  0.500000  1
  Ag  Ag1  1  0.370734  0.126624  0.745614  1
  Ag  Ag2  1  0.381010  0.625120  0.254386  1
  Ag  Ag3  1  0.873376  0.618990  0.244109  1
  Ag  Ag4  1  0.374880  0.629266  0.755891  1
  Hg  Hg5  1  0.000000  0.000000  0.000000  1
  O  O6  1  0.034115  0.000124  0.636496  1
  O  O7  1  0.602381  0.965885  0.966008  1
  O  O8  1  0.999876  0.636372  0.033992  1
  O  O9  1  0.411262  0.864605  0.164096  1
  O  O10  1  0.752836  0.588738  0.453343  1
  O  O11  1  0.135395  0.299492  0.546657  1
  O  O12  1  0.363628  0.397619  0.363504  1
  O  O13  1  0.700508  0.247164  0.835904  1
