# generated using pymatgen
data_La8Pr7Th(CdIr)4
_symmetry_space_group_name_H-M   'P 1'
_cell_length_a   10.08268039
_cell_length_b   10.08267919
_cell_length_c   10.08476763
_cell_angle_alpha   60.00110646
_cell_angle_beta   60.00110788
_cell_angle_gamma   60.36870182
_symmetry_Int_Tables_number   1
_chemical_formula_structural   La8Pr7Th(CdIr)4
_chemical_formula_sum   'La8 Pr7 Th1 Cd4 Ir4'
_cell_volume   726.95195099
_cell_formula_units_Z   1
loop_
 _symmetry_equiv_pos_site_id
 _symmetry_equiv_pos_as_xyz
  1  'x, y, z'
loop_
 _atom_site_type_symbol
 _atom_site_label
 _atom_site_symmetry_multiplicity
 _atom_site_fract_x
 _atom_site_fract_y
 _atom_site_fract_z
 _atom_site_occupancy
  La  La0  1  0.347640  0.347640  0.957668  1
  La  La1  1  0.348661  0.958966  0.346614  1
  La  La2  1  0.958966  0.348661  0.346614  1
  La  La3  1  0.809152  0.188961  0.190678  1
  La  La4  1  0.189537  0.806808  0.809156  1
  La  La5  1  0.188961  0.809152  0.190678  1
  La  La6  1  0.806808  0.189537  0.809156  1
  La  La7  1  0.190391  0.190391  0.809430  1
  Pr  Pr8  1  0.805242  0.805242  0.193243  1
  Pr  Pr9  1  0.940177  0.563921  0.562702  1
  Pr  Pr10  1  0.561525  0.936884  0.937308  1
  Pr  Pr11  1  0.563921  0.940177  0.562702  1
  Pr  Pr12  1  0.936884  0.561525  0.937308  1
  Pr  Pr13  1  0.562864  0.562864  0.941326  1
  Pr  Pr14  1  0.937883  0.937883  0.560427  1
  Th  Th15  1  0.344501  0.344501  0.345490  1
  Cd  Cd16  1  0.580498  0.580498  0.578698  1
  Cd  Cd17  1  0.579492  0.579492  0.258661  1
  Cd  Cd18  1  0.579291  0.258674  0.578703  1
  Cd  Cd19  1  0.258674  0.579291  0.578703  1
  Ir  Ir20  1  0.140963  0.140963  0.141517  1
  Ir  Ir21  1  0.145922  0.145922  0.573089  1
  Ir  Ir22  1  0.149882  0.572160  0.145063  1
  Ir  Ir23  1  0.572160  0.149882  0.145063  1
