# generated using pymatgen
data_Er8Sc12Si15Tc
_symmetry_space_group_name_H-M   'P 1'
_cell_length_a   7.05305601
_cell_length_b   7.42086771
_cell_length_c   13.89284600
_cell_angle_alpha   90.00000000
_cell_angle_beta   90.00000000
_cell_angle_gamma   90.22455811
_symmetry_Int_Tables_number   1
_chemical_formula_structural   Er8Sc12Si15Tc
_chemical_formula_sum   'Er8 Sc12 Si15 Tc1'
_cell_volume   727.14313464
_cell_formula_units_Z   1
loop_
 _symmetry_equiv_pos_site_id
 _symmetry_equiv_pos_as_xyz
  1  'x, y, z'
loop_
 _atom_site_type_symbol
 _atom_site_label
 _atom_site_symmetry_multiplicity
 _atom_site_fract_x
 _atom_site_fract_y
 _atom_site_fract_z
 _atom_site_occupancy
  Er  Er0  1  0.011339  0.179101  0.095692  1
  Er  Er1  1  0.991540  0.826906  0.904655  1
  Er  Er2  1  0.489340  0.677149  0.904400  1
  Er  Er3  1  0.991540  0.826906  0.595345  1
  Er  Er4  1  0.510702  0.322208  0.095859  1
  Er  Er5  1  0.011339  0.179101  0.404308  1
  Er  Er6  1  0.510702  0.322208  0.404141  1
  Er  Er7  1  0.489340  0.677149  0.595600  1
  Sc  Sc8  1  0.157507  0.502087  0.750000  1
  Sc  Sc9  1  0.837521  0.494433  0.250000  1
  Sc  Sc10  1  0.338855  0.005889  0.250000  1
  Sc  Sc11  1  0.669187  0.997721  0.750000  1
  Sc  Sc12  1  0.316632  0.171682  0.628095  1
  Sc  Sc13  1  0.671606  0.825616  0.374107  1
  Sc  Sc14  1  0.171120  0.677957  0.374180  1
  Sc  Sc15  1  0.671606  0.825616  0.125893  1
  Sc  Sc16  1  0.837802  0.319967  0.627527  1
  Sc  Sc17  1  0.316632  0.171682  0.871905  1
  Sc  Sc18  1  0.837802  0.319967  0.872473  1
  Sc  Sc19  1  0.171120  0.677957  0.125820  1
  Si  Si20  1  0.968351  0.886338  0.250000  1
  Si  Si21  1  0.469503  0.612719  0.250000  1
  Si  Si22  1  0.529475  0.389571  0.750000  1
  Si  Si23  1  0.287100  0.865297  0.750000  1
  Si  Si24  1  0.713575  0.130478  0.250000  1
  Si  Si25  1  0.214132  0.369347  0.250000  1
  Si  Si26  1  0.779971  0.629270  0.750000  1
  Si  Si27  1  0.161038  0.468670  0.537146  1
  Si  Si28  1  0.842787  0.535475  0.461623  1
  Si  Si29  1  0.343194  0.966049  0.460138  1
  Si  Si30  1  0.842787  0.535475  0.038377  1
  Si  Si31  1  0.656598  0.034315  0.538715  1
  Si  Si32  1  0.161038  0.468670  0.962854  1
  Si  Si33  1  0.656598  0.034315  0.961285  1
  Si  Si34  1  0.343194  0.966049  0.039862  1
  Tc  Tc35  1  0.027426  0.106659  0.750000  1
