# generated using pymatgen
data_Ti12Al5Ga3(PtN)4
_symmetry_space_group_name_H-M   'P 1'
_cell_length_a   8.18568297
_cell_length_b   8.18250751
_cell_length_c   8.18568219
_cell_angle_alpha   60.04453903
_cell_angle_beta   60.04088757
_cell_angle_gamma   60.04453663
_symmetry_Int_Tables_number   1
_chemical_formula_structural   Ti12Al5Ga3(PtN)4
_chemical_formula_sum   'Ti12 Al5 Ga3 Pt4 N4'
_cell_volume   388.06765875
_cell_formula_units_Z   1
loop_
 _symmetry_equiv_pos_site_id
 _symmetry_equiv_pos_as_xyz
  1  'x, y, z'
loop_
 _atom_site_type_symbol
 _atom_site_label
 _atom_site_symmetry_multiplicity
 _atom_site_fract_x
 _atom_site_fract_y
 _atom_site_fract_z
 _atom_site_occupancy
  Ti  Ti0  1  0.818202  0.816904  0.181878  1
  Ti  Ti1  1  0.068872  0.430788  0.432115  1
  Ti  Ti2  1  0.433208  0.067663  0.066793  1
  Ti  Ti3  1  0.066793  0.067663  0.433208  1
  Ti  Ti4  1  0.068933  0.430837  0.068933  1
  Ti  Ti5  1  0.433409  0.067393  0.433409  1
  Ti  Ti6  1  0.183577  0.815898  0.183577  1
  Ti  Ti7  1  0.181878  0.816904  0.818202  1
  Ti  Ti8  1  0.818225  0.182490  0.181372  1
  Ti  Ti9  1  0.819397  0.180577  0.819397  1
  Ti  Ti10  1  0.432115  0.430788  0.068872  1
  Ti  Ti11  1  0.181372  0.182490  0.818225  1
  Al  Al12  1  0.834796  0.835727  0.834796  1
  Al  Al13  1  0.756126  0.415404  0.414211  1
  Al  Al14  1  0.414293  0.414975  0.414293  1
  Al  Al15  1  0.414211  0.415404  0.756126  1
  Al  Al16  1  0.834861  0.494433  0.834861  1
  Ga  Ga17  1  0.411457  0.765965  0.411457  1
  Ga  Ga18  1  0.838451  0.838926  0.483812  1
  Ga  Ga19  1  0.483812  0.838926  0.838451  1
  Pt  Pt20  1  0.624962  0.128244  0.624962  1
  Pt  Pt21  1  0.628891  0.621520  0.124291  1
  Pt  Pt22  1  0.124291  0.621520  0.628891  1
  Pt  Pt23  1  0.627193  0.619626  0.627193  1
  N  N24  1  0.124980  0.625444  0.124980  1
  N  N25  1  0.125685  0.124540  0.624833  1
  N  N26  1  0.624833  0.124540  0.125685  1
  N  N27  1  0.125178  0.124410  0.125178  1
