# generated using pymatgen
data_Li3Dy3InSiGe
_symmetry_space_group_name_H-M   'P 1'
_cell_length_a   7.24391400
_cell_length_b   7.24391389
_cell_length_c   4.24522500
_cell_angle_alpha   90.00000000
_cell_angle_beta   90.00000000
_cell_angle_gamma   119.99999136
_symmetry_Int_Tables_number   1
_chemical_formula_structural   Li3Dy3InSiGe
_chemical_formula_sum   'Li3 Dy3 In1 Si1 Ge1'
_cell_volume   192.92030844
_cell_formula_units_Z   1
loop_
 _symmetry_equiv_pos_site_id
 _symmetry_equiv_pos_as_xyz
  1  'x, y, z'
loop_
 _atom_site_type_symbol
 _atom_site_label
 _atom_site_symmetry_multiplicity
 _atom_site_fract_x
 _atom_site_fract_y
 _atom_site_fract_z
 _atom_site_occupancy
  Li  Li0  1  0.748697  0.748025  0.500000  1
  Li  Li1  1  0.251975  0.000672  0.500000  1
  Li  Li2  1  0.999328  0.251303  0.500000  1
  Dy  Dy3  1  0.442865  0.441110  0.000000  1
  Dy  Dy4  1  0.558890  0.001755  0.000000  1
  Dy  Dy5  1  0.998245  0.557135  0.000000  1
  In  In6  1  0.000000  0.000000  0.000000  1
  Si  Si7  1  0.666667  0.333333  0.500000  1
  Ge  Ge8  1  0.333333  0.666667  0.500000  1
