# generated using pymatgen
data_Cs6ReTc2H27
_symmetry_space_group_name_H-M   'P 1'
_cell_length_a   10.51377300
_cell_length_b   10.51377244
_cell_length_c   6.09766500
_cell_angle_alpha   90.00000000
_cell_angle_beta   90.00000000
_cell_angle_gamma   120.00001119
_symmetry_Int_Tables_number   1
_chemical_formula_structural   Cs6ReTc2H27
_chemical_formula_sum   'Cs6 Re1 Tc2 H27'
_cell_volume   583.72905778
_cell_formula_units_Z   1
loop_
 _symmetry_equiv_pos_site_id
 _symmetry_equiv_pos_as_xyz
  1  'x, y, z'
loop_
 _atom_site_type_symbol
 _atom_site_label
 _atom_site_symmetry_multiplicity
 _atom_site_fract_x
 _atom_site_fract_y
 _atom_site_fract_z
 _atom_site_occupancy
  Cs  Cs0  1  0.999714  0.260749  0.500000  1
  Cs  Cs1  1  0.739251  0.738965  0.500000  1
  Cs  Cs2  1  0.261035  0.000286  0.500000  1
  Cs  Cs3  1  0.000315  0.590344  0.000000  1
  Cs  Cs4  1  0.409656  0.409971  0.000000  1
  Cs  Cs5  1  0.590029  0.999685  0.000000  1
  Re  Re6  1  0.333333  0.666667  0.500000  1
  Tc  Tc7  1  0.666667  0.333333  0.500000  1
  Tc  Tc8  1  0.000000  0.000000  0.000000  1
  H  H9  1  0.764912  0.309735  0.700477  1
  H  H10  1  0.690265  0.455176  0.700477  1
  H  H11  1  0.544824  0.235088  0.700477  1
  H  H12  1  0.233873  0.543488  0.297402  1
  H  H13  1  0.544824  0.235088  0.299523  1
  H  H14  1  0.764912  0.309735  0.299523  1
  H  H15  1  0.690265  0.455176  0.299523  1
  H  H16  1  0.309614  0.766127  0.702598  1
  H  H17  1  0.456512  0.690386  0.702598  1
  H  H18  1  0.158758  0.000047  0.000000  1
  H  H19  1  0.841290  0.841242  0.000000  1
  H  H20  1  0.999953  0.158710  0.000000  1
  H  H21  1  0.884631  0.999920  0.193532  1
  H  H22  1  0.115287  0.115369  0.806468  1
  H  H23  1  0.000080  0.884713  0.806468  1
  H  H24  1  0.000080  0.884713  0.193532  1
  H  H25  1  0.115287  0.115369  0.193532  1
  H  H26  1  0.884631  0.999920  0.806468  1
  H  H27  1  0.158631  0.633578  0.500000  1
  H  H28  1  0.474947  0.841369  0.500000  1
  H  H29  1  0.366422  0.525053  0.500000  1
  H  H30  1  0.526620  0.365986  0.500000  1
  H  H31  1  0.839367  0.473380  0.500000  1
  H  H32  1  0.634014  0.160633  0.500000  1
  H  H33  1  0.233873  0.543488  0.702598  1
  H  H34  1  0.309614  0.766127  0.297402  1
  H  H35  1  0.456512  0.690386  0.297402  1
