# generated using pymatgen
data_Tb7Nd(Er3Pb4)4
_symmetry_space_group_name_H-M   'P 1'
_cell_length_a   8.19342462
_cell_length_b   8.27288279
_cell_length_c   15.60610830
_cell_angle_alpha   89.96109560
_cell_angle_beta   89.91395628
_cell_angle_gamma   90.03169129
_symmetry_Int_Tables_number   1
_chemical_formula_structural   Tb7Nd(Er3Pb4)4
_chemical_formula_sum   'Tb7 Nd1 Er12 Pb16'
_cell_volume   1057.83101009
_cell_formula_units_Z   1
loop_
 _symmetry_equiv_pos_site_id
 _symmetry_equiv_pos_as_xyz
  1  'x, y, z'
loop_
 _atom_site_type_symbol
 _atom_site_label
 _atom_site_symmetry_multiplicity
 _atom_site_fract_x
 _atom_site_fract_y
 _atom_site_fract_z
 _atom_site_occupancy
  Tb  Tb0  1  0.034498  0.177010  0.599884  1
  Tb  Tb1  1  0.465516  0.677092  0.400001  1
  Tb  Tb2  1  0.965646  0.822801  0.099978  1
  Tb  Tb3  1  0.465601  0.677236  0.100108  1
  Tb  Tb4  1  0.965538  0.822941  0.400016  1
  Tb  Tb5  1  0.534487  0.322825  0.600077  1
  Tb  Tb6  1  0.034454  0.176908  0.900014  1
  Nd  Nd7  1  0.534014  0.322620  0.900390  1
  Er  Er8  1  0.376383  0.840667  0.879249  1
  Er  Er9  1  0.876587  0.659230  0.620745  1
  Er  Er10  1  0.623436  0.159205  0.379204  1
  Er  Er11  1  0.123596  0.340948  0.120804  1
  Er  Er12  1  0.623620  0.158982  0.121057  1
  Er  Er13  1  0.123451  0.340837  0.379217  1
  Er  Er14  1  0.376525  0.840764  0.620683  1
  Er  Er15  1  0.876721  0.659550  0.879268  1
  Er  Er16  1  0.207716  0.504885  0.749714  1
  Er  Er17  1  0.708324  0.995223  0.749794  1
  Er  Er18  1  0.791909  0.495472  0.250020  1
  Er  Er19  1  0.291863  0.004512  0.250057  1
  Pb  Pb20  1  0.282369  0.033915  0.042775  1
  Pb  Pb21  1  0.782418  0.466037  0.457244  1
  Pb  Pb22  1  0.717640  0.966079  0.542740  1
  Pb  Pb23  1  0.216283  0.534921  0.957477  1
  Pb  Pb24  1  0.718197  0.965139  0.957345  1
  Pb  Pb25  1  0.217652  0.533907  0.542762  1
  Pb  Pb26  1  0.282403  0.033966  0.457211  1
  Pb  Pb27  1  0.783459  0.466793  0.043409  1
  Pb  Pb28  1  0.571443  0.628215  0.749851  1
  Pb  Pb29  1  0.071357  0.872396  0.749977  1
  Pb  Pb30  1  0.428638  0.372334  0.250024  1
  Pb  Pb31  1  0.928629  0.127577  0.249987  1
  Pb  Pb32  1  0.344362  0.150903  0.749178  1
  Pb  Pb33  1  0.845988  0.348068  0.749708  1
  Pb  Pb34  1  0.654632  0.848036  0.250022  1
  Pb  Pb35  1  0.154646  0.652005  0.250012  1
