# generated using pymatgen
data_Tb3Th(GaPd2)4
_symmetry_space_group_name_H-M   'P 1'
_cell_length_a   5.69353228
_cell_length_b   7.18800900
_cell_length_c   7.44379267
_cell_angle_alpha   90.00000000
_cell_angle_beta   89.68433691
_cell_angle_gamma   90.00000000
_symmetry_Int_Tables_number   1
_chemical_formula_structural   Tb3Th(GaPd2)4
_chemical_formula_sum   'Tb3 Th1 Ga4 Pd8'
_cell_volume   304.63379201
_cell_formula_units_Z   1
loop_
 _symmetry_equiv_pos_site_id
 _symmetry_equiv_pos_as_xyz
  1  'x, y, z'
loop_
 _atom_site_type_symbol
 _atom_site_label
 _atom_site_symmetry_multiplicity
 _atom_site_fract_x
 _atom_site_fract_y
 _atom_site_fract_z
 _atom_site_occupancy
  Tb  Tb0  1  0.149506  0.750000  0.529833  1
  Tb  Tb1  1  0.652710  0.250000  0.968180  1
  Tb  Tb2  1  0.851272  0.250000  0.467596  1
  Th  Th3  1  0.350507  0.750000  0.034606  1
  Ga  Ga4  1  0.650555  0.750000  0.391086  1
  Ga  Ga5  1  0.852930  0.750000  0.877521  1
  Ga  Ga6  1  0.353739  0.250000  0.617119  1
  Ga  Ga7  1  0.145771  0.250000  0.116708  1
  Pd  Pd8  1  0.911360  0.552998  0.182365  1
  Pd  Pd9  1  0.584215  0.949257  0.683146  1
  Pd  Pd10  1  0.087327  0.051567  0.817451  1
  Pd  Pd11  1  0.413603  0.448774  0.315714  1
  Pd  Pd12  1  0.087327  0.448433  0.817451  1
  Pd  Pd13  1  0.413603  0.051226  0.315714  1
  Pd  Pd14  1  0.911360  0.947002  0.182365  1
  Pd  Pd15  1  0.584215  0.550743  0.683146  1
