# generated using pymatgen
data_Ta2BeB2IrRu4
_symmetry_space_group_name_H-M   'P 1'
_cell_length_a   9.22347773
_cell_length_b   9.14339287
_cell_length_c   2.96533200
_cell_angle_alpha   90.00000000
_cell_angle_beta   90.00000000
_cell_angle_gamma   90.19134285
_symmetry_Int_Tables_number   1
_chemical_formula_structural   Ta2BeB2IrRu4
_chemical_formula_sum   'Ta4 Be2 B4 Ir2 Ru8'
_cell_volume   250.07656017
_cell_formula_units_Z   2
loop_
 _symmetry_equiv_pos_site_id
 _symmetry_equiv_pos_as_xyz
  1  'x, y, z'
loop_
 _atom_site_type_symbol
 _atom_site_label
 _atom_site_symmetry_multiplicity
 _atom_site_fract_x
 _atom_site_fract_y
 _atom_site_fract_z
 _atom_site_occupancy
  Ta  Ta0  1  0.826824  0.676538  0.000000  1
  Ta  Ta1  1  0.173176  0.323462  0.000000  1
  Ta  Ta2  1  0.319154  0.824297  0.000000  1
  Ta  Ta3  1  0.680846  0.175703  0.000000  1
  Be  Be4  1  0.500000  0.500000  0.000000  1
  Be  Be5  1  0.000000  0.000000  0.000000  1
  B  B6  1  0.630271  0.876280  0.000000  1
  B  B7  1  0.369729  0.123720  0.000000  1
  B  B8  1  0.127352  0.627695  0.000000  1
  B  B9  1  0.872648  0.372305  0.000000  1
  Ir  Ir10  1  0.566080  0.707485  0.500000  1
  Ir  Ir11  1  0.433920  0.292515  0.500000  1
  Ru  Ru12  1  0.066337  0.791991  0.500000  1
  Ru  Ru13  1  0.933663  0.208009  0.500000  1
  Ru  Ru14  1  0.291361  0.566237  0.500000  1
  Ru  Ru15  1  0.708639  0.433763  0.500000  1
  Ru  Ru16  1  0.208859  0.067306  0.500000  1
  Ru  Ru17  1  0.791141  0.932694  0.500000  1
  Ru  Ru18  1  0.500000  0.000000  0.500000  1
  Ru  Ru19  1  0.000000  0.500000  0.500000  1
