# generated using pymatgen
data_Hf7UCo16(Si3P)3
_symmetry_space_group_name_H-M   'P 1'
_cell_length_a   12.28063190
_cell_length_b   12.30003765
_cell_length_c   3.69001900
_cell_angle_alpha   90.00000000
_cell_angle_beta   90.00000000
_cell_angle_gamma   120.51037115
_symmetry_Int_Tables_number   1
_chemical_formula_structural   Hf7UCo16(Si3P)3
_chemical_formula_sum   'Hf7 U1 Co16 Si9 P3'
_cell_volume   480.20848545
_cell_formula_units_Z   1
loop_
 _symmetry_equiv_pos_site_id
 _symmetry_equiv_pos_as_xyz
  1  'x, y, z'
loop_
 _atom_site_type_symbol
 _atom_site_label
 _atom_site_symmetry_multiplicity
 _atom_site_fract_x
 _atom_site_fract_y
 _atom_site_fract_z
 _atom_site_occupancy
  Hf  Hf0  1  0.435956  0.435712  0.000000  1
  Hf  Hf1  1  0.001195  0.187751  0.500000  1
  Hf  Hf2  1  0.559727  0.998454  0.000000  1
  Hf  Hf3  1  0.333255  0.662385  0.000000  1
  Hf  Hf4  1  0.662608  0.333549  0.000000  1
  Hf  Hf5  1  0.999099  0.558867  0.000000  1
  Hf  Hf6  1  0.186778  0.999725  0.500000  1
  U  U7  1  0.826267  0.825723  0.500000  1
  Co  Co8  1  0.627308  0.820017  0.000000  1
  Co  Co9  1  0.372298  0.196177  0.000000  1
  Co  Co10  1  0.002504  0.724958  0.500000  1
  Co  Co11  1  0.276337  0.276072  0.500000  1
  Co  Co12  1  0.881407  0.361951  0.500000  1
  Co  Co13  1  0.720946  0.002887  0.500000  1
  Co  Co14  1  0.822898  0.629800  0.000000  1
  Co  Co15  1  0.178425  0.806516  0.000000  1
  Co  Co16  1  0.360298  0.880673  0.500000  1
  Co  Co17  1  0.128684  0.480296  0.500000  1
  Co  Co18  1  0.637985  0.513430  0.500000  1
  Co  Co19  1  0.991413  0.987445  0.000000  1
  Co  Co20  1  0.513901  0.636877  0.500000  1
  Co  Co21  1  0.479470  0.128397  0.500000  1
  Co  Co22  1  0.196064  0.371599  0.000000  1
  Co  Co23  1  0.805590  0.182618  0.000000  1
  Si  Si24  1  0.002229  0.350861  0.000000  1
  Si  Si25  1  0.823090  0.516946  0.500000  1
  Si  Si26  1  0.693101  0.180135  0.500000  1
  Si  Si27  1  0.172014  0.171572  0.000000  1
  Si  Si28  1  0.646720  0.646614  0.000000  1
  Si  Si29  1  0.821890  0.008189  0.000000  1
  Si  Si30  1  0.516659  0.822030  0.500000  1
  Si  Si31  1  0.179429  0.693359  0.500000  1
  Si  Si32  1  0.351221  0.002129  0.000000  1
  P  P33  1  0.480098  0.306438  0.500000  1
  P  P34  1  0.006433  0.819823  0.000000  1
  P  P35  1  0.306703  0.480027  0.500000  1
