# generated using pymatgen
data_Hf3In3PdRh
_symmetry_space_group_name_H-M   'P 1'
_cell_length_a   7.46891400
_cell_length_b   7.46891427
_cell_length_c   3.35995700
_cell_angle_alpha   90.00000000
_cell_angle_beta   90.00000000
_cell_angle_gamma   120.00000765
_symmetry_Int_Tables_number   1
_chemical_formula_structural   Hf3In3PdRh
_chemical_formula_sum   'Hf3 In3 Pd1 Rh1'
_cell_volume   162.32269746
_cell_formula_units_Z   1
loop_
 _symmetry_equiv_pos_site_id
 _symmetry_equiv_pos_as_xyz
  1  'x, y, z'
loop_
 _atom_site_type_symbol
 _atom_site_label
 _atom_site_symmetry_multiplicity
 _atom_site_fract_x
 _atom_site_fract_y
 _atom_site_fract_z
 _atom_site_occupancy
  Hf  Hf0  1  0.424235  0.011101  0.500000  1
  Hf  Hf1  1  0.586866  0.575765  0.500000  1
  Hf  Hf2  1  0.988899  0.413134  0.500000  1
  In  In3  1  0.764927  0.997627  0.000000  1
  In  In4  1  0.232700  0.235073  0.000000  1
  In  In5  1  0.002373  0.767300  0.000000  1
  Pd  Pd6  1  0.333333  0.666667  0.000000  1
  Rh  Rh7  1  0.666667  0.333333  0.000000  1
