# generated using pymatgen
data_PrTaP3Rh4
_symmetry_space_group_name_H-M   'P 1'
_cell_length_a   3.99183600
_cell_length_b   11.14208200
_cell_length_c   12.62577000
_cell_angle_alpha   90.00000000
_cell_angle_beta   90.00000000
_cell_angle_gamma   90.00000000
_symmetry_Int_Tables_number   1
_chemical_formula_structural   PrTaP3Rh4
_chemical_formula_sum   'Pr4 Ta4 P12 Rh16'
_cell_volume   561.56096861
_cell_formula_units_Z   4
loop_
 _symmetry_equiv_pos_site_id
 _symmetry_equiv_pos_as_xyz
  1  'x, y, z'
loop_
 _atom_site_type_symbol
 _atom_site_label
 _atom_site_symmetry_multiplicity
 _atom_site_fract_x
 _atom_site_fract_y
 _atom_site_fract_z
 _atom_site_occupancy
  Pr  Pr0  1  0.250000  0.581059  0.703016  1
  Pr  Pr1  1  0.250000  0.918941  0.203016  1
  Pr  Pr2  1  0.750000  0.418941  0.296984  1
  Pr  Pr3  1  0.750000  0.081059  0.796984  1
  Ta  Ta4  1  0.250000  0.707448  0.989518  1
  Ta  Ta5  1  0.250000  0.792552  0.489518  1
  Ta  Ta6  1  0.750000  0.292552  0.010482  1
  Ta  Ta7  1  0.750000  0.207448  0.510482  1
  P  P8  1  0.250000  0.419261  0.115767  1
  P  P9  1  0.250000  0.080739  0.615767  1
  P  P10  1  0.750000  0.580739  0.884233  1
  P  P11  1  0.750000  0.919261  0.384233  1
  P  P12  1  0.250000  0.262697  0.871791  1
  P  P13  1  0.250000  0.237303  0.371791  1
  P  P14  1  0.750000  0.737303  0.128209  1
  P  P15  1  0.750000  0.762697  0.628209  1
  P  P16  1  0.250000  0.599524  0.393175  1
  P  P17  1  0.250000  0.900476  0.893175  1
  P  P18  1  0.750000  0.400476  0.606825  1
  P  P19  1  0.750000  0.099524  0.106825  1
  Rh  Rh20  1  0.250000  0.406217  0.492110  1
  Rh  Rh21  1  0.250000  0.093783  0.992110  1
  Rh  Rh22  1  0.750000  0.593783  0.507890  1
  Rh  Rh23  1  0.750000  0.906217  0.007890  1
  Rh  Rh24  1  0.250000  0.229727  0.182531  1
  Rh  Rh25  1  0.250000  0.270273  0.682531  1
  Rh  Rh26  1  0.750000  0.770273  0.817469  1
  Rh  Rh27  1  0.750000  0.729727  0.317469  1
  Rh  Rh28  1  0.250000  0.892140  0.703214  1
  Rh  Rh29  1  0.250000  0.607860  0.203214  1
  Rh  Rh30  1  0.750000  0.107860  0.296786  1
  Rh  Rh31  1  0.750000  0.392140  0.796786  1
  Rh  Rh32  1  0.250000  0.461204  0.934649  1
  Rh  Rh33  1  0.250000  0.038796  0.434649  1
  Rh  Rh34  1  0.750000  0.538796  0.065351  1
  Rh  Rh35  1  0.750000  0.961204  0.565351  1
