# generated using pymatgen
data_Hf4Al5Mo3
_symmetry_space_group_name_H-M   'P 1'
_cell_length_a   5.28815200
_cell_length_b   5.28812951
_cell_length_c   8.72663700
_cell_angle_alpha   90.00000000
_cell_angle_beta   90.00000000
_cell_angle_gamma   120.00014070
_symmetry_Int_Tables_number   1
_chemical_formula_structural   Hf4Al5Mo3
_chemical_formula_sum   'Hf4 Al5 Mo3'
_cell_volume   211.34060168
_cell_formula_units_Z   1
loop_
 _symmetry_equiv_pos_site_id
 _symmetry_equiv_pos_as_xyz
  1  'x, y, z'
loop_
 _atom_site_type_symbol
 _atom_site_label
 _atom_site_symmetry_multiplicity
 _atom_site_fract_x
 _atom_site_fract_y
 _atom_site_fract_z
 _atom_site_occupancy
  Hf  Hf0  1  0.333328  0.666657  0.064842  1
  Hf  Hf1  1  0.333328  0.666657  0.435158  1
  Hf  Hf2  1  0.666668  0.333336  0.564804  1
  Hf  Hf3  1  0.666668  0.333336  0.935196  1
  Al  Al4  1  0.000007  0.000013  0.000063  1
  Al  Al5  1  0.000007  0.000013  0.499937  1
  Al  Al6  1  0.171062  0.342124  0.750001  1
  Al  Al7  1  0.171066  0.828951  0.750001  1
  Al  Al8  1  0.657884  0.828951  0.750001  1
  Mo  Mo9  1  0.340546  0.170262  0.250000  1
  Mo  Mo10  1  0.829716  0.170262  0.250000  1
  Mo  Mo11  1  0.829720  0.659439  0.250000  1
