# generated using pymatgen
data_PmNi3Pt2
_symmetry_space_group_name_H-M   'P 1'
_cell_length_a   5.10405047
_cell_length_b   5.39395763
_cell_length_c   4.04902000
_cell_angle_alpha   90.00000000
_cell_angle_beta   90.00000000
_cell_angle_gamma   58.07913276
_symmetry_Int_Tables_number   1
_chemical_formula_structural   PmNi3Pt2
_chemical_formula_sum   'Pm1 Ni3 Pt2'
_cell_volume   94.61655411
_cell_formula_units_Z   1
loop_
 _symmetry_equiv_pos_site_id
 _symmetry_equiv_pos_as_xyz
  1  'x, y, z'
loop_
 _atom_site_type_symbol
 _atom_site_label
 _atom_site_symmetry_multiplicity
 _atom_site_fract_x
 _atom_site_fract_y
 _atom_site_fract_z
 _atom_site_occupancy
  Pm  Pm0  1  0.999829  0.000104  0.000000  1
  Ni  Ni1  1  0.305037  0.347486  0.000000  1
  Ni  Ni2  1  0.694905  0.652533  0.000000  1
  Ni  Ni3  1  0.000098  0.499847  0.499999  1
  Pt  Pt4  1  0.500185  0.999953  0.499999  1
  Pt  Pt5  1  0.499939  0.500079  0.499999  1
