# generated using pymatgen
data_NdY3B4I5
_symmetry_space_group_name_H-M   'P 1'
_cell_length_a   9.73958115
_cell_length_b   9.73958065
_cell_length_c   9.77499636
_cell_angle_alpha   75.21780674
_cell_angle_beta   75.21780680
_cell_angle_gamma   25.50318207
_symmetry_Int_Tables_number   1
_chemical_formula_structural   NdY3B4I5
_chemical_formula_sum   'Nd1 Y3 B4 I5'
_cell_volume   385.33554912
_cell_formula_units_Z   1
loop_
 _symmetry_equiv_pos_site_id
 _symmetry_equiv_pos_as_xyz
  1  'x, y, z'
loop_
 _atom_site_type_symbol
 _atom_site_label
 _atom_site_symmetry_multiplicity
 _atom_site_fract_x
 _atom_site_fract_y
 _atom_site_fract_z
 _atom_site_occupancy
  Nd  Nd0  1  0.867977  0.867977  0.065565  1
  Y  Y1  1  0.503838  0.503838  0.755006  1
  Y  Y2  1  0.497387  0.497387  0.244557  1
  Y  Y3  1  0.129000  0.129000  0.934440  1
  B  B4  1  0.315563  0.686589  0.999554  1
  B  B5  1  0.686589  0.315563  0.999554  1
  B  B6  1  0.000701  0.000701  0.098539  1
  B  B7  1  0.001640  0.001640  0.900426  1
  I  I8  1  0.673950  0.673950  0.688036  1
  I  I9  1  0.328306  0.328306  0.327656  1
  I  I10  1  0.330943  0.330943  0.838229  1
  I  I11  1  0.672144  0.672144  0.141863  1
  I  I12  1  0.006260  0.006260  0.496776  1
