# generated using pymatgen
data_TbBi7(W2O11)2
_symmetry_space_group_name_H-M   'P 1'
_cell_length_a   6.60337797
_cell_length_b   7.76571039
_cell_length_c   9.96368045
_cell_angle_alpha   100.66548363
_cell_angle_beta   90.64766730
_cell_angle_gamma   90.11777576
_symmetry_Int_Tables_number   1
_chemical_formula_structural   TbBi7(W2O11)2
_chemical_formula_sum   'Tb1 Bi7 W4 O22'
_cell_volume   502.07349012
_cell_formula_units_Z   1
loop_
 _symmetry_equiv_pos_site_id
 _symmetry_equiv_pos_as_xyz
  1  'x, y, z'
loop_
 _atom_site_type_symbol
 _atom_site_label
 _atom_site_symmetry_multiplicity
 _atom_site_fract_x
 _atom_site_fract_y
 _atom_site_fract_z
 _atom_site_occupancy
  Tb  Tb0  1  0.748671  0.371907  0.477941  1
  Bi  Bi1  1  0.243633  0.623330  0.516362  1
  Bi  Bi2  1  0.752029  0.876436  0.484504  1
  Bi  Bi3  1  0.249607  0.126771  0.517115  1
  Bi  Bi4  1  0.461032  0.937480  0.816690  1
  Bi  Bi5  1  0.537901  0.064158  0.183001  1
  Bi  Bi6  1  0.387657  0.455492  0.825610  1
  Bi  Bi7  1  0.617295  0.542702  0.173848  1
  W  W8  1  0.923444  0.699982  0.809654  1
  W  W9  1  0.074764  0.298656  0.189339  1
  W  W10  1  0.917425  0.200014  0.802997  1
  W  W11  1  0.081209  0.800436  0.195316  1
  O  O12  1  0.230298  0.716952  0.761742  1
  O  O13  1  0.767653  0.284387  0.239613  1
  O  O14  1  0.624944  0.669879  0.830303  1
  O  O15  1  0.373740  0.331402  0.171658  1
  O  O16  1  0.644623  0.255061  0.854056  1
  O  O17  1  0.354550  0.744123  0.150027  1
  O  O18  1  0.877524  0.173890  0.597895  1
  O  O19  1  0.118498  0.834666  0.402655  1
  O  O20  1  0.209174  0.145215  0.760433  1
  O  O21  1  0.790441  0.856685  0.240243  1
  O  O22  1  0.900881  0.628014  0.601387  1
  O  O23  1  0.089515  0.361719  0.398233  1
  O  O24  1  0.997852  0.548663  0.189782  1
  O  O25  1  0.002022  0.451756  0.812685  1
  O  O26  1  0.990227  0.779606  0.994651  1
  O  O27  1  0.007735  0.220177  0.004972  1
  O  O28  1  0.585158  0.602884  0.391916  1
  O  O29  1  0.438120  0.388833  0.608613  1
  O  O30  1  0.170738  0.057255  0.218631  1
  O  O31  1  0.829316  0.941557  0.777640  1
  O  O32  1  0.549525  0.104923  0.400831  1
  O  O33  1  0.452799  0.904989  0.599657  1
