# generated using pymatgen
data_Ca20ZnCd6Pd
_symmetry_space_group_name_H-M   'P 1'
_cell_length_a   10.30831900
_cell_length_b   10.30833550
_cell_length_c   10.24775500
_cell_angle_alpha   90.00000000
_cell_angle_beta   90.00000000
_cell_angle_gamma   120.00003238
_symmetry_Int_Tables_number   1
_chemical_formula_structural   Ca20ZnCd6Pd
_chemical_formula_sum   'Ca20 Zn1 Cd6 Pd1'
_cell_volume   943.05195215
_cell_formula_units_Z   1
loop_
 _symmetry_equiv_pos_site_id
 _symmetry_equiv_pos_as_xyz
  1  'x, y, z'
loop_
 _atom_site_type_symbol
 _atom_site_label
 _atom_site_symmetry_multiplicity
 _atom_site_fract_x
 _atom_site_fract_y
 _atom_site_fract_z
 _atom_site_occupancy
  Ca  Ca0  1  0.202184  0.797813  0.942229  1
  Ca  Ca1  1  0.202185  0.404370  0.942230  1
  Ca  Ca2  1  0.595629  0.797815  0.942229  1
  Ca  Ca3  1  0.794359  0.205641  0.064062  1
  Ca  Ca4  1  0.794359  0.588717  0.064063  1
  Ca  Ca5  1  0.411284  0.205642  0.064064  1
  Ca  Ca6  1  0.794359  0.205641  0.435938  1
  Ca  Ca7  1  0.794359  0.588717  0.435937  1
  Ca  Ca8  1  0.411284  0.205642  0.435936  1
  Ca  Ca9  1  0.202184  0.797813  0.557771  1
  Ca  Ca10  1  0.202185  0.404370  0.557770  1
  Ca  Ca11  1  0.595629  0.797815  0.557771  1
  Ca  Ca12  1  0.540113  0.459888  0.750000  1
  Ca  Ca13  1  0.540113  0.080227  0.750000  1
  Ca  Ca14  1  0.919774  0.459887  0.750000  1
  Ca  Ca15  1  0.460156  0.539844  0.250000  1
  Ca  Ca16  1  0.460156  0.920313  0.250000  1
  Ca  Ca17  1  0.079685  0.539843  0.250000  1
  Ca  Ca18  1  0.999999  0.999999  0.001145  1
  Ca  Ca19  1  0.999999  0.999999  0.498855  1
  Zn  Zn20  1  0.333333  0.666667  0.750000  1
  Cd  Cd21  1  0.882659  0.117342  0.750000  1
  Cd  Cd22  1  0.882658  0.765316  0.750000  1
  Cd  Cd23  1  0.234684  0.117343  0.750000  1
  Cd  Cd24  1  0.118216  0.881784  0.250000  1
  Cd  Cd25  1  0.118215  0.236431  0.250000  1
  Cd  Cd26  1  0.763569  0.881784  0.250000  1
  Pd  Pd27  1  0.666670  0.333333  0.250000  1
