# generated using pymatgen
data_NaThCuSe3
_symmetry_space_group_name_H-M   'P 1'
_cell_length_a   7.16881637
_cell_length_b   7.16881731
_cell_length_c   10.92287200
_cell_angle_alpha   90.00000000
_cell_angle_beta   90.00000000
_cell_angle_gamma   146.34272125
_symmetry_Int_Tables_number   1
_chemical_formula_structural   NaThCuSe3
_chemical_formula_sum   'Na2 Th2 Cu2 Se6'
_cell_volume   311.11224130
_cell_formula_units_Z   2
loop_
 _symmetry_equiv_pos_site_id
 _symmetry_equiv_pos_as_xyz
  1  'x, y, z'
loop_
 _atom_site_type_symbol
 _atom_site_label
 _atom_site_symmetry_multiplicity
 _atom_site_fract_x
 _atom_site_fract_y
 _atom_site_fract_z
 _atom_site_occupancy
  Na  Na0  1  0.247550  0.752450  0.750000  1
  Na  Na1  1  0.752450  0.247550  0.250000  1
  Th  Th2  1  0.000000  0.000000  0.500000  1
  Th  Th3  1  0.000000  0.000000  0.000000  1
  Cu  Cu4  1  0.527822  0.472178  0.750000  1
  Cu  Cu5  1  0.472178  0.527822  0.250000  1
  Se  Se6  1  0.079417  0.920583  0.250000  1
  Se  Se7  1  0.637554  0.362446  0.927332  1
  Se  Se8  1  0.920583  0.079417  0.750000  1
  Se  Se9  1  0.637554  0.362446  0.572668  1
  Se  Se10  1  0.362446  0.637554  0.072668  1
  Se  Se11  1  0.362446  0.637554  0.427332  1
