# generated using pymatgen
data_Li4Ca5Pt4
_symmetry_space_group_name_H-M   'P 1'
_cell_length_a   8.35935000
_cell_length_b   8.35934952
_cell_length_c   8.35935000
_cell_angle_alpha   93.64703843
_cell_angle_beta   93.64703822
_cell_angle_gamma   150.78335068
_symmetry_Int_Tables_number   1
_chemical_formula_structural   Li4Ca5Pt4
_chemical_formula_sum   'Li4 Ca5 Pt4'
_cell_volume   275.90944108
_cell_formula_units_Z   1
loop_
 _symmetry_equiv_pos_site_id
 _symmetry_equiv_pos_as_xyz
  1  'x, y, z'
loop_
 _atom_site_type_symbol
 _atom_site_label
 _atom_site_symmetry_multiplicity
 _atom_site_fract_x
 _atom_site_fract_y
 _atom_site_fract_z
 _atom_site_occupancy
  Li  Li0  1  0.602991  0.076501  0.679492  1
  Li  Li1  1  0.923499  0.602991  0.526490  1
  Li  Li2  1  0.076501  0.397009  0.473510  1
  Li  Li3  1  0.397009  0.923499  0.320508  1
  Ca  Ca4  1  0.129332  0.790828  0.920160  1
  Ca  Ca5  1  0.209172  0.129332  0.338503  1
  Ca  Ca6  1  0.870668  0.209172  0.079840  1
  Ca  Ca7  1  0.500000  0.500000  0.000000  1
  Ca  Ca8  1  0.790828  0.870668  0.661497  1
  Pt  Pt9  1  0.440799  0.245969  0.686768  1
  Pt  Pt10  1  0.559201  0.754031  0.313232  1
  Pt  Pt11  1  0.245969  0.559201  0.805170  1
  Pt  Pt12  1  0.754031  0.440799  0.194830  1
