# generated using pymatgen
data_Cs3Hf2Te10Au
_symmetry_space_group_name_H-M   'P 1'
_cell_length_a   10.24493131
_cell_length_b   11.37216478
_cell_length_c   11.57135136
_cell_angle_alpha   89.68579295
_cell_angle_beta   89.34063221
_cell_angle_gamma   77.61644670
_symmetry_Int_Tables_number   1
_chemical_formula_structural   Cs3Hf2Te10Au
_chemical_formula_sum   'Cs6 Hf4 Te20 Au2'
_cell_volume   1316.68442149
_cell_formula_units_Z   2
loop_
 _symmetry_equiv_pos_site_id
 _symmetry_equiv_pos_as_xyz
  1  'x, y, z'
loop_
 _atom_site_type_symbol
 _atom_site_label
 _atom_site_symmetry_multiplicity
 _atom_site_fract_x
 _atom_site_fract_y
 _atom_site_fract_z
 _atom_site_occupancy
  Cs  Cs0  1  0.881271  0.890967  0.256886  1
  Cs  Cs1  1  0.118729  0.109033  0.743114  1
  Cs  Cs2  1  0.441781  0.767193  0.387348  1
  Cs  Cs3  1  0.558219  0.232807  0.612652  1
  Cs  Cs4  1  0.301214  0.628533  0.893932  1
  Cs  Cs5  1  0.698786  0.371467  0.106068  1
  Hf  Hf6  1  0.104855  0.378605  0.365986  1
  Hf  Hf7  1  0.895145  0.621395  0.634014  1
  Hf  Hf8  1  0.309462  0.158640  0.143586  1
  Hf  Hf9  1  0.690538  0.841360  0.856414  1
  Te  Te10  1  0.838807  0.561315  0.397674  1
  Te  Te11  1  0.161193  0.438685  0.602326  1
  Te  Te12  1  0.930335  0.201795  0.390360  1
  Te  Te13  1  0.069665  0.798205  0.609640  1
  Te  Te14  1  0.199111  0.580469  0.226293  1
  Te  Te15  1  0.800889  0.419531  0.773707  1
  Te  Te16  1  0.215640  0.119186  0.387641  1
  Te  Te17  1  0.784360  0.880814  0.612359  1
  Te  Te18  1  0.079700  0.360642  0.112832  1
  Te  Te19  1  0.920300  0.639358  0.887168  1
  Te  Te20  1  0.389263  0.352983  0.290380  1
  Te  Te21  1  0.610737  0.647017  0.709620  1
  Te  Te22  1  0.046887  0.121904  0.068742  1
  Te  Te23  1  0.953113  0.878096  0.931258  1
  Te  Te24  1  0.524659  0.089193  0.305376  1
  Te  Te25  1  0.475341  0.910807  0.694624  1
  Te  Te26  1  0.332283  0.914964  0.069534  1
  Te  Te27  1  0.667717  0.085036  0.930466  1
  Te  Te28  1  0.409445  0.244588  0.933858  1
  Te  Te29  1  0.590555  0.755412  0.066142  1
  Au  Au30  1  0.912005  0.359791  0.565061  1
  Au  Au31  1  0.087995  0.640209  0.434939  1
