# generated using pymatgen
data_Cs3KV4P12(HO10)4
_symmetry_space_group_name_H-M   'P 1'
_cell_length_a   8.84975305
_cell_length_b   9.19477312
_cell_length_c   12.28562700
_cell_angle_alpha   69.04856361
_cell_angle_beta   89.99397892
_cell_angle_gamma   90.00321219
_symmetry_Int_Tables_number   1
_chemical_formula_structural   Cs3KV4P12(HO10)4
_chemical_formula_sum   'Cs3 K1 V4 P12 H4 O40'
_cell_volume   933.60324319
_cell_formula_units_Z   1
loop_
 _symmetry_equiv_pos_site_id
 _symmetry_equiv_pos_as_xyz
  1  'x, y, z'
loop_
 _atom_site_type_symbol
 _atom_site_label
 _atom_site_symmetry_multiplicity
 _atom_site_fract_x
 _atom_site_fract_y
 _atom_site_fract_z
 _atom_site_occupancy
  Cs  Cs0  1  0.061926  0.249933  0.000008  1
  Cs  Cs1  1  0.438243  0.750065  0.500005  1
  Cs  Cs2  1  0.938293  0.750021  0.999987  1
  K  K3  1  0.564929  0.249966  0.500051  1
  V  V4  1  0.750051  0.499943  0.749728  1
  V  V5  1  0.750027  0.000058  0.250277  1
  V  V6  1  0.249980  0.499635  0.250549  1
  V  V7  1  0.249990  0.000311  0.749437  1
  P  P8  1  0.126235  0.249962  0.499976  1
  P  P9  1  0.623871  0.249992  0.999998  1
  P  P10  1  0.875859  0.750040  0.500010  1
  P  P11  1  0.375924  0.750036  0.999993  1
  P  P12  1  0.936831  0.201132  0.705308  1
  P  P13  1  0.439952  0.200336  0.208684  1
  P  P14  1  0.936790  0.298847  0.294668  1
  P  P15  1  0.439930  0.299662  0.791309  1
  P  P16  1  0.061039  0.799945  0.292707  1
  P  P17  1  0.561260  0.800313  0.792023  1
  P  P18  1  0.061126  0.700039  0.707298  1
  P  P19  1  0.561283  0.699740  0.207979  1
  H  H20  1  0.250116  0.000195  0.250737  1
  H  H21  1  0.746850  0.001880  0.747939  1
  H  H22  1  0.746813  0.498158  0.252061  1
  H  H23  1  0.250229  0.499672  0.749330  1
  O  O24  1  0.015272  0.195865  0.418182  1
  O  O25  1  0.514010  0.196570  0.916905  1
  O  O26  1  0.015353  0.304102  0.581796  1
  O  O27  1  0.514043  0.303444  0.083088  1
  O  O28  1  0.986138  0.803731  0.582459  1
  O  O29  1  0.486835  0.802678  0.082737  1
  O  O30  1  0.986097  0.696257  0.417575  1
  O  O31  1  0.486809  0.697325  0.917260  1
  O  O32  1  0.810624  0.109230  0.672937  1
  O  O33  1  0.317183  0.103717  0.178062  1
  O  O34  1  0.810568  0.390655  0.327050  1
  O  O35  1  0.317121  0.396250  0.821941  1
  O  O36  1  0.183369  0.897004  0.323355  1
  O  O37  1  0.684702  0.897652  0.821602  1
  O  O38  1  0.183411  0.603022  0.676623  1
  O  O39  1  0.684756  0.602414  0.178456  1
  O  O40  1  0.878953  0.316689  0.758115  1
  O  O41  1  0.379476  0.315836  0.260576  1
  O  O42  1  0.879008  0.183270  0.241873  1
  O  O43  1  0.379502  0.184258  0.739377  1
  O  O44  1  0.122458  0.684428  0.241367  1
  O  O45  1  0.621615  0.683907  0.741251  1
  O  O46  1  0.122505  0.815551  0.758659  1
  O  O47  1  0.621524  0.816115  0.258821  1
  O  O48  1  0.215788  0.391807  0.429091  1
  O  O49  1  0.712668  0.392114  0.928553  1
  O  O50  1  0.215731  0.108118  0.570872  1
  O  O51  1  0.712594  0.107848  0.071415  1
  O  O52  1  0.787051  0.607982  0.571235  1
  O  O53  1  0.287178  0.607796  0.071280  1
  O  O54  1  0.787094  0.892097  0.428778  1
  O  O55  1  0.287248  0.892333  0.928720  1
  O  O56  1  0.060542  0.400785  0.215642  1
  O  O57  1  0.565287  0.397996  0.712136  1
  O  O58  1  0.060507  0.099249  0.784338  1
  O  O59  1  0.565278  0.102102  0.287819  1
  O  O60  1  0.935774  0.601840  0.786441  1
  O  O61  1  0.436325  0.600817  0.286946  1
  O  O62  1  0.935714  0.898082  0.213550  1
  O  O63  1  0.436338  0.899183  0.713058  1
