# generated using pymatgen
data_CaScGaS4
_symmetry_space_group_name_H-M   'P 1'
_cell_length_a   6.19652400
_cell_length_b   7.77634700
_cell_length_c   13.77714600
_cell_angle_alpha   90.00000000
_cell_angle_beta   90.00000000
_cell_angle_gamma   90.00000000
_symmetry_Int_Tables_number   1
_chemical_formula_structural   CaScGaS4
_chemical_formula_sum   'Ca4 Sc4 Ga4 S16'
_cell_volume   663.86997711
_cell_formula_units_Z   4
loop_
 _symmetry_equiv_pos_site_id
 _symmetry_equiv_pos_as_xyz
  1  'x, y, z'
loop_
 _atom_site_type_symbol
 _atom_site_label
 _atom_site_symmetry_multiplicity
 _atom_site_fract_x
 _atom_site_fract_y
 _atom_site_fract_z
 _atom_site_occupancy
  Ca  Ca0  1  0.491376  0.500000  0.233828  1
  Ca  Ca1  1  0.991377  0.000000  0.266172  1
  Ca  Ca2  1  0.008625  0.500000  0.733828  1
  Ca  Ca3  1  0.508624  0.000000  0.766172  1
  Sc  Sc4  1  0.000000  0.250000  0.000000  1
  Sc  Sc5  1  0.000000  0.750001  0.000000  1
  Sc  Sc6  1  0.500001  0.250000  0.500000  1
  Sc  Sc7  1  0.500001  0.750001  0.500000  1
  Ga  Ga8  1  0.403515  0.000000  0.083317  1
  Ga  Ga9  1  0.903518  0.500000  0.416683  1
  Ga  Ga10  1  0.096484  0.000000  0.583317  1
  Ga  Ga11  1  0.596484  0.500000  0.916684  1
  S  S12  1  0.767070  0.500000  0.067846  1
  S  S13  1  0.770484  0.000000  0.081412  1
  S  S14  1  0.240649  0.234265  0.153644  1
  S  S15  1  0.240649  0.765736  0.153644  1
  S  S16  1  0.740650  0.265734  0.346355  1
  S  S17  1  0.740650  0.734266  0.346355  1
  S  S18  1  0.270485  0.500000  0.418588  1
  S  S19  1  0.267069  0.000000  0.432154  1
  S  S20  1  0.732931  0.500000  0.567846  1
  S  S21  1  0.729517  0.000000  0.581412  1
  S  S22  1  0.259352  0.234265  0.653644  1
  S  S23  1  0.259352  0.765736  0.653644  1
  S  S24  1  0.759351  0.265734  0.846355  1
  S  S25  1  0.759351  0.734266  0.846355  1
  S  S26  1  0.229516  0.500000  0.918588  1
  S  S27  1  0.232932  0.000000  0.932154  1
