# generated using pymatgen
data_Tb2Er8InPb5
_symmetry_space_group_name_H-M   'P 1'
_cell_length_a   8.98910500
_cell_length_b   8.99463500
_cell_length_c   6.62545500
_cell_angle_alpha   90.00000000
_cell_angle_beta   90.00000000
_cell_angle_gamma   120.08752786
_symmetry_Int_Tables_number   1
_chemical_formula_structural   Tb2Er8InPb5
_chemical_formula_sum   'Tb2 Er8 In1 Pb5'
_cell_volume   463.51374732
_cell_formula_units_Z   1
loop_
 _symmetry_equiv_pos_site_id
 _symmetry_equiv_pos_as_xyz
  1  'x, y, z'
loop_
 _atom_site_type_symbol
 _atom_site_label
 _atom_site_symmetry_multiplicity
 _atom_site_fract_x
 _atom_site_fract_y
 _atom_site_fract_z
 _atom_site_occupancy
  Tb  Tb0  1  0.237516  0.237410  0.250000  1
  Tb  Tb1  1  0.762086  0.999433  0.250000  1
  Er  Er2  1  0.663643  0.333716  0.997757  1
  Er  Er3  1  0.333533  0.663691  0.997869  1
  Er  Er4  1  0.333533  0.663691  0.502131  1
  Er  Er5  1  0.663643  0.333716  0.502243  1
  Er  Er6  1  0.761193  0.760950  0.750000  1
  Er  Er7  1  0.238595  0.004772  0.750000  1
  Er  Er8  1  0.005039  0.239434  0.750000  1
  Er  Er9  1  0.999512  0.762263  0.250000  1
  In  In10  1  0.397388  0.397217  0.750000  1
  Pb  Pb11  1  0.606834  0.000749  0.750000  1
  Pb  Pb12  1  0.000772  0.606414  0.750000  1
  Pb  Pb13  1  0.604260  0.603108  0.250000  1
  Pb  Pb14  1  0.394330  0.997011  0.250000  1
  Pb  Pb15  1  0.998124  0.396423  0.250000  1
