# generated using pymatgen
data_Lu6Al21Si3Os8
_symmetry_space_group_name_H-M   'P 1'
_cell_length_a   8.67279800
_cell_length_b   8.67279766
_cell_length_c   9.58981900
_cell_angle_alpha   90.00000000
_cell_angle_beta   90.00000000
_cell_angle_gamma   120.00000129
_symmetry_Int_Tables_number   1
_chemical_formula_structural   Lu6Al21Si3Os8
_chemical_formula_sum   'Lu6 Al21 Si3 Os8'
_cell_volume   624.68270465
_cell_formula_units_Z   1
loop_
 _symmetry_equiv_pos_site_id
 _symmetry_equiv_pos_as_xyz
  1  'x, y, z'
loop_
 _atom_site_type_symbol
 _atom_site_label
 _atom_site_symmetry_multiplicity
 _atom_site_fract_x
 _atom_site_fract_y
 _atom_site_fract_z
 _atom_site_occupancy
  Lu  Lu0  1  0.196784  0.393568  0.247600  1
  Lu  Lu1  1  0.802693  0.605388  0.752506  1
  Lu  Lu2  1  0.606432  0.803216  0.247600  1
  Lu  Lu3  1  0.394612  0.197307  0.752506  1
  Lu  Lu4  1  0.196784  0.803216  0.247600  1
  Lu  Lu5  1  0.802693  0.197307  0.752506  1
  Al  Al6  1  0.333333  0.666667  0.475121  1
  Al  Al7  1  0.164068  0.328136  0.575287  1
  Al  Al8  1  0.835243  0.670485  0.422469  1
  Al  Al9  1  0.671864  0.835932  0.575287  1
  Al  Al10  1  0.835030  0.670059  0.077587  1
  Al  Al11  1  0.329515  0.164757  0.422469  1
  Al  Al12  1  0.165242  0.330484  0.921837  1
  Al  Al13  1  0.164068  0.835932  0.575287  1
  Al  Al14  1  0.329941  0.164970  0.077587  1
  Al  Al15  1  0.835243  0.164757  0.422469  1
  Al  Al16  1  0.669516  0.834758  0.921837  1
  Al  Al17  1  0.835030  0.164970  0.077587  1
  Al  Al18  1  0.165242  0.834758  0.921837  1
  Al  Al19  1  0.563089  0.126177  0.248917  1
  Al  Al20  1  0.437215  0.874431  0.748789  1
  Al  Al21  1  0.873823  0.436911  0.248917  1
  Al  Al22  1  0.125569  0.562785  0.748789  1
  Al  Al23  1  0.563089  0.436911  0.248917  1
  Al  Al24  1  0.437215  0.562785  0.748789  1
  Al  Al25  1  0.000000  0.000000  0.249058  1
  Al  Al26  1  0.000000  0.000000  0.749509  1
  Si  Si27  1  0.333333  0.666667  0.041021  1
  Si  Si28  1  0.666667  0.333333  0.960478  1
  Si  Si29  1  0.666667  0.333333  0.540754  1
  Os  Os30  1  0.500044  0.000088  0.998747  1
  Os  Os31  1  0.999912  0.499956  0.998747  1
  Os  Os32  1  0.504226  0.008454  0.501533  1
  Os  Os33  1  0.500044  0.499956  0.998747  1
  Os  Os34  1  0.991546  0.495774  0.501533  1
  Os  Os35  1  0.504226  0.495774  0.501533  1
  Os  Os36  1  0.000000  0.000000  0.999040  1
  Os  Os37  1  0.000000  0.000000  0.499202  1
