# generated using pymatgen
data_Er3Sn2PdRuPtPb
_symmetry_space_group_name_H-M   'P 1'
_cell_length_a   7.75802700
_cell_length_b   7.75802788
_cell_length_c   3.72751400
_cell_angle_alpha   90.00000000
_cell_angle_beta   90.00000000
_cell_angle_gamma   119.76634687
_symmetry_Int_Tables_number   1
_chemical_formula_structural   Er3Sn2PdRuPtPb
_chemical_formula_sum   'Er3 Sn2 Pd1 Ru1 Pt1 Pb1'
_cell_volume   194.74676503
_cell_formula_units_Z   1
loop_
 _symmetry_equiv_pos_site_id
 _symmetry_equiv_pos_as_xyz
  1  'x, y, z'
loop_
 _atom_site_type_symbol
 _atom_site_label
 _atom_site_symmetry_multiplicity
 _atom_site_fract_x
 _atom_site_fract_y
 _atom_site_fract_z
 _atom_site_occupancy
  Er  Er0  1  0.389113  0.397857  0.500000  1
  Er  Er1  1  0.598682  0.994608  0.500000  1
  Er  Er2  1  0.011122  0.607257  0.500000  1
  Sn  Sn3  1  0.268412  0.005565  0.000000  1
  Sn  Sn4  1  0.994011  0.262709  0.000000  1
  Pd  Pd5  1  0.664518  0.325451  0.000000  1
  Ru  Ru6  1  0.011223  0.011356  0.500000  1
  Pt  Pt7  1  0.325710  0.664652  0.000000  1
  Pb  Pb8  1  0.737209  0.730545  0.000000  1
