# generated using pymatgen
data_Hf2Co12SiP6
_symmetry_space_group_name_H-M   'P 1'
_cell_length_a   8.90538500
_cell_length_b   8.90538383
_cell_length_c   3.54073200
_cell_angle_alpha   90.00000000
_cell_angle_beta   90.00000000
_cell_angle_gamma   120.00000806
_symmetry_Int_Tables_number   1
_chemical_formula_structural   Hf2Co12SiP6
_chemical_formula_sum   'Hf2 Co12 Si1 P6'
_cell_volume   243.18063872
_cell_formula_units_Z   1
loop_
 _symmetry_equiv_pos_site_id
 _symmetry_equiv_pos_as_xyz
  1  'x, y, z'
loop_
 _atom_site_type_symbol
 _atom_site_label
 _atom_site_symmetry_multiplicity
 _atom_site_fract_x
 _atom_site_fract_y
 _atom_site_fract_z
 _atom_site_occupancy
  Hf  Hf0  1  0.333333  0.666667  0.000000  1
  Hf  Hf1  1  0.666667  0.333333  0.500000  1
  Co  Co2  1  0.439059  0.065207  0.000000  1
  Co  Co3  1  0.934793  0.373853  0.000000  1
  Co  Co4  1  0.626147  0.560941  0.000000  1
  Co  Co5  1  0.387087  0.440998  0.500000  1
  Co  Co6  1  0.559002  0.946088  0.500000  1
  Co  Co7  1  0.053912  0.612913  0.500000  1
  Co  Co8  1  0.163067  0.286272  0.000000  1
  Co  Co9  1  0.713728  0.876796  0.000000  1
  Co  Co10  1  0.123204  0.836933  0.000000  1
  Co  Co11  1  0.234065  0.101231  0.500000  1
  Co  Co12  1  0.898769  0.132833  0.500000  1
  Co  Co13  1  0.867167  0.765935  0.500000  1
  Si  Si14  1  0.000000  0.000000  0.000000  1
  P  P15  1  0.117397  0.406454  0.500000  1
  P  P16  1  0.593546  0.710942  0.500000  1
  P  P17  1  0.289058  0.882603  0.500000  1
  P  P18  1  0.409690  0.292424  0.000000  1
  P  P19  1  0.707576  0.117267  0.000000  1
  P  P20  1  0.882733  0.590310  0.000000  1
