# generated using pymatgen
data_LaCe(B2Ir3)3
_symmetry_space_group_name_H-M   'P 1'
_cell_length_a   5.70794203
_cell_length_b   5.70793527
_cell_length_c   8.62715304
_cell_angle_alpha   89.99971558
_cell_angle_beta   89.99942112
_cell_angle_gamma   59.99996085
_symmetry_Int_Tables_number   1
_chemical_formula_structural   LaCe(B2Ir3)3
_chemical_formula_sum   'La1 Ce1 B6 Ir9'
_cell_volume   243.42016687
_cell_formula_units_Z   1
loop_
 _symmetry_equiv_pos_site_id
 _symmetry_equiv_pos_as_xyz
  1  'x, y, z'
loop_
 _atom_site_type_symbol
 _atom_site_label
 _atom_site_symmetry_multiplicity
 _atom_site_fract_x
 _atom_site_fract_y
 _atom_site_fract_z
 _atom_site_occupancy
  La  La0  1  0.999992  0.000000  0.294346  1
  Ce  Ce1  1  0.999908  0.000000  0.702980  1
  B  B2  1  0.666667  0.666663  0.000632  1
  B  B3  1  0.333330  0.333337  0.000632  1
  B  B4  1  0.666682  0.666663  0.332442  1
  B  B5  1  0.333345  0.333337  0.332442  1
  B  B6  1  0.333344  0.333335  0.667539  1
  B  B7  1  0.666680  0.666665  0.667539  1
  Ir  Ir8  1  0.500028  0.000000  0.163112  1
  Ir  Ir9  1  0.999986  0.500024  0.163111  1
  Ir  Ir10  1  0.500009  0.499976  0.163111  1
  Ir  Ir11  1  0.499933  0.000000  0.836117  1
  Ir  Ir12  1  0.000008  0.499961  0.836124  1
  Ir  Ir13  1  0.499970  0.500039  0.836124  1
  Ir  Ir14  1  0.500020  0.000000  0.501257  1
  Ir  Ir15  1  0.999990  0.500019  0.501246  1
  Ir  Ir16  1  0.500009  0.499981  0.501246  1
