# generated using pymatgen
data_RbVCdF6
_symmetry_space_group_name_H-M   'P 1'
_cell_length_a   7.60915000
_cell_length_b   7.74237700
_cell_length_c   10.43821400
_cell_angle_alpha   90.00000000
_cell_angle_beta   90.00000000
_cell_angle_gamma   90.00000000
_symmetry_Int_Tables_number   1
_chemical_formula_structural   RbVCdF6
_chemical_formula_sum   'Rb4 V4 Cd4 F24'
_cell_volume   614.94554054
_cell_formula_units_Z   4
loop_
 _symmetry_equiv_pos_site_id
 _symmetry_equiv_pos_as_xyz
  1  'x, y, z'
loop_
 _atom_site_type_symbol
 _atom_site_label
 _atom_site_symmetry_multiplicity
 _atom_site_fract_x
 _atom_site_fract_y
 _atom_site_fract_z
 _atom_site_occupancy
  Rb  Rb0  1  0.002798  0.250000  0.622967  1
  Rb  Rb1  1  0.997202  0.750000  0.377033  1
  Rb  Rb2  1  0.497202  0.750000  0.122967  1
  Rb  Rb3  1  0.502798  0.250000  0.877033  1
  V  V4  1  0.000000  0.000000  0.000000  1
  V  V5  1  0.500000  0.000000  0.500000  1
  V  V6  1  0.000000  0.500000  0.000000  1
  V  V7  1  0.500000  0.500000  0.500000  1
  Cd  Cd8  1  0.202821  0.250000  0.253108  1
  Cd  Cd9  1  0.797179  0.750000  0.746892  1
  Cd  Cd10  1  0.297179  0.750000  0.753108  1
  Cd  Cd11  1  0.702821  0.250000  0.246892  1
  F  F12  1  0.282434  0.053379  0.410118  1
  F  F13  1  0.717566  0.946621  0.589882  1
  F  F14  1  0.217566  0.946621  0.910118  1
  F  F15  1  0.717566  0.553379  0.589882  1
  F  F16  1  0.782434  0.053379  0.089882  1
  F  F17  1  0.282434  0.446621  0.410118  1
  F  F18  1  0.782434  0.446621  0.089882  1
  F  F19  1  0.217566  0.553379  0.910118  1
  F  F20  1  0.576128  0.250000  0.502513  1
  F  F21  1  0.423872  0.750000  0.497487  1
  F  F22  1  0.923872  0.750000  0.002513  1
  F  F23  1  0.076128  0.250000  0.997487  1
  F  F24  1  0.125585  0.518114  0.163182  1
  F  F25  1  0.874415  0.481886  0.836818  1
  F  F26  1  0.374415  0.481886  0.663182  1
  F  F27  1  0.874415  0.018114  0.836818  1
  F  F28  1  0.625585  0.518114  0.336818  1
  F  F29  1  0.125585  0.981886  0.163182  1
  F  F30  1  0.625585  0.981886  0.336818  1
  F  F31  1  0.374415  0.018114  0.663182  1
  F  F32  1  0.448423  0.250000  0.146493  1
  F  F33  1  0.551577  0.750000  0.853507  1
  F  F34  1  0.051577  0.750000  0.646493  1
  F  F35  1  0.948423  0.250000  0.353507  1
