# generated using pymatgen
data_LaEu15(CdPt)4
_symmetry_space_group_name_H-M   'P 1'
_cell_length_a   10.30453060
_cell_length_b   10.30453156
_cell_length_c   10.30452969
_cell_angle_alpha   59.83375788
_cell_angle_beta   59.83375651
_cell_angle_gamma   59.83375782
_symmetry_Int_Tables_number   1
_chemical_formula_structural   LaEu15(CdPt)4
_chemical_formula_sum   'La1 Eu15 Cd4 Pt4'
_cell_volume   770.77554408
_cell_formula_units_Z   1
loop_
 _symmetry_equiv_pos_site_id
 _symmetry_equiv_pos_as_xyz
  1  'x, y, z'
loop_
 _atom_site_type_symbol
 _atom_site_label
 _atom_site_symmetry_multiplicity
 _atom_site_fract_x
 _atom_site_fract_y
 _atom_site_fract_z
 _atom_site_occupancy
  La  La0  1  0.345937  0.345937  0.345937  1
  Eu  Eu1  1  0.347209  0.347209  0.957317  1
  Eu  Eu2  1  0.347209  0.957317  0.347209  1
  Eu  Eu3  1  0.957317  0.347209  0.347209  1
  Eu  Eu4  1  0.807647  0.193033  0.193033  1
  Eu  Eu5  1  0.194351  0.806262  0.806262  1
  Eu  Eu6  1  0.193033  0.807647  0.193033  1
  Eu  Eu7  1  0.806262  0.194351  0.806262  1
  Eu  Eu8  1  0.193033  0.193033  0.807647  1
  Eu  Eu9  1  0.806262  0.806262  0.194351  1
  Eu  Eu10  1  0.939669  0.559698  0.559698  1
  Eu  Eu11  1  0.559501  0.940856  0.940856  1
  Eu  Eu12  1  0.559698  0.939669  0.559698  1
  Eu  Eu13  1  0.940856  0.559501  0.940856  1
  Eu  Eu14  1  0.559698  0.559698  0.939669  1
  Eu  Eu15  1  0.940856  0.940856  0.559501  1
  Cd  Cd16  1  0.578303  0.578303  0.578303  1
  Cd  Cd17  1  0.578347  0.578347  0.262620  1
  Cd  Cd18  1  0.578347  0.262620  0.578347  1
  Cd  Cd19  1  0.262620  0.578347  0.578347  1
  Pt  Pt20  1  0.140852  0.140852  0.140852  1
  Pt  Pt21  1  0.144459  0.144459  0.574073  1
  Pt  Pt22  1  0.144459  0.574073  0.144459  1
  Pt  Pt23  1  0.574073  0.144459  0.144459  1
