# generated using pymatgen
data_Dy7YRe2(B12Ir)2
_symmetry_space_group_name_H-M   'P 1'
_cell_length_a   3.67507600
_cell_length_b   9.17303161
_cell_length_c   11.55923109
_cell_angle_alpha   90.33415455
_cell_angle_beta   90.00000000
_cell_angle_gamma   90.00000000
_symmetry_Int_Tables_number   1
_chemical_formula_structural   Dy7YRe2(B12Ir)2
_chemical_formula_sum   'Dy7 Y1 Re2 B24 Ir2'
_cell_volume   389.67341252
_cell_formula_units_Z   1
loop_
 _symmetry_equiv_pos_site_id
 _symmetry_equiv_pos_as_xyz
  1  'x, y, z'
loop_
 _atom_site_type_symbol
 _atom_site_label
 _atom_site_symmetry_multiplicity
 _atom_site_fract_x
 _atom_site_fract_y
 _atom_site_fract_z
 _atom_site_occupancy
  Dy  Dy0  1  0.000000  0.682245  0.590320  1
  Dy  Dy1  1  0.000000  0.826989  0.082513  1
  Dy  Dy2  1  0.000000  0.173053  0.917486  1
  Dy  Dy3  1  0.000000  0.946083  0.372285  1
  Dy  Dy4  1  0.000000  0.053817  0.627756  1
  Dy  Dy5  1  0.000000  0.441848  0.125711  1
  Dy  Dy6  1  0.000000  0.558217  0.874290  1
  Y  Y7  1  0.000000  0.317447  0.409677  1
  Re  Re8  1  0.000000  0.138154  0.179527  1
  Re  Re9  1  0.000000  0.861706  0.820290  1
  B  B10  1  0.500000  0.554231  0.433833  1
  B  B11  1  0.500000  0.446090  0.566334  1
  B  B12  1  0.500000  0.053211  0.067295  1
  B  B13  1  0.500000  0.946793  0.932672  1
  B  B14  1  0.500000  0.748895  0.421224  1
  B  B15  1  0.500000  0.251099  0.578979  1
  B  B16  1  0.500000  0.247364  0.080638  1
  B  B17  1  0.500000  0.752692  0.919323  1
  B  B18  1  0.500000  0.790807  0.266402  1
  B  B19  1  0.500000  0.209220  0.733636  1
  B  B20  1  0.500000  0.292040  0.233813  1
  B  B21  1  0.500000  0.707934  0.766027  1
  B  B22  1  0.500000  0.632217  0.184306  1
  B  B23  1  0.500000  0.367860  0.815701  1
  B  B24  1  0.500000  0.131909  0.314262  1
  B  B25  1  0.500000  0.867896  0.685614  1
  B  B26  1  0.500000  0.983318  0.213031  1
  B  B27  1  0.500000  0.016633  0.786965  1
  B  B28  1  0.500000  0.483032  0.287128  1
  B  B29  1  0.500000  0.517175  0.712791  1
  B  B30  1  0.500000  0.608432  0.030440  1
  B  B31  1  0.500000  0.391630  0.969572  1
  B  B32  1  0.500000  0.108919  0.470410  1
  B  B33  1  0.500000  0.890902  0.529665  1
  Ir  Ir34  1  0.000000  0.636718  0.322383  1
  Ir  Ir35  1  0.000000  0.363422  0.677704  1
