# generated using pymatgen
data_Ho3Er5Cu2(Si6Pd)2
_symmetry_space_group_name_H-M   'P 1'
_cell_length_a   8.06518901
_cell_length_b   8.06528598
_cell_length_c   8.08837700
_cell_angle_alpha   90.00093497
_cell_angle_beta   89.99940424
_cell_angle_gamma   120.01404340
_symmetry_Int_Tables_number   1
_chemical_formula_structural   Ho3Er5Cu2(Si6Pd)2
_chemical_formula_sum   'Ho3 Er5 Cu2 Si12 Pd2'
_cell_volume   455.58022382
_cell_formula_units_Z   1
loop_
 _symmetry_equiv_pos_site_id
 _symmetry_equiv_pos_as_xyz
  1  'x, y, z'
loop_
 _atom_site_type_symbol
 _atom_site_label
 _atom_site_symmetry_multiplicity
 _atom_site_fract_x
 _atom_site_fract_y
 _atom_site_fract_z
 _atom_site_occupancy
  Ho  Ho0  1  0.499881  0.499908  0.750326  1
  Ho  Ho1  1  0.999988  0.999965  0.249347  1
  Ho  Ho2  1  0.999968  0.999964  0.750936  1
  Er  Er3  1  0.499905  0.000028  0.249918  1
  Er  Er4  1  0.499922  0.999950  0.750077  1
  Er  Er5  1  0.999967  0.499955  0.249891  1
  Er  Er6  1  0.000085  0.499976  0.750129  1
  Er  Er7  1  0.499913  0.499848  0.249888  1
  Cu  Cu8  1  0.333337  0.666918  0.999544  1
  Cu  Cu9  1  0.666871  0.333296  0.999756  1
  Si  Si10  1  0.169268  0.338681  0.000370  1
  Si  Si11  1  0.830755  0.661405  0.000382  1
  Si  Si12  1  0.661423  0.830796  0.000365  1
  Si  Si13  1  0.834017  0.668064  0.499837  1
  Si  Si14  1  0.338649  0.169278  0.000393  1
  Si  Si15  1  0.165982  0.331947  0.499803  1
  Si  Si16  1  0.169337  0.830689  0.000135  1
  Si  Si17  1  0.331898  0.165961  0.499820  1
  Si  Si18  1  0.830667  0.169332  0.000163  1
  Si  Si19  1  0.668115  0.834028  0.499804  1
  Si  Si20  1  0.834128  0.165854  0.500006  1
  Si  Si21  1  0.165854  0.834104  0.499966  1
  Pd  Pd22  1  0.666858  0.333170  0.499663  1
  Pd  Pd23  1  0.333214  0.666882  0.499480  1
