# generated using pymatgen
data_Pr4Pd3Au
_symmetry_space_group_name_H-M   'P 1'
_cell_length_a   4.77319800
_cell_length_b   5.79280880
_cell_length_c   7.40600695
_cell_angle_alpha   89.41037843
_cell_angle_beta   90.00000000
_cell_angle_gamma   90.00000000
_symmetry_Int_Tables_number   1
_chemical_formula_structural   Pr4Pd3Au
_chemical_formula_sum   'Pr4 Pd3 Au1'
_cell_volume   204.76690326
_cell_formula_units_Z   1
loop_
 _symmetry_equiv_pos_site_id
 _symmetry_equiv_pos_as_xyz
  1  'x, y, z'
loop_
 _atom_site_type_symbol
 _atom_site_label
 _atom_site_symmetry_multiplicity
 _atom_site_fract_x
 _atom_site_fract_y
 _atom_site_fract_z
 _atom_site_occupancy
  Pr  Pr0  1  0.250000  0.358831  0.679314  1
  Pr  Pr1  1  0.250000  0.137427  0.188988  1
  Pr  Pr2  1  0.750000  0.643860  0.318687  1
  Pr  Pr3  1  0.750000  0.857603  0.812725  1
  Pd  Pd4  1  0.250000  0.851175  0.540871  1
  Pd  Pd5  1  0.250000  0.648056  0.039824  1
  Pd  Pd6  1  0.750000  0.149857  0.459386  1
  Au  Au7  1  0.750000  0.353193  0.960205  1
