# generated using pymatgen
data_Pr3Nd5Cd2IrPt
_symmetry_space_group_name_H-M   'P 1'
_cell_length_a   10.01200963
_cell_length_b   10.01200998
_cell_length_c   9.98971700
_cell_angle_alpha   60.07363214
_cell_angle_beta   60.07363099
_cell_angle_gamma   60.25385272
_symmetry_Int_Tables_number   1
_chemical_formula_structural   Pr3Nd5Cd2IrPt
_chemical_formula_sum   'Pr6 Nd10 Cd4 Ir2 Pt2'
_cell_volume   710.21738038
_cell_formula_units_Z   2
loop_
 _symmetry_equiv_pos_site_id
 _symmetry_equiv_pos_as_xyz
  1  'x, y, z'
loop_
 _atom_site_type_symbol
 _atom_site_label
 _atom_site_symmetry_multiplicity
 _atom_site_fract_x
 _atom_site_fract_y
 _atom_site_fract_z
 _atom_site_occupancy
  Pr  Pr0  1  0.940066  0.562159  0.560693  1
  Pr  Pr1  1  0.562159  0.940066  0.937082  1
  Pr  Pr2  1  0.562159  0.940066  0.560693  1
  Pr  Pr3  1  0.940066  0.562159  0.937082  1
  Pr  Pr4  1  0.562014  0.562014  0.937986  1
  Pr  Pr5  1  0.939714  0.939714  0.560286  1
  Nd  Nd6  1  0.350248  0.350248  0.345597  1
  Nd  Nd7  1  0.350248  0.350248  0.953905  1
  Nd  Nd8  1  0.354748  0.947624  0.348813  1
  Nd  Nd9  1  0.947624  0.354748  0.348813  1
  Nd  Nd10  1  0.806524  0.189207  0.190795  1
  Nd  Nd11  1  0.189207  0.806524  0.813474  1
  Nd  Nd12  1  0.189207  0.806524  0.190795  1
  Nd  Nd13  1  0.806524  0.189207  0.813474  1
  Nd  Nd14  1  0.190388  0.190388  0.809612  1
  Nd  Nd15  1  0.810761  0.810761  0.189239  1
  Cd  Cd16  1  0.580226  0.580226  0.580201  1
  Cd  Cd17  1  0.580226  0.580226  0.259345  1
  Cd  Cd18  1  0.579812  0.259567  0.580309  1
  Cd  Cd19  1  0.259567  0.579812  0.580309  1
  Ir  Ir20  1  0.141480  0.572651  0.142935  1
  Ir  Ir21  1  0.572651  0.141480  0.142935  1
  Pt  Pt22  1  0.142189  0.142189  0.144767  1
  Pt  Pt23  1  0.142189  0.142189  0.570855  1
