# generated using pymatgen
data_SmThMn3Co9P7
_symmetry_space_group_name_H-M   'P 1'
_cell_length_a   9.13411700
_cell_length_b   9.13557904
_cell_length_c   3.66025900
_cell_angle_alpha   90.00000000
_cell_angle_beta   90.00000000
_cell_angle_gamma   119.99730587
_symmetry_Int_Tables_number   1
_chemical_formula_structural   SmThMn3Co9P7
_chemical_formula_sum   'Sm1 Th1 Mn3 Co9 P7'
_cell_volume   264.51900986
_cell_formula_units_Z   1
loop_
 _symmetry_equiv_pos_site_id
 _symmetry_equiv_pos_as_xyz
  1  'x, y, z'
loop_
 _atom_site_type_symbol
 _atom_site_label
 _atom_site_symmetry_multiplicity
 _atom_site_fract_x
 _atom_site_fract_y
 _atom_site_fract_z
 _atom_site_occupancy
  Sm  Sm0  1  0.333408  0.666717  0.000000  1
  Th  Th1  1  0.999969  0.999946  0.500000  1
  Mn  Mn2  1  0.785018  0.233929  0.500000  1
  Mn  Mn3  1  0.766092  0.550618  0.500000  1
  Mn  Mn4  1  0.449140  0.215087  0.500000  1
  Co  Co5  1  0.037408  0.271439  0.000000  1
  Co  Co6  1  0.728619  0.766107  0.000000  1
  Co  Co7  1  0.233679  0.962569  0.000000  1
  Co  Co8  1  0.545446  0.059076  0.000000  1
  Co  Co9  1  0.940850  0.486547  0.000000  1
  Co  Co10  1  0.513733  0.454298  0.000000  1
  Co  Co11  1  0.615921  0.899149  0.500000  1
  Co  Co12  1  0.100816  0.716820  0.500000  1
  Co  Co13  1  0.283266  0.384225  0.500000  1
  P  P14  1  0.769965  0.034159  0.000000  1
  P  P15  1  0.965810  0.735881  0.000000  1
  P  P16  1  0.264062  0.230167  0.000000  1
  P  P17  1  0.374582  0.930394  0.500000  1
  P  P18  1  0.069491  0.444390  0.500000  1
  P  P19  1  0.555963  0.625295  0.500000  1
  P  P20  1  0.666762  0.333187  0.000000  1
