# generated using pymatgen
data_Hf2Zr3AlPb3
_symmetry_space_group_name_H-M   'P 1'
_cell_length_a   8.85223800
_cell_length_b   8.85223851
_cell_length_c   5.94009700
_cell_angle_alpha   90.00000000
_cell_angle_beta   90.00000000
_cell_angle_gamma   120.00000557
_symmetry_Int_Tables_number   1
_chemical_formula_structural   Hf2Zr3AlPb3
_chemical_formula_sum   'Hf4 Zr6 Al2 Pb6'
_cell_volume   403.11627557
_cell_formula_units_Z   2
loop_
 _symmetry_equiv_pos_site_id
 _symmetry_equiv_pos_as_xyz
  1  'x, y, z'
loop_
 _atom_site_type_symbol
 _atom_site_label
 _atom_site_symmetry_multiplicity
 _atom_site_fract_x
 _atom_site_fract_y
 _atom_site_fract_z
 _atom_site_occupancy
  Hf  Hf0  1  0.333333  0.666667  0.000000  1
  Hf  Hf1  1  0.666667  0.333333  0.500000  1
  Hf  Hf2  1  0.666667  0.333333  0.000000  1
  Hf  Hf3  1  0.333333  0.666667  0.500000  1
  Zr  Zr4  1  0.266041  0.000000  0.250000  1
  Zr  Zr5  1  0.266041  0.266041  0.750000  1
  Zr  Zr6  1  0.000000  0.733959  0.750000  1
  Zr  Zr7  1  0.000000  0.266041  0.250000  1
  Zr  Zr8  1  0.733959  0.733959  0.250000  1
  Zr  Zr9  1  0.733959  0.000000  0.750000  1
  Al  Al10  1  0.000000  0.000000  0.000000  1
  Al  Al11  1  0.000000  0.000000  0.500000  1
  Pb  Pb12  1  0.612693  0.000000  0.250000  1
  Pb  Pb13  1  0.612693  0.612693  0.750000  1
  Pb  Pb14  1  0.000000  0.387307  0.750000  1
  Pb  Pb15  1  0.000000  0.612693  0.250000  1
  Pb  Pb16  1  0.387307  0.387307  0.250000  1
  Pb  Pb17  1  0.387307  0.000000  0.750000  1
