# generated using pymatgen
data_Hf4Mn5V3
_symmetry_space_group_name_H-M   'P 1'
_cell_length_a   5.00986954
_cell_length_b   5.01083130
_cell_length_c   8.21645891
_cell_angle_alpha   89.99999942
_cell_angle_beta   90.67845758
_cell_angle_gamma   120.00635250
_symmetry_Int_Tables_number   1
_chemical_formula_structural   Hf4Mn5V3
_chemical_formula_sum   'Hf4 Mn5 V3'
_cell_volume   178.60068102
_cell_formula_units_Z   1
loop_
 _symmetry_equiv_pos_site_id
 _symmetry_equiv_pos_as_xyz
  1  'x, y, z'
loop_
 _atom_site_type_symbol
 _atom_site_label
 _atom_site_symmetry_multiplicity
 _atom_site_fract_x
 _atom_site_fract_y
 _atom_site_fract_z
 _atom_site_occupancy
  Hf  Hf0  1  0.334528  0.670588  0.440080  1
  Hf  Hf1  1  0.665071  0.330612  0.936035  1
  Hf  Hf2  1  0.665472  0.336059  0.559920  1
  Hf  Hf3  1  0.334929  0.665542  0.063965  1
  Mn  Mn4  1  0.339387  0.172206  0.251586  1
  Mn  Mn5  1  0.660613  0.832819  0.748414  1
  Mn  Mn6  1  0.000000  0.994241  0.500000  1
  Mn  Mn7  1  0.829195  0.663154  0.253193  1
  Mn  Mn8  1  0.170805  0.833959  0.746807  1
  V  V9  1  0.169544  0.340696  0.745728  1
  V  V10  1  0.830456  0.171152  0.254272  1
  V  V11  1  0.000000  0.988973  0.000000  1
