# generated using pymatgen
data_YLuB6Ru
_symmetry_space_group_name_H-M   'P 1'
_cell_length_a   3.62045100
_cell_length_b   9.06569700
_cell_length_c   11.45498800
_cell_angle_alpha   90.00000000
_cell_angle_beta   90.00000000
_cell_angle_gamma   90.00000000
_symmetry_Int_Tables_number   1
_chemical_formula_structural   YLuB6Ru
_chemical_formula_sum   'Y4 Lu4 B24 Ru4'
_cell_volume   375.97460545
_cell_formula_units_Z   4
loop_
 _symmetry_equiv_pos_site_id
 _symmetry_equiv_pos_as_xyz
  1  'x, y, z'
loop_
 _atom_site_type_symbol
 _atom_site_label
 _atom_site_symmetry_multiplicity
 _atom_site_fract_x
 _atom_site_fract_y
 _atom_site_fract_z
 _atom_site_occupancy
  Y  Y0  1  0.000000  0.321312  0.414248  1
  Y  Y1  1  0.000000  0.678688  0.585752  1
  Y  Y2  1  0.000000  0.821312  0.085752  1
  Y  Y3  1  0.000000  0.178688  0.914248  1
  Lu  Lu4  1  0.000000  0.943834  0.372597  1
  Lu  Lu5  1  0.000000  0.056166  0.627403  1
  Lu  Lu6  1  0.000000  0.443834  0.127403  1
  Lu  Lu7  1  0.000000  0.556166  0.872597  1
  B  B8  1  0.500000  0.554574  0.432713  1
  B  B9  1  0.500000  0.445426  0.567287  1
  B  B10  1  0.500000  0.054574  0.067287  1
  B  B11  1  0.500000  0.945426  0.932713  1
  B  B12  1  0.500000  0.749990  0.419078  1
  B  B13  1  0.500000  0.250010  0.580922  1
  B  B14  1  0.500000  0.249990  0.080922  1
  B  B15  1  0.500000  0.750010  0.919078  1
  B  B16  1  0.500000  0.791839  0.265911  1
  B  B17  1  0.500000  0.208161  0.734089  1
  B  B18  1  0.500000  0.291839  0.234089  1
  B  B19  1  0.500000  0.708161  0.765911  1
  B  B20  1  0.500000  0.630438  0.184262  1
  B  B21  1  0.500000  0.369562  0.815738  1
  B  B22  1  0.500000  0.130438  0.315738  1
  B  B23  1  0.500000  0.869562  0.684262  1
  B  B24  1  0.500000  0.982784  0.213666  1
  B  B25  1  0.500000  0.017216  0.786334  1
  B  B26  1  0.500000  0.482784  0.286334  1
  B  B27  1  0.500000  0.517216  0.713666  1
  B  B28  1  0.500000  0.603544  0.028435  1
  B  B29  1  0.500000  0.396456  0.971565  1
  B  B30  1  0.500000  0.103544  0.471565  1
  B  B31  1  0.500000  0.896456  0.528435  1
  Ru  Ru32  1  0.000000  0.638506  0.319928  1
  Ru  Ru33  1  0.000000  0.361494  0.680072  1
  Ru  Ru34  1  0.000000  0.138506  0.180072  1
  Ru  Ru35  1  0.000000  0.861494  0.819928  1
