# generated using pymatgen
data_Lu6Al24Ru7Rh
_symmetry_space_group_name_H-M   'P 1'
_cell_length_a   8.73880408
_cell_length_b   8.76085890
_cell_length_c   9.54460901
_cell_angle_alpha   89.99999973
_cell_angle_beta   89.85668511
_cell_angle_gamma   120.08352738
_symmetry_Int_Tables_number   1
_chemical_formula_structural   Lu6Al24Ru7Rh
_chemical_formula_sum   'Lu6 Al24 Ru7 Rh1'
_cell_volume   632.29463469
_cell_formula_units_Z   1
loop_
 _symmetry_equiv_pos_site_id
 _symmetry_equiv_pos_as_xyz
  1  'x, y, z'
loop_
 _atom_site_type_symbol
 _atom_site_label
 _atom_site_symmetry_multiplicity
 _atom_site_fract_x
 _atom_site_fract_y
 _atom_site_fract_z
 _atom_site_occupancy
  Lu  Lu0  1  0.803921  0.192342  0.748671  1
  Lu  Lu1  1  0.196079  0.807658  0.251329  1
  Lu  Lu2  1  0.389713  0.194856  0.749550  1
  Lu  Lu3  1  0.610287  0.805144  0.250450  1
  Lu  Lu4  1  0.803921  0.611580  0.748671  1
  Lu  Lu5  1  0.196079  0.388420  0.251329  1
  Al  Al6  1  0.665409  0.332704  0.978894  1
  Al  Al7  1  0.334591  0.667296  0.021106  1
  Al  Al8  1  0.333112  0.666556  0.479753  1
  Al  Al9  1  0.666888  0.333444  0.520247  1
  Al  Al10  1  0.837969  0.163305  0.421652  1
  Al  Al11  1  0.162031  0.836695  0.578348  1
  Al  Al12  1  0.326153  0.163076  0.422229  1
  Al  Al13  1  0.163541  0.838718  0.921532  1
  Al  Al14  1  0.673847  0.836924  0.577771  1
  Al  Al15  1  0.836459  0.161282  0.078468  1
  Al  Al16  1  0.837969  0.674664  0.421652  1
  Al  Al17  1  0.674593  0.837296  0.921854  1
  Al  Al18  1  0.162031  0.325336  0.578348  1
  Al  Al19  1  0.325407  0.162704  0.078146  1
  Al  Al20  1  0.163541  0.324823  0.921532  1
  Al  Al21  1  0.836459  0.675177  0.078468  1
  Al  Al22  1  0.437893  0.560712  0.750215  1
  Al  Al23  1  0.562107  0.439288  0.249785  1
  Al  Al24  1  0.121745  0.560873  0.749408  1
  Al  Al25  1  0.878255  0.439127  0.250592  1
  Al  Al26  1  0.437893  0.877182  0.750215  1
  Al  Al27  1  0.562107  0.122818  0.249785  1
  Al  Al28  1  0.999784  0.999892  0.749975  1
  Al  Al29  1  0.000216  0.000108  0.250025  1
  Ru  Ru30  1  0.500000  0.500000  0.000000  1
  Ru  Ru31  1  0.500000  0.500000  0.500000  1
  Ru  Ru32  1  0.500000  0.000000  0.000000  1
  Ru  Ru33  1  0.000000  0.500000  0.500000  1
  Ru  Ru34  1  0.500000  0.000000  0.500000  1
  Ru  Ru35  1  0.000000  0.000000  0.000000  1
  Ru  Ru36  1  0.000000  0.000000  0.500000  1
  Rh  Rh37  1  0.000000  0.500000  0.000000  1
