# generated using pymatgen
data_Rb2CeGdB24
_symmetry_space_group_name_H-M   'P 1'
_cell_length_a   4.18006500
_cell_length_b   4.18006500
_cell_length_c   16.78278600
_cell_angle_alpha   90.00000000
_cell_angle_beta   90.00000000
_cell_angle_gamma   90.00000000
_symmetry_Int_Tables_number   1
_chemical_formula_structural   Rb2CeGdB24
_chemical_formula_sum   'Rb2 Ce1 Gd1 B24'
_cell_volume   293.24466994
_cell_formula_units_Z   1
loop_
 _symmetry_equiv_pos_site_id
 _symmetry_equiv_pos_as_xyz
  1  'x, y, z'
loop_
 _atom_site_type_symbol
 _atom_site_label
 _atom_site_symmetry_multiplicity
 _atom_site_fract_x
 _atom_site_fract_y
 _atom_site_fract_z
 _atom_site_occupancy
  Rb  Rb0  1  0.000000  0.000000  0.249079  1
  Rb  Rb1  1  0.000000  0.000000  0.750921  1
  Ce  Ce2  1  0.000000  0.000000  0.500000  1
  Gd  Gd3  1  0.000000  0.000000  0.000000  1
  B  B4  1  0.202047  0.500000  0.121455  1
  B  B5  1  0.202113  0.500000  0.377755  1
  B  B6  1  0.202113  0.500000  0.622245  1
  B  B7  1  0.202047  0.500000  0.878545  1
  B  B8  1  0.500000  0.500000  0.197226  1
  B  B9  1  0.500000  0.500000  0.451032  1
  B  B10  1  0.500000  0.500000  0.698235  1
  B  B11  1  0.500000  0.500000  0.951220  1
  B  B12  1  0.500000  0.202047  0.121455  1
  B  B13  1  0.500000  0.202113  0.377755  1
  B  B14  1  0.500000  0.202113  0.622245  1
  B  B15  1  0.500000  0.202047  0.878545  1
  B  B16  1  0.500000  0.500000  0.048780  1
  B  B17  1  0.500000  0.500000  0.301765  1
  B  B18  1  0.500000  0.500000  0.548968  1
  B  B19  1  0.500000  0.500000  0.802774  1
  B  B20  1  0.500000  0.797953  0.121455  1
  B  B21  1  0.500000  0.797887  0.377755  1
  B  B22  1  0.500000  0.797887  0.622245  1
  B  B23  1  0.500000  0.797953  0.878545  1
  B  B24  1  0.797953  0.500000  0.121455  1
  B  B25  1  0.797887  0.500000  0.377755  1
  B  B26  1  0.797887  0.500000  0.622245  1
  B  B27  1  0.797953  0.500000  0.878545  1
