# generated using pymatgen
data_Np4TcB16Ir3
_symmetry_space_group_name_H-M   'P 1'
_cell_length_a   3.51669800
_cell_length_b   6.01947519
_cell_length_c   11.67309630
_cell_angle_alpha   89.92798965
_cell_angle_beta   90.00000000
_cell_angle_gamma   90.00000000
_symmetry_Int_Tables_number   1
_chemical_formula_structural   Np4TcB16Ir3
_chemical_formula_sum   'Np4 Tc1 B16 Ir3'
_cell_volume   247.10380259
_cell_formula_units_Z   1
loop_
 _symmetry_equiv_pos_site_id
 _symmetry_equiv_pos_as_xyz
  1  'x, y, z'
loop_
 _atom_site_type_symbol
 _atom_site_label
 _atom_site_symmetry_multiplicity
 _atom_site_fract_x
 _atom_site_fract_y
 _atom_site_fract_z
 _atom_site_occupancy
  Np  Np0  1  0.000000  0.629322  0.351398  1
  Np  Np1  1  0.000000  0.373450  0.649005  1
  Np  Np2  1  0.000000  0.128400  0.149298  1
  Np  Np3  1  0.000000  0.871359  0.848539  1
  Tc  Tc4  1  0.000000  0.863275  0.591396  1
  B  B5  1  0.500000  0.789133  0.188670  1
  B  B6  1  0.500000  0.211591  0.811426  1
  B  B7  1  0.500000  0.288982  0.311722  1
  B  B8  1  0.500000  0.711832  0.687744  1
  B  B9  1  0.500000  0.866343  0.031271  1
  B  B10  1  0.500000  0.133528  0.968168  1
  B  B11  1  0.500000  0.365771  0.469272  1
  B  B12  1  0.500000  0.633039  0.532363  1
  B  B13  1  0.500000  0.882986  0.454833  1
  B  B14  1  0.500000  0.113437  0.548429  1
  B  B15  1  0.500000  0.384500  0.047069  1
  B  B16  1  0.500000  0.615797  0.952399  1
  B  B17  1  0.500000  0.969333  0.308088  1
  B  B18  1  0.500000  0.027863  0.692592  1
  B  B19  1  0.500000  0.471548  0.192672  1
  B  B20  1  0.500000  0.527203  0.807410  1
  Ir  Ir21  1  0.000000  0.640246  0.094007  1
  Ir  Ir22  1  0.000000  0.360448  0.906099  1
  Ir  Ir23  1  0.000000  0.140615  0.406127  1
