# generated using pymatgen
data_TbDy19(Ir2Os)4
_symmetry_space_group_name_H-M   'P 1'
_cell_length_a   10.84810510
_cell_length_b   10.88735488
_cell_length_c   6.43231000
_cell_angle_alpha   90.03181241
_cell_angle_beta   89.91094624
_cell_angle_gamma   89.74460763
_symmetry_Int_Tables_number   1
_chemical_formula_structural   TbDy19(Ir2Os)4
_chemical_formula_sum   'Tb1 Dy19 Ir8 Os4'
_cell_volume   759.69334602
_cell_formula_units_Z   1
loop_
 _symmetry_equiv_pos_site_id
 _symmetry_equiv_pos_as_xyz
  1  'x, y, z'
loop_
 _atom_site_type_symbol
 _atom_site_label
 _atom_site_symmetry_multiplicity
 _atom_site_fract_x
 _atom_site_fract_y
 _atom_site_fract_z
 _atom_site_occupancy
  Tb  Tb0  1  0.294303  0.086768  0.378598  1
  Dy  Dy1  1  0.293416  0.913128  0.877798  1
  Dy  Dy2  1  0.705473  0.086071  0.878873  1
  Dy  Dy3  1  0.705880  0.913280  0.378288  1
  Dy  Dy4  1  0.586061  0.794254  0.879098  1
  Dy  Dy5  1  0.588392  0.206560  0.378954  1
  Dy  Dy6  1  0.413998  0.792418  0.378174  1
  Dy  Dy7  1  0.413515  0.206484  0.878399  1
  Dy  Dy8  1  0.206180  0.414044  0.621510  1
  Dy  Dy9  1  0.205724  0.586075  0.122022  1
  Dy  Dy10  1  0.794051  0.414231  0.121390  1
  Dy  Dy11  1  0.793503  0.586962  0.622234  1
  Dy  Dy12  1  0.913570  0.706606  0.121540  1
  Dy  Dy13  1  0.913585  0.293633  0.620994  1
  Dy  Dy14  1  0.086181  0.706121  0.621119  1
  Dy  Dy15  1  0.086901  0.293603  0.120337  1
  Dy  Dy16  1  0.999544  0.999708  0.499489  1
  Dy  Dy17  1  0.000011  0.000153  0.999434  1
  Dy  Dy18  1  0.499715  0.500032  0.000678  1
  Dy  Dy19  1  0.500613  0.499645  0.500920  1
  Ir  Ir20  1  0.848234  0.152341  0.248787  1
  Ir  Ir21  1  0.847738  0.848467  0.751003  1
  Ir  Ir22  1  0.151640  0.151680  0.748398  1
  Ir  Ir23  1  0.151994  0.847898  0.250613  1
  Ir  Ir24  1  0.652363  0.348227  0.750751  1
  Ir  Ir25  1  0.651574  0.651999  0.249801  1
  Ir  Ir26  1  0.348612  0.348216  0.251137  1
  Ir  Ir27  1  0.348150  0.651545  0.750632  1
  Os  Os28  1  0.499393  0.000091  0.124570  1
  Os  Os29  1  0.500006  0.999887  0.623864  1
  Os  Os30  1  0.999820  0.499890  0.875240  1
  Os  Os31  1  0.999860  0.499980  0.375350  1
