# generated using pymatgen
data_Hf10Nb2(Ga3Sb)3
_symmetry_space_group_name_H-M   'P 1'
_cell_length_a   5.63304303
_cell_length_b   8.65961182
_cell_length_c   9.30710994
_cell_angle_alpha   89.73978322
_cell_angle_beta   90.12631644
_cell_angle_gamma   90.05398601
_symmetry_Int_Tables_number   1
_chemical_formula_structural   Hf10Nb2(Ga3Sb)3
_chemical_formula_sum   'Hf10 Nb2 Ga9 Sb3'
_cell_volume   453.99452396
_cell_formula_units_Z   1
loop_
 _symmetry_equiv_pos_site_id
 _symmetry_equiv_pos_as_xyz
  1  'x, y, z'
loop_
 _atom_site_type_symbol
 _atom_site_label
 _atom_site_symmetry_multiplicity
 _atom_site_fract_x
 _atom_site_fract_y
 _atom_site_fract_z
 _atom_site_occupancy
  Hf  Hf0  1  0.003761  0.253520  0.883629  1
  Hf  Hf1  1  0.496934  0.744988  0.119736  1
  Hf  Hf2  1  0.752108  0.469937  0.612799  1
  Hf  Hf3  1  0.252667  0.528922  0.376787  1
  Hf  Hf4  1  0.747026  0.968938  0.390427  1
  Hf  Hf5  1  0.247852  0.030660  0.611145  1
  Hf  Hf6  1  0.749206  0.378962  0.196053  1
  Hf  Hf7  1  0.248287  0.616958  0.809985  1
  Hf  Hf8  1  0.750626  0.875404  0.804376  1
  Hf  Hf9  1  0.250744  0.133499  0.191560  1
  Nb  Nb10  1  0.002233  0.746650  0.116029  1
  Nb  Nb11  1  0.497407  0.252674  0.886036  1
  Ga  Ga12  1  0.004009  0.747725  0.572797  1
  Ga  Ga13  1  0.500736  0.250343  0.427658  1
  Ga  Ga14  1  0.999526  0.250458  0.427892  1
  Ga  Ga15  1  0.495241  0.747537  0.572348  1
  Ga  Ga16  1  0.249182  0.449136  0.083212  1
  Ga  Ga17  1  0.745636  0.141064  0.648685  1
  Ga  Ga18  1  0.245480  0.864303  0.351195  1
  Ga  Ga19  1  0.755398  0.639707  0.354170  1
  Ga  Ga20  1  0.254221  0.361517  0.644466  1
  Sb  Sb21  1  0.751561  0.051858  0.086906  1
  Sb  Sb22  1  0.251691  0.946972  0.913683  1
  Sb  Sb23  1  0.748467  0.548269  0.918425  1
