# generated using pymatgen
data_Nd11Cd9GaPd3
_symmetry_space_group_name_H-M   'P 1'
_cell_length_a   13.53853800
_cell_length_b   13.54067169
_cell_length_c   3.77305700
_cell_angle_alpha   90.00000000
_cell_angle_beta   90.00000000
_cell_angle_gamma   112.52684737
_symmetry_Int_Tables_number   1
_chemical_formula_structural   Nd11Cd9GaPd3
_chemical_formula_sum   'Nd11 Cd9 Ga1 Pd3'
_cell_volume   638.90507883
_cell_formula_units_Z   1
loop_
 _symmetry_equiv_pos_site_id
 _symmetry_equiv_pos_as_xyz
  1  'x, y, z'
loop_
 _atom_site_type_symbol
 _atom_site_label
 _atom_site_symmetry_multiplicity
 _atom_site_fract_x
 _atom_site_fract_y
 _atom_site_fract_z
 _atom_site_occupancy
  Nd  Nd0  1  0.073798  0.417959  0.000000  1
  Nd  Nd1  1  0.925976  0.582854  0.000000  1
  Nd  Nd2  1  0.416975  0.072075  0.000000  1
  Nd  Nd3  1  0.581728  0.931270  0.000000  1
  Nd  Nd4  1  0.626707  0.372361  0.000000  1
  Nd  Nd5  1  0.364873  0.625384  0.000000  1
  Nd  Nd6  1  0.837170  0.162195  0.000000  1
  Nd  Nd7  1  0.166067  0.838721  0.000000  1
  Nd  Nd8  1  0.998281  0.000249  0.000000  1
  Nd  Nd9  1  0.306504  0.305042  0.000000  1
  Nd  Nd10  1  0.699806  0.693416  0.000000  1
  Cd  Cd11  1  0.839340  0.365851  0.500000  1
  Cd  Cd12  1  0.161730  0.634164  0.500000  1
  Cd  Cd13  1  0.366186  0.837893  0.500000  1
  Cd  Cd14  1  0.635406  0.162641  0.500000  1
  Cd  Cd15  1  0.073305  0.216690  0.500000  1
  Cd  Cd16  1  0.927732  0.786312  0.500000  1
  Cd  Cd17  1  0.215069  0.071300  0.500000  1
  Cd  Cd18  1  0.781996  0.926466  0.500000  1
  Cd  Cd19  1  0.498093  0.501121  0.500000  1
  Ga  Ga20  1  0.552240  0.749590  0.500000  1
  Pd  Pd21  1  0.249084  0.448633  0.500000  1
  Pd  Pd22  1  0.750871  0.548064  0.500000  1
  Pd  Pd23  1  0.451065  0.249746  0.500000  1
