# generated using pymatgen
data_Ta8V2Ga3Ge3B2
_symmetry_space_group_name_H-M   'P 1'
_cell_length_a   7.71530500
_cell_length_b   7.71530377
_cell_length_c   5.22152600
_cell_angle_alpha   90.00000000
_cell_angle_beta   90.00000000
_cell_angle_gamma   120.00000097
_symmetry_Int_Tables_number   1
_chemical_formula_structural   Ta8V2Ga3Ge3B2
_chemical_formula_sum   'Ta8 V2 Ga3 Ge3 B2'
_cell_volume   269.17467764
_cell_formula_units_Z   1
loop_
 _symmetry_equiv_pos_site_id
 _symmetry_equiv_pos_as_xyz
  1  'x, y, z'
loop_
 _atom_site_type_symbol
 _atom_site_label
 _atom_site_symmetry_multiplicity
 _atom_site_fract_x
 _atom_site_fract_y
 _atom_site_fract_z
 _atom_site_occupancy
  Ta  Ta0  1  0.333333  0.666667  0.001771  1
  Ta  Ta1  1  0.666667  0.333333  0.001771  1
  Ta  Ta2  1  0.754596  0.754596  0.246800  1
  Ta  Ta3  1  0.245404  0.000000  0.246800  1
  Ta  Ta4  1  0.000000  0.245404  0.246800  1
  Ta  Ta5  1  0.241512  0.241512  0.753366  1
  Ta  Ta6  1  0.758488  0.000000  0.753366  1
  Ta  Ta7  1  0.000000  0.758488  0.753366  1
  V  V8  1  0.666667  0.333333  0.498917  1
  V  V9  1  0.333333  0.666667  0.498917  1
  Ga  Ga10  1  0.402742  0.402742  0.262664  1
  Ga  Ga11  1  0.597258  0.000000  0.262664  1
  Ga  Ga12  1  0.000000  0.597258  0.262664  1
  Ge  Ge13  1  0.593728  0.593728  0.736753  1
  Ge  Ge14  1  0.406272  0.000000  0.736753  1
  Ge  Ge15  1  0.000000  0.406272  0.736753  1
  B  B16  1  0.000000  0.000000  0.496143  1
  B  B17  1  0.000000  0.000000  0.003729  1
