# generated using pymatgen
data_NaLa2SbO6
_symmetry_space_group_name_H-M   'P 1'
_cell_length_a   5.99333200
_cell_length_b   5.75101634
_cell_length_c   10.11714218
_cell_angle_alpha   54.97535773
_cell_angle_beta   90.00000000
_cell_angle_gamma   90.00000000
_symmetry_Int_Tables_number   1
_chemical_formula_structural   NaLa2SbO6
_chemical_formula_sum   'Na2 La4 Sb2 O12'
_cell_volume   285.56466131
_cell_formula_units_Z   2
loop_
 _symmetry_equiv_pos_site_id
 _symmetry_equiv_pos_as_xyz
  1  'x, y, z'
loop_
 _atom_site_type_symbol
 _atom_site_label
 _atom_site_symmetry_multiplicity
 _atom_site_fract_x
 _atom_site_fract_y
 _atom_site_fract_z
 _atom_site_occupancy
  Na  Na0  1  0.000000  0.500000  0.500000  1
  Na  Na1  1  0.500000  0.500000  0.000000  1
  La  La2  1  0.443845  0.233820  0.748923  1
  La  La3  1  0.556155  0.766180  0.251077  1
  La  La4  1  0.943845  0.766180  0.751077  1
  La  La5  1  0.056155  0.233820  0.248923  1
  Sb  Sb6  1  0.000000  0.000000  0.000000  1
  Sb  Sb7  1  0.500000  0.000000  0.500000  1
  O  O8  1  0.719577  0.898683  0.931198  1
  O  O9  1  0.280423  0.101317  0.068802  1
  O  O10  1  0.219577  0.101317  0.568802  1
  O  O11  1  0.780423  0.898683  0.431198  1
  O  O12  1  0.050454  0.346342  0.772707  1
  O  O13  1  0.949546  0.653658  0.227293  1
  O  O14  1  0.550454  0.653658  0.727293  1
  O  O15  1  0.449546  0.346342  0.272707  1
  O  O16  1  0.178920  0.773287  0.943492  1
  O  O17  1  0.821080  0.226713  0.056508  1
  O  O18  1  0.678920  0.226713  0.556508  1
  O  O19  1  0.321080  0.773287  0.443492  1
