# generated using pymatgen
data_Zr3Nb2Sn3C
_symmetry_space_group_name_H-M   'P 1'
_cell_length_a   8.37798600
_cell_length_b   8.37798539
_cell_length_c   5.69416400
_cell_angle_alpha   90.00000000
_cell_angle_beta   90.00000000
_cell_angle_gamma   120.00000242
_symmetry_Int_Tables_number   1
_chemical_formula_structural   Zr3Nb2Sn3C
_chemical_formula_sum   'Zr6 Nb4 Sn6 C2'
_cell_volume   346.13046130
_cell_formula_units_Z   2
loop_
 _symmetry_equiv_pos_site_id
 _symmetry_equiv_pos_as_xyz
  1  'x, y, z'
loop_
 _atom_site_type_symbol
 _atom_site_label
 _atom_site_symmetry_multiplicity
 _atom_site_fract_x
 _atom_site_fract_y
 _atom_site_fract_z
 _atom_site_occupancy
  Zr  Zr0  1  0.223456  0.000000  0.750000  1
  Zr  Zr1  1  0.776544  0.000000  0.250000  1
  Zr  Zr2  1  0.000000  0.223456  0.750000  1
  Zr  Zr3  1  0.000000  0.776544  0.250000  1
  Zr  Zr4  1  0.776544  0.776544  0.750000  1
  Zr  Zr5  1  0.223456  0.223456  0.250000  1
  Nb  Nb6  1  0.333333  0.666667  0.500000  1
  Nb  Nb7  1  0.666667  0.333333  0.500000  1
  Nb  Nb8  1  0.666667  0.333333  0.000000  1
  Nb  Nb9  1  0.333333  0.666667  0.000000  1
  Sn  Sn10  1  0.592181  0.000000  0.750000  1
  Sn  Sn11  1  0.407819  0.000000  0.250000  1
  Sn  Sn12  1  0.000000  0.592181  0.750000  1
  Sn  Sn13  1  0.000000  0.407819  0.250000  1
  Sn  Sn14  1  0.407819  0.407819  0.750000  1
  Sn  Sn15  1  0.592181  0.592181  0.250000  1
  C  C16  1  0.000000  0.000000  0.500000  1
  C  C17  1  0.000000  0.000000  0.000000  1
