# generated using pymatgen
data_TbEr5C2Br7
_symmetry_space_group_name_H-M   'P 1'
_cell_length_a   10.44679454
_cell_length_b   10.44679448
_cell_length_c   12.18721632
_cell_angle_alpha   57.51640206
_cell_angle_beta   57.51640308
_cell_angle_gamma   20.86909159
_symmetry_Int_Tables_number   1
_chemical_formula_structural   TbEr5C2Br7
_chemical_formula_sum   'Tb1 Er5 C2 Br7'
_cell_volume   396.92507477
_cell_formula_units_Z   1
loop_
 _symmetry_equiv_pos_site_id
 _symmetry_equiv_pos_as_xyz
  1  'x, y, z'
loop_
 _atom_site_type_symbol
 _atom_site_label
 _atom_site_symmetry_multiplicity
 _atom_site_fract_x
 _atom_site_fract_y
 _atom_site_fract_z
 _atom_site_occupancy
  Tb  Tb0  1  0.234485  0.234485  0.821863  1
  Er  Er1  1  0.311702  0.311702  0.369787  1
  Er  Er2  1  0.130611  0.130611  0.448934  1
  Er  Er3  1  0.868933  0.868933  0.551317  1
  Er  Er4  1  0.688759  0.688759  0.630104  1
  Er  Er5  1  0.765093  0.765093  0.180982  1
  C  C6  1  0.281687  0.281687  0.597308  1
  C  C7  1  0.718611  0.718611  0.400641  1
  Br  Br8  1  0.161931  0.161931  0.178972  1
  Br  Br9  1  0.840712  0.840712  0.819950  1
  Br  Br10  1  0.059388  0.059388  0.717420  1
  Br  Br11  1  0.940763  0.940763  0.281872  1
  Br  Br12  1  0.500245  0.500245  0.499649  1
  Br  Br13  1  0.384486  0.384486  0.077557  1
  Br  Br14  1  0.612596  0.612596  0.923642  1
