# generated using pymatgen
data_Tb3TmThIr3
_symmetry_space_group_name_H-M   'P 1'
_cell_length_a   11.12320200
_cell_length_b   10.97522100
_cell_length_c   6.33741400
_cell_angle_alpha   90.00000000
_cell_angle_beta   90.00000000
_cell_angle_gamma   90.00000000
_symmetry_Int_Tables_number   1
_chemical_formula_structural   Tb3TmThIr3
_chemical_formula_sum   'Tb12 Tm4 Th4 Ir12'
_cell_volume   773.66896728
_cell_formula_units_Z   4
loop_
 _symmetry_equiv_pos_site_id
 _symmetry_equiv_pos_as_xyz
  1  'x, y, z'
loop_
 _atom_site_type_symbol
 _atom_site_label
 _atom_site_symmetry_multiplicity
 _atom_site_fract_x
 _atom_site_fract_y
 _atom_site_fract_z
 _atom_site_occupancy
  Tb  Tb0  1  0.588419  0.784008  0.878311  1
  Tb  Tb1  1  0.588419  0.215992  0.378311  1
  Tb  Tb2  1  0.411581  0.784008  0.378311  1
  Tb  Tb3  1  0.411581  0.215992  0.878311  1
  Tb  Tb4  1  0.208405  0.413442  0.620426  1
  Tb  Tb5  1  0.208405  0.586558  0.120426  1
  Tb  Tb6  1  0.791595  0.413442  0.120426  1
  Tb  Tb7  1  0.791595  0.586558  0.620426  1
  Tb  Tb8  1  0.914765  0.707965  0.117037  1
  Tb  Tb9  1  0.914765  0.292035  0.617037  1
  Tb  Tb10  1  0.085235  0.707965  0.617037  1
  Tb  Tb11  1  0.085235  0.292035  0.117037  1
  Tm  Tm12  1  0.000000  0.000000  0.499644  1
  Tm  Tm13  1  0.000000  0.000000  0.999644  1
  Tm  Tm14  1  0.500000  0.500000  0.010766  1
  Tm  Tm15  1  0.500000  0.500000  0.510766  1
  Th  Th16  1  0.291583  0.093318  0.378735  1
  Th  Th17  1  0.291583  0.906682  0.878735  1
  Th  Th18  1  0.708417  0.093318  0.878735  1
  Th  Th19  1  0.708417  0.906682  0.378735  1
  Ir  Ir20  1  0.845900  0.148850  0.245857  1
  Ir  Ir21  1  0.845900  0.851150  0.745857  1
  Ir  Ir22  1  0.154100  0.148850  0.745857  1
  Ir  Ir23  1  0.154100  0.851150  0.245857  1
  Ir  Ir24  1  0.651834  0.347452  0.757814  1
  Ir  Ir25  1  0.651834  0.652548  0.257814  1
  Ir  Ir26  1  0.348166  0.347452  0.257814  1
  Ir  Ir27  1  0.348166  0.652548  0.757814  1
  Ir  Ir28  1  0.500000  0.000000  0.116877  1
  Ir  Ir29  1  0.500000  0.000000  0.616877  1
  Ir  Ir30  1  0.000000  0.500000  0.876351  1
  Ir  Ir31  1  0.000000  0.500000  0.376351  1
