# generated using pymatgen
data_Tl6Sn2Se7
_symmetry_space_group_name_H-M   'P 1'
_cell_length_a   10.06398800
_cell_length_b   13.63619600
_cell_length_c   15.00479700
_cell_angle_alpha   90.00000000
_cell_angle_beta   90.00000000
_cell_angle_gamma   90.00000000
_symmetry_Int_Tables_number   1
_chemical_formula_structural   Tl6Sn2Se7
_chemical_formula_sum   'Tl24 Sn8 Se28'
_cell_volume   2059.17600760
_cell_formula_units_Z   4
loop_
 _symmetry_equiv_pos_site_id
 _symmetry_equiv_pos_as_xyz
  1  'x, y, z'
loop_
 _atom_site_type_symbol
 _atom_site_label
 _atom_site_symmetry_multiplicity
 _atom_site_fract_x
 _atom_site_fract_y
 _atom_site_fract_z
 _atom_site_occupancy
  Tl  Tl0  1  0.978562  0.842101  0.187775  1
  Tl  Tl1  1  0.521438  0.157899  0.687775  1
  Tl  Tl2  1  0.021438  0.342101  0.312225  1
  Tl  Tl3  1  0.478562  0.657899  0.812225  1
  Tl  Tl4  1  0.726622  0.858176  0.938340  1
  Tl  Tl5  1  0.773378  0.141824  0.438340  1
  Tl  Tl6  1  0.273378  0.358176  0.561660  1
  Tl  Tl7  1  0.226622  0.641824  0.061660  1
  Tl  Tl8  1  0.741639  0.899670  0.628085  1
  Tl  Tl9  1  0.758361  0.100330  0.128085  1
  Tl  Tl10  1  0.258361  0.399670  0.871915  1
  Tl  Tl11  1  0.241639  0.600330  0.371915  1
  Tl  Tl12  1  0.558738  0.823374  0.390004  1
  Tl  Tl13  1  0.941262  0.176626  0.890004  1
  Tl  Tl14  1  0.441262  0.323374  0.109996  1
  Tl  Tl15  1  0.058738  0.676626  0.609996  1
  Tl  Tl16  1  0.654848  0.653574  0.138695  1
  Tl  Tl17  1  0.845152  0.346426  0.638695  1
  Tl  Tl18  1  0.345152  0.153574  0.361305  1
  Tl  Tl19  1  0.154848  0.846426  0.861305  1
  Tl  Tl20  1  0.640450  0.572202  0.592765  1
  Tl  Tl21  1  0.859550  0.427798  0.092765  1
  Tl  Tl22  1  0.359550  0.072202  0.907235  1
  Tl  Tl23  1  0.140450  0.927798  0.407235  1
  Sn  Sn24  1  0.921479  0.609308  0.859868  1
  Sn  Sn25  1  0.578521  0.390692  0.359868  1
  Sn  Sn26  1  0.078521  0.109308  0.640132  1
  Sn  Sn27  1  0.421479  0.890692  0.140132  1
  Sn  Sn28  1  0.878059  0.611694  0.380427  1
  Sn  Sn29  1  0.621941  0.388306  0.880427  1
  Sn  Sn30  1  0.121941  0.111694  0.119573  1
  Sn  Sn31  1  0.378059  0.888306  0.619573  1
  Se  Se32  1  0.621489  0.580279  0.360667  1
  Se  Se33  1  0.878511  0.419721  0.860667  1
  Se  Se34  1  0.378511  0.080279  0.139333  1
  Se  Se35  1  0.121489  0.919721  0.639333  1
  Se  Se36  1  0.984604  0.590008  0.228837  1
  Se  Se37  1  0.515396  0.409992  0.728837  1
  Se  Se38  1  0.015396  0.090008  0.271163  1
  Se  Se39  1  0.484604  0.909992  0.771163  1
  Se  Se40  1  0.513270  0.510885  0.987490  1
  Se  Se41  1  0.986730  0.489115  0.487490  1
  Se  Se42  1  0.486730  0.010885  0.512510  1
  Se  Se43  1  0.013270  0.989115  0.012510  1
  Se  Se44  1  0.666632  0.888344  0.182273  1
  Se  Se45  1  0.833368  0.111656  0.682273  1
  Se  Se46  1  0.333368  0.388344  0.317727  1
  Se  Se47  1  0.166632  0.611656  0.817727  1
  Se  Se48  1  0.775224  0.706944  0.754635  1
  Se  Se49  1  0.724776  0.293056  0.254635  1
  Se  Se50  1  0.224776  0.206944  0.745365  1
  Se  Se51  1  0.275224  0.793056  0.245365  1
  Se  Se52  1  0.909495  0.687678  0.013806  1
  Se  Se53  1  0.590505  0.312322  0.513806  1
  Se  Se54  1  0.090505  0.187678  0.486194  1
  Se  Se55  1  0.409495  0.812322  0.986194  1
  Se  Se56  1  0.887060  0.787148  0.438693  1
  Se  Se57  1  0.612940  0.212852  0.938693  1
  Se  Se58  1  0.112940  0.287148  0.061307  1
  Se  Se59  1  0.387060  0.712852  0.561307  1
