# generated using pymatgen
data_Dy12InFe2Co2Au
_symmetry_space_group_name_H-M   'P 1'
_cell_length_a   8.35969781
_cell_length_b   8.35969875
_cell_length_c   8.35969846
_cell_angle_alpha   110.77903185
_cell_angle_beta   110.02672028
_cell_angle_gamma   107.62446187
_symmetry_Int_Tables_number   1
_chemical_formula_structural   Dy12InFe2Co2Au
_chemical_formula_sum   'Dy12 In1 Fe2 Co2 Au1'
_cell_volume   449.35893305
_cell_formula_units_Z   1
loop_
 _symmetry_equiv_pos_site_id
 _symmetry_equiv_pos_as_xyz
  1  'x, y, z'
loop_
 _atom_site_type_symbol
 _atom_site_label
 _atom_site_symmetry_multiplicity
 _atom_site_fract_x
 _atom_site_fract_y
 _atom_site_fract_z
 _atom_site_occupancy
  Dy  Dy0  1  0.186050  0.292940  0.478991  1
  Dy  Dy1  1  0.813950  0.707060  0.521009  1
  Dy  Dy2  1  0.186050  0.707060  0.893110  1
  Dy  Dy3  1  0.813950  0.292940  0.106890  1
  Dy  Dy4  1  0.314578  0.617458  0.302881  1
  Dy  Dy5  1  0.685422  0.382542  0.697119  1
  Dy  Dy6  1  0.314578  0.011697  0.697119  1
  Dy  Dy7  1  0.685422  0.988303  0.302881  1
  Dy  Dy8  1  0.425396  0.219203  0.206194  1
  Dy  Dy9  1  0.574604  0.780797  0.793806  1
  Dy  Dy10  1  0.013009  0.219203  0.793806  1
  Dy  Dy11  1  0.986991  0.780797  0.206194  1
  In  In12  1  0.500000  0.500000  0.000000  1
  Fe  Fe13  1  0.108129  0.608129  0.500000  1
  Fe  Fe14  1  0.891871  0.391871  0.500000  1
  Co  Co15  1  0.382690  0.000000  0.382690  1
  Co  Co16  1  0.617310  0.000000  0.617310  1
  Au  Au17  1  0.000000  0.000000  0.000000  1
