# generated using pymatgen
data_Tb6Fe3Co15P13Pt2
_symmetry_space_group_name_H-M   'P 1'
_cell_length_a   12.81443100
_cell_length_b   12.81443144
_cell_length_c   3.76903600
_cell_angle_alpha   90.00000000
_cell_angle_beta   90.00000000
_cell_angle_gamma   120.00000145
_symmetry_Int_Tables_number   1
_chemical_formula_structural   Tb6Fe3Co15P13Pt2
_chemical_formula_sum   'Tb6 Fe3 Co15 P13 Pt2'
_cell_volume   535.99357005
_cell_formula_units_Z   1
loop_
 _symmetry_equiv_pos_site_id
 _symmetry_equiv_pos_as_xyz
  1  'x, y, z'
loop_
 _atom_site_type_symbol
 _atom_site_label
 _atom_site_symmetry_multiplicity
 _atom_site_fract_x
 _atom_site_fract_y
 _atom_site_fract_z
 _atom_site_occupancy
  Tb  Tb0  1  0.461956  0.182166  0.000000  1
  Tb  Tb1  1  0.720212  0.538044  0.000000  1
  Tb  Tb2  1  0.817834  0.279788  0.000000  1
  Tb  Tb3  1  0.537228  0.817040  0.500000  1
  Tb  Tb4  1  0.279812  0.462772  0.500000  1
  Tb  Tb5  1  0.182960  0.720188  0.500000  1
  Fe  Fe6  1  0.849485  0.927662  0.500000  1
  Fe  Fe7  1  0.078177  0.150515  0.500000  1
  Fe  Fe8  1  0.072338  0.921823  0.500000  1
  Co  Co9  1  0.193876  0.092985  0.000000  1
  Co  Co10  1  0.899109  0.806124  0.000000  1
  Co  Co11  1  0.907015  0.100891  0.000000  1
  Co  Co12  1  0.438164  0.415207  0.000000  1
  Co  Co13  1  0.977046  0.561836  0.000000  1
  Co  Co14  1  0.584793  0.022954  0.000000  1
  Co  Co15  1  0.563894  0.586266  0.500000  1
  Co  Co16  1  0.022372  0.436106  0.500000  1
  Co  Co17  1  0.413734  0.977628  0.500000  1
  Co  Co18  1  0.075691  0.316013  0.000000  1
  Co  Co19  1  0.240322  0.924309  0.000000  1
  Co  Co20  1  0.683987  0.759678  0.000000  1
  Co  Co21  1  0.932488  0.684770  0.500000  1
  Co  Co22  1  0.752282  0.067512  0.500000  1
  Co  Co23  1  0.315230  0.247718  0.500000  1
  P  P24  1  0.231071  0.278311  0.000000  1
  P  P25  1  0.047241  0.768929  0.000000  1
  P  P26  1  0.721689  0.952759  0.000000  1
  P  P27  1  0.772455  0.726392  0.500000  1
  P  P28  1  0.953936  0.227545  0.500000  1
  P  P29  1  0.273608  0.046064  0.500000  1
  P  P30  1  0.488783  0.614516  0.000000  1
  P  P31  1  0.125732  0.511217  0.000000  1
  P  P32  1  0.385484  0.874268  0.000000  1
  P  P33  1  0.513352  0.388114  0.500000  1
  P  P34  1  0.874762  0.486648  0.500000  1
  P  P35  1  0.611886  0.125238  0.500000  1
  P  P36  1  0.000000  0.000000  0.000000  1
  Pt  Pt37  1  0.333333  0.666667  0.000000  1
  Pt  Pt38  1  0.666667  0.333333  0.500000  1
