# generated using pymatgen
data_PrThZn5Sn
_symmetry_space_group_name_H-M   'P 1'
_cell_length_a   8.59376295
_cell_length_b   8.59376343
_cell_length_c   9.10966300
_cell_angle_alpha   90.00000000
_cell_angle_beta   90.00000000
_cell_angle_gamma   149.71026834
_symmetry_Int_Tables_number   1
_chemical_formula_structural   PrThZn5Sn
_chemical_formula_sum   'Pr2 Th2 Zn10 Sn2'
_cell_volume   339.32886394
_cell_formula_units_Z   2
loop_
 _symmetry_equiv_pos_site_id
 _symmetry_equiv_pos_as_xyz
  1  'x, y, z'
loop_
 _atom_site_type_symbol
 _atom_site_label
 _atom_site_symmetry_multiplicity
 _atom_site_fract_x
 _atom_site_fract_y
 _atom_site_fract_z
 _atom_site_occupancy
  Pr  Pr0  1  0.000000  0.000000  0.500000  1
  Pr  Pr1  1  0.000000  0.000000  0.000000  1
  Th  Th2  1  0.205162  0.794838  0.250000  1
  Th  Th3  1  0.794838  0.205162  0.750000  1
  Zn  Zn4  1  0.814180  0.185820  0.392038  1
  Zn  Zn5  1  0.185820  0.814180  0.607962  1
  Zn  Zn6  1  0.814180  0.185820  0.107962  1
  Zn  Zn7  1  0.185820  0.814180  0.892038  1
  Zn  Zn8  1  0.657102  0.342898  0.482936  1
  Zn  Zn9  1  0.342898  0.657102  0.517064  1
  Zn  Zn10  1  0.657102  0.342898  0.017064  1
  Zn  Zn11  1  0.342898  0.657102  0.982936  1
  Zn  Zn12  1  0.395157  0.604843  0.250000  1
  Zn  Zn13  1  0.604843  0.395157  0.750000  1
  Sn  Sn14  1  0.555776  0.444224  0.250000  1
  Sn  Sn15  1  0.444224  0.555776  0.750000  1
