# generated using pymatgen
data_Y17Ho3(IrPt2)4
_symmetry_space_group_name_H-M   'P 1'
_cell_length_a   11.10099000
_cell_length_b   11.10099000
_cell_length_c   6.34018300
_cell_angle_alpha   90.00000000
_cell_angle_beta   90.00000000
_cell_angle_gamma   90.00000000
_symmetry_Int_Tables_number   1
_chemical_formula_structural   Y17Ho3(IrPt2)4
_chemical_formula_sum   'Y17 Ho3 Ir4 Pt8'
_cell_volume   781.31329819
_cell_formula_units_Z   1
loop_
 _symmetry_equiv_pos_site_id
 _symmetry_equiv_pos_as_xyz
  1  'x, y, z'
loop_
 _atom_site_type_symbol
 _atom_site_label
 _atom_site_symmetry_multiplicity
 _atom_site_fract_x
 _atom_site_fract_y
 _atom_site_fract_z
 _atom_site_occupancy
  Y  Y0  1  0.294457  0.087533  0.374345  1
  Y  Y1  1  0.294303  0.912552  0.874380  1
  Y  Y2  1  0.705697  0.087448  0.874380  1
  Y  Y3  1  0.705543  0.912467  0.374345  1
  Y  Y4  1  0.587432  0.794342  0.874418  1
  Y  Y5  1  0.587485  0.205663  0.374393  1
  Y  Y6  1  0.412515  0.794337  0.374393  1
  Y  Y7  1  0.412568  0.205658  0.874418  1
  Y  Y8  1  0.205663  0.412515  0.625607  1
  Y  Y9  1  0.205658  0.587432  0.125582  1
  Y  Y10  1  0.794342  0.412568  0.125582  1
  Y  Y11  1  0.794337  0.587485  0.625607  1
  Y  Y12  1  0.912552  0.705697  0.125620  1
  Y  Y13  1  0.912467  0.294457  0.625655  1
  Y  Y14  1  0.087533  0.705543  0.625655  1
  Y  Y15  1  0.087448  0.294303  0.125620  1
  Y  Y16  1  0.000000  0.000000  0.500000  1
  Ho  Ho17  1  0.000000  0.000000  0.000000  1
  Ho  Ho18  1  0.500000  0.500000  0.000000  1
  Ho  Ho19  1  0.500000  0.500000  0.500000  1
  Ir  Ir20  1  0.500000  0.000000  0.120720  1
  Ir  Ir21  1  0.500000  0.000000  0.620726  1
  Ir  Ir22  1  0.000000  0.500000  0.879280  1
  Ir  Ir23  1  0.000000  0.500000  0.379274  1
  Pt  Pt24  1  0.846538  0.153480  0.249228  1
  Pt  Pt25  1  0.846520  0.846538  0.750772  1
  Pt  Pt26  1  0.153480  0.153462  0.750772  1
  Pt  Pt27  1  0.153462  0.846520  0.249228  1
  Pt  Pt28  1  0.653017  0.347030  0.750030  1
  Pt  Pt29  1  0.652970  0.653017  0.249970  1
  Pt  Pt30  1  0.347030  0.346983  0.249970  1
  Pt  Pt31  1  0.346983  0.652970  0.750030  1
