# generated using pymatgen
data_Pm2GeSeO8
_symmetry_space_group_name_H-M   'P 1'
_cell_length_a   6.04448553
_cell_length_b   6.04448589
_cell_length_c   6.04448700
_cell_angle_alpha   106.11041371
_cell_angle_beta   116.42471414
_cell_angle_gamma   106.11041481
_symmetry_Int_Tables_number   1
_chemical_formula_structural   Pm2GeSeO8
_chemical_formula_sum   'Pm2 Ge1 Se1 O8'
_cell_volume   168.10302568
_cell_formula_units_Z   1
loop_
 _symmetry_equiv_pos_site_id
 _symmetry_equiv_pos_as_xyz
  1  'x, y, z'
loop_
 _atom_site_type_symbol
 _atom_site_label
 _atom_site_symmetry_multiplicity
 _atom_site_fract_x
 _atom_site_fract_y
 _atom_site_fract_z
 _atom_site_occupancy
  Pm  Pm0  1  0.875000  0.250001  0.125000  1
  Pm  Pm1  1  0.125000  0.750000  0.875000  1
  Ge  Ge2  1  0.375000  0.250000  0.624999  1
  Se  Se3  1  0.625000  0.750000  0.374999  1
  O  O4  1  0.284447  0.573021  0.211425  1
  O  O5  1  0.638404  0.926978  0.211425  1
  O  O6  1  0.191720  0.065548  0.257269  1
  O  O7  1  0.788576  0.573022  0.361597  1
  O  O8  1  0.191720  0.434451  0.626171  1
  O  O9  1  0.788576  0.926978  0.715553  1
  O  O10  1  0.373829  0.065548  0.808280  1
  O  O11  1  0.742731  0.434451  0.808280  1
