# generated using pymatgen
data_U3Fe4Co2SiB2
_symmetry_space_group_name_H-M   'P 1'
_cell_length_a   5.09989039
_cell_length_b   5.13103195
_cell_length_c   13.13387226
_cell_angle_alpha   89.99999944
_cell_angle_beta   90.30174171
_cell_angle_gamma   120.20220102
_symmetry_Int_Tables_number   1
_chemical_formula_structural   U3Fe4Co2SiB2
_chemical_formula_sum   'U6 Fe8 Co4 Si2 B4'
_cell_volume   297.02460465
_cell_formula_units_Z   2
loop_
 _symmetry_equiv_pos_site_id
 _symmetry_equiv_pos_as_xyz
  1  'x, y, z'
loop_
 _atom_site_type_symbol
 _atom_site_label
 _atom_site_symmetry_multiplicity
 _atom_site_fract_x
 _atom_site_fract_y
 _atom_site_fract_z
 _atom_site_occupancy
  U  U0  1  0.333249  0.666625  0.246375  1
  U  U1  1  0.668385  0.334192  0.751272  1
  U  U2  1  0.324369  0.662185  0.036801  1
  U  U3  1  0.668920  0.334459  0.541708  1
  U  U4  1  0.666986  0.333493  0.964946  1
  U  U5  1  0.332097  0.666049  0.470021  1
  Fe  Fe6  1  0.830739  0.666087  0.142352  1
  Fe  Fe7  1  0.166880  0.833761  0.641505  1
  Fe  Fe8  1  0.666643  0.833321  0.640605  1
  Fe  Fe9  1  0.331116  0.165558  0.142467  1
  Fe  Fe10  1  0.830739  0.164652  0.142352  1
  Fe  Fe11  1  0.169602  0.334831  0.857843  1
  Fe  Fe12  1  0.169602  0.834771  0.857843  1
  Fe  Fe13  1  0.166880  0.333119  0.641505  1
  Co  Co14  1  0.669156  0.834578  0.856322  1
  Co  Co15  1  0.334424  0.167212  0.356912  1
  Co  Co16  1  0.833264  0.666586  0.356620  1
  Co  Co17  1  0.833264  0.166677  0.356620  1
  Si  Si18  1  0.999133  0.999566  0.999377  1
  Si  Si19  1  0.001604  0.000802  0.499244  1
  B  B20  1  0.999618  0.999809  0.248724  1
  B  B21  1  0.004740  0.002370  0.750121  1
  B  B22  1  0.332491  0.666246  0.749674  1
  B  B23  1  0.666101  0.333050  0.248792  1
