# generated using pymatgen
data_Th2P7Ru12
_symmetry_space_group_name_H-M   'P 1'
_cell_length_a   9.51797100
_cell_length_b   9.51797053
_cell_length_c   3.96051700
_cell_angle_alpha   90.00000000
_cell_angle_beta   90.00000000
_cell_angle_gamma   119.99999723
_symmetry_Int_Tables_number   1
_chemical_formula_structural   Th2P7Ru12
_chemical_formula_sum   'Th2 P7 Ru12'
_cell_volume   310.72146691
_cell_formula_units_Z   1
loop_
 _symmetry_equiv_pos_site_id
 _symmetry_equiv_pos_as_xyz
  1  'x, y, z'
loop_
 _atom_site_type_symbol
 _atom_site_label
 _atom_site_symmetry_multiplicity
 _atom_site_fract_x
 _atom_site_fract_y
 _atom_site_fract_z
 _atom_site_occupancy
  Th  Th0  1  0.666667  0.333333  0.500000  1
  Th  Th1  1  0.333333  0.666667  0.000000  1
  P  P2  1  0.604310  0.714371  0.500000  1
  P  P3  1  0.000000  0.000000  0.000000  1
  P  P4  1  0.285629  0.889939  0.500000  1
  P  P5  1  0.110061  0.395690  0.500000  1
  P  P6  1  0.892179  0.582117  0.000000  1
  P  P7  1  0.417883  0.310062  0.000000  1
  P  P8  1  0.689938  0.107821  0.000000  1
  Ru  Ru9  1  0.558288  0.947291  0.500000  1
  Ru  Ru10  1  0.389004  0.441712  0.500000  1
  Ru  Ru11  1  0.910925  0.122351  0.500000  1
  Ru  Ru12  1  0.211426  0.089075  0.500000  1
  Ru  Ru13  1  0.877649  0.788574  0.500000  1
  Ru  Ru14  1  0.729428  0.889025  0.000000  1
  Ru  Ru15  1  0.110975  0.840401  0.000000  1
  Ru  Ru16  1  0.159599  0.270572  0.000000  1
  Ru  Ru17  1  0.427392  0.069117  0.000000  1
  Ru  Ru18  1  0.930883  0.358276  0.000000  1
  Ru  Ru19  1  0.641724  0.572608  0.000000  1
  Ru  Ru20  1  0.052709  0.610996  0.500000  1
