# generated using pymatgen
data_Sc4Ga2B4Ir9Ru
_symmetry_space_group_name_H-M   'P 1'
_cell_length_a   9.45540329
_cell_length_b   9.45540329
_cell_length_c   3.03600100
_cell_angle_alpha   90.00000000
_cell_angle_beta   90.00000000
_cell_angle_gamma   89.53967665
_symmetry_Int_Tables_number   1
_chemical_formula_structural   Sc4Ga2B4Ir9Ru
_chemical_formula_sum   'Sc4 Ga2 B4 Ir9 Ru1'
_cell_volume   271.42385088
_cell_formula_units_Z   1
loop_
 _symmetry_equiv_pos_site_id
 _symmetry_equiv_pos_as_xyz
  1  'x, y, z'
loop_
 _atom_site_type_symbol
 _atom_site_label
 _atom_site_symmetry_multiplicity
 _atom_site_fract_x
 _atom_site_fract_y
 _atom_site_fract_z
 _atom_site_occupancy
  Sc  Sc0  1  0.676531  0.176531  0.000000  1
  Sc  Sc1  1  0.323469  0.823469  0.000000  1
  Sc  Sc2  1  0.172189  0.327811  0.000000  1
  Sc  Sc3  1  0.827811  0.672189  0.000000  1
  Ga  Ga4  1  0.000000  0.000000  0.000000  1
  Ga  Ga5  1  0.500000  0.500000  0.000000  1
  B  B6  1  0.122354  0.622354  0.000000  1
  B  B7  1  0.877646  0.377646  0.000000  1
  B  B8  1  0.626078  0.873922  0.000000  1
  B  B9  1  0.373922  0.126078  0.000000  1
  Ir  Ir10  1  0.216286  0.070798  0.500000  1
  Ir  Ir11  1  0.783714  0.929202  0.500000  1
  Ir  Ir12  1  0.070745  0.784229  0.500000  1
  Ir  Ir13  1  0.715771  0.429255  0.500000  1
  Ir  Ir14  1  0.929255  0.215771  0.500000  1
  Ir  Ir15  1  0.284229  0.570745  0.500000  1
  Ir  Ir16  1  0.570798  0.716286  0.500000  1
  Ir  Ir17  1  0.429202  0.283714  0.500000  1
  Ir  Ir18  1  0.500000  0.000000  0.500000  1
  Ru  Ru19  1  0.000000  0.500000  0.500000  1
