# generated using pymatgen
data_Ti16Nb3Si16Pd
_symmetry_space_group_name_H-M   'P 1'
_cell_length_a   6.72863506
_cell_length_b   6.72863503
_cell_length_c   12.22184495
_cell_angle_alpha   90.34437488
_cell_angle_beta   89.65562878
_cell_angle_gamma   89.85786518
_symmetry_Int_Tables_number   1
_chemical_formula_structural   Ti16Nb3Si16Pd
_chemical_formula_sum   'Ti16 Nb3 Si16 Pd1'
_cell_volume   553.31653827
_cell_formula_units_Z   1
loop_
 _symmetry_equiv_pos_site_id
 _symmetry_equiv_pos_as_xyz
  1  'x, y, z'
loop_
 _atom_site_type_symbol
 _atom_site_label
 _atom_site_symmetry_multiplicity
 _atom_site_fract_x
 _atom_site_fract_y
 _atom_site_fract_z
 _atom_site_occupancy
  Ti  Ti0  1  0.996041  0.151206  0.619737  1
  Ti  Ti1  1  0.351756  0.494619  0.870775  1
  Ti  Ti2  1  0.645028  0.502079  0.370587  1
  Ti  Ti3  1  0.494619  0.351756  0.129225  1
  Ti  Ti4  1  0.502079  0.645028  0.629413  1
  Ti  Ti5  1  0.004057  0.852387  0.123351  1
  Ti  Ti6  1  0.151206  0.996041  0.380263  1
  Ti  Ti7  1  0.852387  0.004057  0.876649  1
  Ti  Ti8  1  0.002746  0.344082  0.220963  1
  Ti  Ti9  1  0.161941  0.500737  0.470866  1
  Ti  Ti10  1  0.844238  0.497039  0.968841  1
  Ti  Ti11  1  0.500737  0.161941  0.529134  1
  Ti  Ti12  1  0.497039  0.844238  0.031159  1
  Ti  Ti13  1  0.000059  0.653858  0.719469  1
  Ti  Ti14  1  0.344082  0.002746  0.779037  1
  Ti  Ti15  1  0.653858  0.000059  0.280531  1
  Nb  Nb16  1  0.169853  0.169853  0.000000  1
  Nb  Nb17  1  0.327857  0.671834  0.251885  1
  Nb  Nb18  1  0.671834  0.327857  0.748115  1
  Si  Si19  1  0.045623  0.301786  0.812039  1
  Si  Si20  1  0.197377  0.546096  0.062634  1
  Si  Si21  1  0.799397  0.454754  0.559517  1
  Si  Si22  1  0.546096  0.197377  0.937366  1
  Si  Si23  1  0.454754  0.799397  0.440483  1
  Si  Si24  1  0.950231  0.699710  0.315407  1
  Si  Si25  1  0.301786  0.045623  0.187961  1
  Si  Si26  1  0.699710  0.950231  0.684593  1
  Si  Si27  1  0.291907  0.357773  0.671416  1
  Si  Si28  1  0.141117  0.791553  0.921722  1
  Si  Si29  1  0.863320  0.213133  0.420767  1
  Si  Si30  1  0.791553  0.141117  0.078278  1
  Si  Si31  1  0.213133  0.863320  0.579233  1
  Si  Si32  1  0.708251  0.641333  0.172098  1
  Si  Si33  1  0.357773  0.291907  0.328584  1
  Si  Si34  1  0.641333  0.708251  0.827902  1
  Pd  Pd35  1  0.825223  0.825223  0.500000  1
