# generated using pymatgen
data_Ho2Fe10Mo2P7
_symmetry_space_group_name_H-M   'P 1'
_cell_length_a   9.11161287
_cell_length_b   9.01584522
_cell_length_c   3.67020600
_cell_angle_alpha   90.00000000
_cell_angle_beta   90.00000000
_cell_angle_gamma   119.79566490
_symmetry_Int_Tables_number   1
_chemical_formula_structural   Ho2Fe10Mo2P7
_chemical_formula_sum   'Ho2 Fe10 Mo2 P7'
_cell_volume   261.64553073
_cell_formula_units_Z   1
loop_
 _symmetry_equiv_pos_site_id
 _symmetry_equiv_pos_as_xyz
  1  'x, y, z'
loop_
 _atom_site_type_symbol
 _atom_site_label
 _atom_site_symmetry_multiplicity
 _atom_site_fract_x
 _atom_site_fract_y
 _atom_site_fract_z
 _atom_site_occupancy
  Ho  Ho0  1  0.661957  0.332958  0.500000  1
  Ho  Ho1  1  0.338720  0.665194  0.000000  1
  Fe  Fe2  1  0.724365  0.878734  0.000000  1
  Fe  Fe3  1  0.947915  0.380956  0.000000  1
  Fe  Fe4  1  0.156334  0.275368  0.000000  1
  Fe  Fe5  1  0.389900  0.439702  0.500000  1
  Fe  Fe6  1  0.116312  0.836351  0.000000  1
  Fe  Fe7  1  0.427409  0.050363  0.000000  1
  Fe  Fe8  1  0.042875  0.609735  0.500000  1
  Fe  Fe9  1  0.564036  0.950064  0.500000  1
  Fe  Fe10  1  0.632155  0.576944  0.000000  1
  Fe  Fe11  1  0.878154  0.785645  0.500000  1
  Mo  Mo12  1  0.219712  0.099735  0.500000  1
  Mo  Mo13  1  0.897609  0.117972  0.500000  1
  P  P14  1  0.414625  0.307801  0.000000  1
  P  P15  1  0.288223  0.875483  0.500000  1
  P  P16  1  0.696836  0.111710  0.000000  1
  P  P17  1  0.600673  0.712274  0.500000  1
  P  P18  1  0.879492  0.591478  0.000000  1
  P  P19  1  0.126622  0.409140  0.500000  1
  P  P20  1  0.996079  0.992390  0.000000  1
