# generated using pymatgen
data_LuMgU(Ni10B3)2
_symmetry_space_group_name_H-M   'P 1'
_cell_length_a   7.56658353
_cell_length_b   7.56658281
_cell_length_c   7.56658300
_cell_angle_alpha   60.00000355
_cell_angle_beta   60.00000669
_cell_angle_gamma   59.99999879
_symmetry_Int_Tables_number   1
_chemical_formula_structural   LuMgU(Ni10B3)2
_chemical_formula_sum   'Lu1 Mg1 U1 Ni20 B6'
_cell_volume   306.32641796
_cell_formula_units_Z   1
loop_
 _symmetry_equiv_pos_site_id
 _symmetry_equiv_pos_as_xyz
  1  'x, y, z'
loop_
 _atom_site_type_symbol
 _atom_site_label
 _atom_site_symmetry_multiplicity
 _atom_site_fract_x
 _atom_site_fract_y
 _atom_site_fract_z
 _atom_site_occupancy
  Lu  Lu0  1  0.750000  0.750000  0.750000  1
  Mg  Mg1  1  0.250000  0.250000  0.250000  1
  U  U2  1  0.000000  0.000000  0.000000  1
  Ni  Ni3  1  0.844364  0.385212  0.385212  1
  Ni  Ni4  1  0.385212  0.844364  0.385212  1
  Ni  Ni5  1  0.385212  0.385212  0.844364  1
  Ni  Ni6  1  0.385212  0.385212  0.385212  1
  Ni  Ni7  1  0.165043  0.611652  0.611652  1
  Ni  Ni8  1  0.611652  0.165043  0.611652  1
  Ni  Ni9  1  0.611652  0.611652  0.165043  1
  Ni  Ni10  1  0.611652  0.611652  0.611652  1
  Ni  Ni11  1  0.657194  0.000992  0.000992  1
  Ni  Ni12  1  0.657194  0.000992  0.340822  1
  Ni  Ni13  1  0.657194  0.340822  0.000992  1
  Ni  Ni14  1  0.000992  0.657194  0.340822  1
  Ni  Ni15  1  0.000992  0.657194  0.000992  1
  Ni  Ni16  1  0.340822  0.657194  0.000992  1
  Ni  Ni17  1  0.000992  0.340822  0.657194  1
  Ni  Ni18  1  0.340822  0.000992  0.657194  1
  Ni  Ni19  1  0.000992  0.000992  0.657194  1
  Ni  Ni20  1  0.340822  0.000992  0.000992  1
  Ni  Ni21  1  0.000992  0.340822  0.000992  1
  Ni  Ni22  1  0.000992  0.000992  0.340822  1
  B  B23  1  0.726278  0.273722  0.273722  1
  B  B24  1  0.726278  0.273722  0.726278  1
  B  B25  1  0.726278  0.726278  0.273722  1
  B  B26  1  0.273722  0.726278  0.726278  1
  B  B27  1  0.273722  0.726278  0.273722  1
  B  B28  1  0.273722  0.273722  0.726278  1
