# generated using pymatgen
data_Ce2ErAl2Ge3
_symmetry_space_group_name_H-M   'P 1'
_cell_length_a   7.92356118
_cell_length_b   7.92303358
_cell_length_c   7.92356100
_cell_angle_alpha   120.17446727
_cell_angle_beta   120.18486324
_cell_angle_gamma   89.69099746
_symmetry_Int_Tables_number   1
_chemical_formula_structural   Ce2ErAl2Ge3
_chemical_formula_sum   'Ce4 Er2 Al4 Ge6'
_cell_volume   350.76981228
_cell_formula_units_Z   2
loop_
 _symmetry_equiv_pos_site_id
 _symmetry_equiv_pos_as_xyz
  1  'x, y, z'
loop_
 _atom_site_type_symbol
 _atom_site_label
 _atom_site_symmetry_multiplicity
 _atom_site_fract_x
 _atom_site_fract_y
 _atom_site_fract_z
 _atom_site_occupancy
  Ce  Ce0  1  0.665007  0.164954  0.821558  1
  Ce  Ce1  1  0.343482  0.843434  0.178579  1
  Ce  Ce2  1  0.843396  0.664954  0.499947  1
  Ce  Ce3  1  0.164854  0.343434  0.499952  1
  Er  Er4  1  0.734004  0.733976  0.999997  1
  Er  Er5  1  0.233980  0.233976  0.999972  1
  Al  Al6  1  0.948359  0.448211  0.766389  1
  Al  Al7  1  0.681898  0.181744  0.233729  1
  Al  Al8  1  0.181822  0.948211  0.499852  1
  Al  Al9  1  0.448016  0.681744  0.499847  1
  Ge  Ge10  1  0.479923  0.480372  0.999761  1
  Ge  Ge11  1  0.980612  0.980372  0.000448  1
  Ge  Ge12  1  0.043144  0.543128  0.188725  1
  Ge  Ge13  1  0.354257  0.854182  0.811334  1
  Ge  Ge14  1  0.854403  0.043128  0.499984  1
  Ge  Ge15  1  0.542848  0.354182  0.499925  1
