# generated using pymatgen
data_Y20IrOsPt10
_symmetry_space_group_name_H-M   'P 1'
_cell_length_a   11.01760200
_cell_length_b   11.01760200
_cell_length_c   6.46113600
_cell_angle_alpha   90.00000000
_cell_angle_beta   90.00000000
_cell_angle_gamma   90.00000000
_symmetry_Int_Tables_number   1
_chemical_formula_structural   Y20IrOsPt10
_chemical_formula_sum   'Y20 Ir1 Os1 Pt10'
_cell_volume   784.30149401
_cell_formula_units_Z   1
loop_
 _symmetry_equiv_pos_site_id
 _symmetry_equiv_pos_as_xyz
  1  'x, y, z'
loop_
 _atom_site_type_symbol
 _atom_site_label
 _atom_site_symmetry_multiplicity
 _atom_site_fract_x
 _atom_site_fract_y
 _atom_site_fract_z
 _atom_site_occupancy
  Y  Y0  1  0.292283  0.088902  0.375930  1
  Y  Y1  1  0.292447  0.911302  0.876065  1
  Y  Y2  1  0.707553  0.088698  0.876065  1
  Y  Y3  1  0.707717  0.911098  0.375930  1
  Y  Y4  1  0.588698  0.792447  0.876065  1
  Y  Y5  1  0.588902  0.207717  0.375930  1
  Y  Y6  1  0.411098  0.792283  0.375930  1
  Y  Y7  1  0.411302  0.207553  0.876065  1
  Y  Y8  1  0.203969  0.412533  0.626507  1
  Y  Y9  1  0.203557  0.587369  0.122609  1
  Y  Y10  1  0.796443  0.412631  0.122609  1
  Y  Y11  1  0.796031  0.587467  0.626507  1
  Y  Y12  1  0.912631  0.703557  0.122609  1
  Y  Y13  1  0.912533  0.296031  0.626507  1
  Y  Y14  1  0.087467  0.703969  0.626507  1
  Y  Y15  1  0.087369  0.296443  0.122609  1
  Y  Y16  1  0.000000  0.000000  0.501464  1
  Y  Y17  1  0.000000  0.000000  0.001387  1
  Y  Y18  1  0.500000  0.500000  0.001387  1
  Y  Y19  1  0.500000  0.500000  0.501464  1
  Ir  Ir20  1  0.000000  0.500000  0.377072  1
  Os  Os21  1  0.000000  0.500000  0.875147  1
  Pt  Pt22  1  0.845407  0.152266  0.250358  1
  Pt  Pt23  1  0.845093  0.847919  0.750262  1
  Pt  Pt24  1  0.154907  0.152081  0.750262  1
  Pt  Pt25  1  0.154593  0.847734  0.250358  1
  Pt  Pt26  1  0.652081  0.345093  0.750262  1
  Pt  Pt27  1  0.652266  0.654593  0.250358  1
  Pt  Pt28  1  0.347734  0.345407  0.250358  1
  Pt  Pt29  1  0.347919  0.654907  0.750262  1
  Pt  Pt30  1  0.500000  0.000000  0.117661  1
  Pt  Pt31  1  0.500000  0.000000  0.617501  1
