# generated using pymatgen
data_RbScBeSe3
_symmetry_space_group_name_H-M   'P 1'
_cell_length_a   8.00056840
_cell_length_b   8.00056866
_cell_length_c   10.35054600
_cell_angle_alpha   90.00000000
_cell_angle_beta   90.00000000
_cell_angle_gamma   151.87221174
_symmetry_Int_Tables_number   1
_chemical_formula_structural   RbScBeSe3
_chemical_formula_sum   'Rb2 Sc2 Be2 Se6'
_cell_volume   312.34249048
_cell_formula_units_Z   2
loop_
 _symmetry_equiv_pos_site_id
 _symmetry_equiv_pos_as_xyz
  1  'x, y, z'
loop_
 _atom_site_type_symbol
 _atom_site_label
 _atom_site_symmetry_multiplicity
 _atom_site_fract_x
 _atom_site_fract_y
 _atom_site_fract_z
 _atom_site_occupancy
  Rb  Rb0  1  0.741248  0.258753  0.250000  1
  Rb  Rb1  1  0.258753  0.741248  0.750000  1
  Sc  Sc2  1  0.000000  0.000000  0.000000  1
  Sc  Sc3  1  0.000000  0.000000  0.500000  1
  Be  Be4  1  0.464559  0.535442  0.250000  1
  Be  Be5  1  0.535442  0.464559  0.750000  1
  Se  Se6  1  0.387012  0.612989  0.068149  1
  Se  Se7  1  0.053060  0.946942  0.250000  1
  Se  Se8  1  0.387012  0.612989  0.431851  1
  Se  Se9  1  0.612989  0.387012  0.568149  1
  Se  Se10  1  0.946942  0.053060  0.750000  1
  Se  Se11  1  0.612989  0.387012  0.931850  1
