# generated using pymatgen
data_Sr4HoNp3O12
_symmetry_space_group_name_H-M   'P 1'
_cell_length_a   5.98970034
_cell_length_b   6.12919371
_cell_length_c   8.54385941
_cell_angle_alpha   89.95058399
_cell_angle_beta   90.11892787
_cell_angle_gamma   90.00054262
_symmetry_Int_Tables_number   1
_chemical_formula_structural   Sr4HoNp3O12
_chemical_formula_sum   'Sr4 Ho1 Np3 O12'
_cell_volume   313.66166176
_cell_formula_units_Z   1
loop_
 _symmetry_equiv_pos_site_id
 _symmetry_equiv_pos_as_xyz
  1  'x, y, z'
loop_
 _atom_site_type_symbol
 _atom_site_label
 _atom_site_symmetry_multiplicity
 _atom_site_fract_x
 _atom_site_fract_y
 _atom_site_fract_z
 _atom_site_occupancy
  Sr  Sr0  1  0.988925  0.041813  0.255173  1
  Sr  Sr1  1  0.485653  0.455185  0.745149  1
  Sr  Sr2  1  0.514347  0.544815  0.254851  1
  Sr  Sr3  1  0.011075  0.958187  0.744827  1
  Ho  Ho4  1  0.500000  0.000000  0.500000  1
  Np  Np5  1  0.500000  0.000000  0.000000  1
  Np  Np6  1  0.000000  0.500000  0.000000  1
  Np  Np7  1  0.000000  0.500000  0.500000  1
  O  O8  1  0.200863  0.213126  0.552583  1
  O  O9  1  0.713402  0.297519  0.449058  1
  O  O10  1  0.289627  0.704310  0.943428  1
  O  O11  1  0.792627  0.794021  0.055299  1
  O  O12  1  0.799137  0.786874  0.447417  1
  O  O13  1  0.286598  0.702481  0.550942  1
  O  O14  1  0.710373  0.295690  0.056572  1
  O  O15  1  0.207373  0.205979  0.944701  1
  O  O16  1  0.101846  0.463624  0.245601  1
  O  O17  1  0.597789  0.036261  0.756940  1
  O  O18  1  0.402211  0.963739  0.243060  1
  O  O19  1  0.898154  0.536376  0.754399  1
