# generated using pymatgen
data_LiLa3SiSe7
_symmetry_space_group_name_H-M   'P 1'
_cell_length_a   10.82476700
_cell_length_b   10.82608365
_cell_length_c   6.03396700
_cell_angle_alpha   90.00000000
_cell_angle_beta   90.00000000
_cell_angle_gamma   120.00460896
_symmetry_Int_Tables_number   1
_chemical_formula_structural   LiLa3SiSe7
_chemical_formula_sum   'Li2 La6 Si2 Se14'
_cell_volume   612.35508143
_cell_formula_units_Z   2
loop_
 _symmetry_equiv_pos_site_id
 _symmetry_equiv_pos_as_xyz
  1  'x, y, z'
loop_
 _atom_site_type_symbol
 _atom_site_label
 _atom_site_symmetry_multiplicity
 _atom_site_fract_x
 _atom_site_fract_y
 _atom_site_fract_z
 _atom_site_occupancy
  Li  Li0  1  0.000001  0.999997  0.009075  1
  Li  Li1  1  0.999999  0.000003  0.509077  1
  La  La2  1  0.356290  0.234447  0.268684  1
  La  La3  1  0.765542  0.121832  0.268677  1
  La  La4  1  0.878143  0.643704  0.268689  1
  La  La5  1  0.643710  0.765553  0.768683  1
  La  La6  1  0.234457  0.878168  0.768678  1
  La  La7  1  0.121858  0.356296  0.768688  1
  Si  Si8  1  0.333340  0.666666  0.355077  1
  Si  Si9  1  0.666660  0.333334  0.855078  1
  Se  Se10  1  0.082088  0.243768  0.254842  1
  Se  Se11  1  0.756236  0.838327  0.254841  1
  Se  Se12  1  0.161662  0.917900  0.254822  1
  Se  Se13  1  0.666647  0.333325  0.481212  1
  Se  Se14  1  0.110001  0.590124  0.501518  1
  Se  Se15  1  0.409882  0.519898  0.501532  1
  Se  Se16  1  0.480121  0.889985  0.501532  1
  Se  Se17  1  0.838338  0.082100  0.754822  1
  Se  Se18  1  0.243763  0.161673  0.754841  1
  Se  Se19  1  0.917911  0.756232  0.754842  1
  Se  Se20  1  0.333353  0.666675  0.981211  1
  Se  Se21  1  0.890000  0.409876  0.001518  1
  Se  Se22  1  0.590117  0.480102  0.001532  1
  Se  Se23  1  0.519879  0.110015  0.001531  1
