# generated using pymatgen
data_Ho4Pa4Re3B24Mo
_symmetry_space_group_name_H-M   'P 1'
_cell_length_a   3.72386700
_cell_length_b   9.17557508
_cell_length_c   11.52359010
_cell_angle_alpha   89.98503006
_cell_angle_beta   90.00000000
_cell_angle_gamma   90.00000000
_symmetry_Int_Tables_number   1
_chemical_formula_structural   Ho4Pa4Re3B24Mo
_chemical_formula_sum   'Ho4 Pa4 Re3 B24 Mo1'
_cell_volume   393.74517196
_cell_formula_units_Z   1
loop_
 _symmetry_equiv_pos_site_id
 _symmetry_equiv_pos_as_xyz
  1  'x, y, z'
loop_
 _atom_site_type_symbol
 _atom_site_label
 _atom_site_symmetry_multiplicity
 _atom_site_fract_x
 _atom_site_fract_y
 _atom_site_fract_z
 _atom_site_occupancy
  Ho  Ho0  1  0.000000  0.945244  0.374470  1
  Ho  Ho1  1  0.000000  0.054775  0.625490  1
  Ho  Ho2  1  0.000000  0.446111  0.125316  1
  Ho  Ho3  1  0.000000  0.554831  0.874324  1
  Pa  Pa4  1  0.000000  0.323420  0.412621  1
  Pa  Pa5  1  0.000000  0.677354  0.586103  1
  Pa  Pa6  1  0.000000  0.822063  0.087832  1
  Pa  Pa7  1  0.000000  0.176848  0.913544  1
  Re  Re8  1  0.000000  0.360693  0.678799  1
  Re  Re9  1  0.000000  0.138945  0.177584  1
  Re  Re10  1  0.000000  0.861643  0.821988  1
  B  B11  1  0.500000  0.552324  0.433770  1
  B  B12  1  0.500000  0.446672  0.567493  1
  B  B13  1  0.500000  0.052961  0.066800  1
  B  B14  1  0.500000  0.947051  0.933255  1
  B  B15  1  0.500000  0.747853  0.421174  1
  B  B16  1  0.500000  0.252161  0.579800  1
  B  B17  1  0.500000  0.248266  0.079555  1
  B  B18  1  0.500000  0.751914  0.920085  1
  B  B19  1  0.500000  0.794337  0.265286  1
  B  B20  1  0.500000  0.206285  0.734022  1
  B  B21  1  0.500000  0.293099  0.233690  1
  B  B22  1  0.500000  0.706775  0.766182  1
  B  B23  1  0.500000  0.634141  0.184676  1
  B  B24  1  0.500000  0.366176  0.814790  1
  B  B25  1  0.500000  0.133307  0.314194  1
  B  B26  1  0.500000  0.866697  0.685589  1
  B  B27  1  0.500000  0.983125  0.213396  1
  B  B28  1  0.500000  0.017001  0.786512  1
  B  B29  1  0.500000  0.481976  0.286358  1
  B  B30  1  0.500000  0.516670  0.713762  1
  B  B31  1  0.500000  0.612862  0.030511  1
  B  B32  1  0.500000  0.387270  0.968662  1
  B  B33  1  0.500000  0.112668  0.468764  1
  B  B34  1  0.500000  0.887721  0.531956  1
  Mo  Mo35  1  0.000000  0.638757  0.321647  1
