# generated using pymatgen
data_Ce4Nb2(Bi2Pd)3
_symmetry_space_group_name_H-M   'P 1'
_cell_length_a   9.21556800
_cell_length_b   9.18560900
_cell_length_c   30.79631700
_cell_angle_alpha   90.00000000
_cell_angle_beta   90.00000000
_cell_angle_gamma   90.00000000
_symmetry_Int_Tables_number   1
_chemical_formula_structural   Ce4Nb2(Bi2Pd)3
_chemical_formula_sum   'Ce4 Nb2 Bi6 Pd3'
_cell_volume   2606.92684614
_cell_formula_units_Z   1
loop_
 _symmetry_equiv_pos_site_id
 _symmetry_equiv_pos_as_xyz
  1  'x, y, z'
loop_
 _atom_site_type_symbol
 _atom_site_label
 _atom_site_symmetry_multiplicity
 _atom_site_fract_x
 _atom_site_fract_y
 _atom_site_fract_z
 _atom_site_occupancy
  Ce  Ce0  1  0.500000  0.000000  0.107779  1
  Ce  Ce1  1  0.500000  0.000000  0.613000  1
  Ce  Ce2  1  0.000000  0.500000  0.889679  1
  Ce  Ce3  1  0.000000  0.500000  0.386047  1
  Nb  Nb4  1  0.000000  0.000000  0.751984  1
  Nb  Nb5  1  0.000000  0.000000  0.248480  1
  Bi  Bi6  1  0.500000  0.000000  0.918310  1
  Bi  Bi7  1  0.500000  0.000000  0.412349  1
  Bi  Bi8  1  0.000000  0.500000  0.082984  1
  Bi  Bi9  1  0.000000  0.500000  0.588109  1
  Bi  Bi10  1  0.500000  0.500000  0.751622  1
  Bi  Bi11  1  0.500000  0.500000  0.247976  1
  Pd  Pd12  1  0.500000  0.500000  0.500132  1
  Pd  Pd13  1  0.000000  0.000000  0.001424  1
  Pd  Pd14  1  0.000000  0.000000  0.500124  1
