# generated using pymatgen
data_Pb3Se2(ClO3)2
_symmetry_space_group_name_H-M   'P 1'
_cell_length_a   7.35038934
_cell_length_b   7.35038920
_cell_length_c   6.83457035
_cell_angle_alpha   83.25971109
_cell_angle_beta   83.25971201
_cell_angle_gamma   45.48665987
_symmetry_Int_Tables_number   1
_chemical_formula_structural   Pb3Se2(ClO3)2
_chemical_formula_sum   'Pb3 Se2 Cl2 O6'
_cell_volume   261.17331627
_cell_formula_units_Z   1
loop_
 _symmetry_equiv_pos_site_id
 _symmetry_equiv_pos_as_xyz
  1  'x, y, z'
loop_
 _atom_site_type_symbol
 _atom_site_label
 _atom_site_symmetry_multiplicity
 _atom_site_fract_x
 _atom_site_fract_y
 _atom_site_fract_z
 _atom_site_occupancy
  Pb  Pb0  1  0.282219  0.290213  0.210209  1
  Pb  Pb1  1  0.709787  0.717781  0.789791  1
  Pb  Pb2  1  0.985469  0.014531  0.000000  1
  Se  Se3  1  0.399828  0.404797  0.734344  1
  Se  Se4  1  0.595203  0.600172  0.265656  1
  Cl  Cl5  1  0.157399  0.157048  0.639357  1
  Cl  Cl6  1  0.842952  0.842601  0.360643  1
  O  O7  1  0.876086  0.415448  0.110270  1
  O  O8  1  0.405693  0.878943  0.109698  1
  O  O9  1  0.121057  0.594307  0.890302  1
  O  O10  1  0.584552  0.123914  0.889730  1
  O  O11  1  0.484362  0.467607  0.236515  1
  O  O12  1  0.532393  0.515638  0.763485  1
