# generated using pymatgen
data_LiAc(BIr)4
_symmetry_space_group_name_H-M   'P 1'
_cell_length_a   7.11877479
_cell_length_b   6.17433990
_cell_length_c   5.55576366
_cell_angle_alpha   74.51926308
_cell_angle_beta   56.70604524
_cell_angle_gamma   48.77469624
_symmetry_Int_Tables_number   1
_chemical_formula_structural   LiAc(BIr)4
_chemical_formula_sum   'Li1 Ac1 B4 Ir4'
_cell_volume   151.76294943
_cell_formula_units_Z   1
loop_
 _symmetry_equiv_pos_site_id
 _symmetry_equiv_pos_as_xyz
  1  'x, y, z'
loop_
 _atom_site_type_symbol
 _atom_site_label
 _atom_site_symmetry_multiplicity
 _atom_site_fract_x
 _atom_site_fract_y
 _atom_site_fract_z
 _atom_site_occupancy
  Li  Li0  1  0.750000  0.750000  0.750000  1
  Ac  Ac1  1  0.500000  0.500000  0.500000  1
  B  B2  1  0.173053  0.826947  0.173053  1
  B  B3  1  0.069804  0.430196  0.069804  1
  B  B4  1  0.826947  0.173053  0.826947  1
  B  B5  1  0.430196  0.069804  0.430196  1
  Ir  Ir6  1  0.865834  0.865834  0.134166  1
  Ir  Ir7  1  0.134166  0.134166  0.865834  1
  Ir  Ir8  1  0.377952  0.377952  0.122048  1
  Ir  Ir9  1  0.122048  0.122048  0.377952  1
