# generated using pymatgen
data_Tm16AlZn3Rh4
_symmetry_space_group_name_H-M   'P 1'
_cell_length_a   9.35994685
_cell_length_b   9.35994780
_cell_length_c   9.35374403
_cell_angle_alpha   59.97806544
_cell_angle_beta   59.97806291
_cell_angle_gamma   60.00000537
_symmetry_Int_Tables_number   1
_chemical_formula_structural   Tm16AlZn3Rh4
_chemical_formula_sum   'Tm16 Al1 Zn3 Rh4'
_cell_volume   579.25959496
_cell_formula_units_Z   1
loop_
 _symmetry_equiv_pos_site_id
 _symmetry_equiv_pos_as_xyz
  1  'x, y, z'
loop_
 _atom_site_type_symbol
 _atom_site_label
 _atom_site_symmetry_multiplicity
 _atom_site_fract_x
 _atom_site_fract_y
 _atom_site_fract_z
 _atom_site_occupancy
  Tm  Tm0  1  0.064123  0.064123  0.435975  1
  Tm  Tm1  1  0.435779  0.064123  0.435975  1
  Tm  Tm2  1  0.063019  0.435227  0.066527  1
  Tm  Tm3  1  0.062311  0.645790  0.646111  1
  Tm  Tm4  1  0.435227  0.435227  0.066527  1
  Tm  Tm5  1  0.645790  0.062311  0.646111  1
  Tm  Tm6  1  0.191571  0.808574  0.191281  1
  Tm  Tm7  1  0.192846  0.192846  0.808058  1
  Tm  Tm8  1  0.808574  0.808574  0.191281  1
  Tm  Tm9  1  0.435227  0.063019  0.066527  1
  Tm  Tm10  1  0.808574  0.191571  0.191281  1
  Tm  Tm11  1  0.064123  0.435779  0.435975  1
  Tm  Tm12  1  0.806251  0.192846  0.808058  1
  Tm  Tm13  1  0.192846  0.806251  0.808058  1
  Tm  Tm14  1  0.645487  0.645487  0.063540  1
  Tm  Tm15  1  0.645790  0.645790  0.646111  1
  Al  Al16  1  0.423504  0.423504  0.729488  1
  Zn  Zn17  1  0.421207  0.421207  0.421492  1
  Zn  Zn18  1  0.736094  0.421207  0.421492  1
  Zn  Zn19  1  0.421207  0.736094  0.421492  1
  Rh  Rh20  1  0.856440  0.856440  0.430678  1
  Rh  Rh21  1  0.856487  0.856487  0.855987  1
  Rh  Rh22  1  0.431038  0.856487  0.855987  1
  Rh  Rh23  1  0.856487  0.431038  0.855987  1
