# generated using pymatgen
data_Th3Cd5Ru
_symmetry_space_group_name_H-M   'P 1'
_cell_length_a   8.01447300
_cell_length_b   8.01447493
_cell_length_c   4.04195400
_cell_angle_alpha   90.00000000
_cell_angle_beta   90.00000000
_cell_angle_gamma   120.00001268
_symmetry_Int_Tables_number   1
_chemical_formula_structural   Th3Cd5Ru
_chemical_formula_sum   'Th3 Cd5 Ru1'
_cell_volume   224.83917740
_cell_formula_units_Z   1
loop_
 _symmetry_equiv_pos_site_id
 _symmetry_equiv_pos_as_xyz
  1  'x, y, z'
loop_
 _atom_site_type_symbol
 _atom_site_label
 _atom_site_symmetry_multiplicity
 _atom_site_fract_x
 _atom_site_fract_y
 _atom_site_fract_z
 _atom_site_occupancy
  Th  Th0  1  0.435742  0.397280  0.500000  1
  Th  Th1  1  0.602720  0.038462  0.500000  1
  Th  Th2  1  0.961538  0.564258  0.500000  1
  Cd  Cd3  1  0.737364  0.742167  0.000000  1
  Cd  Cd4  1  0.257833  0.995198  0.000000  1
  Cd  Cd5  1  0.004802  0.262636  0.000000  1
  Cd  Cd6  1  0.333333  0.666667  0.000000  1
  Cd  Cd7  1  0.000000  0.000000  0.500000  1
  Ru  Ru8  1  0.666667  0.333333  0.000000  1
