# generated using pymatgen
data_La8Nd2Ir5Os
_symmetry_space_group_name_H-M   'P 1'
_cell_length_a   11.41323200
_cell_length_b   11.41323200
_cell_length_c   6.63827200
_cell_angle_alpha   90.00000000
_cell_angle_beta   90.00000000
_cell_angle_gamma   90.00000000
_symmetry_Int_Tables_number   1
_chemical_formula_structural   La8Nd2Ir5Os
_chemical_formula_sum   'La16 Nd4 Ir10 Os2'
_cell_volume   864.71368901
_cell_formula_units_Z   2
loop_
 _symmetry_equiv_pos_site_id
 _symmetry_equiv_pos_as_xyz
  1  'x, y, z'
loop_
 _atom_site_type_symbol
 _atom_site_label
 _atom_site_symmetry_multiplicity
 _atom_site_fract_x
 _atom_site_fract_y
 _atom_site_fract_z
 _atom_site_occupancy
  La  La0  1  0.294436  0.088763  0.386302  1
  La  La1  1  0.294436  0.911237  0.886302  1
  La  La2  1  0.705564  0.088763  0.886302  1
  La  La3  1  0.705564  0.911237  0.386302  1
  La  La4  1  0.588763  0.794436  0.886302  1
  La  La5  1  0.588763  0.205564  0.386302  1
  La  La6  1  0.411237  0.794436  0.386302  1
  La  La7  1  0.411237  0.205564  0.886302  1
  La  La8  1  0.209021  0.408776  0.614282  1
  La  La9  1  0.209021  0.591224  0.114282  1
  La  La10  1  0.790979  0.408776  0.114282  1
  La  La11  1  0.790979  0.591224  0.614282  1
  La  La12  1  0.908776  0.709021  0.114282  1
  La  La13  1  0.908776  0.290979  0.614282  1
  La  La14  1  0.091224  0.709021  0.614282  1
  La  La15  1  0.091224  0.290979  0.114282  1
  Nd  Nd16  1  0.000000  0.000000  0.497521  1
  Nd  Nd17  1  0.000000  0.000000  0.997521  1
  Nd  Nd18  1  0.500000  0.500000  0.997521  1
  Nd  Nd19  1  0.500000  0.500000  0.497521  1
  Ir  Ir20  1  0.849070  0.154658  0.249989  1
  Ir  Ir21  1  0.849070  0.845342  0.749989  1
  Ir  Ir22  1  0.150930  0.154658  0.749989  1
  Ir  Ir23  1  0.150930  0.845342  0.249989  1
  Ir  Ir24  1  0.654658  0.349070  0.749989  1
  Ir  Ir25  1  0.654658  0.650930  0.249989  1
  Ir  Ir26  1  0.345342  0.349070  0.249989  1
  Ir  Ir27  1  0.345342  0.650930  0.749989  1
  Ir  Ir28  1  0.000000  0.500000  0.883017  1
  Ir  Ir29  1  0.000000  0.500000  0.383017  1
  Os  Os30  1  0.500000  0.000000  0.119640  1
  Os  Os31  1  0.500000  0.000000  0.619640  1
