# generated using pymatgen
data_ZrSc5Ni20P13
_symmetry_space_group_name_H-M   'P 1'
_cell_length_a   12.50123862
_cell_length_b   12.48169378
_cell_length_c   3.63094700
_cell_angle_alpha   90.00000000
_cell_angle_beta   90.00000000
_cell_angle_gamma   119.93446659
_symmetry_Int_Tables_number   1
_chemical_formula_structural   ZrSc5Ni20P13
_chemical_formula_sum   'Zr1 Sc5 Ni20 P13'
_cell_volume   490.97968285
_cell_formula_units_Z   1
loop_
 _symmetry_equiv_pos_site_id
 _symmetry_equiv_pos_as_xyz
  1  'x, y, z'
loop_
 _atom_site_type_symbol
 _atom_site_label
 _atom_site_symmetry_multiplicity
 _atom_site_fract_x
 _atom_site_fract_y
 _atom_site_fract_z
 _atom_site_occupancy
  Zr  Zr0  1  0.527358  0.809121  0.000000  1
  Sc  Sc1  1  0.809116  0.283376  0.500000  1
  Sc  Sc2  1  0.716867  0.526155  0.500000  1
  Sc  Sc3  1  0.473562  0.191386  0.500000  1
  Sc  Sc4  1  0.191724  0.717357  0.000000  1
  Sc  Sc5  1  0.281719  0.474023  0.000000  1
  Ni  Ni6  1  0.419953  0.980736  0.000000  1
  Ni  Ni7  1  0.018625  0.438164  0.000000  1
  Ni  Ni8  1  0.585186  0.020238  0.500000  1
  Ni  Ni9  1  0.560979  0.580958  0.000000  1
  Ni  Ni10  1  0.980184  0.564660  0.500000  1
  Ni  Ni11  1  0.923559  0.079345  0.500000  1
  Ni  Ni12  1  0.156547  0.076631  0.500000  1
  Ni  Ni13  1  0.921889  0.844789  0.500000  1
  Ni  Ni14  1  0.095410  0.896089  0.000000  1
  Ni  Ni15  1  0.801918  0.905119  0.000000  1
  Ni  Ni16  1  0.104010  0.198992  0.000000  1
  Ni  Ni17  1  0.332416  0.665999  0.500000  1
  Ni  Ni18  1  0.666455  0.333668  0.000000  1
  Ni  Ni19  1  0.677773  0.748369  0.500000  1
  Ni  Ni20  1  0.251618  0.928742  0.500000  1
  Ni  Ni21  1  0.921209  0.677228  0.000000  1
  Ni  Ni22  1  0.323113  0.244285  0.000000  1
  Ni  Ni23  1  0.754873  0.078001  0.000000  1
  Ni  Ni24  1  0.434336  0.415254  0.500000  1
  Ni  Ni25  1  0.070573  0.322384  0.500000  1
  P  P26  1  0.000534  0.000128  0.000000  1
  P  P27  1  0.232836  0.287046  0.500000  1
  P  P28  1  0.714123  0.946543  0.500000  1
  P  P29  1  0.054262  0.766786  0.500000  1
  P  P30  1  0.764630  0.710207  0.000000  1
  P  P31  1  0.289496  0.054176  0.000000  1
  P  P32  1  0.471600  0.612500  0.500000  1
  P  P33  1  0.386999  0.859226  0.500000  1
  P  P34  1  0.858113  0.473685  0.000000  1
  P  P35  1  0.525878  0.384915  0.000000  1
  P  P36  1  0.615068  0.141622  0.000000  1
  P  P37  1  0.945122  0.234168  0.000000  1
  P  P38  1  0.140369  0.527931  0.500000  1
