# generated using pymatgen
data_La8CdHgRu2
_symmetry_space_group_name_H-M   'P 1'
_cell_length_a   10.06439068
_cell_length_b   10.08583791
_cell_length_c   10.06439078
_cell_angle_alpha   59.92948435
_cell_angle_beta   59.93410110
_cell_angle_gamma   59.92948131
_symmetry_Int_Tables_number   1
_chemical_formula_structural   La8CdHgRu2
_chemical_formula_sum   'La16 Cd2 Hg2 Ru4'
_cell_volume   721.26015957
_cell_formula_units_Z   2
loop_
 _symmetry_equiv_pos_site_id
 _symmetry_equiv_pos_as_xyz
  1  'x, y, z'
loop_
 _atom_site_type_symbol
 _atom_site_label
 _atom_site_symmetry_multiplicity
 _atom_site_fract_x
 _atom_site_fract_y
 _atom_site_fract_z
 _atom_site_occupancy
  La  La0  1  0.903428  0.902943  0.903428  1
  La  La1  1  0.438946  0.439289  0.060685  1
  La  La2  1  0.060685  0.061080  0.438946  1
  La  La3  1  0.438946  0.061080  0.060685  1
  La  La4  1  0.308682  0.691318  0.308682  1
  La  La5  1  0.690565  0.690697  0.308623  1
  La  La6  1  0.690565  0.310116  0.308623  1
  La  La7  1  0.289289  0.903444  0.903824  1
  La  La8  1  0.903428  0.290202  0.903428  1
  La  La9  1  0.308623  0.690697  0.690565  1
  La  La10  1  0.903824  0.903444  0.289289  1
  La  La11  1  0.060236  0.439764  0.060236  1
  La  La12  1  0.308623  0.310116  0.690565  1
  La  La13  1  0.060685  0.439289  0.438946  1
  La  La14  1  0.438599  0.061401  0.438599  1
  La  La15  1  0.690272  0.309728  0.690272  1
  Cd  Cd16  1  0.670839  0.987054  0.670839  1
  Cd  Cd17  1  0.670839  0.671267  0.670839  1
  Hg  Hg18  1  0.668215  0.669253  0.993278  1
  Hg  Hg19  1  0.993278  0.669253  0.668215  1
  Ru  Ru20  1  0.113938  0.112719  0.660622  1
  Ru  Ru21  1  0.113436  0.112003  0.113436  1
  Ru  Ru22  1  0.113436  0.661123  0.113436  1
  Ru  Ru23  1  0.660622  0.112719  0.113938  1
