# generated using pymatgen
data_Er3Tm5Tc3B24Os
_symmetry_space_group_name_H-M   'P 1'
_cell_length_a   3.63897300
_cell_length_b   9.09406169
_cell_length_c   11.46681700
_cell_angle_alpha   89.94909205
_cell_angle_beta   90.00000000
_cell_angle_gamma   90.00000000
_symmetry_Int_Tables_number   1
_chemical_formula_structural   Er3Tm5Tc3B24Os
_chemical_formula_sum   'Er3 Tm5 Tc3 B24 Os1'
_cell_volume   379.47174065
_cell_formula_units_Z   1
loop_
 _symmetry_equiv_pos_site_id
 _symmetry_equiv_pos_as_xyz
  1  'x, y, z'
loop_
 _atom_site_type_symbol
 _atom_site_label
 _atom_site_symmetry_multiplicity
 _atom_site_fract_x
 _atom_site_fract_y
 _atom_site_fract_z
 _atom_site_occupancy
  Er  Er0  1  0.000000  0.323197  0.413865  1
  Er  Er1  1  0.000000  0.675728  0.584364  1
  Er  Er2  1  0.000000  0.822566  0.087301  1
  Tm  Tm3  1  0.000000  0.178425  0.914525  1
  Tm  Tm4  1  0.000000  0.942627  0.370255  1
  Tm  Tm5  1  0.000000  0.058138  0.629814  1
  Tm  Tm6  1  0.000000  0.442943  0.129879  1
  Tm  Tm7  1  0.000000  0.556812  0.869735  1
  Tc  Tc8  1  0.000000  0.638750  0.320279  1
  Tc  Tc9  1  0.000000  0.361236  0.680340  1
  Tc  Tc10  1  0.000000  0.138265  0.178364  1
  B  B11  1  0.500000  0.552992  0.433144  1
  B  B12  1  0.500000  0.446889  0.566648  1
  B  B13  1  0.500000  0.053074  0.066514  1
  B  B14  1  0.500000  0.946564  0.933192  1
  B  B15  1  0.500000  0.749322  0.419040  1
  B  B16  1  0.500000  0.250358  0.581053  1
  B  B17  1  0.500000  0.249837  0.080785  1
  B  B18  1  0.500000  0.750632  0.918734  1
  B  B19  1  0.500000  0.792281  0.265383  1
  B  B20  1  0.500000  0.207836  0.735349  1
  B  B21  1  0.500000  0.292188  0.234803  1
  B  B22  1  0.500000  0.708551  0.765115  1
  B  B23  1  0.500000  0.630658  0.185063  1
  B  B24  1  0.500000  0.369089  0.815561  1
  B  B25  1  0.500000  0.130229  0.314614  1
  B  B26  1  0.500000  0.869347  0.685208  1
  B  B27  1  0.500000  0.981212  0.211951  1
  B  B28  1  0.500000  0.017909  0.788124  1
  B  B29  1  0.500000  0.481387  0.287816  1
  B  B30  1  0.500000  0.518357  0.712010  1
  B  B31  1  0.500000  0.601241  0.027896  1
  B  B32  1  0.500000  0.399609  0.971885  1
  B  B33  1  0.500000  0.100887  0.472032  1
  B  B34  1  0.500000  0.899126  0.528415  1
  Os  Os35  1  0.000000  0.861735  0.820944  1
