# generated using pymatgen
data_DyEr17(TmSn8)2
_symmetry_space_group_name_H-M   'P 1'
_cell_length_a   7.98213129
_cell_length_b   8.10724987
_cell_length_c   15.33832501
_cell_angle_alpha   90.00397988
_cell_angle_beta   89.93557141
_cell_angle_gamma   89.96288299
_symmetry_Int_Tables_number   1
_chemical_formula_structural   DyEr17(TmSn8)2
_chemical_formula_sum   'Dy1 Er17 Tm2 Sn16'
_cell_volume   992.59022585
_cell_formula_units_Z   1
loop_
 _symmetry_equiv_pos_site_id
 _symmetry_equiv_pos_as_xyz
  1  'x, y, z'
loop_
 _atom_site_type_symbol
 _atom_site_label
 _atom_site_symmetry_multiplicity
 _atom_site_fract_x
 _atom_site_fract_y
 _atom_site_fract_z
 _atom_site_occupancy
  Dy  Dy0  1  0.021459  0.179560  0.903074  1
  Er  Er1  1  0.368160  0.836536  0.877441  1
  Er  Er2  1  0.868383  0.663461  0.622295  1
  Er  Er3  1  0.631534  0.163307  0.377519  1
  Er  Er4  1  0.132003  0.336852  0.122677  1
  Er  Er5  1  0.632028  0.163326  0.122582  1
  Er  Er6  1  0.131581  0.336668  0.377528  1
  Er  Er7  1  0.368472  0.836546  0.622385  1
  Er  Er8  1  0.868252  0.663368  0.877492  1
  Er  Er9  1  0.522146  0.320809  0.902828  1
  Er  Er10  1  0.022404  0.179432  0.597362  1
  Er  Er11  1  0.477754  0.679322  0.402781  1
  Er  Er12  1  0.978052  0.820409  0.097196  1
  Er  Er13  1  0.477975  0.679461  0.097162  1
  Er  Er14  1  0.977743  0.820675  0.402804  1
  Er  Er15  1  0.522296  0.320768  0.597035  1
  Er  Er16  1  0.198621  0.503522  0.749800  1
  Er  Er17  1  0.698363  0.996427  0.749744  1
  Tm  Tm18  1  0.801437  0.496593  0.250086  1
  Tm  Tm19  1  0.301497  0.003361  0.250076  1
  Sn  Sn20  1  0.292868  0.035255  0.042115  1
  Sn  Sn21  1  0.791863  0.464239  0.458335  1
  Sn  Sn22  1  0.708157  0.964470  0.541466  1
  Sn  Sn23  1  0.208255  0.536407  0.958646  1
  Sn  Sn24  1  0.706703  0.963303  0.958716  1
  Sn  Sn25  1  0.208072  0.535703  0.541450  1
  Sn  Sn26  1  0.291903  0.035672  0.458365  1
  Sn  Sn27  1  0.792123  0.464226  0.041634  1
  Sn  Sn28  1  0.565062  0.618708  0.749941  1
  Sn  Sn29  1  0.065037  0.880919  0.749929  1
  Sn  Sn30  1  0.435253  0.381282  0.250039  1
  Sn  Sn31  1  0.935272  0.118850  0.250095  1
  Sn  Sn32  1  0.331621  0.148673  0.749852  1
  Sn  Sn33  1  0.830582  0.351806  0.749534  1
  Sn  Sn34  1  0.668557  0.851039  0.249984  1
  Sn  Sn35  1  0.168512  0.649047  0.250033  1
