# generated using pymatgen
data_Y24SiTc7
_symmetry_space_group_name_H-M   'P 1'
_cell_length_a   6.27752562
_cell_length_b   9.26214400
_cell_length_c   15.00933205
_cell_angle_alpha   90.00000000
_cell_angle_beta   89.90414959
_cell_angle_gamma   90.00000000
_symmetry_Int_Tables_number   1
_chemical_formula_structural   Y24SiTc7
_chemical_formula_sum   'Y24 Si1 Tc7'
_cell_volume   872.69156985
_cell_formula_units_Z   1
loop_
 _symmetry_equiv_pos_site_id
 _symmetry_equiv_pos_as_xyz
  1  'x, y, z'
loop_
 _atom_site_type_symbol
 _atom_site_label
 _atom_site_symmetry_multiplicity
 _atom_site_fract_x
 _atom_site_fract_y
 _atom_site_fract_z
 _atom_site_occupancy
  Y  Y0  1  0.538830  0.750000  0.354157  1
  Y  Y1  1  0.031966  0.250000  0.146595  1
  Y  Y2  1  0.464522  0.250000  0.646632  1
  Y  Y3  1  0.960543  0.750000  0.856045  1
  Y  Y4  1  0.778250  0.750000  0.107770  1
  Y  Y5  1  0.271927  0.250000  0.390740  1
  Y  Y6  1  0.223569  0.250000  0.891625  1
  Y  Y7  1  0.725419  0.750000  0.605285  1
  Y  Y8  1  0.444793  0.934386  0.793548  1
  Y  Y9  1  0.932309  0.066709  0.709893  1
  Y  Y10  1  0.563881  0.435661  0.211079  1
  Y  Y11  1  0.063891  0.566818  0.286249  1
  Y  Y12  1  0.563881  0.064339  0.211079  1
  Y  Y13  1  0.063891  0.933182  0.286249  1
  Y  Y14  1  0.444793  0.565614  0.793548  1
  Y  Y15  1  0.932309  0.433291  0.709893  1
  Y  Y16  1  0.237217  0.938354  0.529996  1
  Y  Y17  1  0.738864  0.065254  0.967111  1
  Y  Y18  1  0.756626  0.433966  0.463582  1
  Y  Y19  1  0.254725  0.564396  0.037127  1
  Y  Y20  1  0.756626  0.066034  0.463582  1
  Y  Y21  1  0.254725  0.935604  0.037127  1
  Y  Y22  1  0.237217  0.561646  0.529996  1
  Y  Y23  1  0.738864  0.434746  0.967111  1
  Si  Si24  1  0.165565  0.750000  0.683950  1
  Tc  Tc25  1  0.935444  0.750000  0.440531  1
  Tc  Tc26  1  0.425939  0.250000  0.061018  1
  Tc  Tc27  1  0.068987  0.250000  0.561451  1
  Tc  Tc28  1  0.564433  0.750000  0.941895  1
  Tc  Tc29  1  0.360524  0.750000  0.184406  1
  Tc  Tc30  1  0.853248  0.250000  0.315291  1
  Tc  Tc31  1  0.646225  0.250000  0.815435  1
