# generated using pymatgen
data_Lu4Zr3SnIr4
_symmetry_space_group_name_H-M   'P 1'
_cell_length_a   4.42524200
_cell_length_b   7.08153812
_cell_length_c   8.27713957
_cell_angle_alpha   93.32007742
_cell_angle_beta   90.00000000
_cell_angle_gamma   90.00000000
_symmetry_Int_Tables_number   1
_chemical_formula_structural   Lu4Zr3SnIr4
_chemical_formula_sum   'Lu4 Zr3 Sn1 Ir4'
_cell_volume   258.94967019
_cell_formula_units_Z   1
loop_
 _symmetry_equiv_pos_site_id
 _symmetry_equiv_pos_as_xyz
  1  'x, y, z'
loop_
 _atom_site_type_symbol
 _atom_site_label
 _atom_site_symmetry_multiplicity
 _atom_site_fract_x
 _atom_site_fract_y
 _atom_site_fract_z
 _atom_site_occupancy
  Lu  Lu0  1  0.250000  0.032866  0.336802  1
  Lu  Lu1  1  0.250000  0.518178  0.176949  1
  Lu  Lu2  1  0.750000  0.994354  0.666599  1
  Lu  Lu3  1  0.750000  0.462242  0.818131  1
  Zr  Zr4  1  0.250000  0.135464  0.925992  1
  Zr  Zr5  1  0.250000  0.644568  0.565032  1
  Zr  Zr6  1  0.750000  0.854944  0.072519  1
  Sn  Sn7  1  0.750000  0.355329  0.426009  1
  Ir  Ir8  1  0.250000  0.267584  0.626974  1
  Ir  Ir9  1  0.250000  0.755454  0.894591  1
  Ir  Ir10  1  0.750000  0.746040  0.389386  1
  Ir  Ir11  1  0.750000  0.232977  0.101017  1
