# generated using pymatgen
data_Er4VRe(B8Mo)2
_symmetry_space_group_name_H-M   'P 1'
_cell_length_a   3.57089000
_cell_length_b   5.98785762
_cell_length_c   11.56127980
_cell_angle_alpha   89.91865488
_cell_angle_beta   90.00000000
_cell_angle_gamma   90.00000000
_symmetry_Int_Tables_number   1
_chemical_formula_structural   Er4VRe(B8Mo)2
_chemical_formula_sum   'Er4 V1 Re1 B16 Mo2'
_cell_volume   247.20281490
_cell_formula_units_Z   1
loop_
 _symmetry_equiv_pos_site_id
 _symmetry_equiv_pos_as_xyz
  1  'x, y, z'
loop_
 _atom_site_type_symbol
 _atom_site_label
 _atom_site_symmetry_multiplicity
 _atom_site_fract_x
 _atom_site_fract_y
 _atom_site_fract_z
 _atom_site_occupancy
  Er  Er0  1  0.500000  0.126420  0.851974  1
  Er  Er1  1  0.500000  0.874474  0.148383  1
  Er  Er2  1  0.500000  0.627019  0.650840  1
  Er  Er3  1  0.500000  0.372550  0.347610  1
  V  V4  1  0.500000  0.371063  0.081901  1
  Re  Re5  1  0.500000  0.628182  0.917040  1
  B  B6  1  0.000000  0.288483  0.687773  1
  B  B7  1  0.000000  0.711760  0.312468  1
  B  B8  1  0.000000  0.785042  0.815617  1
  B  B9  1  0.000000  0.214969  0.184536  1
  B  B10  1  0.000000  0.367950  0.531904  1
  B  B11  1  0.000000  0.632151  0.467874  1
  B  B12  1  0.000000  0.864933  0.968368  1
  B  B13  1  0.000000  0.135067  0.031903  1
  B  B14  1  0.000000  0.024773  0.304976  1
  B  B15  1  0.000000  0.975067  0.695132  1
  B  B16  1  0.000000  0.522315  0.192156  1
  B  B17  1  0.000000  0.477285  0.807954  1
  B  B18  1  0.000000  0.115431  0.452128  1
  B  B19  1  0.000000  0.885272  0.548122  1
  B  B20  1  0.000000  0.613784  0.047516  1
  B  B21  1  0.000000  0.386309  0.952739  1
  Mo  Mo22  1  0.500000  0.129915  0.585072  1
  Mo  Mo23  1  0.500000  0.869785  0.416017  1
