# generated using pymatgen
data_RhF17
_symmetry_space_group_name_H-M   'P 1'
_cell_length_a   8.88822378
_cell_length_b   8.61258880
_cell_length_c   10.20324437
_cell_angle_alpha   82.85270052
_cell_angle_beta   87.20062635
_cell_angle_gamma   68.16449310
_symmetry_Int_Tables_number   1
_chemical_formula_structural   RhF17
_chemical_formula_sum   'Rh2 F34'
_cell_volume   719.39099712
_cell_formula_units_Z   2
loop_
 _symmetry_equiv_pos_site_id
 _symmetry_equiv_pos_as_xyz
  1  'x, y, z'
loop_
 _atom_site_type_symbol
 _atom_site_label
 _atom_site_symmetry_multiplicity
 _atom_site_fract_x
 _atom_site_fract_y
 _atom_site_fract_z
 _atom_site_occupancy
  Rh  Rh0  1  0.861125  0.250649  0.761180  1
  Rh  Rh1  1  0.138875  0.749351  0.238820  1
  F  F2  1  0.597405  0.201764  0.491785  1
  F  F3  1  0.402595  0.798236  0.508215  1
  F  F4  1  0.821433  0.692826  0.716971  1
  F  F5  1  0.178567  0.307174  0.283029  1
  F  F6  1  0.077071  0.785326  0.854698  1
  F  F7  1  0.922929  0.214674  0.145302  1
  F  F8  1  0.553392  0.140902  0.381245  1
  F  F9  1  0.446608  0.859098  0.618755  1
  F  F10  1  0.647682  0.314198  0.702238  1
  F  F11  1  0.352318  0.685802  0.297762  1
  F  F12  1  0.929891  0.072417  0.657000  1
  F  F13  1  0.070109  0.927583  0.343000  1
  F  F14  1  0.903291  0.387358  0.618151  1
  F  F15  1  0.096709  0.612642  0.381849  1
  F  F16  1  0.852989  0.804838  0.614395  1
  F  F17  1  0.147011  0.195162  0.385605  1
  F  F18  1  0.795187  0.432136  0.862498  1
  F  F19  1  0.204813  0.567864  0.137502  1
  F  F20  1  0.208707  0.688998  0.777753  1
  F  F21  1  0.791293  0.311002  0.222247  1
  F  F22  1  0.927878  0.812791  0.175610  1
  F  F23  1  0.072122  0.187209  0.824390  1
  F  F24  1  0.817844  0.111558  0.902127  1
  F  F25  1  0.182156  0.888442  0.097873  1
  F  F26  1  0.478505  0.587360  0.978311  1
  F  F27  1  0.521495  0.412640  0.021689  1
  F  F28  1  0.466055  0.076557  0.867596  1
  F  F29  1  0.533945  0.923443  0.132404  1
  F  F30  1  0.288647  0.227332  0.620701  1
  F  F31  1  0.711353  0.772668  0.379299  1
  F  F32  1  0.256864  0.383205  0.671977  1
  F  F33  1  0.743136  0.616795  0.328023  1
  F  F34  1  0.560132  0.909795  0.839640  1
  F  F35  1  0.439868  0.090205  0.160360  1
