# generated using pymatgen
data_Sc6Al6GeAu5
_symmetry_space_group_name_H-M   'P 1'
_cell_length_a   6.94143500
_cell_length_b   6.94143557
_cell_length_c   8.07595100
_cell_angle_alpha   90.00000000
_cell_angle_beta   90.00000000
_cell_angle_gamma   119.99999250
_symmetry_Int_Tables_number   1
_chemical_formula_structural   Sc6Al6GeAu5
_chemical_formula_sum   'Sc6 Al6 Ge1 Au5'
_cell_volume   336.99456615
_cell_formula_units_Z   1
loop_
 _symmetry_equiv_pos_site_id
 _symmetry_equiv_pos_as_xyz
  1  'x, y, z'
loop_
 _atom_site_type_symbol
 _atom_site_label
 _atom_site_symmetry_multiplicity
 _atom_site_fract_x
 _atom_site_fract_y
 _atom_site_fract_z
 _atom_site_occupancy
  Sc  Sc0  1  0.583669  0.002310  0.747261  1
  Sc  Sc1  1  0.997690  0.581359  0.747261  1
  Sc  Sc2  1  0.418641  0.416331  0.747261  1
  Sc  Sc3  1  0.994768  0.580796  0.252702  1
  Sc  Sc4  1  0.586028  0.005232  0.252702  1
  Sc  Sc5  1  0.419204  0.413972  0.252702  1
  Al  Al6  1  0.747830  0.755924  0.000032  1
  Al  Al7  1  0.244076  0.991906  0.000032  1
  Al  Al8  1  0.008094  0.252170  0.000032  1
  Al  Al9  1  0.752767  0.752574  0.500008  1
  Al  Al10  1  0.247426  0.000192  0.500008  1
  Al  Al11  1  0.999808  0.247233  0.500008  1
  Ge  Ge12  1  0.666667  0.333333  0.999167  1
  Au  Au13  1  0.000000  0.000000  0.752652  1
  Au  Au14  1  0.000000  0.000000  0.247388  1
  Au  Au15  1  0.666667  0.333333  0.501293  1
  Au  Au16  1  0.333333  0.666667  0.497469  1
  Au  Au17  1  0.333333  0.666667  0.002020  1
