# generated using pymatgen
data_Re3Tc3Pt8
_symmetry_space_group_name_H-M   'P 1'
_cell_length_a   7.45342200
_cell_length_b   7.45319557
_cell_length_c   4.43754200
_cell_angle_alpha   90.00000000
_cell_angle_beta   90.00000000
_cell_angle_gamma   59.99995071
_symmetry_Int_Tables_number   1
_chemical_formula_structural   Re3Tc3Pt8
_chemical_formula_sum   'Re3 Tc3 Pt8'
_cell_volume   213.48684585
_cell_formula_units_Z   1
loop_
 _symmetry_equiv_pos_site_id
 _symmetry_equiv_pos_as_xyz
  1  'x, y, z'
loop_
 _atom_site_type_symbol
 _atom_site_label
 _atom_site_symmetry_multiplicity
 _atom_site_fract_x
 _atom_site_fract_y
 _atom_site_fract_z
 _atom_site_occupancy
  Re  Re0  1  0.701987  0.442530  0.000000  1
  Re  Re1  1  0.299715  0.569757  0.000000  1
  Re  Re2  1  0.426863  0.844844  0.000000  1
  Tc  Tc3  1  0.525293  0.392019  0.499999  1
  Tc  Tc4  1  0.654082  0.668159  0.499999  1
  Tc  Tc5  1  0.249160  0.796963  0.499999  1
  Pt  Pt6  1  0.008793  0.992042  0.000000  1
  Pt  Pt7  1  0.570569  0.151645  0.000000  1
  Pt  Pt8  1  0.142849  0.285691  0.000000  1
  Pt  Pt9  1  0.849179  0.713428  0.000000  1
  Pt  Pt10  1  0.382013  0.085516  0.499999  1
  Pt  Pt11  1  0.942650  0.246745  0.499999  1
  Pt  Pt12  1  0.103887  0.524862  0.499999  1
  Pt  Pt13  1  0.809530  0.952362  0.499999  1
