# generated using pymatgen
data_Dy11YAl8Cr8(GaO12)4
_symmetry_space_group_name_H-M   'P 1'
_cell_length_a   10.62923945
_cell_length_b   10.62875827
_cell_length_c   10.62875100
_cell_angle_alpha   109.46855953
_cell_angle_beta   109.47169051
_cell_angle_gamma   109.47177735
_symmetry_Int_Tables_number   1
_chemical_formula_structural   Dy11YAl8Cr8(GaO12)4
_chemical_formula_sum   'Dy11 Y1 Al8 Cr8 Ga4 O48'
_cell_volume   924.38698646
_cell_formula_units_Z   1
loop_
 _symmetry_equiv_pos_site_id
 _symmetry_equiv_pos_as_xyz
  1  'x, y, z'
loop_
 _atom_site_type_symbol
 _atom_site_label
 _atom_site_symmetry_multiplicity
 _atom_site_fract_x
 _atom_site_fract_y
 _atom_site_fract_z
 _atom_site_occupancy
  Dy  Dy0  1  0.249925  0.375166  0.124925  1
  Dy  Dy1  1  0.375007  0.749764  0.124942  1
  Dy  Dy2  1  0.374903  0.124896  0.249777  1
  Dy  Dy3  1  0.875141  0.625088  0.250234  1
  Dy  Dy4  1  0.127198  0.252186  0.377222  1
  Dy  Dy5  1  0.750013  0.125044  0.377210  1
  Dy  Dy6  1  0.875782  0.751293  0.625780  1
  Dy  Dy7  1  0.250076  0.874559  0.625793  1
  Dy  Dy8  1  0.623947  0.874022  0.747952  1
  Dy  Dy9  1  0.125007  0.374991  0.750015  1
  Dy  Dy10  1  0.624036  0.249756  0.873015  1
  Y  Y11  1  0.748899  0.623151  0.872949  1
  Al  Al12  1  0.250355  0.625389  0.375118  1
  Al  Al13  1  0.624788  0.749737  0.375134  1
  Al  Al14  1  0.374580  0.249362  0.624765  1
  Al  Al15  1  0.750149  0.375241  0.624781  1
  Al  Al16  1  0.875155  0.125322  0.750253  1
  Al  Al17  1  0.374961  0.624967  0.750240  1
  Al  Al18  1  0.249933  0.125227  0.874662  1
  Al  Al19  1  0.124849  0.749469  0.874622  1
  Cr  Cr20  1  0.001310  0.000026  0.997822  1
  Cr  Cr21  1  0.496565  0.997945  0.997831  1
  Cr  Cr22  1  0.000109  0.499335  0.998513  1
  Cr  Cr23  1  0.498363  0.499014  0.998527  1
  Cr  Cr24  1  0.000239  0.000945  0.502611  1
  Cr  Cr25  1  0.499389  0.500488  0.501045  1
  Cr  Cr26  1  0.501731  0.000644  0.501146  1
  Cr  Cr27  1  0.002294  0.501608  0.502537  1
  Ga  Ga28  1  0.874726  0.249662  0.124826  1
  Ga  Ga29  1  0.750101  0.875262  0.124948  1
  Ga  Ga30  1  0.624929  0.375190  0.250286  1
  Ga  Ga31  1  0.125499  0.875224  0.250443  1
  O  O32  1  0.314215  0.900672  0.023320  1
  O  O33  1  0.209191  0.122695  0.023333  1
  O  O34  1  0.707784  0.677318  0.083724  1
  O  O35  1  0.875607  0.406185  0.083381  1
  O  O36  1  0.623253  0.414890  0.092737  1
  O  O37  1  0.969904  0.677843  0.093127  1
  O  O38  1  0.592702  0.915465  0.124003  1
  O  O39  1  0.031263  0.208598  0.123993  1
  O  O40  1  0.476663  0.598740  0.184059  1
  O  O41  1  0.207388  0.585269  0.184021  1
  O  O42  1  0.583644  0.177154  0.207768  1
  O  O43  1  0.124119  0.030637  0.207764  1
  O  O44  1  0.468701  0.375841  0.292209  1
  O  O45  1  0.323607  0.916442  0.292281  1
  O  O46  1  0.915751  0.292350  0.323138  1
  O  O47  1  0.907421  0.030846  0.323224  1
  O  O48  1  0.586250  0.901180  0.378406  1
  O  O49  1  0.292144  0.477191  0.378362  1
  O  O50  1  0.083813  0.875774  0.407189  1
  O  O51  1  0.823333  0.531387  0.407097  1
  O  O52  1  0.099514  0.621985  0.414857  1
  O  O53  1  0.815383  0.792899  0.414905  1
  O  O54  1  0.599485  0.184761  0.477093  1
  O  O55  1  0.377655  0.292325  0.477156  1
  O  O56  1  0.401060  0.816281  0.523565  1
  O  O57  1  0.622529  0.707283  0.523579  1
  O  O58  1  0.901625  0.378149  0.586248  1
  O  O59  1  0.184597  0.208052  0.586231  1
  O  O60  1  0.915075  0.123591  0.599904  1
  O  O61  1  0.184737  0.476286  0.599882  1
  O  O62  1  0.414323  0.098248  0.621653  1
  O  O63  1  0.707384  0.523247  0.621393  1
  O  O64  1  0.086541  0.709005  0.684932  1
  O  O65  1  0.098503  0.975973  0.685020  1
  O  O66  1  0.684744  0.085682  0.708345  1
  O  O67  1  0.523211  0.622635  0.707982  1
  O  O68  1  0.413595  0.814811  0.791006  1
  O  O69  1  0.877329  0.976233  0.790969  1
  O  O70  1  0.522559  0.400243  0.814728  1
  O  O71  1  0.791721  0.413712  0.814583  1
  O  O72  1  0.400663  0.085545  0.876952  1
  O  O73  1  0.976689  0.791840  0.876967  1
  O  O74  1  0.377494  0.585547  0.901302  1
  O  O75  1  0.023819  0.315728  0.901292  1
  O  O76  1  0.291363  0.315811  0.914465  1
  O  O77  1  0.123037  0.598638  0.914429  1
  O  O78  1  0.676224  0.092558  0.968676  1
  O  O79  1  0.792415  0.876472  0.968816  1
