# generated using pymatgen
data_Zn2Hg(AsO4)2
_symmetry_space_group_name_H-M   'P 1'
_cell_length_a   5.44433525
_cell_length_b   5.45701902
_cell_length_c   6.97740925
_cell_angle_alpha   72.96443373
_cell_angle_beta   84.98794386
_cell_angle_gamma   67.52614995
_symmetry_Int_Tables_number   1
_chemical_formula_structural   Zn2Hg(AsO4)2
_chemical_formula_sum   'Zn2 Hg1 As2 O8'
_cell_volume   183.07834691
_cell_formula_units_Z   1
loop_
 _symmetry_equiv_pos_site_id
 _symmetry_equiv_pos_as_xyz
  1  'x, y, z'
loop_
 _atom_site_type_symbol
 _atom_site_label
 _atom_site_symmetry_multiplicity
 _atom_site_fract_x
 _atom_site_fract_y
 _atom_site_fract_z
 _atom_site_occupancy
  Zn  Zn0  1  0.202274  0.268561  0.176505  1
  Zn  Zn1  1  0.797726  0.731438  0.823494  1
  Hg  Hg2  1  0.500000  0.500000  0.500001  1
  As  As3  1  0.833644  0.881842  0.265238  1
  As  As4  1  0.166357  0.118159  0.734761  1
  O  O5  1  0.900199  0.644708  0.128750  1
  O  O6  1  0.588139  0.188905  0.153720  1
  O  O7  1  0.118014  0.930953  0.298471  1
  O  O8  1  0.739132  0.725184  0.502721  1
  O  O9  1  0.260867  0.274818  0.497279  1
  O  O10  1  0.881986  0.069047  0.701528  1
  O  O11  1  0.411863  0.811094  0.846280  1
  O  O12  1  0.099801  0.355291  0.871249  1
