# generated using pymatgen
data_Dy3Mn7CrCoP6
_symmetry_space_group_name_H-M   'P 1'
_cell_length_a   3.65231200
_cell_length_b   10.87373700
_cell_length_c   12.66093200
_cell_angle_alpha   90.00000000
_cell_angle_beta   90.00000000
_cell_angle_gamma   90.00000000
_symmetry_Int_Tables_number   1
_chemical_formula_structural   Dy3Mn7CrCoP6
_chemical_formula_sum   'Dy6 Mn14 Cr2 Co2 P12'
_cell_volume   502.81980015
_cell_formula_units_Z   2
loop_
 _symmetry_equiv_pos_site_id
 _symmetry_equiv_pos_as_xyz
  1  'x, y, z'
loop_
 _atom_site_type_symbol
 _atom_site_label
 _atom_site_symmetry_multiplicity
 _atom_site_fract_x
 _atom_site_fract_y
 _atom_site_fract_z
 _atom_site_occupancy
  Dy  Dy0  1  0.000000  0.500000  0.531072  1
  Dy  Dy1  1  0.500000  0.000000  0.468928  1
  Dy  Dy2  1  0.500000  0.821850  0.206505  1
  Dy  Dy3  1  0.500000  0.178150  0.206505  1
  Dy  Dy4  1  0.000000  0.678150  0.793495  1
  Dy  Dy5  1  0.000000  0.321850  0.793495  1
  Mn  Mn6  1  0.000000  0.500000  0.991095  1
  Mn  Mn7  1  0.500000  0.000000  0.008905  1
  Mn  Mn8  1  0.500000  0.332641  0.995629  1
  Mn  Mn9  1  0.500000  0.667359  0.995629  1
  Mn  Mn10  1  0.000000  0.167359  0.004371  1
  Mn  Mn11  1  0.000000  0.832641  0.004371  1
  Mn  Mn12  1  0.500000  0.297954  0.432284  1
  Mn  Mn13  1  0.500000  0.702046  0.432284  1
  Mn  Mn14  1  0.000000  0.202046  0.567716  1
  Mn  Mn15  1  0.000000  0.797954  0.567716  1
  Mn  Mn16  1  0.500000  0.880487  0.702817  1
  Mn  Mn17  1  0.500000  0.119513  0.702817  1
  Mn  Mn18  1  0.000000  0.619513  0.297183  1
  Mn  Mn19  1  0.000000  0.380487  0.297183  1
  Cr  Cr20  1  0.500000  0.500000  0.161257  1
  Cr  Cr21  1  0.000000  0.000000  0.838743  1
  Co  Co22  1  0.500000  0.500000  0.704184  1
  Co  Co23  1  0.000000  0.000000  0.295816  1
  P  P24  1  0.500000  0.500000  0.879281  1
  P  P25  1  0.000000  0.000000  0.120719  1
  P  P26  1  0.500000  0.500000  0.356048  1
  P  P27  1  0.000000  0.000000  0.643952  1
  P  P28  1  0.500000  0.318083  0.618583  1
  P  P29  1  0.500000  0.681917  0.618583  1
  P  P30  1  0.000000  0.181917  0.381417  1
  P  P31  1  0.000000  0.818083  0.381417  1
  P  P32  1  0.500000  0.846589  0.885668  1
  P  P33  1  0.500000  0.153411  0.885668  1
  P  P34  1  0.000000  0.653411  0.114332  1
  P  P35  1  0.000000  0.346589  0.114332  1
