# generated using pymatgen
data_Sr2Si3GeRu4
_symmetry_space_group_name_H-M   'P 1'
_cell_length_a   8.11387520
_cell_length_b   6.93714865
_cell_length_c   6.02049136
_cell_angle_alpha   77.18225077
_cell_angle_beta   57.29997887
_cell_angle_gamma   46.34097809
_symmetry_Int_Tables_number   1
_chemical_formula_structural   Sr2Si3GeRu4
_chemical_formula_sum   'Sr2 Si3 Ge1 Ru4'
_cell_volume   199.85161158
_cell_formula_units_Z   1
loop_
 _symmetry_equiv_pos_site_id
 _symmetry_equiv_pos_as_xyz
  1  'x, y, z'
loop_
 _atom_site_type_symbol
 _atom_site_label
 _atom_site_symmetry_multiplicity
 _atom_site_fract_x
 _atom_site_fract_y
 _atom_site_fract_z
 _atom_site_occupancy
  Sr  Sr0  1  0.999559  0.000439  0.999565  1
  Sr  Sr1  1  0.249980  0.250021  0.249981  1
  Si  Si2  1  0.572099  0.927899  0.572118  1
  Si  Si3  1  0.677513  0.322488  0.677504  1
  Si  Si4  1  0.928632  0.571372  0.928622  1
  Ge  Ge5  1  0.318629  0.681369  0.318640  1
  Ru  Ru6  1  0.629171  0.618982  0.375486  1
  Ru  Ru7  1  0.375516  0.376339  0.629177  1
  Ru  Ru8  1  0.864085  0.875105  0.634812  1
  Ru  Ru9  1  0.634822  0.625979  0.864096  1
