# generated using pymatgen
data_HfZr(SiRh2)4
_symmetry_space_group_name_H-M   'P 1'
_cell_length_a   4.12086700
_cell_length_b   8.98894200
_cell_length_c   11.19630400
_cell_angle_alpha   90.00000000
_cell_angle_beta   90.00000000
_cell_angle_gamma   90.00000000
_symmetry_Int_Tables_number   1
_chemical_formula_structural   HfZr(SiRh2)4
_chemical_formula_sum   'Hf2 Zr2 Si8 Rh16'
_cell_volume   414.73611777
_cell_formula_units_Z   2
loop_
 _symmetry_equiv_pos_site_id
 _symmetry_equiv_pos_as_xyz
  1  'x, y, z'
loop_
 _atom_site_type_symbol
 _atom_site_label
 _atom_site_symmetry_multiplicity
 _atom_site_fract_x
 _atom_site_fract_y
 _atom_site_fract_z
 _atom_site_occupancy
  Hf  Hf0  1  0.750000  0.858351  0.177098  1
  Hf  Hf1  1  0.750000  0.641649  0.677098  1
  Zr  Zr2  1  0.250000  0.141236  0.823492  1
  Zr  Zr3  1  0.250000  0.358764  0.323492  1
  Si  Si4  1  0.250000  0.412345  0.638111  1
  Si  Si5  1  0.250000  0.087655  0.138111  1
  Si  Si6  1  0.750000  0.586495  0.361462  1
  Si  Si7  1  0.750000  0.913505  0.861462  1
  Si  Si8  1  0.250000  0.615730  0.056446  1
  Si  Si9  1  0.250000  0.884270  0.556446  1
  Si  Si10  1  0.750000  0.381369  0.943324  1
  Si  Si11  1  0.750000  0.118631  0.443324  1
  Rh  Rh12  1  0.250000  0.617164  0.503870  1
  Rh  Rh13  1  0.250000  0.882836  0.003870  1
  Rh  Rh14  1  0.750000  0.387688  0.500590  1
  Rh  Rh15  1  0.750000  0.112312  0.000590  1
  Rh  Rh16  1  0.250000  0.695962  0.262583  1
  Rh  Rh17  1  0.250000  0.804038  0.762583  1
  Rh  Rh18  1  0.750000  0.308807  0.736342  1
  Rh  Rh19  1  0.750000  0.191193  0.236342  1
  Rh  Rh20  1  0.250000  0.171037  0.558786  1
  Rh  Rh21  1  0.250000  0.328963  0.058786  1
  Rh  Rh22  1  0.750000  0.828346  0.439230  1
  Rh  Rh23  1  0.750000  0.671654  0.939230  1
  Rh  Rh24  1  0.250000  0.007046  0.340432  1
  Rh  Rh25  1  0.250000  0.492954  0.840432  1
  Rh  Rh26  1  0.750000  0.991545  0.658233  1
  Rh  Rh27  1  0.750000  0.508455  0.158233  1
