# generated using pymatgen
data_Lu12In2Fe2Os
_symmetry_space_group_name_H-M   'P 1'
_cell_length_a   8.20594233
_cell_length_b   8.20501879
_cell_length_c   8.20594330
_cell_angle_alpha   108.60477821
_cell_angle_beta   108.60698815
_cell_angle_gamma   111.22082119
_symmetry_Int_Tables_number   1
_chemical_formula_structural   Lu12In2Fe2Os
_chemical_formula_sum   'Lu12 In2 Fe2 Os1'
_cell_volume   424.99650567
_cell_formula_units_Z   1
loop_
 _symmetry_equiv_pos_site_id
 _symmetry_equiv_pos_as_xyz
  1  'x, y, z'
loop_
 _atom_site_type_symbol
 _atom_site_label
 _atom_site_symmetry_multiplicity
 _atom_site_fract_x
 _atom_site_fract_y
 _atom_site_fract_z
 _atom_site_occupancy
  Lu  Lu0  1  0.309007  0.309002  0.618057  1
  Lu  Lu1  1  0.690993  0.690998  0.381943  1
  Lu  Lu2  1  0.690945  0.309002  0.999996  1
  Lu  Lu3  1  0.309055  0.690998  0.000004  1
  Lu  Lu4  1  0.191952  0.429453  0.237501  1
  Lu  Lu5  1  0.808048  0.570547  0.762499  1
  Lu  Lu6  1  0.191999  0.954594  0.762596  1
  Lu  Lu7  1  0.954526  0.191993  0.762556  1
  Lu  Lu8  1  0.808001  0.045406  0.237404  1
  Lu  Lu9  1  0.045474  0.808007  0.237444  1
  Lu  Lu10  1  0.429437  0.191993  0.237467  1
  Lu  Lu11  1  0.570563  0.808007  0.762533  1
  In  In12  1  0.000000  0.500000  0.500000  1
  In  In13  1  0.500000  0.000000  0.500000  1
  Fe  Fe14  1  0.383454  0.383951  0.000498  1
  Fe  Fe15  1  0.616546  0.616049  0.999502  1
  Os  Os16  1  0.000000  0.000000  0.000000  1
