# generated using pymatgen
data_TbTmHf2(Al3Ir)6
_symmetry_space_group_name_H-M   'P 1'
_cell_length_a   7.51232969
_cell_length_b   7.49765252
_cell_length_c   9.33286600
_cell_angle_alpha   90.00000000
_cell_angle_beta   90.00000000
_cell_angle_gamma   119.71697853
_symmetry_Int_Tables_number   1
_chemical_formula_structural   TbTmHf2(Al3Ir)6
_chemical_formula_sum   'Tb1 Tm1 Hf2 Al18 Ir6'
_cell_volume   456.53820701
_cell_formula_units_Z   1
loop_
 _symmetry_equiv_pos_site_id
 _symmetry_equiv_pos_as_xyz
  1  'x, y, z'
loop_
 _atom_site_type_symbol
 _atom_site_label
 _atom_site_symmetry_multiplicity
 _atom_site_fract_x
 _atom_site_fract_y
 _atom_site_fract_z
 _atom_site_occupancy
  Tb  Tb0  1  0.670802  0.994333  0.250000  1
  Tm  Tm1  1  0.328719  0.005519  0.750000  1
  Hf  Hf2  1  0.995595  0.671728  0.250000  1
  Hf  Hf3  1  0.004654  0.328358  0.750000  1
  Al  Al4  1  0.127207  0.124910  0.250000  1
  Al  Al5  1  0.873785  0.875386  0.750000  1
  Al  Al6  1  0.000414  0.337574  0.075323  1
  Al  Al7  1  0.000335  0.663147  0.923780  1
  Al  Al8  1  0.000335  0.663147  0.576220  1
  Al  Al9  1  0.332122  0.998503  0.422291  1
  Al  Al10  1  0.000414  0.337574  0.424677  1
  Al  Al11  1  0.667165  0.001586  0.579248  1
  Al  Al12  1  0.667165  0.001586  0.920752  1
  Al  Al13  1  0.332122  0.998503  0.077709  1
  Al  Al14  1  0.331331  0.333345  0.557591  1
  Al  Al15  1  0.668740  0.665996  0.443368  1
  Al  Al16  1  0.668740  0.665996  0.056632  1
  Al  Al17  1  0.331331  0.333345  0.942409  1
  Al  Al18  1  0.334400  0.547523  0.250000  1
  Al  Al19  1  0.664744  0.451429  0.750000  1
  Al  Al20  1  0.553830  0.343947  0.250000  1
  Al  Al21  1  0.445841  0.656516  0.750000  1
  Ir  Ir22  1  0.672779  0.327920  0.999301  1
  Ir  Ir23  1  0.326865  0.672004  0.000181  1
  Ir  Ir24  1  0.326865  0.672004  0.499819  1
  Ir  Ir25  1  0.672779  0.327920  0.500699  1
  Ir  Ir26  1  0.000460  0.000101  0.999674  1
  Ir  Ir27  1  0.000460  0.000101  0.500326  1
