# generated using pymatgen
data_Hf2Mg3Zr3(Co4P3)4
_symmetry_space_group_name_H-M   'P 1'
_cell_length_a   11.97240601
_cell_length_b   11.97329953
_cell_length_c   3.64411100
_cell_angle_alpha   90.00000000
_cell_angle_beta   90.00000000
_cell_angle_gamma   120.00246517
_symmetry_Int_Tables_number   1
_chemical_formula_structural   Hf2Mg3Zr3(Co4P3)4
_chemical_formula_sum   'Hf2 Mg3 Zr3 Co16 P12'
_cell_volume   452.38346588
_cell_formula_units_Z   1
loop_
 _symmetry_equiv_pos_site_id
 _symmetry_equiv_pos_as_xyz
  1  'x, y, z'
loop_
 _atom_site_type_symbol
 _atom_site_label
 _atom_site_symmetry_multiplicity
 _atom_site_fract_x
 _atom_site_fract_y
 _atom_site_fract_z
 _atom_site_occupancy
  Hf  Hf0  1  0.814358  0.814567  0.500000  1
  Hf  Hf1  1  0.185642  0.000209  0.500000  1
  Mg  Mg2  1  0.442969  0.442627  0.000000  1
  Mg  Mg3  1  0.557031  0.999657  0.000000  1
  Mg  Mg4  1  0.000000  0.557804  0.000000  1
  Zr  Zr5  1  0.666612  0.333210  0.000000  1
  Zr  Zr6  1  0.333388  0.666599  0.000000  1
  Zr  Zr7  1  0.000000  0.186150  0.500000  1
  Co  Co8  1  0.196504  0.374297  0.000000  1
  Co  Co9  1  0.177994  0.804768  0.000000  1
  Co  Co10  1  0.822006  0.626774  0.000000  1
  Co  Co11  1  0.803496  0.177791  0.000000  1
  Co  Co12  1  0.373383  0.195164  0.000000  1
  Co  Co13  1  0.127364  0.482434  0.500000  1
  Co  Co14  1  0.354732  0.872903  0.500000  1
  Co  Co15  1  0.518165  0.645266  0.500000  1
  Co  Co16  1  0.645268  0.518172  0.500000  1
  Co  Co17  1  0.872636  0.355070  0.500000  1
  Co  Co18  1  0.481835  0.127101  0.500000  1
  Co  Co19  1  0.000000  0.998955  0.000000  1
  Co  Co20  1  0.720089  0.999070  0.500000  1
  Co  Co21  1  0.000000  0.721012  0.500000  1
  Co  Co22  1  0.626617  0.821782  0.000000  1
  Co  Co23  1  0.279911  0.278981  0.500000  1
  P  P24  1  0.646175  0.646253  0.000000  1
  P  P25  1  0.353825  0.000078  0.000000  1
  P  P26  1  0.000000  0.354927  0.000000  1
  P  P27  1  0.483062  0.310990  0.500000  1
  P  P28  1  0.688999  0.171649  0.500000  1
  P  P29  1  0.827923  0.517189  0.500000  1
  P  P30  1  0.516938  0.827927  0.500000  1
  P  P31  1  0.172077  0.689266  0.500000  1
  P  P32  1  0.824090  0.999263  0.000000  1
  P  P33  1  0.000000  0.824272  0.000000  1
  P  P34  1  0.311001  0.482650  0.500000  1
  P  P35  1  0.175910  0.175173  0.000000  1
