# generated using pymatgen
data_LaPr2Hg2Pd2PtAu
_symmetry_space_group_name_H-M   'P 1'
_cell_length_a   7.77818900
_cell_length_b   7.77819071
_cell_length_c   4.00673900
_cell_angle_alpha   90.00000000
_cell_angle_beta   90.00000000
_cell_angle_gamma   118.80783505
_symmetry_Int_Tables_number   1
_chemical_formula_structural   LaPr2Hg2Pd2PtAu
_chemical_formula_sum   'La1 Pr2 Hg2 Pd2 Pt1 Au1'
_cell_volume   212.40835728
_cell_formula_units_Z   1
loop_
 _symmetry_equiv_pos_site_id
 _symmetry_equiv_pos_as_xyz
  1  'x, y, z'
loop_
 _atom_site_type_symbol
 _atom_site_label
 _atom_site_symmetry_multiplicity
 _atom_site_fract_x
 _atom_site_fract_y
 _atom_site_fract_z
 _atom_site_occupancy
  La  La0  1  0.412544  0.407648  0.500000  1
  Pr  Pr1  1  0.607645  0.997714  0.500000  1
  Pr  Pr2  1  0.985783  0.601949  0.500000  1
  Hg  Hg3  1  0.259664  0.994974  0.000000  1
  Hg  Hg4  1  0.003598  0.263432  0.000000  1
  Pd  Pd5  1  0.329292  0.662486  0.000000  1
  Pd  Pd6  1  0.002919  0.002862  0.500000  1
  Pt  Pt7  1  0.662070  0.328765  0.000000  1
  Au  Au8  1  0.736485  0.740168  0.000000  1
