# generated using pymatgen
data_Ho17Lu3Si15Hg
_symmetry_space_group_name_H-M   'P 1'
_cell_length_a   7.38412476
_cell_length_b   7.66149482
_cell_length_c   14.56747339
_cell_angle_alpha   89.93317420
_cell_angle_beta   89.23591792
_cell_angle_gamma   90.05869688
_symmetry_Int_Tables_number   1
_chemical_formula_structural   Ho17Lu3Si15Hg
_chemical_formula_sum   'Ho17 Lu3 Si15 Hg1'
_cell_volume   824.05770083
_cell_formula_units_Z   1
loop_
 _symmetry_equiv_pos_site_id
 _symmetry_equiv_pos_as_xyz
  1  'x, y, z'
loop_
 _atom_site_type_symbol
 _atom_site_label
 _atom_site_symmetry_multiplicity
 _atom_site_fract_x
 _atom_site_fract_y
 _atom_site_fract_z
 _atom_site_occupancy
  Ho  Ho0  1  0.347902  0.010913  0.749505  1
  Ho  Ho1  1  0.978501  0.823497  0.102144  1
  Ho  Ho2  1  0.472262  0.683803  0.401132  1
  Ho  Ho3  1  0.517183  0.312295  0.898885  1
  Ho  Ho4  1  0.029218  0.182133  0.597829  1
  Ho  Ho5  1  0.025684  0.176516  0.899903  1
  Ho  Ho6  1  0.529387  0.316396  0.598067  1
  Ho  Ho7  1  0.476977  0.682536  0.101248  1
  Ho  Ho8  1  0.970868  0.816637  0.400587  1
  Ho  Ho9  1  0.672009  0.830207  0.873508  1
  Ho  Ho10  1  0.181677  0.679478  0.621368  1
  Ho  Ho11  1  0.823532  0.320770  0.127087  1
  Ho  Ho12  1  0.318786  0.177907  0.377346  1
  Ho  Ho13  1  0.324189  0.176765  0.124846  1
  Ho  Ho14  1  0.819899  0.321554  0.377302  1
  Ho  Ho15  1  0.180310  0.674857  0.876890  1
  Ho  Ho16  1  0.682073  0.822491  0.621679  1
  Lu  Lu17  1  0.650483  0.990521  0.250341  1
  Lu  Lu18  1  0.153105  0.511124  0.248830  1
  Lu  Lu19  1  0.847861  0.489907  0.747555  1
  Si  Si20  1  0.770897  0.631775  0.252175  1
  Si  Si21  1  0.270749  0.869885  0.251923  1
  Si  Si22  1  0.732898  0.129917  0.747619  1
  Si  Si23  1  0.227269  0.372105  0.747243  1
  Si  Si24  1  0.021995  0.102401  0.252302  1
  Si  Si25  1  0.522727  0.396202  0.252470  1
  Si  Si26  1  0.477220  0.603870  0.747426  1
  Si  Si27  1  0.976637  0.892457  0.747339  1
  Si  Si28  1  0.354345  0.971814  0.540371  1
  Si  Si29  1  0.654090  0.030061  0.041786  1
  Si  Si30  1  0.147670  0.470809  0.459538  1
  Si  Si31  1  0.161959  0.470419  0.043692  1
  Si  Si32  1  0.646611  0.027862  0.457970  1
  Si  Si33  1  0.346408  0.967491  0.961916  1
  Si  Si34  1  0.854017  0.529516  0.539755  1
  Hg  Hg35  1  0.832601  0.533108  0.960423  1
