# generated using pymatgen
data_Tb2Mn4Ni8As3P4
_symmetry_space_group_name_H-M   'P 1'
_cell_length_a   9.31966516
_cell_length_b   9.30029635
_cell_length_c   3.72188100
_cell_angle_alpha   90.00000000
_cell_angle_beta   90.00000000
_cell_angle_gamma   119.94962713
_symmetry_Int_Tables_number   1
_chemical_formula_structural   Tb2Mn4Ni8As3P4
_chemical_formula_sum   'Tb2 Mn4 Ni8 As3 P4'
_cell_volume   279.51841916
_cell_formula_units_Z   1
loop_
 _symmetry_equiv_pos_site_id
 _symmetry_equiv_pos_as_xyz
  1  'x, y, z'
loop_
 _atom_site_type_symbol
 _atom_site_label
 _atom_site_symmetry_multiplicity
 _atom_site_fract_x
 _atom_site_fract_y
 _atom_site_fract_z
 _atom_site_occupancy
  Tb  Tb0  1  0.672859  0.333316  0.000000  1
  Tb  Tb1  1  0.328494  0.660594  0.500000  1
  Mn  Mn2  1  0.881794  0.156987  0.000000  1
  Mn  Mn3  1  0.090679  0.882061  0.500000  1
  Mn  Mn4  1  0.787832  0.907693  0.500000  1
  Mn  Mn5  1  0.112879  0.219868  0.500000  1
  Ni  Ni6  1  0.049488  0.611667  0.000000  1
  Ni  Ni7  1  0.573320  0.948474  0.000000  1
  Ni  Ni8  1  0.356763  0.429163  0.000000  1
  Ni  Ni9  1  0.265858  0.120505  0.000000  1
  Ni  Ni10  1  0.855061  0.724416  0.000000  1
  Ni  Ni11  1  0.445452  0.053896  0.500000  1
  Ni  Ni12  1  0.632861  0.570031  0.500000  1
  Ni  Ni13  1  0.947232  0.382835  0.500000  1
  As  As14  1  0.291089  0.882876  0.000000  1
  As  As15  1  0.592246  0.705494  0.000000  1
  As  As16  1  0.410533  0.294782  0.500000  1
  P  P17  1  0.106601  0.404870  0.000000  1
  P  P18  1  0.890240  0.596889  0.500000  1
  P  P19  1  0.714391  0.113996  0.500000  1
  P  P20  1  0.994326  0.999588  0.000000  1
