# generated using pymatgen
data_NdGd2Dy(GaCu)4
_symmetry_space_group_name_H-M   'P 1'
_cell_length_a   4.43918600
_cell_length_b   7.10080431
_cell_length_c   7.39286800
_cell_angle_alpha   89.94468759
_cell_angle_beta   90.00000000
_cell_angle_gamma   90.00000000
_symmetry_Int_Tables_number   1
_chemical_formula_structural   NdGd2Dy(GaCu)4
_chemical_formula_sum   'Nd1 Gd2 Dy1 Ga4 Cu4'
_cell_volume   233.03633196
_cell_formula_units_Z   1
loop_
 _symmetry_equiv_pos_site_id
 _symmetry_equiv_pos_as_xyz
  1  'x, y, z'
loop_
 _atom_site_type_symbol
 _atom_site_label
 _atom_site_symmetry_multiplicity
 _atom_site_fract_x
 _atom_site_fract_y
 _atom_site_fract_z
 _atom_site_occupancy
  Nd  Nd0  1  0.250000  0.008722  0.792226  1
  Gd  Gd1  1  0.750000  0.990310  0.217001  1
  Gd  Gd2  1  0.750000  0.490562  0.290010  1
  Dy  Dy3  1  0.250000  0.508668  0.709019  1
  Ga  Ga4  1  0.250000  0.197406  0.409768  1
  Ga  Ga5  1  0.250000  0.691274  0.086511  1
  Ga  Ga6  1  0.750000  0.799098  0.584511  1
  Ga  Ga7  1  0.750000  0.308440  0.914920  1
  Cu  Cu8  1  0.250000  0.798071  0.414197  1
  Cu  Cu9  1  0.250000  0.308952  0.084409  1
  Cu  Cu10  1  0.750000  0.204685  0.579264  1
  Cu  Cu11  1  0.750000  0.693812  0.918162  1
