# generated using pymatgen
data_Y4Ni3B16Ru13
_symmetry_space_group_name_H-M   'P 1'
_cell_length_a   7.43851311
_cell_length_b   7.48590826
_cell_length_c   9.12164050
_cell_angle_alpha   114.65984531
_cell_angle_beta   113.87987754
_cell_angle_gamma   89.68440498
_symmetry_Int_Tables_number   1
_chemical_formula_structural   Y4Ni3B16Ru13
_chemical_formula_sum   'Y4 Ni3 B16 Ru13'
_cell_volume   413.85193473
_cell_formula_units_Z   1
loop_
 _symmetry_equiv_pos_site_id
 _symmetry_equiv_pos_as_xyz
  1  'x, y, z'
loop_
 _atom_site_type_symbol
 _atom_site_label
 _atom_site_symmetry_multiplicity
 _atom_site_fract_x
 _atom_site_fract_y
 _atom_site_fract_z
 _atom_site_occupancy
  Y  Y0  1  0.503017  0.001733  0.001646  1
  Y  Y1  1  0.001723  0.494630  0.001675  1
  Y  Y2  1  0.247350  0.249472  0.494949  1
  Y  Y3  1  0.746889  0.746138  0.492767  1
  Ni  Ni4  1  0.949288  0.212316  0.123897  1
  Ni  Ni5  1  0.447638  0.405394  0.125568  1
  Ni  Ni6  1  0.678517  0.718838  0.126574  1
  B  B7  1  0.249155  0.217491  0.160483  1
  B  B8  1  0.749401  0.436301  0.160333  1
  B  B9  1  0.414833  0.724360  0.164913  1
  B  B10  1  0.910115  0.936540  0.161084  1
  B  B11  1  0.833645  0.021472  0.334226  1
  B  B12  1  0.500214  0.308119  0.334321  1
  B  B13  1  0.001366  0.522117  0.333491  1
  B  B14  1  0.335886  0.812144  0.337405  1
  B  B15  1  0.691413  0.169552  0.667542  1
  B  B16  1  0.976927  0.498085  0.663649  1
  B  B17  1  0.472930  0.665427  0.663408  1
  B  B18  1  0.186892  0.999046  0.663810  1
  B  B19  1  0.775421  0.084417  0.834926  1
  B  B20  1  0.276487  0.252939  0.840921  1
  B  B21  1  0.561867  0.592174  0.841023  1
  B  B22  1  0.056416  0.751539  0.834777  1
  Ru  Ru23  1  0.172098  0.911491  0.122243  1
  Ru  Ru24  1  0.573729  0.040088  0.376042  1
  Ru  Ru25  1  0.802899  0.331471  0.369036  1
  Ru  Ru26  1  0.306709  0.538863  0.371264  1
  Ru  Ru27  1  0.066508  0.830483  0.370745  1
  Ru  Ru28  1  0.961988  0.199061  0.624744  1
  Ru  Ru29  1  0.665118  0.429603  0.624567  1
  Ru  Ru30  1  0.164925  0.695656  0.623697  1
  Ru  Ru31  1  0.458243  0.930165  0.626442  1
  Ru  Ru32  1  0.084592  0.054036  0.878214  1
  Ru  Ru33  1  0.585229  0.332773  0.885062  1
  Ru  Ru34  1  0.300961  0.557974  0.888229  1
  Ru  Ru35  1  0.789610  0.828096  0.876332  1
