# generated using pymatgen
data_Hf9TaRe2NiW
_symmetry_space_group_name_H-M   'P 1'
_cell_length_a   8.67713413
_cell_length_b   8.67713383
_cell_length_c   8.46169400
_cell_angle_alpha   90.00000000
_cell_angle_beta   90.00000000
_cell_angle_gamma   119.91974607
_symmetry_Int_Tables_number   1
_chemical_formula_structural   Hf9TaRe2NiW
_chemical_formula_sum   'Hf18 Ta2 Re4 Ni2 W2'
_cell_volume   552.19338146
_cell_formula_units_Z   2
loop_
 _symmetry_equiv_pos_site_id
 _symmetry_equiv_pos_as_xyz
  1  'x, y, z'
loop_
 _atom_site_type_symbol
 _atom_site_label
 _atom_site_symmetry_multiplicity
 _atom_site_fract_x
 _atom_site_fract_y
 _atom_site_fract_z
 _atom_site_occupancy
  Hf  Hf0  1  0.200099  0.799901  0.441809  1
  Hf  Hf1  1  0.200290  0.400658  0.441540  1
  Hf  Hf2  1  0.599342  0.799710  0.441540  1
  Hf  Hf3  1  0.799784  0.200216  0.557488  1
  Hf  Hf4  1  0.799723  0.599672  0.557864  1
  Hf  Hf5  1  0.400328  0.200277  0.557864  1
  Hf  Hf6  1  0.799784  0.200216  0.942512  1
  Hf  Hf7  1  0.799723  0.599672  0.942136  1
  Hf  Hf8  1  0.400328  0.200277  0.942136  1
  Hf  Hf9  1  0.200099  0.799901  0.058191  1
  Hf  Hf10  1  0.200290  0.400658  0.058460  1
  Hf  Hf11  1  0.599342  0.799710  0.058460  1
  Hf  Hf12  1  0.542694  0.457306  0.250000  1
  Hf  Hf13  1  0.542458  0.085284  0.250000  1
  Hf  Hf14  1  0.914716  0.457542  0.250000  1
  Hf  Hf15  1  0.457717  0.542283  0.750000  1
  Hf  Hf16  1  0.457077  0.915058  0.750000  1
  Hf  Hf17  1  0.084942  0.542923  0.750000  1
  Ta  Ta18  1  0.000592  0.999408  0.497500  1
  Ta  Ta19  1  0.000592  0.999408  0.002500  1
  Re  Re20  1  0.885697  0.114303  0.250000  1
  Re  Re21  1  0.886367  0.771631  0.250000  1
  Re  Re22  1  0.228369  0.113633  0.250000  1
  Re  Re23  1  0.113689  0.886311  0.750000  1
  Ni  Ni24  1  0.333074  0.666926  0.250000  1
  Ni  Ni25  1  0.666520  0.333480  0.750000  1
  W  W26  1  0.113831  0.227469  0.750000  1
  W  W27  1  0.772531  0.886169  0.750000  1
