# generated using pymatgen
data_ErTm5Al18
_symmetry_space_group_name_H-M   'P 1'
_cell_length_a   14.50201702
_cell_length_b   14.50201676
_cell_length_c   14.50201768
_cell_angle_alpha   24.33908904
_cell_angle_beta   24.33909034
_cell_angle_gamma   24.33908760
_symmetry_Int_Tables_number   1
_chemical_formula_structural   ErTm5Al18
_chemical_formula_sum   'Er1 Tm5 Al18'
_cell_volume   455.38141110
_cell_formula_units_Z   1
loop_
 _symmetry_equiv_pos_site_id
 _symmetry_equiv_pos_as_xyz
  1  'x, y, z'
loop_
 _atom_site_type_symbol
 _atom_site_label
 _atom_site_symmetry_multiplicity
 _atom_site_fract_x
 _atom_site_fract_y
 _atom_site_fract_z
 _atom_site_occupancy
  Er  Er0  1  0.609368  0.609368  0.609368  1
  Tm  Tm1  1  0.000095  0.000095  0.000095  1
  Tm  Tm2  1  0.499968  0.499968  0.499968  1
  Tm  Tm3  1  0.109451  0.109451  0.109451  1
  Tm  Tm4  1  0.890539  0.890539  0.890539  1
  Tm  Tm5  1  0.390682  0.390682  0.390682  1
  Al  Al6  1  0.920592  0.372120  0.372120  1
  Al  Al7  1  0.419927  0.872677  0.872677  1
  Al  Al8  1  0.372120  0.372120  0.920592  1
  Al  Al9  1  0.872677  0.872677  0.419927  1
  Al  Al10  1  0.372120  0.920592  0.372120  1
  Al  Al11  1  0.872677  0.419927  0.872677  1
  Al  Al12  1  0.580105  0.127414  0.127414  1
  Al  Al13  1  0.079845  0.627460  0.627460  1
  Al  Al14  1  0.127414  0.127414  0.580105  1
  Al  Al15  1  0.627460  0.627460  0.079845  1
  Al  Al16  1  0.127414  0.580105  0.127414  1
  Al  Al17  1  0.627460  0.079845  0.627460  1
  Al  Al18  1  0.499751  0.499751  0.000857  1
  Al  Al19  1  0.999647  0.999647  0.500435  1
  Al  Al20  1  0.499751  0.000857  0.499751  1
  Al  Al21  1  0.999647  0.500435  0.999647  1
  Al  Al22  1  0.000857  0.499751  0.499751  1
  Al  Al23  1  0.500435  0.999647  0.999647  1
