# generated using pymatgen
data_Tm4Al12Ga6Ir5Pt
_symmetry_space_group_name_H-M   'P 1'
_cell_length_a   7.52748905
_cell_length_b   7.52748830
_cell_length_c   9.51922305
_cell_angle_alpha   90.04588043
_cell_angle_beta   90.04588429
_cell_angle_gamma   119.82896839
_symmetry_Int_Tables_number   1
_chemical_formula_structural   Tm4Al12Ga6Ir5Pt
_chemical_formula_sum   'Tm4 Al12 Ga6 Ir5 Pt1'
_cell_volume   467.92656365
_cell_formula_units_Z   1
loop_
 _symmetry_equiv_pos_site_id
 _symmetry_equiv_pos_as_xyz
  1  'x, y, z'
loop_
 _atom_site_type_symbol
 _atom_site_label
 _atom_site_symmetry_multiplicity
 _atom_site_fract_x
 _atom_site_fract_y
 _atom_site_fract_z
 _atom_site_occupancy
  Tm  Tm0  1  0.997053  0.669660  0.250949  1
  Tm  Tm1  1  0.002947  0.330340  0.749051  1
  Tm  Tm2  1  0.669660  0.997053  0.250949  1
  Tm  Tm3  1  0.330340  0.002947  0.749051  1
  Al  Al4  1  0.000835  0.337332  0.075876  1
  Al  Al5  1  0.999165  0.662668  0.924124  1
  Al  Al6  1  0.999659  0.665771  0.573807  1
  Al  Al7  1  0.334229  0.000341  0.426193  1
  Al  Al8  1  0.000341  0.334229  0.426193  1
  Al  Al9  1  0.665771  0.999659  0.573807  1
  Al  Al10  1  0.662668  0.999165  0.924124  1
  Al  Al11  1  0.337332  0.000835  0.075876  1
  Al  Al12  1  0.333722  0.333722  0.557670  1
  Al  Al13  1  0.666278  0.666278  0.442330  1
  Al  Al14  1  0.663379  0.663379  0.059440  1
  Al  Al15  1  0.336621  0.336621  0.940560  1
  Ga  Ga16  1  0.129245  0.129245  0.252090  1
  Ga  Ga17  1  0.870755  0.870755  0.747910  1
  Ga  Ga18  1  0.338935  0.548598  0.250359  1
  Ga  Ga19  1  0.661065  0.451402  0.749641  1
  Ga  Ga20  1  0.548598  0.338935  0.250359  1
  Ga  Ga21  1  0.451402  0.661065  0.749641  1
  Ir  Ir22  1  0.671838  0.328162  0.000000  1
  Ir  Ir23  1  0.328162  0.671838  0.000000  1
  Ir  Ir24  1  0.328057  0.671943  0.500000  1
  Ir  Ir25  1  0.671943  0.328057  0.500000  1
  Ir  Ir26  1  0.000000  0.000000  0.500000  1
  Pt  Pt27  1  0.000000  0.000000  0.000000  1
