# generated using pymatgen
data_Tb3(Hg2Au)2
_symmetry_space_group_name_H-M   'P 1'
_cell_length_a   7.97254900
_cell_length_b   7.97254841
_cell_length_c   3.82489100
_cell_angle_alpha   90.00000000
_cell_angle_beta   90.00000000
_cell_angle_gamma   120.00000659
_symmetry_Int_Tables_number   1
_chemical_formula_structural   Tb3(Hg2Au)2
_chemical_formula_sum   'Tb3 Hg4 Au2'
_cell_volume   210.54456183
_cell_formula_units_Z   1
loop_
 _symmetry_equiv_pos_site_id
 _symmetry_equiv_pos_as_xyz
  1  'x, y, z'
loop_
 _atom_site_type_symbol
 _atom_site_label
 _atom_site_symmetry_multiplicity
 _atom_site_fract_x
 _atom_site_fract_y
 _atom_site_fract_z
 _atom_site_occupancy
  Tb  Tb0  1  0.406705  0.000000  0.000000  1
  Tb  Tb1  1  0.593295  0.593295  0.000000  1
  Tb  Tb2  1  0.000000  0.406705  0.000000  1
  Hg  Hg3  1  0.721454  0.000000  0.500000  1
  Hg  Hg4  1  0.278546  0.278546  0.500000  1
  Hg  Hg5  1  0.000000  0.721454  0.500000  1
  Hg  Hg6  1  0.000000  0.000000  0.000000  1
  Au  Au7  1  0.666667  0.333333  0.500000  1
  Au  Au8  1  0.333333  0.666667  0.500000  1
