# generated using pymatgen
data_YbPrThAs3
_symmetry_space_group_name_H-M   'P 1'
_cell_length_a   7.28833093
_cell_length_b   7.28832960
_cell_length_c   7.28833000
_cell_angle_alpha   146.52181653
_cell_angle_beta   131.95857467
_cell_angle_gamma   59.82192564
_symmetry_Int_Tables_number   1
_chemical_formula_structural   YbPrThAs3
_chemical_formula_sum   'Yb1 Pr1 Th1 As3'
_cell_volume   157.37762059
_cell_formula_units_Z   1
loop_
 _symmetry_equiv_pos_site_id
 _symmetry_equiv_pos_as_xyz
  1  'x, y, z'
loop_
 _atom_site_type_symbol
 _atom_site_label
 _atom_site_symmetry_multiplicity
 _atom_site_fract_x
 _atom_site_fract_y
 _atom_site_fract_z
 _atom_site_occupancy
  Yb  Yb0  1  0.333846  0.333846  0.000000  1
  Pr  Pr1  1  0.999520  0.999520  0.000000  1
  Th  Th2  1  0.667519  0.667519  0.000000  1
  As  As3  1  0.503082  0.003082  0.500000  1
  As  As4  1  0.166406  0.666406  0.500000  1
  As  As5  1  0.829627  0.329627  0.500000  1
