# generated using pymatgen
data_Tb16Tl6FeNi
_symmetry_space_group_name_H-M   'P 1'
_cell_length_a   10.45555400
_cell_length_b   10.45485590
_cell_length_c   7.03452900
_cell_angle_alpha   89.99902999
_cell_angle_beta   89.99986848
_cell_angle_gamma   120.00112673
_symmetry_Int_Tables_number   1
_chemical_formula_structural   Tb16Tl6FeNi
_chemical_formula_sum   'Tb16 Tl6 Fe1 Ni1'
_cell_volume   665.92577629
_cell_formula_units_Z   1
loop_
 _symmetry_equiv_pos_site_id
 _symmetry_equiv_pos_as_xyz
  1  'x, y, z'
loop_
 _atom_site_type_symbol
 _atom_site_label
 _atom_site_symmetry_multiplicity
 _atom_site_fract_x
 _atom_site_fract_y
 _atom_site_fract_z
 _atom_site_occupancy
  Tb  Tb0  1  0.823142  0.646351  0.491453  1
  Tb  Tb1  1  0.353665  0.176810  0.491387  1
  Tb  Tb2  1  0.823175  0.176830  0.491334  1
  Tb  Tb3  1  0.177180  0.354344  0.994348  1
  Tb  Tb4  1  0.645664  0.822837  0.994368  1
  Tb  Tb5  1  0.177180  0.822826  0.994266  1
  Tb  Tb6  1  0.666678  0.333368  0.176150  1
  Tb  Tb7  1  0.333331  0.666644  0.677574  1
  Tb  Tb8  1  0.534133  0.068207  0.789428  1
  Tb  Tb9  1  0.931810  0.465891  0.789406  1
  Tb  Tb10  1  0.534080  0.465874  0.789464  1
  Tb  Tb11  1  0.461504  0.923059  0.287874  1
  Tb  Tb12  1  0.076916  0.538477  0.287857  1
  Tb  Tb13  1  0.461535  0.538467  0.287900  1
  Tb  Tb14  1  0.999997  0.000048  0.773180  1
  Tb  Tb15  1  0.000005  0.999969  0.275998  1
  Tl  Tl16  1  0.836441  0.672864  0.034384  1
  Tl  Tl17  1  0.327157  0.163565  0.034402  1
  Tl  Tl18  1  0.836437  0.163608  0.034398  1
  Tl  Tl19  1  0.162501  0.324989  0.536528  1
  Tl  Tl20  1  0.674966  0.837501  0.536631  1
  Tl  Tl21  1  0.162475  0.837466  0.536579  1
  Fe  Fe22  1  0.333333  0.666661  0.059298  1
  Ni  Ni23  1  0.666692  0.333341  0.561869  1
