# generated using pymatgen
data_Hf3(Al3Fe)4
_symmetry_space_group_name_H-M   'P 1'
_cell_length_a   8.48910500
_cell_length_b   8.48910474
_cell_length_c   9.05385900
_cell_angle_alpha   90.00000000
_cell_angle_beta   90.00000000
_cell_angle_gamma   120.00000490
_symmetry_Int_Tables_number   1
_chemical_formula_structural   Hf3(Al3Fe)4
_chemical_formula_sum   'Hf6 Al24 Fe8'
_cell_volume   565.05163314
_cell_formula_units_Z   2
loop_
 _symmetry_equiv_pos_site_id
 _symmetry_equiv_pos_as_xyz
  1  'x, y, z'
loop_
 _atom_site_type_symbol
 _atom_site_label
 _atom_site_symmetry_multiplicity
 _atom_site_fract_x
 _atom_site_fract_y
 _atom_site_fract_z
 _atom_site_occupancy
  Hf  Hf0  1  0.802230  0.197770  0.750000  1
  Hf  Hf1  1  0.197770  0.802230  0.250000  1
  Hf  Hf2  1  0.395540  0.197770  0.750000  1
  Hf  Hf3  1  0.604460  0.802230  0.250000  1
  Hf  Hf4  1  0.802230  0.604460  0.750000  1
  Hf  Hf5  1  0.197770  0.395540  0.250000  1
  Al  Al6  1  0.666667  0.333333  0.976508  1
  Al  Al7  1  0.333333  0.666667  0.023492  1
  Al  Al8  1  0.333333  0.666667  0.476508  1
  Al  Al9  1  0.666667  0.333333  0.523492  1
  Al  Al10  1  0.838315  0.161685  0.425723  1
  Al  Al11  1  0.161685  0.838315  0.574277  1
  Al  Al12  1  0.323371  0.161685  0.425723  1
  Al  Al13  1  0.161685  0.838315  0.925723  1
  Al  Al14  1  0.676629  0.838315  0.574277  1
  Al  Al15  1  0.838315  0.161685  0.074277  1
  Al  Al16  1  0.838315  0.676629  0.425723  1
  Al  Al17  1  0.676629  0.838315  0.925723  1
  Al  Al18  1  0.161685  0.323371  0.574277  1
  Al  Al19  1  0.323371  0.161685  0.074277  1
  Al  Al20  1  0.161685  0.323371  0.925723  1
  Al  Al21  1  0.838315  0.676629  0.074277  1
  Al  Al22  1  0.444511  0.555489  0.750000  1
  Al  Al23  1  0.555489  0.444511  0.250000  1
  Al  Al24  1  0.110979  0.555489  0.750000  1
  Al  Al25  1  0.889021  0.444511  0.250000  1
  Al  Al26  1  0.444511  0.889021  0.750000  1
  Al  Al27  1  0.555489  0.110979  0.250000  1
  Al  Al28  1  0.000000  0.000000  0.750000  1
  Al  Al29  1  0.000000  0.000000  0.250000  1
  Fe  Fe30  1  0.500000  0.500000  0.000000  1
  Fe  Fe31  1  0.000000  0.500000  0.000000  1
  Fe  Fe32  1  0.500000  0.500000  0.500000  1
  Fe  Fe33  1  0.500000  0.000000  0.000000  1
  Fe  Fe34  1  0.000000  0.500000  0.500000  1
  Fe  Fe35  1  0.500000  0.000000  0.500000  1
  Fe  Fe36  1  0.000000  0.000000  0.000000  1
  Fe  Fe37  1  0.000000  0.000000  0.500000  1
