# generated using pymatgen
data_Eu6Al24NiOs7
_symmetry_space_group_name_H-M   'P 1'
_cell_length_a   8.95858582
_cell_length_b   8.95858600
_cell_length_c   9.77717500
_cell_angle_alpha   89.55613901
_cell_angle_beta   90.44386100
_cell_angle_gamma   119.58171014
_symmetry_Int_Tables_number   1
_chemical_formula_structural   Eu6Al24NiOs7
_chemical_formula_sum   'Eu6 Al24 Ni1 Os7'
_cell_volume   682.37112989
_cell_formula_units_Z   1
loop_
 _symmetry_equiv_pos_site_id
 _symmetry_equiv_pos_as_xyz
  1  'x, y, z'
loop_
 _atom_site_type_symbol
 _atom_site_label
 _atom_site_symmetry_multiplicity
 _atom_site_fract_x
 _atom_site_fract_y
 _atom_site_fract_z
 _atom_site_occupancy
  Eu  Eu0  1  0.190036  0.385777  0.251048  1
  Eu  Eu1  1  0.809964  0.614223  0.748952  1
  Eu  Eu2  1  0.614223  0.809964  0.251048  1
  Eu  Eu3  1  0.385777  0.190036  0.748952  1
  Eu  Eu4  1  0.194529  0.805471  0.250371  1
  Eu  Eu5  1  0.805471  0.194529  0.749629  1
  Al  Al6  1  0.333959  0.666041  0.002066  1
  Al  Al7  1  0.666041  0.333959  0.997934  1
  Al  Al8  1  0.666427  0.333573  0.504122  1
  Al  Al9  1  0.333573  0.666427  0.495878  1
  Al  Al10  1  0.162939  0.324327  0.573413  1
  Al  Al11  1  0.837061  0.675673  0.426587  1
  Al  Al12  1  0.675673  0.837061  0.573413  1
  Al  Al13  1  0.839803  0.676459  0.074209  1
  Al  Al14  1  0.324327  0.162939  0.426587  1
  Al  Al15  1  0.160197  0.323541  0.925791  1
  Al  Al16  1  0.163190  0.836810  0.571391  1
  Al  Al17  1  0.323541  0.160197  0.074209  1
  Al  Al18  1  0.836810  0.163190  0.428609  1
  Al  Al19  1  0.676459  0.839803  0.925791  1
  Al  Al20  1  0.837240  0.162760  0.071876  1
  Al  Al21  1  0.162760  0.837240  0.928124  1
  Al  Al22  1  0.560639  0.124908  0.249504  1
  Al  Al23  1  0.439361  0.875092  0.750496  1
  Al  Al24  1  0.875092  0.439361  0.249504  1
  Al  Al25  1  0.124908  0.560639  0.750496  1
  Al  Al26  1  0.560677  0.439323  0.248412  1
  Al  Al27  1  0.439323  0.560677  0.751588  1
  Al  Al28  1  0.999974  0.000026  0.250047  1
  Al  Al29  1  0.000026  0.999974  0.749953  1
  Ni  Ni30  1  0.500000  0.500000  0.000000  1
  Os  Os31  1  0.500000  0.000000  0.000000  1
  Os  Os32  1  0.000000  0.500000  0.000000  1
  Os  Os33  1  0.500000  0.000000  0.500000  1
  Os  Os34  1  0.000000  0.500000  0.500000  1
  Os  Os35  1  0.500000  0.500000  0.500000  1
  Os  Os36  1  0.000000  0.000000  0.000000  1
  Os  Os37  1  0.000000  0.000000  0.500000  1
