# generated using pymatgen
data_Tb(TaS2)4
_symmetry_space_group_name_H-M   'P 1'
_cell_length_a   6.68635000
_cell_length_b   6.68634234
_cell_length_c   13.91224500
_cell_angle_alpha   90.00000000
_cell_angle_beta   90.00000000
_cell_angle_gamma   119.99994558
_symmetry_Int_Tables_number   1
_chemical_formula_structural   Tb(TaS2)4
_chemical_formula_sum   'Tb2 Ta8 S16'
_cell_volume   538.64893045
_cell_formula_units_Z   2
loop_
 _symmetry_equiv_pos_site_id
 _symmetry_equiv_pos_as_xyz
  1  'x, y, z'
loop_
 _atom_site_type_symbol
 _atom_site_label
 _atom_site_symmetry_multiplicity
 _atom_site_fract_x
 _atom_site_fract_y
 _atom_site_fract_z
 _atom_site_occupancy
  Tb  Tb0  1  0.000000  0.000000  0.500000  1
  Tb  Tb1  1  0.000000  0.000000  0.000000  1
  Ta  Ta2  1  0.504510  0.495490  0.750000  1
  Ta  Ta3  1  0.009020  0.504510  0.250000  1
  Ta  Ta4  1  0.495490  0.990980  0.250000  1
  Ta  Ta5  1  0.504510  0.009020  0.750000  1
  Ta  Ta6  1  0.990980  0.495490  0.750000  1
  Ta  Ta7  1  0.495490  0.504510  0.250000  1
  Ta  Ta8  1  0.000000  0.999999  0.750000  1
  Ta  Ta9  1  0.000000  0.000001  0.250000  1
  S  S10  1  0.831030  0.168971  0.362561  1
  S  S11  1  0.831029  0.662059  0.362561  1
  S  S12  1  0.337941  0.168971  0.362561  1
  S  S13  1  0.662059  0.831029  0.862561  1
  S  S14  1  0.168971  0.337941  0.637439  1
  S  S15  1  0.168970  0.831029  0.862561  1
  S  S16  1  0.168971  0.337941  0.862561  1
  S  S17  1  0.831030  0.168971  0.137439  1
  S  S18  1  0.337941  0.168971  0.137439  1
  S  S19  1  0.662059  0.831029  0.637439  1
  S  S20  1  0.333333  0.666667  0.135119  1
  S  S21  1  0.666667  0.333333  0.635119  1
  S  S22  1  0.666667  0.333333  0.864881  1
  S  S23  1  0.333333  0.666667  0.364881  1
  S  S24  1  0.831029  0.662059  0.137439  1
  S  S25  1  0.168970  0.831029  0.637439  1
