# generated using pymatgen
data_Sm3Hf8ScSn10
_symmetry_space_group_name_H-M   'P 1'
_cell_length_a   11.08124128
_cell_length_b   11.09505155
_cell_length_c   11.09505200
_cell_angle_alpha   148.99880296
_cell_angle_beta   132.03557247
_cell_angle_gamma   58.22597886
_symmetry_Int_Tables_number   1
_chemical_formula_structural   Sm3Hf8ScSn10
_chemical_formula_sum   'Sm3 Hf8 Sc1 Sn10'
_cell_volume   517.81662647
_cell_formula_units_Z   1
loop_
 _symmetry_equiv_pos_site_id
 _symmetry_equiv_pos_as_xyz
  1  'x, y, z'
loop_
 _atom_site_type_symbol
 _atom_site_label
 _atom_site_symmetry_multiplicity
 _atom_site_fract_x
 _atom_site_fract_y
 _atom_site_fract_z
 _atom_site_occupancy
  Sm  Sm0  1  0.257535  0.143657  0.113877  1
  Sm  Sm1  1  0.745445  0.857093  0.888353  1
  Sm  Sm2  1  0.029547  0.643216  0.386331  1
  Hf  Hf3  1  0.312669  0.561462  0.250985  1
  Hf  Hf4  1  0.689362  0.438925  0.750529  1
  Hf  Hf5  1  0.689362  0.938832  0.250437  1
  Hf  Hf6  1  0.312669  0.061685  0.751207  1
  Hf  Hf7  1  0.672870  0.435868  0.237003  1
  Hf  Hf8  1  0.326184  0.564368  0.761815  1
  Hf  Hf9  1  0.194984  0.935396  0.259589  1
  Hf  Hf10  1  0.803601  0.064204  0.739397  1
  Sc  Sc11  1  0.969906  0.356491  0.613415  1
  Sn  Sn12  1  0.594293  0.290378  0.303915  1
  Sn  Sn13  1  0.414892  0.711303  0.703589  1
  Sn  Sn14  1  0.991438  0.789175  0.202262  1
  Sn  Sn15  1  0.007776  0.213084  0.794693  1
  Sn  Sn16  1  0.999685  0.250372  0.252778  1
  Sn  Sn17  1  0.999685  0.746907  0.749313  1
  Sn  Sn18  1  0.469561  0.066044  0.403516  1
  Sn  Sn19  1  0.530527  0.933853  0.596675  1
  Sn  Sn20  1  0.661827  0.566028  0.095799  1
  Sn  Sn21  1  0.326179  0.431659  0.894521  1
