# generated using pymatgen
data_Mn20Fe(MoC3)2
_symmetry_space_group_name_H-M   'P 1'
_cell_length_a   7.39718464
_cell_length_b   7.39718472
_cell_length_c   7.39718500
_cell_angle_alpha   60.00000321
_cell_angle_beta   60.00000286
_cell_angle_gamma   59.99999709
_symmetry_Int_Tables_number   1
_chemical_formula_structural   Mn20Fe(MoC3)2
_chemical_formula_sum   'Mn20 Fe1 Mo2 C6'
_cell_volume   286.20974440
_cell_formula_units_Z   1
loop_
 _symmetry_equiv_pos_site_id
 _symmetry_equiv_pos_as_xyz
  1  'x, y, z'
loop_
 _atom_site_type_symbol
 _atom_site_label
 _atom_site_symmetry_multiplicity
 _atom_site_fract_x
 _atom_site_fract_y
 _atom_site_fract_z
 _atom_site_occupancy
  Mn  Mn0  1  0.332302  0.000000  0.667698  1
  Mn  Mn1  1  0.000000  0.332302  0.667698  1
  Mn  Mn2  1  0.150925  0.616358  0.616358  1
  Mn  Mn3  1  0.667698  0.000000  0.000000  1
  Mn  Mn4  1  0.616358  0.150925  0.616358  1
  Mn  Mn5  1  0.667698  0.332302  0.000000  1
  Mn  Mn6  1  0.000000  0.667698  0.332302  1
  Mn  Mn7  1  0.000000  0.332302  0.000000  1
  Mn  Mn8  1  0.332302  0.667698  0.000000  1
  Mn  Mn9  1  0.000000  0.000000  0.332302  1
  Mn  Mn10  1  0.667698  0.000000  0.332302  1
  Mn  Mn11  1  0.000000  0.667698  0.000000  1
  Mn  Mn12  1  0.383642  0.383642  0.849075  1
  Mn  Mn13  1  0.332302  0.000000  0.000000  1
  Mn  Mn14  1  0.383642  0.849075  0.383642  1
  Mn  Mn15  1  0.616358  0.616358  0.150925  1
  Mn  Mn16  1  0.383642  0.383642  0.383642  1
  Mn  Mn17  1  0.000000  0.000000  0.667698  1
  Mn  Mn18  1  0.616358  0.616358  0.616358  1
  Mn  Mn19  1  0.849075  0.383642  0.383642  1
  Fe  Fe20  1  0.000000  0.000000  0.000000  1
  Mo  Mo21  1  0.250000  0.250000  0.250000  1
  Mo  Mo22  1  0.750000  0.750000  0.750000  1
  C  C23  1  0.724805  0.275195  0.724805  1
  C  C24  1  0.724805  0.275195  0.275195  1
  C  C25  1  0.724805  0.724805  0.275195  1
  C  C26  1  0.275195  0.275195  0.724805  1
  C  C27  1  0.275195  0.724805  0.724805  1
  C  C28  1  0.275195  0.724805  0.275195  1
