# generated using pymatgen
data_LiTm2(Co3As2)3
_symmetry_space_group_name_H-M   'P 1'
_cell_length_a   3.79127400
_cell_length_b   10.65235200
_cell_length_c   12.22989300
_cell_angle_alpha   90.00000000
_cell_angle_beta   90.00000000
_cell_angle_gamma   90.00000000
_symmetry_Int_Tables_number   1
_chemical_formula_structural   LiTm2(Co3As2)3
_chemical_formula_sum   'Li2 Tm4 Co18 As12'
_cell_volume   493.91627741
_cell_formula_units_Z   2
loop_
 _symmetry_equiv_pos_site_id
 _symmetry_equiv_pos_as_xyz
  1  'x, y, z'
loop_
 _atom_site_type_symbol
 _atom_site_label
 _atom_site_symmetry_multiplicity
 _atom_site_fract_x
 _atom_site_fract_y
 _atom_site_fract_z
 _atom_site_occupancy
  Li  Li0  1  0.250000  0.700397  0.991243  1
  Li  Li1  1  0.250000  0.799603  0.491243  1
  Tm  Tm2  1  0.250000  0.577100  0.701142  1
  Tm  Tm3  1  0.250000  0.922900  0.201142  1
  Tm  Tm4  1  0.750000  0.422251  0.299217  1
  Tm  Tm5  1  0.750000  0.077749  0.799217  1
  Co  Co6  1  0.750000  0.292238  0.007660  1
  Co  Co7  1  0.750000  0.207762  0.507660  1
  Co  Co8  1  0.250000  0.405366  0.486858  1
  Co  Co9  1  0.250000  0.094634  0.986858  1
  Co  Co10  1  0.750000  0.589357  0.515461  1
  Co  Co11  1  0.750000  0.910643  0.015461  1
  Co  Co12  1  0.250000  0.218366  0.176169  1
  Co  Co13  1  0.250000  0.281634  0.676169  1
  Co  Co14  1  0.750000  0.786378  0.823929  1
  Co  Co15  1  0.750000  0.713622  0.323929  1
  Co  Co16  1  0.250000  0.882681  0.698513  1
  Co  Co17  1  0.250000  0.617319  0.198513  1
  Co  Co18  1  0.750000  0.119223  0.301356  1
  Co  Co19  1  0.750000  0.380777  0.801356  1
  Co  Co20  1  0.250000  0.464988  0.930716  1
  Co  Co21  1  0.250000  0.035012  0.430716  1
  Co  Co22  1  0.750000  0.531378  0.066951  1
  Co  Co23  1  0.750000  0.968622  0.566951  1
  As  As24  1  0.250000  0.418426  0.114326  1
  As  As25  1  0.250000  0.081574  0.614326  1
  As  As26  1  0.750000  0.581648  0.882288  1
  As  As27  1  0.750000  0.918352  0.382288  1
  As  As28  1  0.250000  0.265416  0.867492  1
  As  As29  1  0.250000  0.234584  0.367492  1
  As  As30  1  0.750000  0.732811  0.135133  1
  As  As31  1  0.750000  0.767189  0.635133  1
  As  As32  1  0.250000  0.601131  0.393080  1
  As  As33  1  0.250000  0.898869  0.893080  1
  As  As34  1  0.750000  0.396315  0.608462  1
  As  As35  1  0.750000  0.103685  0.108462  1
