# generated using pymatgen
data_DyY11Co4SnIr
_symmetry_space_group_name_H-M   'P 1'
_cell_length_a   8.32799315
_cell_length_b   8.32799373
_cell_length_c   8.33027015
_cell_angle_alpha   106.83205011
_cell_angle_beta   110.51882867
_cell_angle_gamma   111.08438446
_symmetry_Int_Tables_number   1
_chemical_formula_structural   DyY11Co4SnIr
_chemical_formula_sum   'Dy1 Y11 Co4 Sn1 Ir1'
_cell_volume   444.09730647
_cell_formula_units_Z   1
loop_
 _symmetry_equiv_pos_site_id
 _symmetry_equiv_pos_as_xyz
  1  'x, y, z'
loop_
 _atom_site_type_symbol
 _atom_site_label
 _atom_site_symmetry_multiplicity
 _atom_site_fract_x
 _atom_site_fract_y
 _atom_site_fract_z
 _atom_site_occupancy
  Dy  Dy0  1  0.803676  0.212188  0.015865  1
  Y  Y1  1  0.473047  0.288568  0.184033  1
  Y  Y2  1  0.104007  0.288393  0.815874  1
  Y  Y3  1  0.895464  0.710986  0.184033  1
  Y  Y4  1  0.527480  0.711867  0.815874  1
  Y  Y5  1  0.304564  0.618800  0.313905  1
  Y  Y6  1  0.305032  0.990835  0.685941  1
  Y  Y7  1  0.695106  0.380909  0.685941  1
  Y  Y8  1  0.695105  0.009341  0.313905  1
  Y  Y9  1  0.196048  0.213393  0.409442  1
  Y  Y10  1  0.803760  0.786180  0.589940  1
  Y  Y11  1  0.195970  0.786933  0.982901  1
  Co  Co12  1  0.500013  0.610873  0.110886  1
  Co  Co13  1  0.499751  0.389509  0.889260  1
  Co  Co14  1  0.379829  0.000048  0.379877  1
  Co  Co15  1  0.621886  0.000516  0.622403  1
  Sn  Sn16  1  0.000019  0.500209  0.500229  1
  Ir  Ir17  1  0.999242  0.000451  0.999692  1
