# generated using pymatgen
data_Dy5OsRu
_symmetry_space_group_name_H-M   'P 1'
_cell_length_a   8.48011638
_cell_length_b   8.48011649
_cell_length_c   7.29738705
_cell_angle_alpha   83.29623129
_cell_angle_beta   83.29623349
_cell_angle_gamma   44.18202762
_symmetry_Int_Tables_number   1
_chemical_formula_structural   Dy5OsRu
_chemical_formula_sum   'Dy10 Os2 Ru2'
_cell_volume   362.82088034
_cell_formula_units_Z   2
loop_
 _symmetry_equiv_pos_site_id
 _symmetry_equiv_pos_as_xyz
  1  'x, y, z'
loop_
 _atom_site_type_symbol
 _atom_site_label
 _atom_site_symmetry_multiplicity
 _atom_site_fract_x
 _atom_site_fract_y
 _atom_site_fract_z
 _atom_site_occupancy
  Dy  Dy0  1  0.206032  0.977932  0.584111  1
  Dy  Dy1  1  0.022068  0.793968  0.915889  1
  Dy  Dy2  1  0.205359  0.359853  0.315004  1
  Dy  Dy3  1  0.640147  0.794641  0.184996  1
  Dy  Dy4  1  0.794871  0.640439  0.684981  1
  Dy  Dy5  1  0.359561  0.205129  0.815019  1
  Dy  Dy6  1  0.978468  0.207439  0.084865  1
  Dy  Dy7  1  0.792561  0.021532  0.415135  1
  Dy  Dy8  1  0.575907  0.424093  0.750000  1
  Dy  Dy9  1  0.422362  0.577638  0.250000  1
  Os  Os10  1  0.176811  0.603026  0.575462  1
  Os  Os11  1  0.396974  0.823189  0.924538  1
  Ru  Ru12  1  0.825067  0.396187  0.424199  1
  Ru  Ru13  1  0.603813  0.174933  0.075801  1
