# generated using pymatgen
data_Hf4Mn3Si4W
_symmetry_space_group_name_H-M   'P 1'
_cell_length_a   3.59160700
_cell_length_b   6.67115131
_cell_length_c   7.81311769
_cell_angle_alpha   89.45783958
_cell_angle_beta   90.00000000
_cell_angle_gamma   90.00000000
_symmetry_Int_Tables_number   1
_chemical_formula_structural   Hf4Mn3Si4W
_chemical_formula_sum   'Hf4 Mn3 Si4 W1'
_cell_volume   187.19512028
_cell_formula_units_Z   1
loop_
 _symmetry_equiv_pos_site_id
 _symmetry_equiv_pos_as_xyz
  1  'x, y, z'
loop_
 _atom_site_type_symbol
 _atom_site_label
 _atom_site_symmetry_multiplicity
 _atom_site_fract_x
 _atom_site_fract_y
 _atom_site_fract_z
 _atom_site_occupancy
  Hf  Hf0  1  0.250000  0.536795  0.178512  1
  Hf  Hf1  1  0.250000  0.036217  0.331047  1
  Hf  Hf2  1  0.750000  0.461937  0.824170  1
  Hf  Hf3  1  0.750000  0.968557  0.668957  1
  Mn  Mn4  1  0.250000  0.633871  0.564633  1
  Mn  Mn5  1  0.250000  0.136613  0.936901  1
  Mn  Mn6  1  0.750000  0.362556  0.439377  1
  Si  Si7  1  0.250000  0.763372  0.856529  1
  Si  Si8  1  0.250000  0.268995  0.626742  1
  Si  Si9  1  0.750000  0.238825  0.130365  1
  Si  Si10  1  0.750000  0.728109  0.380768  1
  W  W11  1  0.750000  0.864153  0.061999  1
