# generated using pymatgen
data_Th4(Al8Pd3)3
_symmetry_space_group_name_H-M   'P 1'
_cell_length_a   7.63695087
_cell_length_b   7.63815418
_cell_length_c   13.31820125
_cell_angle_alpha   84.55989715
_cell_angle_beta   100.98770492
_cell_angle_gamma   119.81533451
_symmetry_Int_Tables_number   1
_chemical_formula_structural   Th4(Al8Pd3)3
_chemical_formula_sum   'Th4 Al24 Pd9'
_cell_volume   661.68979990
_cell_formula_units_Z   1
loop_
 _symmetry_equiv_pos_site_id
 _symmetry_equiv_pos_as_xyz
  1  'x, y, z'
loop_
 _atom_site_type_symbol
 _atom_site_label
 _atom_site_symmetry_multiplicity
 _atom_site_fract_x
 _atom_site_fract_y
 _atom_site_fract_z
 _atom_site_occupancy
  Th  Th0  1  0.437789  0.832814  0.806412  1
  Th  Th1  1  0.562211  0.167186  0.193588  1
  Th  Th2  1  0.767047  0.502096  0.806571  1
  Th  Th3  1  0.232953  0.497904  0.193429  1
  Al  Al4  1  0.479189  0.166720  0.946092  1
  Al  Al5  1  0.520811  0.833280  0.053908  1
  Al  Al6  1  0.020652  0.165270  0.559569  1
  Al  Al7  1  0.979348  0.834730  0.440431  1
  Al  Al8  1  0.352267  0.832817  0.557661  1
  Al  Al9  1  0.647733  0.167183  0.442339  1
  Al  Al10  1  0.622681  0.834381  0.336487  1
  Al  Al11  1  0.377319  0.165619  0.663513  1
  Al  Al12  1  0.055064  0.489277  0.663457  1
  Al  Al13  1  0.944936  0.510723  0.336543  1
  Al  Al14  1  0.733182  0.844640  0.661794  1
  Al  Al15  1  0.266818  0.155360  0.338206  1
  Al  Al16  1  0.148527  0.497102  0.946328  1
  Al  Al17  1  0.851473  0.502898  0.053672  1
  Al  Al18  1  0.820041  0.835056  0.955752  1
  Al  Al19  1  0.179959  0.164944  0.044248  1
  Al  Al20  1  0.311870  0.498614  0.441651  1
  Al  Al21  1  0.688130  0.501386  0.558349  1
  Al  Al22  1  0.099209  0.835697  0.184187  1
  Al  Al23  1  0.900791  0.164303  0.815813  1
  Al  Al24  1  0.303048  0.366346  0.813664  1
  Al  Al25  1  0.696952  0.633654  0.186336  1
  Al  Al26  1  0.101222  0.962312  0.815748  1
  Al  Al27  1  0.898778  0.037688  0.184252  1
  Pd  Pd28  1  0.387723  0.507700  0.637064  1
  Pd  Pd29  1  0.612277  0.492300  0.362936  1
  Pd  Pd30  1  0.172126  0.829527  0.999574  1
  Pd  Pd31  1  0.827874  0.170473  0.000426  1
  Pd  Pd32  1  0.294266  0.833263  0.362611  1
  Pd  Pd33  1  0.705734  0.166737  0.637389  1
  Pd  Pd34  1  0.047744  0.825335  0.638133  1
  Pd  Pd35  1  0.952256  0.174665  0.361867  1
  Pd  Pd36  1  0.500000  0.500000  0.000000  1
