# generated using pymatgen
data_Pr4Nd2Zn4Pd9Pt4
_symmetry_space_group_name_H-M   'P 1'
_cell_length_a   8.51503492
_cell_length_b   8.51503541
_cell_length_c   8.49564500
_cell_angle_alpha   109.36044208
_cell_angle_beta   109.36043611
_cell_angle_gamma   109.65546058
_symmetry_Int_Tables_number   1
_chemical_formula_structural   Pr4Nd2Zn4Pd9Pt4
_chemical_formula_sum   'Pr4 Nd2 Zn4 Pd9 Pt4'
_cell_volume   474.39964889
_cell_formula_units_Z   1
loop_
 _symmetry_equiv_pos_site_id
 _symmetry_equiv_pos_as_xyz
  1  'x, y, z'
loop_
 _atom_site_type_symbol
 _atom_site_label
 _atom_site_symmetry_multiplicity
 _atom_site_fract_x
 _atom_site_fract_y
 _atom_site_fract_z
 _atom_site_occupancy
  Pr  Pr0  1  0.700549  0.700549  0.001346  1
  Pr  Pr1  1  0.301053  0.999590  0.302637  1
  Pr  Pr2  1  0.999590  0.301053  0.302637  1
  Pr  Pr3  1  0.300195  0.300195  0.998295  1
  Nd  Nd4  1  0.699180  0.999748  0.697501  1
  Nd  Nd5  1  0.999748  0.699180  0.697501  1
  Zn  Zn6  1  0.000078  0.000078  0.497655  1
  Zn  Zn7  1  0.999989  0.500331  0.000549  1
  Zn  Zn8  1  0.500331  0.999989  0.000549  1
  Zn  Zn9  1  0.497904  0.497904  0.498436  1
  Pd  Pd10  1  0.667964  0.331834  0.999992  1
  Pd  Pd11  1  0.332152  0.663329  0.332424  1
  Pd  Pd12  1  0.999791  0.332628  0.669633  1
  Pd  Pd13  1  0.331834  0.667964  0.999992  1
  Pd  Pd14  1  0.332628  0.999791  0.669633  1
  Pd  Pd15  1  0.663329  0.332152  0.332424  1
  Pd  Pd16  1  0.667547  0.667547  0.336595  1
  Pd  Pd17  1  0.668919  0.336696  0.669054  1
  Pd  Pd18  1  0.336696  0.668919  0.669054  1
  Pt  Pt19  1  0.331958  0.331958  0.662891  1
  Pt  Pt20  1  0.668737  0.999863  0.331373  1
  Pt  Pt21  1  0.999863  0.668737  0.331373  1
  Pt  Pt22  1  0.999965  0.999965  0.998452  1
