# generated using pymatgen
data_Hf3Ga3W2N
_symmetry_space_group_name_H-M   'P 1'
_cell_length_a   7.79390100
_cell_length_b   7.79390189
_cell_length_c   5.36988300
_cell_angle_alpha   90.00000000
_cell_angle_beta   90.00000000
_cell_angle_gamma   120.00000047
_symmetry_Int_Tables_number   1
_chemical_formula_structural   Hf3Ga3W2N
_chemical_formula_sum   'Hf6 Ga6 W4 N2'
_cell_volume   282.49142705
_cell_formula_units_Z   2
loop_
 _symmetry_equiv_pos_site_id
 _symmetry_equiv_pos_as_xyz
  1  'x, y, z'
loop_
 _atom_site_type_symbol
 _atom_site_label
 _atom_site_symmetry_multiplicity
 _atom_site_fract_x
 _atom_site_fract_y
 _atom_site_fract_z
 _atom_site_occupancy
  Hf  Hf0  1  0.235874  0.000000  0.250000  1
  Hf  Hf1  1  0.764126  0.000000  0.750000  1
  Hf  Hf2  1  0.000000  0.235874  0.250000  1
  Hf  Hf3  1  0.000000  0.764126  0.750000  1
  Hf  Hf4  1  0.764126  0.764126  0.250000  1
  Hf  Hf5  1  0.235874  0.235874  0.750000  1
  Ga  Ga6  1  0.591199  0.000000  0.250000  1
  Ga  Ga7  1  0.408801  0.000000  0.750000  1
  Ga  Ga8  1  0.000000  0.591199  0.250000  1
  Ga  Ga9  1  0.000000  0.408801  0.750000  1
  Ga  Ga10  1  0.408801  0.408801  0.250000  1
  Ga  Ga11  1  0.591199  0.591199  0.750000  1
  W  W12  1  0.333333  0.666667  0.000000  1
  W  W13  1  0.666667  0.333333  0.000000  1
  W  W14  1  0.666667  0.333333  0.500000  1
  W  W15  1  0.333333  0.666667  0.500000  1
  N  N16  1  0.000000  0.000000  0.000000  1
  N  N17  1  0.000000  0.000000  0.500000  1
