# generated using pymatgen
data_Dy18YLu(Cd3Ru)2
_symmetry_space_group_name_H-M   'P 1'
_cell_length_a   9.58588717
_cell_length_b   9.58279979
_cell_length_c   9.84249500
_cell_angle_alpha   89.99999921
_cell_angle_beta   90.00115017
_cell_angle_gamma   119.98934953
_symmetry_Int_Tables_number   1
_chemical_formula_structural   Dy18YLu(Cd3Ru)2
_chemical_formula_sum   'Dy18 Y1 Lu1 Cd6 Ru2'
_cell_volume   783.08185503
_cell_formula_units_Z   1
loop_
 _symmetry_equiv_pos_site_id
 _symmetry_equiv_pos_as_xyz
  1  'x, y, z'
loop_
 _atom_site_type_symbol
 _atom_site_label
 _atom_site_symmetry_multiplicity
 _atom_site_fract_x
 _atom_site_fract_y
 _atom_site_fract_z
 _atom_site_occupancy
  Dy  Dy0  1  0.999959  0.999980  0.999974  1
  Dy  Dy1  1  0.209337  0.790906  0.439884  1
  Dy  Dy2  1  0.209337  0.418432  0.439884  1
  Dy  Dy3  1  0.581453  0.790727  0.440055  1
  Dy  Dy4  1  0.790580  0.209100  0.559936  1
  Dy  Dy5  1  0.790580  0.581479  0.559936  1
  Dy  Dy6  1  0.418508  0.209253  0.560023  1
  Dy  Dy7  1  0.789836  0.209845  0.940150  1
  Dy  Dy8  1  0.789836  0.579989  0.940150  1
  Dy  Dy9  1  0.420017  0.210007  0.940066  1
  Dy  Dy10  1  0.210085  0.790152  0.060035  1
  Dy  Dy11  1  0.210085  0.419935  0.060035  1
  Dy  Dy12  1  0.579967  0.789984  0.059864  1
  Dy  Dy13  1  0.541157  0.458864  0.250186  1
  Dy  Dy14  1  0.541157  0.082293  0.250186  1
  Dy  Dy15  1  0.917707  0.458853  0.250194  1
  Dy  Dy16  1  0.459015  0.541103  0.749804  1
  Dy  Dy17  1  0.459015  0.917913  0.749804  1
  Y  Y18  1  0.082459  0.541230  0.749805  1
  Lu  Lu19  1  0.999958  0.999979  0.500051  1
  Cd  Cd20  1  0.885956  0.114084  0.251540  1
  Cd  Cd21  1  0.885956  0.771873  0.251540  1
  Cd  Cd22  1  0.228131  0.114066  0.251533  1
  Cd  Cd23  1  0.114066  0.885972  0.748452  1
  Cd  Cd24  1  0.114066  0.228093  0.748452  1
  Cd  Cd25  1  0.771867  0.885933  0.748465  1
  Ru  Ru26  1  0.333363  0.666682  0.250220  1
  Ru  Ru27  1  0.666546  0.333273  0.749773  1
