# generated using pymatgen
data_CaDyAl20(FeRh)2
_symmetry_space_group_name_H-M   'P 1'
_cell_length_a   6.83378415
_cell_length_b   6.83378402
_cell_length_c   9.11040964
_cell_angle_alpha   90.12594011
_cell_angle_beta   90.12593717
_cell_angle_gamma   96.89299448
_symmetry_Int_Tables_number   1
_chemical_formula_structural   CaDyAl20(FeRh)2
_chemical_formula_sum   'Ca1 Dy1 Al20 Fe2 Rh2'
_cell_volume   422.38409524
_cell_formula_units_Z   1
loop_
 _symmetry_equiv_pos_site_id
 _symmetry_equiv_pos_as_xyz
  1  'x, y, z'
loop_
 _atom_site_type_symbol
 _atom_site_label
 _atom_site_symmetry_multiplicity
 _atom_site_fract_x
 _atom_site_fract_y
 _atom_site_fract_z
 _atom_site_occupancy
  Ca  Ca0  1  0.875568  0.124432  0.750000  1
  Dy  Dy1  1  0.125415  0.874585  0.250000  1
  Al  Al2  1  0.620074  0.372692  0.547582  1
  Al  Al3  1  0.380039  0.626120  0.446482  1
  Al  Al4  1  0.373880  0.619961  0.053518  1
  Al  Al5  1  0.627308  0.379926  0.952418  1
  Al  Al6  1  0.229594  0.222727  0.495045  1
  Al  Al7  1  0.769440  0.777824  0.503196  1
  Al  Al8  1  0.777273  0.770406  0.004955  1
  Al  Al9  1  0.222176  0.230560  0.996804  1
  Al  Al10  1  0.847888  0.161043  0.099988  1
  Al  Al11  1  0.155350  0.835395  0.900871  1
  Al  Al12  1  0.164605  0.844650  0.599129  1
  Al  Al13  1  0.838957  0.152112  0.400012  1
  Al  Al14  1  0.860101  0.586906  0.754205  1
  Al  Al15  1  0.137216  0.413926  0.246079  1
  Al  Al16  1  0.413094  0.139899  0.745795  1
  Al  Al17  1  0.586074  0.862784  0.253921  1
  Al  Al18  1  0.221777  0.478840  0.754710  1
  Al  Al19  1  0.777513  0.519921  0.245342  1
  Al  Al20  1  0.521160  0.778223  0.745290  1
  Al  Al21  1  0.480079  0.222487  0.254658  1
  Fe  Fe22  1  0.000086  0.502106  0.001153  1
  Fe  Fe23  1  0.497894  0.999914  0.498847  1
  Rh  Rh24  1  0.999324  0.501884  0.499074  1
  Rh  Rh25  1  0.498116  0.000676  0.000926  1
