# generated using pymatgen
data_Y2Zr3(In2Pt)2
_symmetry_space_group_name_H-M   'P 1'
_cell_length_a   3.58154900
_cell_length_b   7.80184500
_cell_length_c   17.71977200
_cell_angle_alpha   90.00000000
_cell_angle_beta   90.00000000
_cell_angle_gamma   90.00000000
_symmetry_Int_Tables_number   1
_chemical_formula_structural   Y2Zr3(In2Pt)2
_chemical_formula_sum   'Y4 Zr6 In8 Pt4'
_cell_volume   495.13809866
_cell_formula_units_Z   2
loop_
 _symmetry_equiv_pos_site_id
 _symmetry_equiv_pos_as_xyz
  1  'x, y, z'
loop_
 _atom_site_type_symbol
 _atom_site_label
 _atom_site_symmetry_multiplicity
 _atom_site_fract_x
 _atom_site_fract_y
 _atom_site_fract_z
 _atom_site_occupancy
  Y  Y0  1  0.000000  0.244834  0.217470  1
  Y  Y1  1  0.000000  0.755166  0.782530  1
  Y  Y2  1  0.000000  0.255166  0.717470  1
  Y  Y3  1  0.000000  0.744834  0.282530  1
  Zr  Zr4  1  0.000000  0.126279  0.421397  1
  Zr  Zr5  1  0.000000  0.873721  0.578603  1
  Zr  Zr6  1  0.000000  0.373721  0.921397  1
  Zr  Zr7  1  0.000000  0.626279  0.078603  1
  Zr  Zr8  1  0.000000  0.000000  0.000000  1
  Zr  Zr9  1  0.000000  0.500000  0.500000  1
  In  In10  1  0.500000  0.422976  0.354020  1
  In  In11  1  0.500000  0.577024  0.645980  1
  In  In12  1  0.500000  0.077024  0.854020  1
  In  In13  1  0.500000  0.922976  0.145980  1
  In  In14  1  0.500000  0.295777  0.060910  1
  In  In15  1  0.500000  0.704223  0.939090  1
  In  In16  1  0.500000  0.204223  0.560910  1
  In  In17  1  0.500000  0.795777  0.439090  1
  Pt  Pt18  1  0.500000  0.037935  0.310072  1
  Pt  Pt19  1  0.500000  0.962065  0.689928  1
  Pt  Pt20  1  0.500000  0.462065  0.810072  1
  Pt  Pt21  1  0.500000  0.537935  0.189928  1
