# generated using pymatgen
data_Lu5Si12Rh19
_symmetry_space_group_name_H-M   'P 1'
_cell_length_a   12.75345400
_cell_length_b   12.75345387
_cell_length_c   3.94746300
_cell_angle_alpha   90.00000000
_cell_angle_beta   90.00000000
_cell_angle_gamma   120.00000034
_symmetry_Int_Tables_number   1
_chemical_formula_structural   Lu5Si12Rh19
_chemical_formula_sum   'Lu5 Si12 Rh19'
_cell_volume   556.03782251
_cell_formula_units_Z   1
loop_
 _symmetry_equiv_pos_site_id
 _symmetry_equiv_pos_as_xyz
  1  'x, y, z'
loop_
 _atom_site_type_symbol
 _atom_site_label
 _atom_site_symmetry_multiplicity
 _atom_site_fract_x
 _atom_site_fract_y
 _atom_site_fract_z
 _atom_site_occupancy
  Lu  Lu0  1  0.000000  0.186270  0.500000  1
  Lu  Lu1  1  0.813730  0.813730  0.500000  1
  Lu  Lu2  1  0.186270  0.000000  0.500000  1
  Lu  Lu3  1  0.666667  0.333333  0.000000  1
  Lu  Lu4  1  0.333333  0.666667  0.000000  1
  Si  Si5  1  0.478196  0.313899  0.500000  1
  Si  Si6  1  0.819264  0.000000  0.000000  1
  Si  Si7  1  0.180736  0.180736  0.000000  1
  Si  Si8  1  0.000000  0.819264  0.000000  1
  Si  Si9  1  0.370796  0.000000  0.000000  1
  Si  Si10  1  0.686101  0.164297  0.500000  1
  Si  Si11  1  0.835703  0.521804  0.500000  1
  Si  Si12  1  0.521804  0.835703  0.500000  1
  Si  Si13  1  0.164297  0.686101  0.500000  1
  Si  Si14  1  0.313899  0.478196  0.500000  1
  Si  Si15  1  0.000000  0.370796  0.000000  1
  Si  Si16  1  0.629204  0.629204  0.000000  1
  Rh  Rh17  1  0.808027  0.182971  0.000000  1
  Rh  Rh18  1  0.374944  0.191973  0.000000  1
  Rh  Rh19  1  0.640412  0.512526  0.500000  1
  Rh  Rh20  1  0.872113  0.359588  0.500000  1
  Rh  Rh21  1  0.359588  0.872113  0.500000  1
  Rh  Rh22  1  0.512526  0.640412  0.500000  1
  Rh  Rh23  1  0.127887  0.487474  0.500000  1
  Rh  Rh24  1  0.817029  0.625056  0.000000  1
  Rh  Rh25  1  0.625056  0.817029  0.000000  1
  Rh  Rh26  1  0.182971  0.808027  0.000000  1
  Rh  Rh27  1  0.191973  0.374944  0.000000  1
  Rh  Rh28  1  0.000000  0.722548  0.500000  1
  Rh  Rh29  1  0.277452  0.277452  0.500000  1
  Rh  Rh30  1  0.722548  0.000000  0.500000  1
  Rh  Rh31  1  0.000000  0.554938  0.000000  1
  Rh  Rh32  1  0.445062  0.445062  0.000000  1
  Rh  Rh33  1  0.554938  0.000000  0.000000  1
  Rh  Rh34  1  0.000000  0.000000  0.000000  1
  Rh  Rh35  1  0.487474  0.127887  0.500000  1
