# generated using pymatgen
data_La3Zn2Ir7
_symmetry_space_group_name_H-M   'P 1'
_cell_length_a   5.50958532
_cell_length_b   5.50863921
_cell_length_c   9.03550172
_cell_angle_alpha   72.59192086
_cell_angle_beta   107.39192623
_cell_angle_gamma   119.92270810
_symmetry_Int_Tables_number   1
_chemical_formula_structural   La3Zn2Ir7
_chemical_formula_sum   'La3 Zn2 Ir7'
_cell_volume   223.04434876
_cell_formula_units_Z   1
loop_
 _symmetry_equiv_pos_site_id
 _symmetry_equiv_pos_as_xyz
  1  'x, y, z'
loop_
 _atom_site_type_symbol
 _atom_site_label
 _atom_site_symmetry_multiplicity
 _atom_site_fract_x
 _atom_site_fract_y
 _atom_site_fract_z
 _atom_site_occupancy
  La  La0  1  0.000017  0.999971  0.000034  1
  La  La1  1  0.139223  0.860776  0.419593  1
  La  La2  1  0.860689  0.139308  0.580161  1
  Zn  Zn3  1  0.334736  0.665242  0.004812  1
  Zn  Zn4  1  0.665365  0.334629  0.995371  1
  Ir  Ir5  1  0.076999  0.414605  0.246713  1
  Ir  Ir6  1  0.584225  0.415794  0.245413  1
  Ir  Ir7  1  0.585392  0.923013  0.246710  1
  Ir  Ir8  1  0.500028  0.499983  0.500163  1
  Ir  Ir9  1  0.414505  0.076940  0.753206  1
  Ir  Ir10  1  0.415774  0.584239  0.754632  1
  Ir  Ir11  1  0.923048  0.585502  0.753193  1
