# generated using pymatgen
data_Pr10Nd2Os(PtBr4)3
_symmetry_space_group_name_H-M   'P 1'
_cell_length_a   10.69716697
_cell_length_b   10.56012710
_cell_length_c   10.55773253
_cell_angle_alpha   109.25861708
_cell_angle_beta   109.67744699
_cell_angle_gamma   109.72236854
_symmetry_Int_Tables_number   1
_chemical_formula_structural   Pr10Nd2Os(PtBr4)3
_chemical_formula_sum   'Pr10 Nd2 Os1 Pt3 Br12'
_cell_volume   915.29549122
_cell_formula_units_Z   1
loop_
 _symmetry_equiv_pos_site_id
 _symmetry_equiv_pos_as_xyz
  1  'x, y, z'
loop_
 _atom_site_type_symbol
 _atom_site_label
 _atom_site_symmetry_multiplicity
 _atom_site_fract_x
 _atom_site_fract_y
 _atom_site_fract_z
 _atom_site_occupancy
  Pr  Pr0  1  0.750193  0.014595  0.485588  1
  Pr  Pr1  1  0.235435  0.471257  0.485590  1
  Pr  Pr2  1  0.261265  0.741255  0.231974  1
  Pr  Pr3  1  0.029542  0.268254  0.009904  1
  Pr  Pr4  1  0.014058  0.028912  0.264452  1
  Pr  Pr5  1  0.480481  0.741707  0.010043  1
  Pr  Pr6  1  0.485523  0.235492  0.470396  1
  Pr  Pr7  1  0.019310  0.490282  0.757860  1
  Pr  Pr8  1  0.264824  0.014878  0.028954  1
  Pr  Pr9  1  0.239082  0.268117  0.758669  1
  Nd  Nd10  1  0.469964  0.489983  0.231413  1
  Nd  Nd11  1  0.750156  0.235117  0.264995  1
  Os  Os12  1  0.250336  0.500028  0.000404  1
  Pt  Pt13  1  0.250583  0.250550  0.249940  1
  Pt  Pt14  1  0.500340  0.000398  0.249823  1
  Pt  Pt15  1  0.999598  0.250105  0.499565  1
  Br  Br16  1  0.249963  0.754832  0.745236  1
  Br  Br17  1  0.507609  0.502955  0.752604  1
  Br  Br18  1  0.992458  0.747484  0.997117  1
  Br  Br19  1  0.745032  0.249741  0.752584  1
  Br  Br20  1  0.995337  0.990499  0.745253  1
  Br  Br21  1  0.249992  0.997457  0.502534  1
  Br  Br22  1  0.751912  0.504191  0.500670  1
  Br  Br23  1  0.505867  0.250837  0.999089  1
  Br  Br24  1  0.754202  0.746525  0.250428  1
  Br  Br25  1  0.747374  0.998599  0.995887  1
  Br  Br26  1  0.994531  0.502137  0.250449  1
  Br  Br27  1  0.505033  0.753813  0.508578  1
