# generated using pymatgen
data_Pr8Tm9Lu3In16
_symmetry_space_group_name_H-M   'P 1'
_cell_length_a   8.00527300
_cell_length_b   8.32803815
_cell_length_c   15.80440700
_cell_angle_alpha   90.00000000
_cell_angle_beta   90.00000000
_cell_angle_gamma   89.98919173
_symmetry_Int_Tables_number   1
_chemical_formula_structural   Pr8Tm9Lu3In16
_chemical_formula_sum   'Pr8 Tm9 Lu3 In16'
_cell_volume   1053.65164720
_cell_formula_units_Z   1
loop_
 _symmetry_equiv_pos_site_id
 _symmetry_equiv_pos_as_xyz
  1  'x, y, z'
loop_
 _atom_site_type_symbol
 _atom_site_label
 _atom_site_symmetry_multiplicity
 _atom_site_fract_x
 _atom_site_fract_y
 _atom_site_fract_z
 _atom_site_occupancy
  Pr  Pr0  1  0.010813  0.179873  0.406157  1
  Pr  Pr1  1  0.510863  0.320122  0.406178  1
  Pr  Pr2  1  0.488980  0.679688  0.906351  1
  Pr  Pr3  1  0.488980  0.679688  0.593649  1
  Pr  Pr4  1  0.989122  0.819824  0.593505  1
  Pr  Pr5  1  0.989122  0.819824  0.906495  1
  Pr  Pr6  1  0.510863  0.320122  0.093822  1
  Pr  Pr7  1  0.010813  0.179873  0.093843  1
  Tm  Tm8  1  0.326375  0.169354  0.624416  1
  Tm  Tm9  1  0.673591  0.830940  0.375300  1
  Tm  Tm10  1  0.656725  0.998534  0.750000  1
  Tm  Tm11  1  0.173552  0.669160  0.375361  1
  Tm  Tm12  1  0.826574  0.331178  0.875518  1
  Tm  Tm13  1  0.826574  0.331178  0.624482  1
  Tm  Tm14  1  0.326375  0.169354  0.875584  1
  Tm  Tm15  1  0.173552  0.669160  0.124639  1
  Tm  Tm16  1  0.673591  0.830940  0.124700  1
  Lu  Lu17  1  0.843682  0.498986  0.250000  1
  Lu  Lu18  1  0.343643  0.001124  0.250000  1
  Lu  Lu19  1  0.156724  0.500820  0.750000  1
  In  In20  1  0.282960  0.865902  0.750000  1
  In  In21  1  0.476194  0.616811  0.250000  1
  In  In22  1  0.024455  0.117543  0.750000  1
  In  In23  1  0.523835  0.383334  0.750000  1
  In  In24  1  0.165368  0.465187  0.541475  1
  In  In25  1  0.976251  0.883246  0.250000  1
  In  In26  1  0.715951  0.134038  0.250000  1
  In  In27  1  0.834546  0.534752  0.041770  1
  In  In28  1  0.334453  0.965230  0.041759  1
  In  In29  1  0.165368  0.465187  0.958525  1
  In  In30  1  0.665427  0.034830  0.541284  1
  In  In31  1  0.334453  0.965230  0.458241  1
  In  In32  1  0.834546  0.534752  0.458230  1
  In  In33  1  0.784429  0.633263  0.750000  1
  In  In34  1  0.215815  0.366122  0.250000  1
  In  In35  1  0.665427  0.034830  0.958716  1
