# generated using pymatgen
data_K3Yb(PaSe3)2
_symmetry_space_group_name_H-M   'P 1'
_cell_length_a   7.29363856
_cell_length_b   7.29363854
_cell_length_c   7.85795900
_cell_angle_alpha   98.89833312
_cell_angle_beta   98.89833309
_cell_angle_gamma   119.95772536
_symmetry_Int_Tables_number   1
_chemical_formula_structural   K3Yb(PaSe3)2
_chemical_formula_sum   'K3 Yb1 Pa2 Se6'
_cell_volume   344.42760975
_cell_formula_units_Z   1
loop_
 _symmetry_equiv_pos_site_id
 _symmetry_equiv_pos_as_xyz
  1  'x, y, z'
loop_
 _atom_site_type_symbol
 _atom_site_label
 _atom_site_symmetry_multiplicity
 _atom_site_fract_x
 _atom_site_fract_y
 _atom_site_fract_z
 _atom_site_occupancy
  K  K0  1  0.836532  0.163468  0.500000  1
  K  K1  1  0.500000  0.500000  0.500000  1
  K  K2  1  0.163468  0.836532  0.500000  1
  Yb  Yb3  1  0.000000  0.000000  0.000000  1
  Pa  Pa4  1  0.667009  0.332991  0.000000  1
  Pa  Pa5  1  0.332991  0.667009  0.000000  1
  Se  Se6  1  0.732242  0.732242  0.212494  1
  Se  Se7  1  0.409976  0.071458  0.213957  1
  Se  Se8  1  0.071458  0.409976  0.213957  1
  Se  Se9  1  0.928543  0.590025  0.786044  1
  Se  Se10  1  0.590025  0.928543  0.786044  1
  Se  Se11  1  0.267759  0.267759  0.787506  1
