# generated using pymatgen
data_LiTb8InPd2
_symmetry_space_group_name_H-M   'P 1'
_cell_length_a   9.76095043
_cell_length_b   9.76094993
_cell_length_c   9.75032200
_cell_angle_alpha   60.03601137
_cell_angle_beta   60.03601308
_cell_angle_gamma   59.89819445
_symmetry_Int_Tables_number   1
_chemical_formula_structural   LiTb8InPd2
_chemical_formula_sum   'Li2 Tb16 In2 Pd4'
_cell_volume   656.73281078
_cell_formula_units_Z   2
loop_
 _symmetry_equiv_pos_site_id
 _symmetry_equiv_pos_as_xyz
  1  'x, y, z'
loop_
 _atom_site_type_symbol
 _atom_site_label
 _atom_site_symmetry_multiplicity
 _atom_site_fract_x
 _atom_site_fract_y
 _atom_site_fract_z
 _atom_site_occupancy
  Li  Li0  1  0.427451  0.427451  0.423595  1
  Li  Li1  1  0.427451  0.427451  0.721503  1
  Tb  Tb2  1  0.804811  0.804811  0.195189  1
  Tb  Tb3  1  0.809466  0.188888  0.810028  1
  Tb  Tb4  1  0.183676  0.183676  0.816324  1
  Tb  Tb5  1  0.649102  0.055046  0.647927  1
  Tb  Tb6  1  0.065152  0.065152  0.434848  1
  Tb  Tb7  1  0.434492  0.434492  0.065508  1
  Tb  Tb8  1  0.648144  0.648144  0.647098  1
  Tb  Tb9  1  0.809466  0.188888  0.191619  1
  Tb  Tb10  1  0.188888  0.809466  0.810028  1
  Tb  Tb11  1  0.055046  0.649102  0.647927  1
  Tb  Tb12  1  0.435145  0.065975  0.064791  1
  Tb  Tb13  1  0.435145  0.065975  0.434090  1
  Tb  Tb14  1  0.065975  0.435145  0.064791  1
  Tb  Tb15  1  0.648144  0.648144  0.056615  1
  Tb  Tb16  1  0.188888  0.809466  0.191619  1
  Tb  Tb17  1  0.065975  0.435145  0.434090  1
  In  In18  1  0.415299  0.744896  0.419902  1
  In  In19  1  0.744896  0.415299  0.419902  1
  Pd  Pd20  1  0.855508  0.431387  0.856553  1
  Pd  Pd21  1  0.855248  0.855248  0.857639  1
  Pd  Pd22  1  0.855248  0.855248  0.431866  1
  Pd  Pd23  1  0.431387  0.855508  0.856553  1
