# generated using pymatgen
data_Pr2AlPtI2
_symmetry_space_group_name_H-M   'P 1'
_cell_length_a   4.34805500
_cell_length_b   4.34805381
_cell_length_c   12.37645800
_cell_angle_alpha   90.00000000
_cell_angle_beta   90.00000000
_cell_angle_gamma   120.00000146
_symmetry_Int_Tables_number   1
_chemical_formula_structural   Pr2AlPtI2
_chemical_formula_sum   'Pr2 Al1 Pt1 I2'
_cell_volume   202.63615523
_cell_formula_units_Z   1
loop_
 _symmetry_equiv_pos_site_id
 _symmetry_equiv_pos_as_xyz
  1  'x, y, z'
loop_
 _atom_site_type_symbol
 _atom_site_label
 _atom_site_symmetry_multiplicity
 _atom_site_fract_x
 _atom_site_fract_y
 _atom_site_fract_z
 _atom_site_occupancy
  Pr  Pr0  1  0.000000  0.000000  0.165204  1
  Pr  Pr1  1  0.000000  0.000000  0.833890  1
  Al  Al2  1  0.333333  0.666666  0.997376  1
  Pt  Pt3  1  0.666667  0.333334  0.003672  1
  I  I4  1  0.333333  0.666666  0.339215  1
  I  I5  1  0.666667  0.333334  0.660641  1
