# generated using pymatgen
data_Ho6Tm2Sc12Si15Rh
_symmetry_space_group_name_H-M   'P 1'
_cell_length_a   7.07858352
_cell_length_b   7.34640848
_cell_length_c   13.94385913
_cell_angle_alpha   89.88299128
_cell_angle_beta   89.82554659
_cell_angle_gamma   90.21323128
_symmetry_Int_Tables_number   1
_chemical_formula_structural   Ho6Tm2Sc12Si15Rh
_chemical_formula_sum   'Ho6 Tm2 Sc12 Si15 Rh1'
_cell_volume   725.10096581
_cell_formula_units_Z   1
loop_
 _symmetry_equiv_pos_site_id
 _symmetry_equiv_pos_as_xyz
  1  'x, y, z'
loop_
 _atom_site_type_symbol
 _atom_site_label
 _atom_site_symmetry_multiplicity
 _atom_site_fract_x
 _atom_site_fract_y
 _atom_site_fract_z
 _atom_site_occupancy
  Ho  Ho0  1  0.012366  0.176163  0.096769  1
  Ho  Ho1  1  0.988053  0.823884  0.903141  1
  Ho  Ho2  1  0.486926  0.677204  0.903208  1
  Ho  Ho3  1  0.989267  0.821049  0.596159  1
  Ho  Ho4  1  0.512250  0.323671  0.095907  1
  Ho  Ho5  1  0.011438  0.180482  0.403723  1
  Tm  Tm6  1  0.507930  0.324286  0.403773  1
  Tm  Tm7  1  0.485871  0.670917  0.597587  1
  Sc  Sc8  1  0.163270  0.503440  0.744998  1
  Sc  Sc9  1  0.838106  0.497348  0.252087  1
  Sc  Sc10  1  0.339412  0.000292  0.250515  1
  Sc  Sc11  1  0.662168  0.996368  0.749279  1
  Sc  Sc12  1  0.330722  0.187418  0.621312  1
  Sc  Sc13  1  0.667972  0.823378  0.373868  1
  Sc  Sc14  1  0.171181  0.665130  0.378104  1
  Sc  Sc15  1  0.671347  0.824208  0.126557  1
  Sc  Sc16  1  0.834226  0.326728  0.623505  1
  Sc  Sc17  1  0.328183  0.177067  0.875434  1
  Sc  Sc18  1  0.831424  0.321888  0.875397  1
  Sc  Sc19  1  0.170022  0.676867  0.125210  1
  Si  Si20  1  0.033579  0.113046  0.749698  1
  Si  Si21  1  0.969988  0.884648  0.251543  1
  Si  Si22  1  0.467404  0.612968  0.248534  1
  Si  Si23  1  0.536974  0.385747  0.752775  1
  Si  Si24  1  0.286310  0.875383  0.750204  1
  Si  Si25  1  0.713687  0.130136  0.249823  1
  Si  Si26  1  0.216110  0.369120  0.248040  1
  Si  Si27  1  0.783821  0.628198  0.752505  1
  Si  Si28  1  0.834727  0.535966  0.460699  1
  Si  Si29  1  0.343104  0.963568  0.461073  1
  Si  Si30  1  0.842781  0.536052  0.038702  1
  Si  Si31  1  0.656101  0.033518  0.538812  1
  Si  Si32  1  0.156431  0.465745  0.961019  1
  Si  Si33  1  0.657808  0.034230  0.961783  1
  Si  Si34  1  0.343527  0.964688  0.038873  1
  Rh  Rh35  1  0.155513  0.469198  0.539387  1
