# generated using pymatgen
data_La3SmC2Cl5
_symmetry_space_group_name_H-M   'P 1'
_cell_length_a   3.89376544
_cell_length_b   8.19197505
_cell_length_c   9.77922500
_cell_angle_alpha   105.29115786
_cell_angle_beta   78.51662205
_cell_angle_gamma   90.00000110
_symmetry_Int_Tables_number   1
_chemical_formula_structural   La3SmC2Cl5
_chemical_formula_sum   'La3 Sm1 C2 Cl5'
_cell_volume   294.41278728
_cell_formula_units_Z   1
loop_
 _symmetry_equiv_pos_site_id
 _symmetry_equiv_pos_as_xyz
  1  'x, y, z'
loop_
 _atom_site_type_symbol
 _atom_site_label
 _atom_site_symmetry_multiplicity
 _atom_site_fract_x
 _atom_site_fract_y
 _atom_site_fract_z
 _atom_site_occupancy
  La  La0  1  0.003628  0.208419  0.992742  1
  La  La1  1  0.003515  0.787778  0.992970  1
  La  La2  1  0.665573  0.886351  0.668853  1
  Sm  Sm3  1  0.345242  0.106022  0.309517  1
  C  C4  1  0.465618  0.023557  0.068762  1
  C  C5  1  0.542175  0.972786  0.915650  1
  Cl  Cl6  1  0.163282  0.628532  0.673436  1
  Cl  Cl7  1  0.839214  0.350536  0.321571  1
  Cl  Cl8  1  0.500532  0.499602  0.998937  1
  Cl  Cl9  1  0.173181  0.152684  0.653638  1
  Cl  Cl10  1  0.835638  0.859034  0.328723  1
