# generated using pymatgen
data_Ba2Cu15Si8Ni3
_symmetry_space_group_name_H-M   'P 1'
_cell_length_a   8.31701693
_cell_length_b   8.31701584
_cell_length_c   8.29656000
_cell_angle_alpha   120.63109459
_cell_angle_beta   120.16262064
_cell_angle_gamma   89.45707740
_symmetry_Int_Tables_number   1
_chemical_formula_structural   Ba2Cu15Si8Ni3
_chemical_formula_sum   'Ba2 Cu15 Si8 Ni3'
_cell_volume   402.83284182
_cell_formula_units_Z   1
loop_
 _symmetry_equiv_pos_site_id
 _symmetry_equiv_pos_as_xyz
  1  'x, y, z'
loop_
 _atom_site_type_symbol
 _atom_site_label
 _atom_site_symmetry_multiplicity
 _atom_site_fract_x
 _atom_site_fract_y
 _atom_site_fract_z
 _atom_site_occupancy
  Ba  Ba0  1  0.749563  0.748739  0.998904  1
  Ba  Ba1  1  0.250165  0.249369  0.998930  1
  Cu  Cu2  1  0.567630  0.701506  0.269135  1
  Cu  Cu3  1  0.794267  0.929382  0.723651  1
  Cu  Cu4  1  0.309883  0.810703  0.753151  1
  Cu  Cu5  1  0.807937  0.057278  0.501504  1
  Cu  Cu6  1  0.430094  0.297899  0.727985  1
  Cu  Cu7  1  0.191823  0.943641  0.500448  1
  Cu  Cu8  1  0.444226  0.693586  0.501494  1
  Cu  Cu9  1  0.942419  0.443272  0.753096  1
  Cu  Cu10  1  0.692703  0.190890  0.249803  1
  Cu  Cu11  1  0.058924  0.557118  0.249870  1
  Cu  Cu12  1  0.293133  0.570892  0.864029  1
  Cu  Cu13  1  0.932849  0.204272  0.137107  1
  Cu  Cu14  1  0.067144  0.795143  0.862297  1
  Cu  Cu15  1  0.205358  0.070175  0.275522  1
  Cu  Cu16  1  0.556826  0.308586  0.500449  1
  Si  Si17  1  0.444860  0.945869  0.164076  1
  Si  Si18  1  0.218194  0.719208  0.164106  1
  Si  Si19  1  0.715675  0.548888  0.487966  1
  Si  Si20  1  0.939013  0.772266  0.487912  1
  Si  Si21  1  0.283578  0.446545  0.501355  1
  Si  Si22  1  0.778009  0.286733  0.843142  1
  Si  Si23  1  0.556473  0.065184  0.843203  1
  Si  Si24  1  0.054863  0.217777  0.501382  1
  Ni  Ni25  1  0.500887  0.999426  0.500314  1
  Ni  Ni26  1  0.002870  0.498095  0.500987  1
  Ni  Ni27  1  0.710633  0.427558  0.138179  1
