# generated using pymatgen
data_YbSc(Ni2P)4
_symmetry_space_group_name_H-M   'P 1'
_cell_length_a   7.02229573
_cell_length_b   7.02229573
_cell_length_c   3.55127000
_cell_angle_alpha   90.00000000
_cell_angle_beta   90.00000000
_cell_angle_gamma   90.34449504
_symmetry_Int_Tables_number   1
_chemical_formula_structural   YbSc(Ni2P)4
_chemical_formula_sum   'Yb1 Sc1 Ni8 P4'
_cell_volume   175.11932426
_cell_formula_units_Z   1
loop_
 _symmetry_equiv_pos_site_id
 _symmetry_equiv_pos_as_xyz
  1  'x, y, z'
loop_
 _atom_site_type_symbol
 _atom_site_label
 _atom_site_symmetry_multiplicity
 _atom_site_fract_x
 _atom_site_fract_y
 _atom_site_fract_z
 _atom_site_occupancy
  Yb  Yb0  1  0.000000  0.000000  0.500000  1
  Sc  Sc1  1  0.500000  0.500000  0.000000  1
  Ni  Ni2  1  0.832540  0.418202  0.500000  1
  Ni  Ni3  1  0.167460  0.581798  0.500000  1
  Ni  Ni4  1  0.418202  0.832540  0.500000  1
  Ni  Ni5  1  0.581798  0.167460  0.500000  1
  Ni  Ni6  1  0.333385  0.082475  0.000000  1
  Ni  Ni7  1  0.666615  0.917525  0.000000  1
  Ni  Ni8  1  0.917525  0.666615  0.000000  1
  Ni  Ni9  1  0.082475  0.333385  0.000000  1
  P  P10  1  0.226990  0.773010  0.000000  1
  P  P11  1  0.283384  0.283384  0.500000  1
  P  P12  1  0.716616  0.716616  0.500000  1
  P  P13  1  0.773010  0.226990  0.000000  1
