# generated using pymatgen
data_Th2P4Rh7
_symmetry_space_group_name_H-M   'P 1'
_cell_length_a   3.98480000
_cell_length_b   9.70134300
_cell_length_c   10.97992600
_cell_angle_alpha   90.00000000
_cell_angle_beta   90.00000000
_cell_angle_gamma   90.00000000
_symmetry_Int_Tables_number   1
_chemical_formula_structural   Th2P4Rh7
_chemical_formula_sum   'Th4 P8 Rh14'
_cell_volume   424.46100853
_cell_formula_units_Z   2
loop_
 _symmetry_equiv_pos_site_id
 _symmetry_equiv_pos_as_xyz
  1  'x, y, z'
loop_
 _atom_site_type_symbol
 _atom_site_label
 _atom_site_symmetry_multiplicity
 _atom_site_fract_x
 _atom_site_fract_y
 _atom_site_fract_z
 _atom_site_occupancy
  Th  Th0  1  0.500000  0.449412  0.502821  1
  Th  Th1  1  0.500000  0.062814  0.283312  1
  Th  Th2  1  0.000000  0.937186  0.783312  1
  Th  Th3  1  0.000000  0.550588  0.002821  1
  P  P4  1  0.000000  0.819001  0.285704  1
  P  P5  1  0.000000  0.187266  0.463958  1
  P  P6  1  0.500000  0.180999  0.785704  1
  P  P7  1  0.000000  0.152501  0.094163  1
  P  P8  1  0.500000  0.478895  0.223917  1
  P  P9  1  0.500000  0.812734  0.963958  1
  P  P10  1  0.500000  0.847499  0.594163  1
  P  P11  1  0.000000  0.521105  0.723917  1
  Rh  Rh12  1  0.500000  0.315265  0.078516  1
  Rh  Rh13  1  0.500000  0.755658  0.405777  1
  Rh  Rh14  1  0.500000  0.415134  0.800393  1
  Rh  Rh15  1  0.500000  0.058032  0.973162  1
  Rh  Rh16  1  0.500000  0.702717  0.771540  1
  Rh  Rh17  1  0.000000  0.281269  0.658453  1
  Rh  Rh18  1  0.000000  0.244342  0.905777  1
  Rh  Rh19  1  0.000000  0.684735  0.578516  1
  Rh  Rh20  1  0.500000  0.094767  0.585982  1
  Rh  Rh21  1  0.000000  0.297283  0.271540  1
  Rh  Rh22  1  0.000000  0.584866  0.300393  1
  Rh  Rh23  1  0.000000  0.905233  0.085982  1
  Rh  Rh24  1  0.000000  0.941968  0.473162  1
  Rh  Rh25  1  0.500000  0.718731  0.158453  1
