# generated using pymatgen
data_Zr12Al4IrRh7N4
_symmetry_space_group_name_H-M   'P 1'
_cell_length_a   8.58263882
_cell_length_b   8.58263972
_cell_length_c   8.58263901
_cell_angle_alpha   60.00509757
_cell_angle_beta   60.00509037
_cell_angle_gamma   60.00509642
_symmetry_Int_Tables_number   1
_chemical_formula_structural   Zr12Al4IrRh7N4
_chemical_formula_sum   'Zr12 Al4 Ir1 Rh7 N4'
_cell_volume   447.09285483
_cell_formula_units_Z   1
loop_
 _symmetry_equiv_pos_site_id
 _symmetry_equiv_pos_as_xyz
  1  'x, y, z'
loop_
 _atom_site_type_symbol
 _atom_site_label
 _atom_site_symmetry_multiplicity
 _atom_site_fract_x
 _atom_site_fract_y
 _atom_site_fract_z
 _atom_site_occupancy
  Zr  Zr0  1  0.810245  0.810245  0.188315  1
  Zr  Zr1  1  0.189711  0.189711  0.810415  1
  Zr  Zr2  1  0.810245  0.188315  0.810245  1
  Zr  Zr3  1  0.189711  0.810415  0.189711  1
  Zr  Zr4  1  0.188315  0.810245  0.810245  1
  Zr  Zr5  1  0.810415  0.189711  0.189711  1
  Zr  Zr6  1  0.439775  0.439775  0.059899  1
  Zr  Zr7  1  0.059753  0.059753  0.440516  1
  Zr  Zr8  1  0.439775  0.059899  0.439775  1
  Zr  Zr9  1  0.059753  0.440516  0.059753  1
  Zr  Zr10  1  0.059899  0.439775  0.439775  1
  Zr  Zr11  1  0.440516  0.059753  0.059753  1
  Al  Al12  1  0.125476  0.625014  0.625014  1
  Al  Al13  1  0.625014  0.125476  0.625014  1
  Al  Al14  1  0.625014  0.625014  0.125476  1
  Al  Al15  1  0.625017  0.625017  0.625017  1
  Ir  Ir16  1  0.834554  0.834554  0.834554  1
  Rh  Rh17  1  0.753399  0.415512  0.415512  1
  Rh  Rh18  1  0.415512  0.753399  0.415512  1
  Rh  Rh19  1  0.415512  0.415512  0.753399  1
  Rh  Rh20  1  0.415521  0.415521  0.415521  1
  Rh  Rh21  1  0.496734  0.834753  0.834753  1
  Rh  Rh22  1  0.834753  0.496734  0.834753  1
  Rh  Rh23  1  0.834753  0.834753  0.496734  1
  N  N24  1  0.624707  0.125446  0.125446  1
  N  N25  1  0.125446  0.624707  0.125446  1
  N  N26  1  0.125446  0.125446  0.624707  1
  N  N27  1  0.125027  0.125027  0.125027  1
