# generated using pymatgen
data_YTa2Co(BRu2)2
_symmetry_space_group_name_H-M   'P 1'
_cell_length_a   9.40357968
_cell_length_b   9.40357968
_cell_length_c   3.10415500
_cell_angle_alpha   90.00000000
_cell_angle_beta   90.00000000
_cell_angle_gamma   90.68433050
_symmetry_Int_Tables_number   1
_chemical_formula_structural   YTa2Co(BRu2)2
_chemical_formula_sum   'Y2 Ta4 Co2 B4 Ru8'
_cell_volume   274.47250053
_cell_formula_units_Z   2
loop_
 _symmetry_equiv_pos_site_id
 _symmetry_equiv_pos_as_xyz
  1  'x, y, z'
loop_
 _atom_site_type_symbol
 _atom_site_label
 _atom_site_symmetry_multiplicity
 _atom_site_fract_x
 _atom_site_fract_y
 _atom_site_fract_z
 _atom_site_occupancy
  Y  Y0  1  0.822514  0.677486  0.000000  1
  Y  Y1  1  0.177486  0.322514  0.000000  1
  Ta  Ta2  1  0.325585  0.825585  0.000000  1
  Ta  Ta3  1  0.674415  0.174415  0.000000  1
  Ta  Ta4  1  0.500000  0.500000  0.000000  1
  Ta  Ta5  1  0.000000  0.000000  0.000000  1
  Co  Co6  1  0.500000  0.000000  0.500000  1
  Co  Co7  1  0.000000  0.500000  0.500000  1
  B  B8  1  0.609056  0.890944  0.000000  1
  B  B9  1  0.390944  0.109056  0.000000  1
  B  B10  1  0.112278  0.612278  0.000000  1
  B  B11  1  0.887722  0.387722  0.000000  1
  Ru  Ru12  1  0.553118  0.730764  0.500000  1
  Ru  Ru13  1  0.446882  0.269236  0.500000  1
  Ru  Ru14  1  0.076073  0.780114  0.500000  1
  Ru  Ru15  1  0.923927  0.219886  0.500000  1
  Ru  Ru16  1  0.280114  0.576073  0.500000  1
  Ru  Ru17  1  0.719886  0.423927  0.500000  1
  Ru  Ru18  1  0.230764  0.053118  0.500000  1
  Ru  Ru19  1  0.769236  0.946882  0.500000  1
