# generated using pymatgen
data_Gd12In2CoRu3
_symmetry_space_group_name_H-M   'P 1'
_cell_length_a   8.48921426
_cell_length_b   8.48921407
_cell_length_c   8.48921500
_cell_angle_alpha   112.63505701
_cell_angle_beta   110.78367630
_cell_angle_gamma   105.08782111
_symmetry_Int_Tables_number   1
_chemical_formula_structural   Gd12In2CoRu3
_chemical_formula_sum   'Gd12 In2 Co1 Ru3'
_cell_volume   468.77666059
_cell_formula_units_Z   1
loop_
 _symmetry_equiv_pos_site_id
 _symmetry_equiv_pos_as_xyz
  1  'x, y, z'
loop_
 _atom_site_type_symbol
 _atom_site_label
 _atom_site_symmetry_multiplicity
 _atom_site_fract_x
 _atom_site_fract_y
 _atom_site_fract_z
 _atom_site_occupancy
  Gd  Gd0  1  0.444844  0.242310  0.202535  1
  Gd  Gd1  1  0.557654  0.759709  0.797944  1
  Gd  Gd2  1  0.039775  0.242310  0.797465  1
  Gd  Gd3  1  0.961765  0.759709  0.202056  1
  Gd  Gd4  1  0.186566  0.285773  0.470657  1
  Gd  Gd5  1  0.815116  0.715908  0.529343  1
  Gd  Gd6  1  0.186566  0.715908  0.900793  1
  Gd  Gd7  1  0.815116  0.285773  0.099207  1
  Gd  Gd8  1  0.324690  0.637688  0.312999  1
  Gd  Gd9  1  0.676715  0.361807  0.685089  1
  Gd  Gd10  1  0.324690  0.011691  0.687001  1
  Gd  Gd11  1  0.676715  0.991626  0.314911  1
  In  In12  1  0.501320  0.501320  0.000000  1
  In  In13  1  0.000416  0.000416  0.000000  1
  Co  Co14  1  0.876410  0.376410  0.500000  1
  Ru  Ru15  1  0.328617  0.000483  0.328133  1
  Ru  Ru16  1  0.672350  0.000483  0.671867  1
  Ru  Ru17  1  0.110677  0.610677  0.500000  1
