# generated using pymatgen
data_YHo5CoRh
_symmetry_space_group_name_H-M   'P 1'
_cell_length_a   6.24461501
_cell_length_b   7.05729396
_cell_length_c   9.39097000
_cell_angle_alpha   90.00000000
_cell_angle_beta   90.00000000
_cell_angle_gamma   90.08266083
_symmetry_Int_Tables_number   1
_chemical_formula_structural   YHo5CoRh
_chemical_formula_sum   'Y2 Ho10 Co2 Rh2'
_cell_volume   413.86040424
_cell_formula_units_Z   2
loop_
 _symmetry_equiv_pos_site_id
 _symmetry_equiv_pos_as_xyz
  1  'x, y, z'
loop_
 _atom_site_type_symbol
 _atom_site_label
 _atom_site_symmetry_multiplicity
 _atom_site_fract_x
 _atom_site_fract_y
 _atom_site_fract_z
 _atom_site_occupancy
  Y  Y0  1  0.141238  0.470006  0.750000  1
  Y  Y1  1  0.858762  0.529994  0.250000  1
  Ho  Ho2  1  0.627996  0.045128  0.250000  1
  Ho  Ho3  1  0.372004  0.954872  0.750000  1
  Ho  Ho4  1  0.177610  0.179407  0.064121  1
  Ho  Ho5  1  0.822390  0.820593  0.935879  1
  Ho  Ho6  1  0.672200  0.329328  0.933597  1
  Ho  Ho7  1  0.822390  0.820593  0.564121  1
  Ho  Ho8  1  0.327800  0.670672  0.066403  1
  Ho  Ho9  1  0.177610  0.179407  0.435879  1
  Ho  Ho10  1  0.327800  0.670672  0.433597  1
  Ho  Ho11  1  0.672200  0.329328  0.566403  1
  Co  Co12  1  0.445772  0.383262  0.250000  1
  Co  Co13  1  0.554228  0.616738  0.750000  1
  Rh  Rh14  1  0.949218  0.111614  0.750000  1
  Rh  Rh15  1  0.050782  0.888386  0.250000  1
