# generated using pymatgen
data_CeY6Er(CdIr)2
_symmetry_space_group_name_H-M   'P 1'
_cell_length_a   9.65864519
_cell_length_b   9.65864475
_cell_length_c   9.68673000
_cell_angle_alpha   59.90377145
_cell_angle_beta   59.90377294
_cell_angle_gamma   59.85296054
_symmetry_Int_Tables_number   1
_chemical_formula_structural   CeY6Er(CdIr)2
_chemical_formula_sum   'Ce2 Y12 Er2 Cd4 Ir4'
_cell_volume   637.34981647
_cell_formula_units_Z   2
loop_
 _symmetry_equiv_pos_site_id
 _symmetry_equiv_pos_as_xyz
  1  'x, y, z'
loop_
 _atom_site_type_symbol
 _atom_site_label
 _atom_site_symmetry_multiplicity
 _atom_site_fract_x
 _atom_site_fract_y
 _atom_site_fract_z
 _atom_site_occupancy
  Ce  Ce0  1  0.345560  0.345560  0.348607  1
  Ce  Ce1  1  0.345560  0.345560  0.960274  1
  Y  Y2  1  0.811263  0.189474  0.190350  1
  Y  Y3  1  0.189474  0.811263  0.808914  1
  Y  Y4  1  0.189474  0.811263  0.190350  1
  Y  Y5  1  0.811263  0.189474  0.808914  1
  Y  Y6  1  0.188327  0.188327  0.811673  1
  Y  Y7  1  0.811116  0.811116  0.188884  1
  Y  Y8  1  0.939263  0.562057  0.562340  1
  Y  Y9  1  0.562057  0.939263  0.936341  1
  Y  Y10  1  0.562057  0.939263  0.562340  1
  Y  Y11  1  0.939263  0.562057  0.936341  1
  Y  Y12  1  0.562265  0.562265  0.937735  1
  Y  Y13  1  0.939958  0.939958  0.560042  1
  Er  Er14  1  0.351474  0.949868  0.349328  1
  Er  Er15  1  0.949868  0.351474  0.349328  1
  Cd  Cd16  1  0.580347  0.580347  0.580506  1
  Cd  Cd17  1  0.580347  0.580347  0.258802  1
  Cd  Cd18  1  0.580052  0.255778  0.582085  1
  Cd  Cd19  1  0.255778  0.580052  0.582085  1
  Ir  Ir20  1  0.143864  0.143864  0.142504  1
  Ir  Ir21  1  0.143864  0.143864  0.569769  1
  Ir  Ir22  1  0.146451  0.571057  0.141246  1
  Ir  Ir23  1  0.571057  0.146451  0.141246  1
