# generated using pymatgen
data_Tm9LuPt8
_symmetry_space_group_name_H-M   'P 1'
_cell_length_a   7.33080500
_cell_length_b   7.46196800
_cell_length_c   14.69142300
_cell_angle_alpha   90.00000000
_cell_angle_beta   90.00000000
_cell_angle_gamma   90.00000000
_symmetry_Int_Tables_number   1
_chemical_formula_structural   Tm9LuPt8
_chemical_formula_sum   'Tm18 Lu2 Pt16'
_cell_volume   803.65363412
_cell_formula_units_Z   2
loop_
 _symmetry_equiv_pos_site_id
 _symmetry_equiv_pos_as_xyz
  1  'x, y, z'
loop_
 _atom_site_type_symbol
 _atom_site_label
 _atom_site_symmetry_multiplicity
 _atom_site_fract_x
 _atom_site_fract_y
 _atom_site_fract_z
 _atom_site_occupancy
  Tm  Tm0  1  0.629600  0.167390  0.619828  1
  Tm  Tm1  1  0.129600  0.332610  0.880172  1
  Tm  Tm2  1  0.370248  0.832671  0.120437  1
  Tm  Tm3  1  0.870248  0.667329  0.379563  1
  Tm  Tm4  1  0.370248  0.832671  0.379563  1
  Tm  Tm5  1  0.870248  0.667329  0.120437  1
  Tm  Tm6  1  0.629600  0.167390  0.880172  1
  Tm  Tm7  1  0.129600  0.332610  0.619828  1
  Tm  Tm8  1  0.474253  0.673772  0.596681  1
  Tm  Tm9  1  0.974253  0.826228  0.903319  1
  Tm  Tm10  1  0.526096  0.326636  0.097644  1
  Tm  Tm11  1  0.026096  0.173364  0.402356  1
  Tm  Tm12  1  0.526096  0.326636  0.402356  1
  Tm  Tm13  1  0.026096  0.173364  0.097644  1
  Tm  Tm14  1  0.474253  0.673772  0.903319  1
  Tm  Tm15  1  0.974253  0.826228  0.596681  1
  Tm  Tm16  1  0.793805  0.509123  0.750000  1
  Tm  Tm17  1  0.293805  0.990877  0.750000  1
  Lu  Lu18  1  0.206261  0.491091  0.250000  1
  Lu  Lu19  1  0.706261  0.008909  0.250000  1
  Pt  Pt20  1  0.705185  0.976308  0.456132  1
  Pt  Pt21  1  0.205185  0.523692  0.043868  1
  Pt  Pt22  1  0.294651  0.023687  0.956811  1
  Pt  Pt23  1  0.794651  0.476313  0.543189  1
  Pt  Pt24  1  0.294651  0.023687  0.543189  1
  Pt  Pt25  1  0.794651  0.476313  0.956811  1
  Pt  Pt26  1  0.705185  0.976308  0.043868  1
  Pt  Pt27  1  0.205185  0.523692  0.456132  1
  Pt  Pt28  1  0.425722  0.380692  0.750000  1
  Pt  Pt29  1  0.925722  0.119308  0.750000  1
  Pt  Pt30  1  0.573523  0.619229  0.250000  1
  Pt  Pt31  1  0.073523  0.880771  0.250000  1
  Pt  Pt32  1  0.657063  0.858441  0.750000  1
  Pt  Pt33  1  0.157063  0.641559  0.750000  1
  Pt  Pt34  1  0.343561  0.142476  0.250000  1
  Pt  Pt35  1  0.843561  0.357524  0.250000  1
