# generated using pymatgen
data_Y3ThHgRh
_symmetry_space_group_name_H-M   'P 1'
_cell_length_a   9.73744721
_cell_length_b   9.73744747
_cell_length_c   9.73744900
_cell_angle_alpha   60.00000499
_cell_angle_beta   60.00000411
_cell_angle_gamma   60.00000362
_symmetry_Int_Tables_number   1
_chemical_formula_structural   Y3ThHgRh
_chemical_formula_sum   'Y12 Th4 Hg4 Rh4'
_cell_volume   652.86063622
_cell_formula_units_Z   4
loop_
 _symmetry_equiv_pos_site_id
 _symmetry_equiv_pos_as_xyz
  1  'x, y, z'
loop_
 _atom_site_type_symbol
 _atom_site_label
 _atom_site_symmetry_multiplicity
 _atom_site_fract_x
 _atom_site_fract_y
 _atom_site_fract_z
 _atom_site_occupancy
  Y  Y0  1  0.062383  0.437617  0.437617  1
  Y  Y1  1  0.437617  0.062383  0.062383  1
  Y  Y2  1  0.437617  0.062383  0.437617  1
  Y  Y3  1  0.062383  0.437617  0.062383  1
  Y  Y4  1  0.437617  0.437617  0.062383  1
  Y  Y5  1  0.062383  0.062383  0.437617  1
  Y  Y6  1  0.185558  0.814442  0.814442  1
  Y  Y7  1  0.814442  0.185558  0.185558  1
  Y  Y8  1  0.814442  0.185558  0.814442  1
  Y  Y9  1  0.185558  0.814442  0.185558  1
  Y  Y10  1  0.814442  0.814442  0.185558  1
  Y  Y11  1  0.185558  0.185558  0.814442  1
  Th  Th12  1  0.601171  0.601171  0.601171  1
  Th  Th13  1  0.601171  0.601171  0.196489  1
  Th  Th14  1  0.601171  0.196489  0.601171  1
  Th  Th15  1  0.196489  0.601171  0.601171  1
  Hg  Hg16  1  0.836937  0.836937  0.836937  1
  Hg  Hg17  1  0.836937  0.836937  0.489187  1
  Hg  Hg18  1  0.836937  0.489187  0.836937  1
  Hg  Hg19  1  0.489187  0.836937  0.836937  1
  Rh  Rh20  1  0.395283  0.395283  0.395283  1
  Rh  Rh21  1  0.395283  0.395283  0.814151  1
  Rh  Rh22  1  0.395283  0.814151  0.395283  1
  Rh  Rh23  1  0.814151  0.395283  0.395283  1
