# generated using pymatgen
data_Ho4Er12Cd4TcPd3
_symmetry_space_group_name_H-M   'P 1'
_cell_length_a   9.64701302
_cell_length_b   9.64701213
_cell_length_c   9.64701331
_cell_angle_alpha   59.30200109
_cell_angle_beta   59.30200609
_cell_angle_gamma   59.30200515
_symmetry_Int_Tables_number   1
_chemical_formula_structural   Ho4Er12Cd4TcPd3
_chemical_formula_sum   'Ho4 Er12 Cd4 Tc1 Pd3'
_cell_volume   624.74931122
_cell_formula_units_Z   1
loop_
 _symmetry_equiv_pos_site_id
 _symmetry_equiv_pos_as_xyz
  1  'x, y, z'
loop_
 _atom_site_type_symbol
 _atom_site_label
 _atom_site_symmetry_multiplicity
 _atom_site_fract_x
 _atom_site_fract_y
 _atom_site_fract_z
 _atom_site_occupancy
  Ho  Ho0  1  0.353191  0.353191  0.353191  1
  Ho  Ho1  1  0.351894  0.351894  0.942914  1
  Ho  Ho2  1  0.351894  0.942914  0.351894  1
  Ho  Ho3  1  0.942914  0.351894  0.351894  1
  Er  Er4  1  0.817076  0.187121  0.187121  1
  Er  Er5  1  0.188230  0.810891  0.810891  1
  Er  Er6  1  0.187121  0.817076  0.187121  1
  Er  Er7  1  0.810891  0.188230  0.810891  1
  Er  Er8  1  0.187121  0.187121  0.817076  1
  Er  Er9  1  0.810891  0.810891  0.188230  1
  Er  Er10  1  0.934645  0.566326  0.566326  1
  Er  Er11  1  0.557241  0.937354  0.937354  1
  Er  Er12  1  0.566326  0.934645  0.566326  1
  Er  Er13  1  0.937354  0.557241  0.937354  1
  Er  Er14  1  0.566326  0.566326  0.934645  1
  Er  Er15  1  0.937354  0.937354  0.557241  1
  Cd  Cd16  1  0.580550  0.580550  0.580550  1
  Cd  Cd17  1  0.581218  0.581218  0.253594  1
  Cd  Cd18  1  0.581218  0.253594  0.581218  1
  Cd  Cd19  1  0.253594  0.581218  0.581218  1
  Tc  Tc20  1  0.145024  0.145024  0.145024  1
  Pd  Pd21  1  0.144388  0.144388  0.569149  1
  Pd  Pd22  1  0.144388  0.569149  0.144388  1
  Pd  Pd23  1  0.569149  0.144388  0.144388  1
