# generated using pymatgen
data_Nd4Cd2Cu2NiPd
_symmetry_space_group_name_H-M   'P 1'
_cell_length_a   7.77323013
_cell_length_b   7.78400899
_cell_length_c   3.83799300
_cell_angle_alpha   90.00000000
_cell_angle_beta   90.00000000
_cell_angle_gamma   89.57432271
_symmetry_Int_Tables_number   1
_chemical_formula_structural   Nd4Cd2Cu2NiPd
_chemical_formula_sum   'Nd4 Cd2 Cu2 Ni1 Pd1'
_cell_volume   232.21862346
_cell_formula_units_Z   1
loop_
 _symmetry_equiv_pos_site_id
 _symmetry_equiv_pos_as_xyz
  1  'x, y, z'
loop_
 _atom_site_type_symbol
 _atom_site_label
 _atom_site_symmetry_multiplicity
 _atom_site_fract_x
 _atom_site_fract_y
 _atom_site_fract_z
 _atom_site_occupancy
  Nd  Nd0  1  0.667175  0.178881  0.000000  1
  Nd  Nd1  1  0.323468  0.835255  0.000000  1
  Nd  Nd2  1  0.182753  0.314218  0.000000  1
  Nd  Nd3  1  0.823526  0.673065  0.000000  1
  Cd  Cd4  1  0.496695  0.501833  0.500000  1
  Cd  Cd5  1  0.000559  0.997919  0.500000  1
  Cu  Cu6  1  0.123042  0.620468  0.500000  1
  Cu  Cu7  1  0.616587  0.883678  0.500000  1
  Ni  Ni8  1  0.384438  0.114971  0.500000  1
  Pd  Pd9  1  0.881754  0.379709  0.500000  1
