# generated using pymatgen
data_Sm3Y3(SiPd5)2
_symmetry_space_group_name_H-M   'P 1'
_cell_length_a   8.30321336
_cell_length_b   8.28603540
_cell_length_c   8.28603629
_cell_angle_alpha   127.24210962
_cell_angle_beta   125.97564069
_cell_angle_gamma   78.84625754
_symmetry_Int_Tables_number   1
_chemical_formula_structural   Sm3Y3(SiPd5)2
_chemical_formula_sum   'Sm3 Y3 Si2 Pd10'
_cell_volume   355.46367911
_cell_formula_units_Z   1
loop_
 _symmetry_equiv_pos_site_id
 _symmetry_equiv_pos_as_xyz
  1  'x, y, z'
loop_
 _atom_site_type_symbol
 _atom_site_label
 _atom_site_symmetry_multiplicity
 _atom_site_fract_x
 _atom_site_fract_y
 _atom_site_fract_z
 _atom_site_occupancy
  Sm  Sm0  1  0.387144  0.249775  0.137370  1
  Sm  Sm1  1  0.773832  0.550129  0.223701  1
  Sm  Sm2  1  0.610763  0.749974  0.860789  1
  Y  Y3  1  0.824955  0.049591  0.775363  1
  Y  Y4  1  0.223379  0.449788  0.773592  1
  Y  Y5  1  0.174069  0.949694  0.224375  1
  Si  Si6  1  0.214986  0.750121  0.464865  1
  Si  Si7  1  0.784026  0.249901  0.534126  1
  Pd  Pd8  1  0.834643  0.598874  0.644735  1
  Pd  Pd9  1  0.543500  0.307275  0.639896  1
  Pd  Pd10  1  0.454770  0.096865  0.762382  1
  Pd  Pd11  1  0.834643  0.189908  0.235769  1
  Pd  Pd12  1  0.167163  0.401760  0.357965  1
  Pd  Pd13  1  0.454770  0.692388  0.357904  1
  Pd  Pd14  1  0.543500  0.903604  0.236225  1
  Pd  Pd15  1  0.167163  0.809198  0.765404  1
  Pd  Pd16  1  0.003347  0.004657  0.506850  1
  Pd  Pd17  1  0.003347  0.496497  0.998690  1
