# generated using pymatgen
data_Y2Ge(BIr2)3
_symmetry_space_group_name_H-M   'P 1'
_cell_length_a   5.56711702
_cell_length_b   5.56702604
_cell_length_c   13.03019501
_cell_angle_alpha   90.00108100
_cell_angle_beta   89.99786891
_cell_angle_gamma   120.00053464
_symmetry_Int_Tables_number   1
_chemical_formula_structural   Y2Ge(BIr2)3
_chemical_formula_sum   'Y4 Ge2 B6 Ir12'
_cell_volume   349.72993695
_cell_formula_units_Z   2
loop_
 _symmetry_equiv_pos_site_id
 _symmetry_equiv_pos_as_xyz
  1  'x, y, z'
loop_
 _atom_site_type_symbol
 _atom_site_label
 _atom_site_symmetry_multiplicity
 _atom_site_fract_x
 _atom_site_fract_y
 _atom_site_fract_z
 _atom_site_occupancy
  Y  Y0  1  0.000030  0.000000  0.999981  1
  Y  Y1  1  0.999971  0.000000  0.499992  1
  Y  Y2  1  0.999910  0.000000  0.259013  1
  Y  Y3  1  0.000077  0.000000  0.740971  1
  Ge  Ge4  1  0.333302  0.666595  0.000011  1
  Ge  Ge5  1  0.666707  0.333405  0.000011  1
  B  B6  1  0.333311  0.666664  0.499997  1
  B  B7  1  0.666646  0.333336  0.499997  1
  B  B8  1  0.333347  0.666709  0.265957  1
  B  B9  1  0.666638  0.333291  0.265957  1
  B  B10  1  0.666653  0.333336  0.734048  1
  B  B11  1  0.333317  0.666664  0.734048  1
  Ir  Ir12  1  0.500033  0.000000  0.155017  1
  Ir  Ir13  1  0.499961  0.499958  0.155043  1
  Ir  Ir14  1  0.000003  0.500042  0.155043  1
  Ir  Ir15  1  0.499935  0.000000  0.844986  1
  Ir  Ir16  1  0.500002  0.500036  0.844973  1
  Ir  Ir17  1  0.999967  0.499964  0.844973  1
  Ir  Ir18  1  0.500019  0.000000  0.385116  1
  Ir  Ir19  1  0.499979  0.499982  0.385092  1
  Ir  Ir20  1  0.999997  0.500018  0.385092  1
  Ir  Ir21  1  0.500007  0.000000  0.614909  1
  Ir  Ir22  1  0.499995  0.499998  0.614886  1
  Ir  Ir23  1  0.999995  0.500002  0.614886  1
