# generated using pymatgen
data_CaEu2CrN3
_symmetry_space_group_name_H-M   'P 1'
_cell_length_a   6.74427118
_cell_length_b   6.74427143
_cell_length_c   5.22292700
_cell_angle_alpha   90.00000000
_cell_angle_beta   90.00000000
_cell_angle_gamma   101.17025832
_symmetry_Int_Tables_number   1
_chemical_formula_structural   CaEu2CrN3
_chemical_formula_sum   'Ca2 Eu4 Cr2 N6'
_cell_volume   233.06537165
_cell_formula_units_Z   2
loop_
 _symmetry_equiv_pos_site_id
 _symmetry_equiv_pos_as_xyz
  1  'x, y, z'
loop_
 _atom_site_type_symbol
 _atom_site_label
 _atom_site_symmetry_multiplicity
 _atom_site_fract_x
 _atom_site_fract_y
 _atom_site_fract_z
 _atom_site_occupancy
  Ca  Ca0  1  0.405635  0.172330  0.750000  1
  Ca  Ca1  1  0.172330  0.405635  0.250000  1
  Eu  Eu2  1  0.588890  0.827591  0.250000  1
  Eu  Eu3  1  0.894025  0.109836  0.750000  1
  Eu  Eu4  1  0.827591  0.588890  0.750000  1
  Eu  Eu5  1  0.109836  0.894025  0.250000  1
  Cr  Cr6  1  0.303865  0.695867  0.750000  1
  Cr  Cr7  1  0.695867  0.303865  0.250000  1
  N  N8  1  0.565202  0.815830  0.750000  1
  N  N9  1  0.871469  0.130631  0.250000  1
  N  N10  1  0.130631  0.871469  0.750000  1
  N  N11  1  0.815830  0.565202  0.250000  1
  N  N12  1  0.435982  0.182848  0.250000  1
  N  N13  1  0.182848  0.435982  0.750000  1
