# generated using pymatgen
data_Er2MnAl9Ni2
_symmetry_space_group_name_H-M   'P 1'
_cell_length_a   7.38960325
_cell_length_b   7.38960255
_cell_length_c   9.29047000
_cell_angle_alpha   90.00000000
_cell_angle_beta   90.00000000
_cell_angle_gamma   118.19717215
_symmetry_Int_Tables_number   1
_chemical_formula_structural   Er2MnAl9Ni2
_chemical_formula_sum   'Er4 Mn2 Al18 Ni4'
_cell_volume   447.11254033
_cell_formula_units_Z   2
loop_
 _symmetry_equiv_pos_site_id
 _symmetry_equiv_pos_as_xyz
  1  'x, y, z'
loop_
 _atom_site_type_symbol
 _atom_site_label
 _atom_site_symmetry_multiplicity
 _atom_site_fract_x
 _atom_site_fract_y
 _atom_site_fract_z
 _atom_site_occupancy
  Er  Er0  1  0.992649  0.680370  0.750000  1
  Er  Er1  1  0.007351  0.319630  0.250000  1
  Er  Er2  1  0.680370  0.992649  0.750000  1
  Er  Er3  1  0.319630  0.007351  0.250000  1
  Mn  Mn4  1  0.000000  0.000000  0.500000  1
  Mn  Mn5  1  0.000000  0.000000  0.000000  1
  Al  Al6  1  0.128254  0.128254  0.750000  1
  Al  Al7  1  0.871746  0.871746  0.250000  1
  Al  Al8  1  0.998138  0.334972  0.572999  1
  Al  Al9  1  0.001862  0.665028  0.427001  1
  Al  Al10  1  0.001862  0.665028  0.072999  1
  Al  Al11  1  0.334972  0.998138  0.927001  1
  Al  Al12  1  0.998138  0.334972  0.927001  1
  Al  Al13  1  0.665028  0.001862  0.072999  1
  Al  Al14  1  0.665028  0.001862  0.427001  1
  Al  Al15  1  0.334972  0.998138  0.572999  1
  Al  Al16  1  0.330338  0.330338  0.042659  1
  Al  Al17  1  0.669662  0.669662  0.957341  1
  Al  Al18  1  0.669662  0.669662  0.542659  1
  Al  Al19  1  0.330338  0.330338  0.457341  1
  Al  Al20  1  0.341627  0.557079  0.750000  1
  Al  Al21  1  0.658373  0.442921  0.250000  1
  Al  Al22  1  0.557079  0.341627  0.750000  1
  Al  Al23  1  0.442921  0.658373  0.250000  1
  Ni  Ni24  1  0.671106  0.328894  0.500000  1
  Ni  Ni25  1  0.328894  0.671106  0.500000  1
  Ni  Ni26  1  0.328894  0.671106  0.000000  1
  Ni  Ni27  1  0.671106  0.328894  0.000000  1
