# generated using pymatgen
data_Lu8ZnIn2Hg
_symmetry_space_group_name_H-M   'P 1'
_cell_length_a   10.36782738
_cell_length_b   10.36782683
_cell_length_c   6.67021468
_cell_angle_alpha   90.12995033
_cell_angle_beta   89.87005233
_cell_angle_gamma   119.93507736
_symmetry_Int_Tables_number   1
_chemical_formula_structural   Lu8ZnIn2Hg
_chemical_formula_sum   'Lu16 Zn2 In4 Hg2'
_cell_volume   621.33839497
_cell_formula_units_Z   2
loop_
 _symmetry_equiv_pos_site_id
 _symmetry_equiv_pos_as_xyz
  1  'x, y, z'
loop_
 _atom_site_type_symbol
 _atom_site_label
 _atom_site_symmetry_multiplicity
 _atom_site_fract_x
 _atom_site_fract_y
 _atom_site_fract_z
 _atom_site_occupancy
  Lu  Lu0  1  0.517095  0.040987  0.529352  1
  Lu  Lu1  1  0.959013  0.482905  0.529352  1
  Lu  Lu2  1  0.522125  0.477875  0.528826  1
  Lu  Lu3  1  0.482084  0.958037  0.027858  1
  Lu  Lu4  1  0.041963  0.517916  0.027858  1
  Lu  Lu5  1  0.477851  0.522149  0.030366  1
  Lu  Lu6  1  0.176174  0.341115  0.740527  1
  Lu  Lu7  1  0.658885  0.823826  0.740527  1
  Lu  Lu8  1  0.168975  0.831025  0.745044  1
  Lu  Lu9  1  0.826912  0.653709  0.226485  1
  Lu  Lu10  1  0.346291  0.173088  0.226485  1
  Lu  Lu11  1  0.826148  0.173852  0.244107  1
  Lu  Lu12  1  0.664127  0.335873  0.875830  1
  Lu  Lu13  1  0.333009  0.666991  0.384170  1
  Lu  Lu14  1  0.000521  0.999479  0.501333  1
  Lu  Lu15  1  0.998309  0.001691  0.003430  1
  Zn  Zn16  1  0.667378  0.332622  0.307384  1
  Zn  Zn17  1  0.332738  0.667262  0.811680  1
  In  In18  1  0.834345  0.165655  0.760140  1
  In  In19  1  0.163827  0.329981  0.261787  1
  In  In20  1  0.670019  0.836173  0.261787  1
  In  In21  1  0.165246  0.834754  0.262730  1
  Hg  Hg22  1  0.834638  0.667673  0.764312  1
  Hg  Hg23  1  0.332327  0.165362  0.764312  1
