# generated using pymatgen
data_Eu2(Al3Pt)3
_symmetry_space_group_name_H-M   'P 1'
_cell_length_a   7.70741143
_cell_length_b   7.70710112
_cell_length_c   9.63938800
_cell_angle_alpha   90.00000000
_cell_angle_beta   90.00000000
_cell_angle_gamma   119.59710797
_symmetry_Int_Tables_number   1
_chemical_formula_structural   Eu2(Al3Pt)3
_chemical_formula_sum   'Eu4 Al18 Pt6'
_cell_volume   497.88445571
_cell_formula_units_Z   2
loop_
 _symmetry_equiv_pos_site_id
 _symmetry_equiv_pos_as_xyz
  1  'x, y, z'
loop_
 _atom_site_type_symbol
 _atom_site_label
 _atom_site_symmetry_multiplicity
 _atom_site_fract_x
 _atom_site_fract_y
 _atom_site_fract_z
 _atom_site_occupancy
  Eu  Eu0  1  0.670265  0.997086  0.250000  1
  Eu  Eu1  1  0.002914  0.329775  0.750000  1
  Eu  Eu2  1  0.997086  0.670225  0.250000  1
  Eu  Eu3  1  0.329735  0.002914  0.750000  1
  Al  Al4  1  0.665184  0.998529  0.925707  1
  Al  Al5  1  0.131566  0.131558  0.250000  1
  Al  Al6  1  0.001485  0.334842  0.425716  1
  Al  Al7  1  0.333566  0.333580  0.556218  1
  Al  Al8  1  0.339302  0.544799  0.250000  1
  Al  Al9  1  0.455171  0.660662  0.750000  1
  Al  Al10  1  0.868434  0.868442  0.750000  1
  Al  Al11  1  0.666434  0.666420  0.056218  1
  Al  Al12  1  0.666434  0.666420  0.443782  1
  Al  Al13  1  0.998515  0.665158  0.574284  1
  Al  Al14  1  0.998515  0.665158  0.925716  1
  Al  Al15  1  0.334816  0.001471  0.425707  1
  Al  Al16  1  0.660698  0.455201  0.750000  1
  Al  Al17  1  0.544829  0.339338  0.250000  1
  Al  Al18  1  0.333566  0.333580  0.943782  1
  Al  Al19  1  0.334816  0.001471  0.074293  1
  Al  Al20  1  0.665184  0.998529  0.574293  1
  Al  Al21  1  0.001485  0.334842  0.074284  1
  Pt  Pt22  1  0.329543  0.670418  0.500000  1
  Pt  Pt23  1  0.329543  0.670418  0.000000  1
  Pt  Pt24  1  0.670457  0.329582  0.500000  1
  Pt  Pt25  1  0.000000  0.000000  0.000000  1
  Pt  Pt26  1  0.000000  0.000000  0.500000  1
  Pt  Pt27  1  0.670457  0.329582  0.000000  1
