# generated using pymatgen
data_Nd3Dy3(PtRh8)2
_symmetry_space_group_name_H-M   'P 1'
_cell_length_a   5.33314700
_cell_length_b   5.33314694
_cell_length_c   17.59816500
_cell_angle_alpha   90.00000000
_cell_angle_beta   90.00000000
_cell_angle_gamma   119.99999419
_symmetry_Int_Tables_number   1
_chemical_formula_structural   Nd3Dy3(PtRh8)2
_chemical_formula_sum   'Nd3 Dy3 Pt2 Rh16'
_cell_volume   433.47608900
_cell_formula_units_Z   1
loop_
 _symmetry_equiv_pos_site_id
 _symmetry_equiv_pos_as_xyz
  1  'x, y, z'
loop_
 _atom_site_type_symbol
 _atom_site_label
 _atom_site_symmetry_multiplicity
 _atom_site_fract_x
 _atom_site_fract_y
 _atom_site_fract_z
 _atom_site_occupancy
  Nd  Nd0  1  0.333333  0.666667  0.957616  1
  Nd  Nd1  1  0.333333  0.666667  0.749507  1
  Nd  Nd2  1  0.666667  0.333333  0.250138  1
  Dy  Dy3  1  0.666667  0.333333  0.044008  1
  Dy  Dy4  1  0.666667  0.333333  0.457064  1
  Dy  Dy5  1  0.333333  0.666667  0.542748  1
  Pt  Pt6  1  0.000000  0.000000  0.499958  1
  Pt  Pt7  1  0.000000  0.000000  0.000312  1
  Rh  Rh8  1  0.167759  0.832241  0.374177  1
  Rh  Rh9  1  0.167759  0.335520  0.374177  1
  Rh  Rh10  1  0.664480  0.832241  0.374177  1
  Rh  Rh11  1  0.832252  0.167748  0.625737  1
  Rh  Rh12  1  0.832252  0.664502  0.625737  1
  Rh  Rh13  1  0.335498  0.167748  0.625737  1
  Rh  Rh14  1  0.832563  0.167437  0.872861  1
  Rh  Rh15  1  0.832563  0.665126  0.872861  1
  Rh  Rh16  1  0.334874  0.167437  0.872861  1
  Rh  Rh17  1  0.167404  0.832596  0.126788  1
  Rh  Rh18  1  0.167404  0.334809  0.126788  1
  Rh  Rh19  1  0.665191  0.832596  0.126788  1
  Rh  Rh20  1  0.333333  0.666667  0.250385  1
  Rh  Rh21  1  0.666667  0.333333  0.749479  1
  Rh  Rh22  1  0.000000  0.000000  0.250682  1
  Rh  Rh23  1  0.000000  0.000000  0.749411  1
