# generated using pymatgen
data_Rb2Sn11MoO24
_symmetry_space_group_name_H-M   'P 1'
_cell_length_a   7.77158541
_cell_length_b   7.84768100
_cell_length_c   9.65689400
_cell_angle_alpha   101.98859044
_cell_angle_beta   102.08627333
_cell_angle_gamma   87.43811511
_symmetry_Int_Tables_number   1
_chemical_formula_structural   Rb2Sn11MoO24
_chemical_formula_sum   'Rb2 Sn11 Mo1 O24'
_cell_volume   563.34667038
_cell_formula_units_Z   1
loop_
 _symmetry_equiv_pos_site_id
 _symmetry_equiv_pos_as_xyz
  1  'x, y, z'
loop_
 _atom_site_type_symbol
 _atom_site_label
 _atom_site_symmetry_multiplicity
 _atom_site_fract_x
 _atom_site_fract_y
 _atom_site_fract_z
 _atom_site_occupancy
  Rb  Rb0  1  0.000475  0.998960  0.218134  1
  Rb  Rb1  1  0.009081  0.005344  0.788129  1
  Sn  Sn2  1  0.482821  0.183991  0.611819  1
  Sn  Sn3  1  0.485014  0.183457  0.277215  1
  Sn  Sn4  1  0.184281  0.513220  0.114830  1
  Sn  Sn5  1  0.185011  0.519022  0.450483  1
  Sn  Sn6  1  0.184268  0.514323  0.784405  1
  Sn  Sn7  1  0.813329  0.482828  0.215614  1
  Sn  Sn8  1  0.815494  0.481758  0.549330  1
  Sn  Sn9  1  0.811300  0.486248  0.882559  1
  Sn  Sn10  1  0.515749  0.818654  0.722586  1
  Sn  Sn11  1  0.510867  0.817186  0.054238  1
  Sn  Sn12  1  0.520610  0.817356  0.389735  1
  Mo  Mo13  1  0.487991  0.181147  0.945132  1
  O  O14  1  0.357896  0.048408  0.071117  1
  O  O15  1  0.362244  0.050173  0.401084  1
  O  O16  1  0.360703  0.048403  0.731384  1
  O  O17  1  0.291610  0.376109  0.278109  1
  O  O18  1  0.293749  0.382577  0.945656  1
  O  O19  1  0.295097  0.380637  0.612213  1
  O  O20  1  0.049339  0.638062  0.279272  1
  O  O21  1  0.049771  0.638360  0.616047  1
  O  O22  1  0.046625  0.641197  0.948760  1
  O  O23  1  0.619222  0.295319  0.486004  1
  O  O24  1  0.623541  0.295672  0.814091  1
  O  O25  1  0.625377  0.293257  0.159545  1
  O  O26  1  0.376684  0.706513  0.182088  1
  O  O27  1  0.381775  0.704762  0.513196  1
  O  O28  1  0.372465  0.709115  0.845505  1
  O  O29  1  0.947289  0.359924  0.049874  1
  O  O30  1  0.951587  0.362145  0.384790  1
  O  O31  1  0.949068  0.361665  0.719311  1
  O  O32  1  0.705096  0.622937  0.719695  1
  O  O33  1  0.700611  0.620359  0.054418  1
  O  O34  1  0.706368  0.620610  0.388051  1
  O  O35  1  0.643454  0.942395  0.932349  1
  O  O36  1  0.641540  0.947730  0.264248  1
  O  O37  1  0.642599  0.950172  0.598984  1
