# generated using pymatgen
data_La5Bi2PbCl
_symmetry_space_group_name_H-M   'P 1'
_cell_length_a   9.73199600
_cell_length_b   9.73199744
_cell_length_c   6.88823500
_cell_angle_alpha   90.00000000
_cell_angle_beta   90.00000000
_cell_angle_gamma   119.49725489
_symmetry_Int_Tables_number   1
_chemical_formula_structural   La5Bi2PbCl
_chemical_formula_sum   'La10 Bi4 Pb2 Cl2'
_cell_volume   567.83271540
_cell_formula_units_Z   2
loop_
 _symmetry_equiv_pos_site_id
 _symmetry_equiv_pos_as_xyz
  1  'x, y, z'
loop_
 _atom_site_type_symbol
 _atom_site_label
 _atom_site_symmetry_multiplicity
 _atom_site_fract_x
 _atom_site_fract_y
 _atom_site_fract_z
 _atom_site_occupancy
  La  La0  1  0.263731  0.001998  0.250000  1
  La  La1  1  0.736269  0.998002  0.750000  1
  La  La2  1  0.001998  0.263731  0.250000  1
  La  La3  1  0.998002  0.736269  0.750000  1
  La  La4  1  0.735699  0.735699  0.250000  1
  La  La5  1  0.264301  0.264301  0.750000  1
  La  La6  1  0.333807  0.666193  0.000000  1
  La  La7  1  0.666193  0.333807  0.000000  1
  La  La8  1  0.666193  0.333807  0.500000  1
  La  La9  1  0.333807  0.666193  0.500000  1
  Bi  Bi10  1  0.614342  0.000269  0.250000  1
  Bi  Bi11  1  0.385658  0.999731  0.750000  1
  Bi  Bi12  1  0.000269  0.614342  0.250000  1
  Bi  Bi13  1  0.999731  0.385658  0.750000  1
  Pb  Pb14  1  0.387523  0.387523  0.250000  1
  Pb  Pb15  1  0.612477  0.612477  0.750000  1
  Cl  Cl16  1  0.000000  0.000000  0.000000  1
  Cl  Cl17  1  0.000000  0.000000  0.500000  1
