# generated using pymatgen
data_HoSc3Mn8(FeP)12
_symmetry_space_group_name_H-M   'P 1'
_cell_length_a   3.60062300
_cell_length_b   10.16557053
_cell_length_c   12.02480999
_cell_angle_alpha   89.83328686
_cell_angle_beta   90.00000000
_cell_angle_gamma   90.00000000
_symmetry_Int_Tables_number   1
_chemical_formula_structural   HoSc3Mn8(FeP)12
_chemical_formula_sum   'Ho1 Sc3 Mn8 Fe12 P12'
_cell_volume   440.13488670
_cell_formula_units_Z   1
loop_
 _symmetry_equiv_pos_site_id
 _symmetry_equiv_pos_as_xyz
  1  'x, y, z'
loop_
 _atom_site_type_symbol
 _atom_site_label
 _atom_site_symmetry_multiplicity
 _atom_site_fract_x
 _atom_site_fract_y
 _atom_site_fract_z
 _atom_site_occupancy
  Ho  Ho0  1  0.750000  0.080019  0.788626  1
  Sc  Sc1  1  0.250000  0.578761  0.711284  1
  Sc  Sc2  1  0.250000  0.920622  0.210884  1
  Sc  Sc3  1  0.750000  0.420972  0.288899  1
  Mn  Mn4  1  0.250000  0.706540  0.993811  1
  Mn  Mn5  1  0.250000  0.792420  0.491063  1
  Mn  Mn6  1  0.750000  0.293926  0.008874  1
  Mn  Mn7  1  0.750000  0.206714  0.508060  1
  Mn  Mn8  1  0.250000  0.408470  0.489589  1
  Mn  Mn9  1  0.250000  0.090894  0.991884  1
  Mn  Mn10  1  0.750000  0.590637  0.510116  1
  Mn  Mn11  1  0.750000  0.908083  0.011944  1
  Fe  Fe12  1  0.250000  0.221183  0.172693  1
  Fe  Fe13  1  0.250000  0.280600  0.671498  1
  Fe  Fe14  1  0.750000  0.777883  0.827502  1
  Fe  Fe15  1  0.750000  0.720372  0.327675  1
  Fe  Fe16  1  0.250000  0.873612  0.695048  1
  Fe  Fe17  1  0.250000  0.623445  0.197363  1
  Fe  Fe18  1  0.750000  0.124613  0.302837  1
  Fe  Fe19  1  0.750000  0.379749  0.803811  1
  Fe  Fe20  1  0.250000  0.463981  0.936620  1
  Fe  Fe21  1  0.250000  0.037697  0.432612  1
  Fe  Fe22  1  0.750000  0.538231  0.065974  1
  Fe  Fe23  1  0.750000  0.959843  0.561854  1
  P  P24  1  0.250000  0.424008  0.116884  1
  P  P25  1  0.250000  0.075809  0.611484  1
  P  P26  1  0.750000  0.577017  0.885074  1
  P  P27  1  0.750000  0.923438  0.382075  1
  P  P28  1  0.250000  0.268605  0.861762  1
  P  P29  1  0.250000  0.237269  0.360218  1
  P  P30  1  0.750000  0.736397  0.140379  1
  P  P31  1  0.750000  0.762532  0.639303  1
  P  P32  1  0.250000  0.598727  0.380252  1
  P  P33  1  0.250000  0.896483  0.881646  1
  P  P34  1  0.750000  0.401024  0.620088  1
  P  P35  1  0.750000  0.099423  0.120311  1
