# generated using pymatgen
data_Hf2Sc3(Co2Si5)2
_symmetry_space_group_name_H-M   'P 1'
_cell_length_a   11.99577300
_cell_length_b   11.99577300
_cell_length_c   3.93066100
_cell_angle_alpha   90.00000000
_cell_angle_beta   90.00000000
_cell_angle_gamma   90.00000000
_symmetry_Int_Tables_number   1
_chemical_formula_structural   Hf2Sc3(Co2Si5)2
_chemical_formula_sum   'Hf4 Sc6 Co8 Si20'
_cell_volume   565.61649653
_cell_formula_units_Z   2
loop_
 _symmetry_equiv_pos_site_id
 _symmetry_equiv_pos_as_xyz
  1  'x, y, z'
loop_
 _atom_site_type_symbol
 _atom_site_label
 _atom_site_symmetry_multiplicity
 _atom_site_fract_x
 _atom_site_fract_y
 _atom_site_fract_z
 _atom_site_occupancy
  Hf  Hf0  1  0.676801  0.176801  0.500000  1
  Hf  Hf1  1  0.176801  0.323199  0.500000  1
  Hf  Hf2  1  0.823199  0.676801  0.500000  1
  Hf  Hf3  1  0.323199  0.823199  0.500000  1
  Sc  Sc4  1  0.000000  0.000000  0.000000  1
  Sc  Sc5  1  0.500000  0.500000  0.000000  1
  Sc  Sc6  1  0.887733  0.387733  0.500000  1
  Sc  Sc7  1  0.387733  0.112267  0.500000  1
  Sc  Sc8  1  0.612267  0.887733  0.500000  1
  Sc  Sc9  1  0.112267  0.612267  0.500000  1
  Co  Co10  1  0.525875  0.254643  0.000000  1
  Co  Co11  1  0.254643  0.474125  0.000000  1
  Co  Co12  1  0.745357  0.525875  0.000000  1
  Co  Co13  1  0.474125  0.745357  0.000000  1
  Co  Co14  1  0.974125  0.754643  0.000000  1
  Co  Co15  1  0.025875  0.245357  0.000000  1
  Co  Co16  1  0.754643  0.025875  0.000000  1
  Co  Co17  1  0.245357  0.974125  0.000000  1
  Si  Si18  1  0.568186  0.068186  0.000000  1
  Si  Si19  1  0.068186  0.431814  0.000000  1
  Si  Si20  1  0.931814  0.568186  0.000000  1
  Si  Si21  1  0.431814  0.931814  0.000000  1
  Si  Si22  1  0.198605  0.155380  0.000000  1
  Si  Si23  1  0.155380  0.801395  0.000000  1
  Si  Si24  1  0.844620  0.198605  0.000000  1
  Si  Si25  1  0.801395  0.844620  0.000000  1
  Si  Si26  1  0.301395  0.655380  0.000000  1
  Si  Si27  1  0.698605  0.344620  0.000000  1
  Si  Si28  1  0.655380  0.698605  0.000000  1
  Si  Si29  1  0.344620  0.301395  0.000000  1
  Si  Si30  1  0.002151  0.163407  0.500000  1
  Si  Si31  1  0.163407  0.997849  0.500000  1
  Si  Si32  1  0.836593  0.002151  0.500000  1
  Si  Si33  1  0.997849  0.836593  0.500000  1
  Si  Si34  1  0.497849  0.663407  0.500000  1
  Si  Si35  1  0.502151  0.336593  0.500000  1
  Si  Si36  1  0.663407  0.502151  0.500000  1
  Si  Si37  1  0.336593  0.497849  0.500000  1
