# generated using pymatgen
data_Li4CaNd3Pt4
_symmetry_space_group_name_H-M   'P 1'
_cell_length_a   4.09595700
_cell_length_b   7.20302550
_cell_length_c   8.57130200
_cell_angle_alpha   90.50474532
_cell_angle_beta   90.00000000
_cell_angle_gamma   90.00000000
_symmetry_Int_Tables_number   1
_chemical_formula_structural   Li4CaNd3Pt4
_chemical_formula_sum   'Li4 Ca1 Nd3 Pt4'
_cell_volume   252.87173357
_cell_formula_units_Z   1
loop_
 _symmetry_equiv_pos_site_id
 _symmetry_equiv_pos_as_xyz
  1  'x, y, z'
loop_
 _atom_site_type_symbol
 _atom_site_label
 _atom_site_symmetry_multiplicity
 _atom_site_fract_x
 _atom_site_fract_y
 _atom_site_fract_z
 _atom_site_occupancy
  Li  Li0  1  0.250000  0.123081  0.053465  1
  Li  Li1  1  0.250000  0.625688  0.446824  1
  Li  Li2  1  0.750000  0.877857  0.940899  1
  Li  Li3  1  0.750000  0.369375  0.556819  1
  Ca  Ca4  1  0.250000  0.045271  0.682502  1
  Nd  Nd5  1  0.250000  0.547140  0.816322  1
  Nd  Nd6  1  0.750000  0.953663  0.322557  1
  Nd  Nd7  1  0.750000  0.454848  0.181020  1
  Pt  Pt8  1  0.250000  0.252061  0.373951  1
  Pt  Pt9  1  0.250000  0.752335  0.122924  1
  Pt  Pt10  1  0.750000  0.743449  0.621436  1
  Pt  Pt11  1  0.750000  0.255234  0.881281  1
