# generated using pymatgen
data_Pr8InAgRh2
_symmetry_space_group_name_H-M   'P 1'
_cell_length_a   10.00430186
_cell_length_b   10.00430102
_cell_length_c   10.02904700
_cell_angle_alpha   59.91814568
_cell_angle_beta   59.91814846
_cell_angle_gamma   59.97686467
_symmetry_Int_Tables_number   1
_chemical_formula_structural   Pr8InAgRh2
_chemical_formula_sum   'Pr16 In2 Ag2 Rh4'
_cell_volume   708.76780510
_cell_formula_units_Z   2
loop_
 _symmetry_equiv_pos_site_id
 _symmetry_equiv_pos_as_xyz
  1  'x, y, z'
loop_
 _atom_site_type_symbol
 _atom_site_label
 _atom_site_symmetry_multiplicity
 _atom_site_fract_x
 _atom_site_fract_y
 _atom_site_fract_z
 _atom_site_occupancy
  Pr  Pr0  1  0.807023  0.807023  0.192977  1
  Pr  Pr1  1  0.810150  0.190563  0.807713  1
  Pr  Pr2  1  0.189326  0.189326  0.810674  1
  Pr  Pr3  1  0.649104  0.050740  0.650078  1
  Pr  Pr4  1  0.062133  0.062133  0.437867  1
  Pr  Pr5  1  0.438857  0.438857  0.061143  1
  Pr  Pr6  1  0.650384  0.650384  0.650640  1
  Pr  Pr7  1  0.810150  0.190563  0.191573  1
  Pr  Pr8  1  0.190563  0.810150  0.807713  1
  Pr  Pr9  1  0.050740  0.649104  0.650078  1
  Pr  Pr10  1  0.438915  0.065713  0.058926  1
  Pr  Pr11  1  0.438915  0.065713  0.436446  1
  Pr  Pr12  1  0.065713  0.438915  0.058926  1
  Pr  Pr13  1  0.650384  0.650384  0.048593  1
  Pr  Pr14  1  0.190563  0.810150  0.191573  1
  Pr  Pr15  1  0.065713  0.438915  0.436446  1
  In  In16  1  0.418617  0.738591  0.421396  1
  In  In17  1  0.738591  0.418617  0.421396  1
  Ag  Ag18  1  0.418044  0.418044  0.418163  1
  Ag  Ag19  1  0.418044  0.418044  0.745746  1
  Rh  Rh20  1  0.857411  0.425926  0.858331  1
  Rh  Rh21  1  0.857365  0.857365  0.858917  1
  Rh  Rh22  1  0.857365  0.857365  0.426354  1
  Rh  Rh23  1  0.425926  0.857411  0.858331  1
