# generated using pymatgen
data_La19YSi15Cl
_symmetry_space_group_name_H-M   'P 1'
_cell_length_a   8.00384952
_cell_length_b   8.09971679
_cell_length_c   15.62797500
_cell_angle_alpha   88.84639743
_cell_angle_beta   85.32174518
_cell_angle_gamma   89.61229421
_symmetry_Int_Tables_number   1
_chemical_formula_structural   La19YSi15Cl
_chemical_formula_sum   'La19 Y1 Si15 Cl1'
_cell_volume   1009.55125638
_cell_formula_units_Z   1
loop_
 _symmetry_equiv_pos_site_id
 _symmetry_equiv_pos_as_xyz
  1  'x, y, z'
loop_
 _atom_site_type_symbol
 _atom_site_label
 _atom_site_symmetry_multiplicity
 _atom_site_fract_x
 _atom_site_fract_y
 _atom_site_fract_z
 _atom_site_occupancy
  La  La0  1  0.865126  0.348394  0.614091  1
  La  La1  1  0.470622  0.692849  0.895131  1
  La  La2  1  0.968987  0.816586  0.896653  1
  La  La3  1  0.178731  0.674622  0.120424  1
  La  La4  1  0.677016  0.812105  0.121681  1
  La  La5  1  0.322655  0.183758  0.880437  1
  La  La6  1  0.135644  0.657087  0.387689  1
  La  La7  1  0.031483  0.185071  0.105771  1
  La  La8  1  0.366014  0.175521  0.614479  1
  La  La9  1  0.826952  0.484471  0.237350  1
  La  La10  1  0.329532  0.997974  0.253847  1
  La  La11  1  0.486029  0.301448  0.395990  1
  La  La12  1  0.823193  0.322428  0.879197  1
  La  La13  1  0.019272  0.841582  0.607890  1
  La  La14  1  0.496569  0.704310  0.611225  1
  La  La15  1  0.990812  0.158880  0.392589  1
  La  La16  1  0.631035  0.827350  0.387097  1
  La  La17  1  0.672700  0.004861  0.745521  1
  La  La18  1  0.530221  0.303811  0.105038  1
  Y  Y19  1  0.173618  0.515870  0.749171  1
  Si  Si20  1  0.444696  0.594762  0.255749  1
  Si  Si21  1  0.220192  0.372079  0.251208  1
  Si  Si22  1  0.550692  0.408210  0.750379  1
  Si  Si23  1  0.634272  0.024921  0.959070  1
  Si  Si24  1  0.051966  0.117378  0.750358  1
  Si  Si25  1  0.781952  0.626204  0.751389  1
  Si  Si26  1  0.718594  0.109587  0.251316  1
  Si  Si27  1  0.289502  0.966607  0.455136  1
  Si  Si28  1  0.946304  0.888397  0.252416  1
  Si  Si29  1  0.367115  0.971930  0.042234  1
  Si  Si30  1  0.718502  0.035112  0.541632  1
  Si  Si31  1  0.135655  0.480315  0.954355  1
  Si  Si32  1  0.209715  0.492356  0.556395  1
  Si  Si33  1  0.868267  0.524103  0.039286  1
  Si  Si34  1  0.276065  0.883697  0.753467  1
  Cl  Cl35  1  0.790297  0.495366  0.434337  1
