# generated using pymatgen
data_Ho4Mg4IrPt3
_symmetry_space_group_name_H-M   'P 1'
_cell_length_a   4.16680200
_cell_length_b   7.05368176
_cell_length_c   8.59916475
_cell_angle_alpha   89.51798549
_cell_angle_beta   90.00000000
_cell_angle_gamma   90.00000000
_symmetry_Int_Tables_number   1
_chemical_formula_structural   Ho4Mg4IrPt3
_chemical_formula_sum   'Ho4 Mg4 Ir1 Pt3'
_cell_volume   252.73164663
_cell_formula_units_Z   1
loop_
 _symmetry_equiv_pos_site_id
 _symmetry_equiv_pos_as_xyz
  1  'x, y, z'
loop_
 _atom_site_type_symbol
 _atom_site_label
 _atom_site_symmetry_multiplicity
 _atom_site_fract_x
 _atom_site_fract_y
 _atom_site_fract_z
 _atom_site_occupancy
  Ho  Ho0  1  0.250000  0.541646  0.170653  1
  Ho  Ho1  1  0.750000  0.470282  0.826792  1
  Ho  Ho2  1  0.750000  0.956586  0.679523  1
  Ho  Ho3  1  0.250000  0.037459  0.325297  1
  Mg  Mg4  1  0.250000  0.635458  0.562698  1
  Mg  Mg5  1  0.750000  0.363490  0.438428  1
  Mg  Mg6  1  0.750000  0.863753  0.059185  1
  Mg  Mg7  1  0.250000  0.135587  0.938284  1
  Ir  Ir8  1  0.250000  0.746396  0.874886  1
  Pt  Pt9  1  0.750000  0.251211  0.126498  1
  Pt  Pt10  1  0.750000  0.751880  0.375502  1
  Pt  Pt11  1  0.250000  0.246254  0.622253  1
