# generated using pymatgen
data_Tm5Fe12Co(NiP2)6
_symmetry_space_group_name_H-M   'P 1'
_cell_length_a   11.95285300
_cell_length_b   11.95285382
_cell_length_c   3.68334900
_cell_angle_alpha   90.00000000
_cell_angle_beta   90.00000000
_cell_angle_gamma   120.00000051
_symmetry_Int_Tables_number   1
_chemical_formula_structural   Tm5Fe12Co(NiP2)6
_chemical_formula_sum   'Tm5 Fe12 Co1 Ni6 P12'
_cell_volume   455.73951578
_cell_formula_units_Z   1
loop_
 _symmetry_equiv_pos_site_id
 _symmetry_equiv_pos_as_xyz
  1  'x, y, z'
loop_
 _atom_site_type_symbol
 _atom_site_label
 _atom_site_symmetry_multiplicity
 _atom_site_fract_x
 _atom_site_fract_y
 _atom_site_fract_z
 _atom_site_occupancy
  Tm  Tm0  1  0.666667  0.333333  0.000000  1
  Tm  Tm1  1  0.333333  0.666667  0.000000  1
  Tm  Tm2  1  0.185873  0.185873  0.500000  1
  Tm  Tm3  1  0.814127  0.000000  0.500000  1
  Tm  Tm4  1  0.000000  0.814127  0.500000  1
  Fe  Fe5  1  0.819620  0.199833  0.000000  1
  Fe  Fe6  1  0.800167  0.619786  0.000000  1
  Fe  Fe7  1  0.380214  0.180380  0.000000  1
  Fe  Fe8  1  0.199833  0.819620  0.000000  1
  Fe  Fe9  1  0.619786  0.800167  0.000000  1
  Fe  Fe10  1  0.180380  0.380214  0.000000  1
  Fe  Fe11  1  0.554137  0.554137  0.000000  1
  Fe  Fe12  1  0.445863  0.000000  0.000000  1
  Fe  Fe13  1  0.000000  0.445863  0.000000  1
  Fe  Fe14  1  0.715196  0.715196  0.500000  1
  Fe  Fe15  1  0.284804  0.000000  0.500000  1
  Fe  Fe16  1  0.000000  0.284804  0.500000  1
  Co  Co17  1  0.000000  0.000000  0.000000  1
  Ni  Ni18  1  0.638761  0.124290  0.500000  1
  Ni  Ni19  1  0.875710  0.514471  0.500000  1
  Ni  Ni20  1  0.485529  0.361239  0.500000  1
  Ni  Ni21  1  0.124290  0.638761  0.500000  1
  Ni  Ni22  1  0.514471  0.875710  0.500000  1
  Ni  Ni23  1  0.361239  0.485529  0.500000  1
  P  P24  1  0.364163  0.364163  0.000000  1
  P  P25  1  0.635837  0.000000  0.000000  1
  P  P26  1  0.000000  0.635837  0.000000  1
  P  P27  1  0.833666  0.310067  0.500000  1
  P  P28  1  0.689933  0.523600  0.500000  1
  P  P29  1  0.476400  0.166334  0.500000  1
  P  P30  1  0.310067  0.833666  0.500000  1
  P  P31  1  0.523600  0.689933  0.500000  1
  P  P32  1  0.166334  0.476400  0.500000  1
  P  P33  1  0.817725  0.817725  0.000000  1
  P  P34  1  0.182275  0.000000  0.000000  1
  P  P35  1  0.000000  0.182275  0.000000  1
