# generated using pymatgen
data_LuTi4SnRh10
_symmetry_space_group_name_H-M   'P 1'
_cell_length_a   4.09199900
_cell_length_b   5.52993061
_cell_length_c   10.91282387
_cell_angle_alpha   90.46114597
_cell_angle_beta   90.00000000
_cell_angle_gamma   90.00000000
_symmetry_Int_Tables_number   1
_chemical_formula_structural   LuTi4SnRh10
_chemical_formula_sum   'Lu1 Ti4 Sn1 Rh10'
_cell_volume   246.93251516
_cell_formula_units_Z   1
loop_
 _symmetry_equiv_pos_site_id
 _symmetry_equiv_pos_as_xyz
  1  'x, y, z'
loop_
 _atom_site_type_symbol
 _atom_site_label
 _atom_site_symmetry_multiplicity
 _atom_site_fract_x
 _atom_site_fract_y
 _atom_site_fract_z
 _atom_site_occupancy
  Lu  Lu0  1  0.500000  0.321707  0.142779  1
  Ti  Ti1  1  0.000000  0.505003  0.500865  1
  Ti  Ti2  1  0.500000  0.673300  0.852437  1
  Ti  Ti3  1  0.500000  0.830441  0.357763  1
  Ti  Ti4  1  0.500000  0.163792  0.639244  1
  Sn  Sn5  1  0.000000  0.002961  0.996690  1
  Rh  Rh6  1  0.000000  0.997920  0.504478  1
  Rh  Rh7  1  0.000000  0.513882  0.987123  1
  Rh  Rh8  1  0.000000  0.059963  0.258485  1
  Rh  Rh9  1  0.000000  0.921825  0.751625  1
  Rh  Rh10  1  0.000000  0.576685  0.268146  1
  Rh  Rh11  1  0.000000  0.421554  0.734622  1
  Rh  Rh12  1  0.500000  0.306222  0.404823  1
  Rh  Rh13  1  0.500000  0.691149  0.607906  1
  Rh  Rh14  1  0.500000  0.804475  0.120417  1
  Rh  Rh15  1  0.500000  0.209122  0.872597  1
