# generated using pymatgen
data_HoEr4Si8P4Ir19
_symmetry_space_group_name_H-M   'P 1'
_cell_length_a   12.81966910
_cell_length_b   12.78098266
_cell_length_c   3.94210600
_cell_angle_alpha   90.00000000
_cell_angle_beta   90.00000000
_cell_angle_gamma   119.97615288
_symmetry_Int_Tables_number   1
_chemical_formula_structural   HoEr4Si8P4Ir19
_chemical_formula_sum   'Ho1 Er4 Si8 P4 Ir19'
_cell_volume   559.50542400
_cell_formula_units_Z   1
loop_
 _symmetry_equiv_pos_site_id
 _symmetry_equiv_pos_as_xyz
  1  'x, y, z'
loop_
 _atom_site_type_symbol
 _atom_site_label
 _atom_site_symmetry_multiplicity
 _atom_site_fract_x
 _atom_site_fract_y
 _atom_site_fract_z
 _atom_site_occupancy
  Ho  Ho0  1  0.666911  0.333418  0.000000  1
  Er  Er1  1  0.332640  0.667616  0.000000  1
  Er  Er2  1  0.814163  0.813969  0.500000  1
  Er  Er3  1  0.185609  0.001071  0.500000  1
  Er  Er4  1  0.999232  0.183341  0.500000  1
  Si  Si5  1  0.685179  0.165683  0.500000  1
  Si  Si6  1  0.834190  0.519031  0.500000  1
  Si  Si7  1  0.481652  0.315295  0.500000  1
  Si  Si8  1  0.168057  0.687752  0.500000  1
  Si  Si9  1  0.517649  0.829735  0.500000  1
  Si  Si10  1  0.635178  0.634464  0.000000  1
  Si  Si11  1  0.365544  0.999652  0.000000  1
  Si  Si12  1  0.999438  0.364760  0.000000  1
  P  P13  1  0.308060  0.484380  0.500000  1
  P  P14  1  0.178689  0.179735  0.000000  1
  P  P15  1  0.820526  0.997209  0.000000  1
  P  P16  1  0.000410  0.823090  0.000000  1
  Ir  Ir17  1  0.808163  0.177863  0.000000  1
  Ir  Ir18  1  0.821604  0.629287  0.000000  1
  Ir  Ir19  1  0.369498  0.191152  0.000000  1
  Ir  Ir20  1  0.179420  0.807109  0.000000  1
  Ir  Ir21  1  0.624759  0.817444  0.000000  1
  Ir  Ir22  1  0.199060  0.379210  0.000000  1
  Ir  Ir23  1  0.455796  0.443872  0.000000  1
  Ir  Ir24  1  0.553200  0.002229  0.000000  1
  Ir  Ir25  1  0.998960  0.551317  0.000000  1
  Ir  Ir26  1  0.279780  0.283972  0.500000  1
  Ir  Ir27  1  0.720816  0.997658  0.500000  1
  Ir  Ir28  1  0.000392  0.722691  0.500000  1
  Ir  Ir29  1  0.871612  0.357924  0.500000  1
  Ir  Ir30  1  0.643415  0.514119  0.500000  1
  Ir  Ir31  1  0.486829  0.128952  0.500000  1
  Ir  Ir32  1  0.360725  0.872712  0.500000  1
  Ir  Ir33  1  0.505511  0.632959  0.500000  1
  Ir  Ir34  1  0.126403  0.487462  0.500000  1
  Ir  Ir35  1  0.000931  0.001869  0.000000  1
