# generated using pymatgen
data_Th5UCo5CuSb8
_symmetry_space_group_name_H-M   'P 1'
_cell_length_a   8.25556262
_cell_length_b   8.27841772
_cell_length_c   8.29999710
_cell_angle_alpha   109.31814703
_cell_angle_beta   108.85706546
_cell_angle_gamma   109.96854341
_symmetry_Int_Tables_number   1
_chemical_formula_structural   Th5UCo5CuSb8
_chemical_formula_sum   'Th5 U1 Co5 Cu1 Sb8'
_cell_volume   438.08391831
_cell_formula_units_Z   1
loop_
 _symmetry_equiv_pos_site_id
 _symmetry_equiv_pos_as_xyz
  1  'x, y, z'
loop_
 _atom_site_type_symbol
 _atom_site_label
 _atom_site_symmetry_multiplicity
 _atom_site_fract_x
 _atom_site_fract_y
 _atom_site_fract_z
 _atom_site_occupancy
  Th  Th0  1  0.745417  0.875889  0.124132  1
  Th  Th1  1  0.253519  0.618020  0.379229  1
  Th  Th2  1  0.623471  0.374790  0.248191  1
  Th  Th3  1  0.873514  0.125429  0.749122  1
  Th  Th4  1  0.122624  0.746564  0.864695  1
  U  U5  1  0.396340  0.268306  0.653250  1
  Co  Co6  1  0.623396  0.748997  0.371742  1
  Co  Co7  1  0.877727  0.249163  0.129670  1
  Co  Co8  1  0.274794  0.150610  0.837587  1
  Co  Co9  1  0.689632  0.355388  0.627327  1
  Co  Co10  1  0.377614  0.600881  0.744055  1
  Cu  Cu11  1  0.131730  0.883457  0.259190  1
  Sb  Sb12  1  0.001212  0.334235  0.501709  1
  Sb  Sb13  1  0.842912  0.499275  0.005573  1
  Sb  Sb14  1  0.503200  0.995815  0.836869  1
  Sb  Sb15  1  0.665352  0.666684  0.662971  1
  Sb  Sb16  1  0.163748  0.163123  0.161840  1
  Sb  Sb17  1  0.334705  0.504956  0.002965  1
  Sb  Sb18  1  0.500605  0.998609  0.338294  1
  Sb  Sb19  1  0.998486  0.839809  0.501591  1
