# generated using pymatgen
data_K3ErIr2O9
_symmetry_space_group_name_H-M   'P 1'
_cell_length_a   5.96495800
_cell_length_b   5.96569070
_cell_length_c   14.43091300
_cell_angle_alpha   90.00000000
_cell_angle_beta   90.00000000
_cell_angle_gamma   119.99555666
_symmetry_Int_Tables_number   1
_chemical_formula_structural   K3ErIr2O9
_chemical_formula_sum   'K6 Er2 Ir4 O18'
_cell_volume   444.74595440
_cell_formula_units_Z   2
loop_
 _symmetry_equiv_pos_site_id
 _symmetry_equiv_pos_as_xyz
  1  'x, y, z'
loop_
 _atom_site_type_symbol
 _atom_site_label
 _atom_site_symmetry_multiplicity
 _atom_site_fract_x
 _atom_site_fract_y
 _atom_site_fract_z
 _atom_site_occupancy
  K  K0  1  0.666666  0.333302  0.098239  1
  K  K1  1  0.999972  0.999959  0.250000  1
  K  K2  1  0.666666  0.333302  0.401761  1
  K  K3  1  0.333333  0.666697  0.598239  1
  K  K4  1  0.000028  0.000041  0.750000  1
  K  K5  1  0.333333  0.666697  0.901761  1
  Er  Er6  1  0.000000  0.000000  0.000000  1
  Er  Er7  1  0.000000  0.000000  0.500000  1
  Ir  Ir8  1  0.333438  0.666711  0.156484  1
  Ir  Ir9  1  0.333438  0.666711  0.343517  1
  Ir  Ir10  1  0.666561  0.333289  0.656484  1
  Ir  Ir11  1  0.666561  0.333289  0.843517  1
  O  O12  1  0.178522  0.357038  0.084595  1
  O  O13  1  0.178510  0.821511  0.084584  1
  O  O14  1  0.642991  0.821501  0.084589  1
  O  O15  1  0.045986  0.523057  0.250000  1
  O  O16  1  0.477089  0.523091  0.250000  1
  O  O17  1  0.477024  0.953996  0.250000  1
  O  O18  1  0.178522  0.357038  0.415405  1
  O  O19  1  0.178510  0.821511  0.415416  1
  O  O20  1  0.642991  0.821501  0.415411  1
  O  O21  1  0.821477  0.642961  0.584595  1
  O  O22  1  0.357009  0.178498  0.584590  1
  O  O23  1  0.821489  0.178488  0.584585  1
  O  O24  1  0.522975  0.046003  0.750000  1
  O  O25  1  0.522913  0.476910  0.750000  1
  O  O26  1  0.954014  0.476944  0.750000  1
  O  O27  1  0.357009  0.178498  0.915410  1
  O  O28  1  0.821489  0.178488  0.915415  1
  O  O29  1  0.821477  0.642961  0.915405  1
