# generated using pymatgen
data_TbYNb3Co9As7
_symmetry_space_group_name_H-M   'P 1'
_cell_length_a   3.82536300
_cell_length_b   9.56112153
_cell_length_c   9.56112200
_cell_angle_alpha   120.00000162
_cell_angle_beta   90.00000000
_cell_angle_gamma   90.00000000
_symmetry_Int_Tables_number   1
_chemical_formula_structural   TbYNb3Co9As7
_chemical_formula_sum   'Tb1 Y1 Nb3 Co9 As7'
_cell_volume   302.84539616
_cell_formula_units_Z   1
loop_
 _symmetry_equiv_pos_site_id
 _symmetry_equiv_pos_as_xyz
  1  'x, y, z'
loop_
 _atom_site_type_symbol
 _atom_site_label
 _atom_site_symmetry_multiplicity
 _atom_site_fract_x
 _atom_site_fract_y
 _atom_site_fract_z
 _atom_site_occupancy
  Tb  Tb0  1  0.500000  0.333333  0.666667  1
  Y  Y1  1  0.000000  0.666667  0.333333  1
  Nb  Nb2  1  0.500000  0.776218  0.897112  1
  Nb  Nb3  1  0.500000  0.120894  0.223782  1
  Nb  Nb4  1  0.500000  0.102888  0.879106  1
  Co  Co5  1  0.000000  0.570651  0.938286  1
  Co  Co6  1  0.000000  0.367635  0.429349  1
  Co  Co7  1  0.000000  0.061714  0.632365  1
  Co  Co8  1  0.000000  0.876835  0.160668  1
  Co  Co9  1  0.000000  0.283833  0.123165  1
  Co  Co10  1  0.000000  0.839332  0.716167  1
  Co  Co11  1  0.500000  0.948339  0.384910  1
  Co  Co12  1  0.500000  0.436570  0.051661  1
  Co  Co13  1  0.500000  0.615090  0.563430  1
  As  As14  1  0.000000  0.000000  0.000000  1
  As  As15  1  0.500000  0.708343  0.124493  1
  As  As16  1  0.500000  0.416151  0.291657  1
  As  As17  1  0.500000  0.875507  0.583849  1
  As  As18  1  0.000000  0.580839  0.692510  1
  As  As19  1  0.000000  0.111672  0.419161  1
  As  As20  1  0.000000  0.307490  0.888328  1
