# generated using pymatgen
data_TmLu4In4CoPt
_symmetry_space_group_name_H-M   'P 1'
_cell_length_a   3.53431700
_cell_length_b   7.97181542
_cell_length_c   17.84668724
_cell_angle_alpha   90.03516962
_cell_angle_beta   90.00000000
_cell_angle_gamma   90.00000000
_symmetry_Int_Tables_number   1
_chemical_formula_structural   TmLu4In4CoPt
_chemical_formula_sum   'Tm2 Lu8 In8 Co2 Pt2'
_cell_volume   502.82893962
_cell_formula_units_Z   2
loop_
 _symmetry_equiv_pos_site_id
 _symmetry_equiv_pos_as_xyz
  1  'x, y, z'
loop_
 _atom_site_type_symbol
 _atom_site_label
 _atom_site_symmetry_multiplicity
 _atom_site_fract_x
 _atom_site_fract_y
 _atom_site_fract_z
 _atom_site_occupancy
  Tm  Tm0  1  0.000000  0.000000  0.000000  1
  Tm  Tm1  1  0.000000  0.500000  0.500000  1
  Lu  Lu2  1  0.000000  0.113474  0.409932  1
  Lu  Lu3  1  0.000000  0.886526  0.590068  1
  Lu  Lu4  1  0.000000  0.381587  0.913852  1
  Lu  Lu5  1  0.000000  0.618413  0.086148  1
  Lu  Lu6  1  0.000000  0.234630  0.223687  1
  Lu  Lu7  1  0.000000  0.765370  0.776313  1
  Lu  Lu8  1  0.000000  0.244040  0.719940  1
  Lu  Lu9  1  0.000000  0.755960  0.280060  1
  In  In10  1  0.500000  0.422866  0.352171  1
  In  In11  1  0.500000  0.577134  0.647829  1
  In  In12  1  0.500000  0.071188  0.848863  1
  In  In13  1  0.500000  0.928812  0.151137  1
  In  In14  1  0.500000  0.292252  0.066593  1
  In  In15  1  0.500000  0.707748  0.933407  1
  In  In16  1  0.500000  0.203918  0.567634  1
  In  In17  1  0.500000  0.796082  0.432366  1
  Co  Co18  1  0.500000  0.022158  0.304608  1
  Co  Co19  1  0.500000  0.977842  0.695392  1
  Pt  Pt20  1  0.500000  0.475926  0.802967  1
  Pt  Pt21  1  0.500000  0.524074  0.197033  1
