# generated using pymatgen
data_Er4As6PdRu6
_symmetry_space_group_name_H-M   'P 1'
_cell_length_a   7.22846911
_cell_length_b   7.22846793
_cell_length_c   7.22846845
_cell_angle_alpha   109.72658008
_cell_angle_beta   108.96170955
_cell_angle_gamma   109.72657023
_symmetry_Int_Tables_number   1
_chemical_formula_structural   Er4As6PdRu6
_chemical_formula_sum   'Er4 As6 Pd1 Ru6'
_cell_volume   290.73094366
_cell_formula_units_Z   1
loop_
 _symmetry_equiv_pos_site_id
 _symmetry_equiv_pos_as_xyz
  1  'x, y, z'
loop_
 _atom_site_type_symbol
 _atom_site_label
 _atom_site_symmetry_multiplicity
 _atom_site_fract_x
 _atom_site_fract_y
 _atom_site_fract_z
 _atom_site_occupancy
  Er  Er0  1  0.000300  0.000600  0.500300  1
  Er  Er1  1  0.499700  0.999400  0.999700  1
  Er  Er2  1  0.000300  0.500000  0.999700  1
  Er  Er3  1  0.499700  0.500000  0.500300  1
  As  As4  1  0.317896  0.000000  0.317896  1
  As  As5  1  0.006546  0.314667  0.321213  1
  As  As6  1  0.006546  0.685333  0.691879  1
  As  As7  1  0.308121  0.314667  0.993454  1
  As  As8  1  0.678787  0.685333  0.993454  1
  As  As9  1  0.682104  0.000000  0.682104  1
  Pd  Pd10  1  0.750000  0.500000  0.250000  1
  Ru  Ru11  1  0.497134  0.749658  0.246792  1
  Ru  Ru12  1  0.497134  0.250342  0.747476  1
  Ru  Ru13  1  0.753208  0.250342  0.502866  1
  Ru  Ru14  1  0.252524  0.749658  0.502866  1
  Ru  Ru15  1  0.250000  0.500000  0.750000  1
  Ru  Ru16  1  0.000000  0.000000  0.000000  1
