# generated using pymatgen
data_Zr6Ti2Al15Os5Rh2
_symmetry_space_group_name_H-M   'P 1'
_cell_length_a   8.84223900
_cell_length_b   8.84223849
_cell_length_c   8.84223836
_cell_angle_alpha   119.96136327
_cell_angle_beta   119.61422878
_cell_angle_gamma   90.36820571
_symmetry_Int_Tables_number   1
_chemical_formula_structural   Zr6Ti2Al15Os5Rh2
_chemical_formula_sum   'Zr6 Ti2 Al15 Os5 Rh2'
_cell_volume   490.39697928
_cell_formula_units_Z   1
loop_
 _symmetry_equiv_pos_site_id
 _symmetry_equiv_pos_as_xyz
  1  'x, y, z'
loop_
 _atom_site_type_symbol
 _atom_site_label
 _atom_site_symmetry_multiplicity
 _atom_site_fract_x
 _atom_site_fract_y
 _atom_site_fract_z
 _atom_site_occupancy
  Zr  Zr0  1  0.788311  0.290846  0.070530  1
  Zr  Zr1  1  0.220316  0.290846  0.502536  1
  Zr  Zr2  1  0.210741  0.710741  0.500000  1
  Zr  Zr3  1  0.220316  0.717780  0.929470  1
  Zr  Zr4  1  0.788311  0.717780  0.497464  1
  Zr  Zr5  1  0.780209  0.280209  0.500000  1
  Ti  Ti6  1  0.377853  0.122564  0.744712  1
  Ti  Ti7  1  0.377853  0.633140  0.255288  1
  Al  Al8  1  0.994782  0.494782  0.500000  1
  Al  Al9  1  0.161157  0.337326  0.176167  1
  Al  Al10  1  0.161157  0.984989  0.823833  1
  Al  Al11  1  0.159031  0.339103  0.819929  1
  Al  Al12  1  0.519172  0.339103  0.180071  1
  Al  Al13  1  0.840946  0.659672  0.818727  1
  Al  Al14  1  0.840946  0.022220  0.181273  1
  Al  Al15  1  0.836668  0.662624  0.174043  1
  Al  Al16  1  0.488581  0.662624  0.825957  1
  Al  Al17  1  0.379485  0.121140  0.258345  1
  Al  Al18  1  0.862797  0.121140  0.741655  1
  Al  Al19  1  0.620248  0.875004  0.254757  1
  Al  Al20  1  0.620248  0.365491  0.745243  1
  Al  Al21  1  0.617905  0.877898  0.740007  1
  Al  Al22  1  0.137889  0.877898  0.259993  1
  Os  Os23  1  0.000906  0.999008  0.501612  1
  Os  Os24  1  0.497396  0.999008  0.998102  1
  Os  Os25  1  0.498180  0.498180  0.000000  1
  Os  Os26  1  0.497396  0.499294  0.498388  1
  Os  Os27  1  0.000906  0.499294  0.001898  1
  Rh  Rh28  1  0.000387  0.000387  0.000000  1
  Rh  Rh29  1  0.499902  0.999902  0.500000  1
