# generated using pymatgen
data_Pr3Gd2(IrO6)2
_symmetry_space_group_name_H-M   'P 1'
_cell_length_a   7.06544781
_cell_length_b   7.06544812
_cell_length_c   7.47302000
_cell_angle_alpha   74.12994484
_cell_angle_beta   74.12995256
_cell_angle_gamma   51.55190131
_symmetry_Int_Tables_number   1
_chemical_formula_structural   Pr3Gd2(IrO6)2
_chemical_formula_sum   'Pr3 Gd2 Ir2 O12'
_cell_volume   278.37084550
_cell_formula_units_Z   1
loop_
 _symmetry_equiv_pos_site_id
 _symmetry_equiv_pos_as_xyz
  1  'x, y, z'
loop_
 _atom_site_type_symbol
 _atom_site_label
 _atom_site_symmetry_multiplicity
 _atom_site_fract_x
 _atom_site_fract_y
 _atom_site_fract_z
 _atom_site_occupancy
  Pr  Pr0  1  0.695173  0.695173  0.167312  1
  Pr  Pr1  1  0.304827  0.304827  0.832688  1
  Pr  Pr2  1  0.000000  0.000000  0.500000  1
  Gd  Gd3  1  0.301937  0.301937  0.360705  1
  Gd  Gd4  1  0.698063  0.698063  0.639295  1
  Ir  Ir5  1  0.752194  0.247806  0.000000  1
  Ir  Ir6  1  0.247806  0.752194  0.000000  1
  O  O7  1  0.093254  0.597471  0.568915  1
  O  O8  1  0.001957  0.001957  0.167329  1
  O  O9  1  0.402529  0.906746  0.431085  1
  O  O10  1  0.499340  0.499340  0.178005  1
  O  O11  1  0.105203  0.567535  0.088356  1
  O  O12  1  0.906746  0.402529  0.431085  1
  O  O13  1  0.998043  0.998043  0.832671  1
  O  O14  1  0.597471  0.093253  0.568915  1
  O  O15  1  0.500660  0.500660  0.821995  1
  O  O16  1  0.567535  0.105203  0.088356  1
  O  O17  1  0.432465  0.894797  0.911644  1
  O  O18  1  0.894797  0.432465  0.911644  1
