# generated using pymatgen
data_LaPr3(NdPd)3
_symmetry_space_group_name_H-M   'P 1'
_cell_length_a   6.51481911
_cell_length_b   10.28911928
_cell_length_c   10.28911872
_cell_angle_alpha   119.93062582
_cell_angle_beta   90.01855715
_cell_angle_gamma   89.98144108
_symmetry_Int_Tables_number   1
_chemical_formula_structural   LaPr3(NdPd)3
_chemical_formula_sum   'La2 Pr6 Nd6 Pd6'
_cell_volume   597.71274593
_cell_formula_units_Z   2
loop_
 _symmetry_equiv_pos_site_id
 _symmetry_equiv_pos_as_xyz
  1  'x, y, z'
loop_
 _atom_site_type_symbol
 _atom_site_label
 _atom_site_symmetry_multiplicity
 _atom_site_fract_x
 _atom_site_fract_y
 _atom_site_fract_z
 _atom_site_occupancy
  La  La0  1  0.742065  0.254218  0.128027  1
  La  La1  1  0.742065  0.871973  0.745782  1
  Pr  Pr2  1  0.444046  0.537929  0.462071  1
  Pr  Pr3  1  0.445554  0.923729  0.460966  1
  Pr  Pr4  1  0.445554  0.539034  0.076271  1
  Pr  Pr5  1  0.948098  0.460905  0.539095  1
  Pr  Pr6  1  0.948059  0.077403  0.537944  1
  Pr  Pr7  1  0.948059  0.462056  0.922597  1
  Nd  Nd8  1  0.455074  0.333107  0.666893  1
  Nd  Nd9  1  0.954971  0.667401  0.332599  1
  Nd  Nd10  1  0.241024  0.126770  0.873230  1
  Nd  Nd11  1  0.241240  0.747250  0.874705  1
  Nd  Nd12  1  0.241240  0.125295  0.252750  1
  Nd  Nd13  1  0.742174  0.872379  0.127621  1
  Pd  Pd14  1  0.191220  0.811947  0.188053  1
  Pd  Pd15  1  0.190343  0.376482  0.188182  1
  Pd  Pd16  1  0.190343  0.811818  0.623518  1
  Pd  Pd17  1  0.692091  0.187294  0.812706  1
  Pd  Pd18  1  0.691388  0.624686  0.811676  1
  Pd  Pd19  1  0.691388  0.188324  0.375314  1
