# generated using pymatgen
data_Tb8Y6Tm2MgAg3Rh4
_symmetry_space_group_name_H-M   'P 1'
_cell_length_a   9.58623892
_cell_length_b   9.61701894
_cell_length_c   9.58027603
_cell_angle_alpha   60.11781341
_cell_angle_beta   60.01326998
_cell_angle_gamma   60.03066138
_symmetry_Int_Tables_number   1
_chemical_formula_structural   Tb8Y6Tm2MgAg3Rh4
_chemical_formula_sum   'Tb8 Y6 Tm2 Mg1 Ag3 Rh4'
_cell_volume   625.28971626
_cell_formula_units_Z   1
loop_
 _symmetry_equiv_pos_site_id
 _symmetry_equiv_pos_as_xyz
  1  'x, y, z'
loop_
 _atom_site_type_symbol
 _atom_site_label
 _atom_site_symmetry_multiplicity
 _atom_site_fract_x
 _atom_site_fract_y
 _atom_site_fract_z
 _atom_site_occupancy
  Tb  Tb0  1  0.600582  0.598587  0.598809  1
  Tb  Tb1  1  0.600496  0.598683  0.202022  1
  Tb  Tb2  1  0.601376  0.201275  0.598654  1
  Tb  Tb3  1  0.184227  0.606655  0.604547  1
  Tb  Tb4  1  0.060417  0.437686  0.438956  1
  Tb  Tb5  1  0.435126  0.063717  0.064715  1
  Tb  Tb6  1  0.435121  0.063730  0.436483  1
  Tb  Tb7  1  0.060445  0.437662  0.062974  1
  Y  Y8  1  0.185431  0.813997  0.813737  1
  Y  Y9  1  0.814607  0.186024  0.185642  1
  Y  Y10  1  0.814603  0.186059  0.813743  1
  Y  Y11  1  0.185357  0.813825  0.186841  1
  Y  Y12  1  0.814387  0.814454  0.185641  1
  Y  Y13  1  0.184494  0.186944  0.814282  1
  Tm  Tm14  1  0.435760  0.436102  0.064079  1
  Tm  Tm15  1  0.059708  0.061221  0.439535  1
  Mg  Mg16  1  0.538703  0.819606  0.820814  1
  Ag  Ag17  1  0.832484  0.835243  0.833550  1
  Ag  Ag18  1  0.832539  0.835241  0.498704  1
  Ag  Ag19  1  0.831845  0.499332  0.834396  1
  Rh  Rh20  1  0.390268  0.395517  0.390912  1
  Rh  Rh21  1  0.390334  0.395458  0.823279  1
  Rh  Rh22  1  0.388217  0.822386  0.394736  1
  Rh  Rh23  1  0.823477  0.390599  0.392946  1
