# generated using pymatgen
data_Dy9LuS10
_symmetry_space_group_name_H-M   'P 1'
_cell_length_a   6.72468635
_cell_length_b   7.77339213
_cell_length_c   8.73965200
_cell_angle_alpha   103.20916948
_cell_angle_beta   97.20707922
_cell_angle_gamma   106.90447562
_symmetry_Int_Tables_number   1
_chemical_formula_structural   Dy9LuS10
_chemical_formula_sum   'Dy9 Lu1 S10'
_cell_volume   416.41935362
_cell_formula_units_Z   1
loop_
 _symmetry_equiv_pos_site_id
 _symmetry_equiv_pos_as_xyz
  1  'x, y, z'
loop_
 _atom_site_type_symbol
 _atom_site_label
 _atom_site_symmetry_multiplicity
 _atom_site_fract_x
 _atom_site_fract_y
 _atom_site_fract_z
 _atom_site_occupancy
  Dy  Dy0  1  0.798988  0.599501  0.598155  1
  Dy  Dy1  1  0.595995  0.197846  0.198606  1
  Dy  Dy2  1  0.404005  0.802154  0.801394  1
  Dy  Dy3  1  0.599886  0.700824  0.200353  1
  Dy  Dy4  1  0.201012  0.400499  0.401845  1
  Dy  Dy5  1  0.400114  0.299176  0.799647  1
  Dy  Dy6  1  0.000000  0.000000  0.000000  1
  Dy  Dy7  1  0.202331  0.901041  0.400325  1
  Dy  Dy8  1  0.797669  0.098959  0.599675  1
  Lu  Lu9  1  0.000000  0.500000  0.000000  1
  S  S10  1  0.704710  0.647621  0.900909  1
  S  S11  1  0.500265  0.250413  0.499764  1
  S  S12  1  0.705128  0.155689  0.901793  1
  S  S13  1  0.294872  0.844311  0.098207  1
  S  S14  1  0.499735  0.749587  0.500236  1
  S  S15  1  0.099148  0.451526  0.704443  1
  S  S16  1  0.295290  0.352379  0.099091  1
  S  S17  1  0.899654  0.050643  0.300236  1
  S  S18  1  0.100346  0.949357  0.699764  1
  S  S19  1  0.900852  0.548474  0.295557  1
