# generated using pymatgen
data_Mn2V(ZnRh2)3
_symmetry_space_group_name_H-M   'P 1'
_cell_length_a   4.28642100
_cell_length_b   6.06002100
_cell_length_c   12.81935400
_cell_angle_alpha   90.00004126
_cell_angle_beta   89.99890230
_cell_angle_gamma   90.00000000
_symmetry_Int_Tables_number   1
_chemical_formula_structural   Mn2V(ZnRh2)3
_chemical_formula_sum   'Mn4 V2 Zn6 Rh12'
_cell_volume   332.99299195
_cell_formula_units_Z   2
loop_
 _symmetry_equiv_pos_site_id
 _symmetry_equiv_pos_as_xyz
  1  'x, y, z'
loop_
 _atom_site_type_symbol
 _atom_site_label
 _atom_site_symmetry_multiplicity
 _atom_site_fract_x
 _atom_site_fract_y
 _atom_site_fract_z
 _atom_site_occupancy
  Mn  Mn0  1  0.999912  0.000000  0.334962  1
  Mn  Mn1  1  0.500003  0.499999  0.500069  1
  Mn  Mn2  1  0.000093  0.999999  0.666593  1
  Mn  Mn3  1  0.500082  0.500000  0.831697  1
  V  V4  1  0.999994  0.000000  0.996338  1
  V  V5  1  0.499853  0.499999  0.170356  1
  Zn  Zn6  1  0.999995  0.499999  0.999061  1
  Zn  Zn7  1  0.500021  0.000000  0.167611  1
  Zn  Zn8  1  0.999999  0.499999  0.334894  1
  Zn  Zn9  1  0.500001  0.000000  0.500060  1
  Zn  Zn10  1  0.999991  0.499999  0.666602  1
  Zn  Zn11  1  0.499999  0.000000  0.831780  1
  Rh  Rh12  1  0.499999  0.247782  0.002203  1
  Rh  Rh13  1  0.500001  0.752218  0.002203  1
  Rh  Rh14  1  0.999992  0.252296  0.164507  1
  Rh  Rh15  1  0.999991  0.747703  0.164507  1
  Rh  Rh16  1  0.499967  0.252181  0.329374  1
  Rh  Rh17  1  0.499967  0.747817  0.329374  1
  Rh  Rh18  1  0.000001  0.250133  0.499632  1
  Rh  Rh19  1  0.000002  0.749866  0.499632  1
  Rh  Rh20  1  0.500033  0.249899  0.667014  1
  Rh  Rh21  1  0.500032  0.750101  0.667014  1
  Rh  Rh22  1  0.000033  0.247878  0.837260  1
  Rh  Rh23  1  0.000033  0.752121  0.837260  1
