# generated using pymatgen
data_YbLu3Sc6(Si5Ir2)4
_symmetry_space_group_name_H-M   'P 1'
_cell_length_a   12.47638004
_cell_length_b   12.47638094
_cell_length_c   4.13259700
_cell_angle_alpha   90.00000000
_cell_angle_beta   90.00000000
_cell_angle_gamma   90.06020558
_symmetry_Int_Tables_number   1
_chemical_formula_structural   YbLu3Sc6(Si5Ir2)4
_chemical_formula_sum   'Yb1 Lu3 Sc6 Si20 Ir8'
_cell_volume   643.27998329
_cell_formula_units_Z   1
loop_
 _symmetry_equiv_pos_site_id
 _symmetry_equiv_pos_as_xyz
  1  'x, y, z'
loop_
 _atom_site_type_symbol
 _atom_site_label
 _atom_site_symmetry_multiplicity
 _atom_site_fract_x
 _atom_site_fract_y
 _atom_site_fract_z
 _atom_site_occupancy
  Yb  Yb0  1  0.116143  0.616143  0.500000  1
  Lu  Lu1  1  0.883062  0.383062  0.500000  1
  Lu  Lu2  1  0.615998  0.884142  0.500000  1
  Lu  Lu3  1  0.384142  0.115998  0.500000  1
  Sc  Sc4  1  0.673321  0.173321  0.500000  1
  Sc  Sc5  1  0.327394  0.827394  0.500000  1
  Sc  Sc6  1  0.174513  0.325906  0.500000  1
  Sc  Sc7  1  0.825906  0.674513  0.500000  1
  Sc  Sc8  1  0.999958  0.000303  0.000000  1
  Sc  Sc9  1  0.500303  0.499958  0.000000  1
  Si  Si10  1  0.566827  0.066827  0.000000  1
  Si  Si11  1  0.433284  0.933284  0.000000  1
  Si  Si12  1  0.067190  0.432550  0.000000  1
  Si  Si13  1  0.932550  0.567190  0.000000  1
  Si  Si14  1  0.199069  0.165937  0.000000  1
  Si  Si15  1  0.799490  0.834245  0.000000  1
  Si  Si16  1  0.166110  0.801039  0.000000  1
  Si  Si17  1  0.699173  0.333393  0.000000  1
  Si  Si18  1  0.833393  0.199173  0.000000  1
  Si  Si19  1  0.301039  0.666110  0.000000  1
  Si  Si20  1  0.665937  0.699069  0.000000  1
  Si  Si21  1  0.334245  0.299490  0.000000  1
  Si  Si22  1  0.006993  0.150929  0.500000  1
  Si  Si23  1  0.993576  0.849391  0.500000  1
  Si  Si24  1  0.151658  0.992483  0.500000  1
  Si  Si25  1  0.507209  0.348798  0.500000  1
  Si  Si26  1  0.848798  0.007209  0.500000  1
  Si  Si27  1  0.492483  0.651658  0.500000  1
  Si  Si28  1  0.650929  0.506993  0.500000  1
  Si  Si29  1  0.349391  0.493576  0.500000  1
  Ir  Ir30  1  0.018681  0.245205  0.000000  1
  Ir  Ir31  1  0.978671  0.756361  0.000000  1
  Ir  Ir32  1  0.246007  0.981190  0.000000  1
  Ir  Ir33  1  0.519659  0.254144  0.000000  1
  Ir  Ir34  1  0.754144  0.019659  0.000000  1
  Ir  Ir35  1  0.481190  0.746007  0.000000  1
  Ir  Ir36  1  0.745205  0.518681  0.000000  1
  Ir  Ir37  1  0.256361  0.478671  0.000000  1
