# generated using pymatgen
data_Y10IrOs3
_symmetry_space_group_name_H-M   'P 1'
_cell_length_a   6.42665969
_cell_length_b   7.38854366
_cell_length_c   8.48152143
_cell_angle_alpha   96.65004846
_cell_angle_beta   112.05263997
_cell_angle_gamma   89.99010621
_symmetry_Int_Tables_number   1
_chemical_formula_structural   Y10IrOs3
_chemical_formula_sum   'Y10 Ir1 Os3'
_cell_volume   370.34754116
_cell_formula_units_Z   1
loop_
 _symmetry_equiv_pos_site_id
 _symmetry_equiv_pos_as_xyz
  1  'x, y, z'
loop_
 _atom_site_type_symbol
 _atom_site_label
 _atom_site_symmetry_multiplicity
 _atom_site_fract_x
 _atom_site_fract_y
 _atom_site_fract_z
 _atom_site_occupancy
  Y  Y0  1  0.974619  0.914303  0.180113  1
  Y  Y1  1  0.794077  0.584617  0.817445  1
  Y  Y2  1  0.020873  0.084185  0.813849  1
  Y  Y3  1  0.204535  0.416360  0.179950  1
  Y  Y4  1  0.648644  0.817997  0.438003  1
  Y  Y5  1  0.210983  0.680654  0.562868  1
  Y  Y6  1  0.352291  0.180998  0.564722  1
  Y  Y7  1  0.792144  0.320998  0.437957  1
  Y  Y8  1  0.421970  0.748857  0.998875  1
  Y  Y9  1  0.578095  0.250269  0.000140  1
  Ir  Ir10  1  0.397893  0.078200  0.223928  1
  Os  Os11  1  0.823432  0.577939  0.219077  1
  Os  Os12  1  0.604740  0.923131  0.780567  1
  Os  Os13  1  0.175705  0.421491  0.782508  1
