# generated using pymatgen
data_Pa3Al11ZnCo3
_symmetry_space_group_name_H-M   'P 1'
_cell_length_a   9.18410155
_cell_length_b   9.20579993
_cell_length_c   4.11859500
_cell_angle_alpha   90.00000000
_cell_angle_beta   90.00000000
_cell_angle_gamma   120.07819564
_symmetry_Int_Tables_number   1
_chemical_formula_structural   Pa3Al11ZnCo3
_chemical_formula_sum   'Pa3 Al11 Zn1 Co3'
_cell_volume   301.32501470
_cell_formula_units_Z   1
loop_
 _symmetry_equiv_pos_site_id
 _symmetry_equiv_pos_as_xyz
  1  'x, y, z'
loop_
 _atom_site_type_symbol
 _atom_site_label
 _atom_site_symmetry_multiplicity
 _atom_site_fract_x
 _atom_site_fract_y
 _atom_site_fract_z
 _atom_site_occupancy
  Pa  Pa0  1  0.000000  0.408845  0.000000  1
  Pa  Pa1  1  0.592854  0.592534  0.000000  1
  Pa  Pa2  1  0.407146  0.999680  0.000000  1
  Al  Al3  1  0.000000  0.740788  0.000000  1
  Al  Al4  1  0.252479  0.253695  0.000000  1
  Al  Al5  1  0.747521  0.001216  0.000000  1
  Al  Al6  1  0.834623  0.838667  0.500000  1
  Al  Al7  1  0.165377  0.004044  0.500000  1
  Al  Al8  1  0.294211  0.477560  0.500000  1
  Al  Al9  1  0.184769  0.704382  0.500000  1
  Al  Al10  1  0.519728  0.816019  0.500000  1
  Al  Al11  1  0.815231  0.519614  0.500000  1
  Al  Al12  1  0.705789  0.183350  0.500000  1
  Al  Al13  1  0.480272  0.296292  0.500000  1
  Zn  Zn14  1  0.000000  0.172684  0.500000  1
  Co  Co15  1  0.666156  0.332429  0.000000  1
  Co  Co16  1  0.333844  0.666274  0.000000  1
  Co  Co17  1  0.000000  0.991927  0.000000  1
