# generated using pymatgen
data_Pr8Cd2PdRh
_symmetry_space_group_name_H-M   'P 1'
_cell_length_a   10.05541548
_cell_length_b   10.05541616
_cell_length_c   10.05573500
_cell_angle_alpha   59.99894779
_cell_angle_beta   59.99894555
_cell_angle_gamma   59.96131757
_symmetry_Int_Tables_number   1
_chemical_formula_structural   Pr8Cd2PdRh
_chemical_formula_sum   'Pr16 Cd4 Pd2 Rh2'
_cell_volume   718.72848393
_cell_formula_units_Z   2
loop_
 _symmetry_equiv_pos_site_id
 _symmetry_equiv_pos_as_xyz
  1  'x, y, z'
loop_
 _atom_site_type_symbol
 _atom_site_label
 _atom_site_symmetry_multiplicity
 _atom_site_fract_x
 _atom_site_fract_y
 _atom_site_fract_z
 _atom_site_occupancy
  Pr  Pr0  1  0.348443  0.348443  0.354640  1
  Pr  Pr1  1  0.348443  0.348443  0.948475  1
  Pr  Pr2  1  0.345274  0.953981  0.350373  1
  Pr  Pr3  1  0.953981  0.345274  0.350373  1
  Pr  Pr4  1  0.813095  0.190994  0.191354  1
  Pr  Pr5  1  0.190994  0.813095  0.804557  1
  Pr  Pr6  1  0.190994  0.813095  0.191354  1
  Pr  Pr7  1  0.813095  0.190994  0.804557  1
  Pr  Pr8  1  0.189782  0.189782  0.810218  1
  Pr  Pr9  1  0.807245  0.807245  0.192755  1
  Pr  Pr10  1  0.935131  0.562013  0.566038  1
  Pr  Pr11  1  0.562013  0.935131  0.936818  1
  Pr  Pr12  1  0.562013  0.935131  0.566038  1
  Pr  Pr13  1  0.935131  0.562013  0.936818  1
  Pr  Pr14  1  0.564485  0.564485  0.935515  1
  Pr  Pr15  1  0.936153  0.936153  0.563847  1
  Cd  Cd16  1  0.579419  0.579419  0.578584  1
  Cd  Cd17  1  0.579419  0.579419  0.262576  1
  Cd  Cd18  1  0.579926  0.262119  0.578977  1
  Cd  Cd19  1  0.262119  0.579926  0.578977  1
  Pd  Pd20  1  0.144885  0.571209  0.141953  1
  Pd  Pd21  1  0.571209  0.144885  0.141953  1
  Rh  Rh22  1  0.143376  0.143376  0.141442  1
  Rh  Rh23  1  0.143376  0.143376  0.571806  1
