# generated using pymatgen
data_Cs2Be3Se4
_symmetry_space_group_name_H-M   'P 1'
_cell_length_a   9.55925513
_cell_length_b   9.55925457
_cell_length_c   9.55925513
_cell_angle_alpha   145.58614815
_cell_angle_beta   108.44168760
_cell_angle_gamma   81.87598314
_symmetry_Int_Tables_number   1
_chemical_formula_structural   Cs2Be3Se4
_chemical_formula_sum   'Cs4 Be6 Se8'
_cell_volume   456.51822440
_cell_formula_units_Z   2
loop_
 _symmetry_equiv_pos_site_id
 _symmetry_equiv_pos_as_xyz
  1  'x, y, z'
loop_
 _atom_site_type_symbol
 _atom_site_label
 _atom_site_symmetry_multiplicity
 _atom_site_fract_x
 _atom_site_fract_y
 _atom_site_fract_z
 _atom_site_occupancy
  Cs  Cs0  1  0.121067  0.232912  0.353978  1
  Cs  Cs1  1  0.378933  0.732912  0.111845  1
  Cs  Cs2  1  0.621067  0.267088  0.888155  1
  Cs  Cs3  1  0.878933  0.767088  0.646022  1
  Be  Be4  1  0.514708  0.750000  0.764708  1
  Be  Be5  1  0.985292  0.750000  0.235292  1
  Be  Be6  1  0.485292  0.250000  0.235292  1
  Be  Be7  1  0.750000  0.250000  0.500000  1
  Be  Be8  1  0.250000  0.750000  0.500000  1
  Be  Be9  1  0.014708  0.250000  0.764708  1
  Se  Se10  1  0.201088  0.057063  0.589844  1
  Se  Se11  1  0.298912  0.888757  0.855975  1
  Se  Se12  1  0.032782  0.442937  0.144025  1
  Se  Se13  1  0.467218  0.611243  0.410156  1
  Se  Se14  1  0.798912  0.942937  0.410156  1
  Se  Se15  1  0.701088  0.111243  0.144025  1
  Se  Se16  1  0.967218  0.557063  0.855975  1
  Se  Se17  1  0.532782  0.388757  0.589844  1
