# generated using pymatgen
data_TbLu4(In2Pt)2
_symmetry_space_group_name_H-M   'P 1'
_cell_length_a   3.59986200
_cell_length_b   8.04122100
_cell_length_c   18.05009100
_cell_angle_alpha   90.00000000
_cell_angle_beta   90.00000000
_cell_angle_gamma   90.00000000
_symmetry_Int_Tables_number   1
_chemical_formula_structural   TbLu4(In2Pt)2
_chemical_formula_sum   'Tb2 Lu8 In8 Pt4'
_cell_volume   522.50114491
_cell_formula_units_Z   2
loop_
 _symmetry_equiv_pos_site_id
 _symmetry_equiv_pos_as_xyz
  1  'x, y, z'
loop_
 _atom_site_type_symbol
 _atom_site_label
 _atom_site_symmetry_multiplicity
 _atom_site_fract_x
 _atom_site_fract_y
 _atom_site_fract_z
 _atom_site_occupancy
  Tb  Tb0  1  0.000000  0.000000  0.000000  1
  Tb  Tb1  1  0.000000  0.500000  0.500000  1
  Lu  Lu2  1  0.000000  0.117502  0.413540  1
  Lu  Lu3  1  0.000000  0.882498  0.586460  1
  Lu  Lu4  1  0.000000  0.382498  0.913540  1
  Lu  Lu5  1  0.000000  0.617502  0.086460  1
  Lu  Lu6  1  0.000000  0.244790  0.221363  1
  Lu  Lu7  1  0.000000  0.755210  0.778637  1
  Lu  Lu8  1  0.000000  0.255210  0.721363  1
  Lu  Lu9  1  0.000000  0.744790  0.278637  1
  In  In10  1  0.500000  0.424934  0.350846  1
  In  In11  1  0.500000  0.575066  0.649154  1
  In  In12  1  0.500000  0.075066  0.850846  1
  In  In13  1  0.500000  0.924934  0.149154  1
  In  In14  1  0.500000  0.295205  0.066451  1
  In  In15  1  0.500000  0.704795  0.933549  1
  In  In16  1  0.500000  0.204795  0.566451  1
  In  In17  1  0.500000  0.795205  0.433549  1
  Pt  Pt18  1  0.500000  0.026013  0.304159  1
  Pt  Pt19  1  0.500000  0.973987  0.695841  1
  Pt  Pt20  1  0.500000  0.473987  0.804159  1
  Pt  Pt21  1  0.500000  0.526013  0.195841  1
