# generated using pymatgen
data_DyHo2In3HgIr2
_symmetry_space_group_name_H-M   'P 1'
_cell_length_a   7.79388001
_cell_length_b   7.79212210
_cell_length_c   3.86760200
_cell_angle_alpha   90.00000000
_cell_angle_beta   90.00000000
_cell_angle_gamma   120.01341234
_symmetry_Int_Tables_number   1
_chemical_formula_structural   DyHo2In3HgIr2
_chemical_formula_sum   'Dy1 Ho2 In3 Hg1 Ir2'
_cell_volume   203.38698608
_cell_formula_units_Z   1
loop_
 _symmetry_equiv_pos_site_id
 _symmetry_equiv_pos_as_xyz
  1  'x, y, z'
loop_
 _atom_site_type_symbol
 _atom_site_label
 _atom_site_symmetry_multiplicity
 _atom_site_fract_x
 _atom_site_fract_y
 _atom_site_fract_z
 _atom_site_occupancy
  Dy  Dy0  1  0.584822  0.614923  0.000000  1
  Ho  Ho1  1  0.384724  0.969582  0.000000  1
  Ho  Ho2  1  0.030449  0.415203  0.000000  1
  In  In3  1  0.002328  0.745086  0.500000  1
  In  In4  1  0.254812  0.257035  0.500000  1
  In  In5  1  0.742929  0.997998  0.500000  1
  Hg  Hg6  1  0.666729  0.333147  0.500000  1
  Ir  Ir7  1  0.000250  0.000238  0.000000  1
  Ir  Ir8  1  0.332957  0.666787  0.500000  1
