# generated using pymatgen
data_Nd5CoSb2
_symmetry_space_group_name_H-M   'P 1'
_cell_length_a   8.26231900
_cell_length_b   9.01171500
_cell_length_c   12.68413600
_cell_angle_alpha   90.00000000
_cell_angle_beta   90.00000000
_cell_angle_gamma   90.00000000
_symmetry_Int_Tables_number   1
_chemical_formula_structural   Nd5CoSb2
_chemical_formula_sum   'Nd20 Co4 Sb8'
_cell_volume   944.43113727
_cell_formula_units_Z   4
loop_
 _symmetry_equiv_pos_site_id
 _symmetry_equiv_pos_as_xyz
  1  'x, y, z'
loop_
 _atom_site_type_symbol
 _atom_site_label
 _atom_site_symmetry_multiplicity
 _atom_site_fract_x
 _atom_site_fract_y
 _atom_site_fract_z
 _atom_site_occupancy
  Nd  Nd0  1  0.153050  0.750000  0.203940  1
  Nd  Nd1  1  0.653050  0.250000  0.296060  1
  Nd  Nd2  1  0.846950  0.250000  0.796060  1
  Nd  Nd3  1  0.346950  0.750000  0.703940  1
  Nd  Nd4  1  0.453955  0.750000  0.997926  1
  Nd  Nd5  1  0.953955  0.250000  0.502074  1
  Nd  Nd6  1  0.546045  0.250000  0.002074  1
  Nd  Nd7  1  0.046045  0.750000  0.497926  1
  Nd  Nd8  1  0.624548  0.750000  0.304547  1
  Nd  Nd9  1  0.124548  0.250000  0.195453  1
  Nd  Nd10  1  0.375452  0.250000  0.695453  1
  Nd  Nd11  1  0.875452  0.750000  0.804547  1
  Nd  Nd12  1  0.818897  0.966152  0.064878  1
  Nd  Nd13  1  0.318897  0.033848  0.435122  1
  Nd  Nd14  1  0.181103  0.466152  0.935122  1
  Nd  Nd15  1  0.681103  0.533848  0.564878  1
  Nd  Nd16  1  0.181103  0.033848  0.935122  1
  Nd  Nd17  1  0.681103  0.966152  0.564878  1
  Nd  Nd18  1  0.818897  0.533848  0.064878  1
  Nd  Nd19  1  0.318897  0.466152  0.435122  1
  Co  Co20  1  0.428912  0.750000  0.490046  1
  Co  Co21  1  0.928912  0.250000  0.009954  1
  Co  Co22  1  0.571088  0.250000  0.509954  1
  Co  Co23  1  0.071088  0.750000  0.990046  1
  Sb  Sb24  1  0.927159  0.992831  0.326335  1
  Sb  Sb25  1  0.427159  0.007169  0.173665  1
  Sb  Sb26  1  0.072841  0.492831  0.673665  1
  Sb  Sb27  1  0.572841  0.507169  0.826335  1
  Sb  Sb28  1  0.072841  0.007169  0.673665  1
  Sb  Sb29  1  0.572841  0.992831  0.826335  1
  Sb  Sb30  1  0.927159  0.507169  0.326335  1
  Sb  Sb31  1  0.427159  0.492831  0.173665  1
