# generated using pymatgen
data_Tb2TmAl12RuRh3
_symmetry_space_group_name_H-M   'P 1'
_cell_length_a   8.80219500
_cell_length_b   8.82194411
_cell_length_c   9.52913800
_cell_angle_alpha   90.00000000
_cell_angle_beta   90.00000000
_cell_angle_gamma   119.92597789
_symmetry_Int_Tables_number   1
_chemical_formula_structural   Tb2TmAl12RuRh3
_chemical_formula_sum   'Tb4 Tm2 Al24 Ru2 Rh6'
_cell_volume   641.30258609
_cell_formula_units_Z   2
loop_
 _symmetry_equiv_pos_site_id
 _symmetry_equiv_pos_as_xyz
  1  'x, y, z'
loop_
 _atom_site_type_symbol
 _atom_site_label
 _atom_site_symmetry_multiplicity
 _atom_site_fract_x
 _atom_site_fract_y
 _atom_site_fract_z
 _atom_site_occupancy
  Tb  Tb0  1  0.808533  0.617064  0.250000  1
  Tb  Tb1  1  0.617128  0.808870  0.750000  1
  Tb  Tb2  1  0.191741  0.808870  0.750000  1
  Tb  Tb3  1  0.191046  0.382093  0.750000  1
  Tm  Tm4  1  0.386444  0.192497  0.250000  1
  Tm  Tm5  1  0.806054  0.192497  0.250000  1
  Al  Al6  1  0.438318  0.876637  0.250000  1
  Al  Al7  1  0.124355  0.561344  0.250000  1
  Al  Al8  1  0.436989  0.561344  0.250000  1
  Al  Al9  1  0.562364  0.124728  0.750000  1
  Al  Al10  1  0.874997  0.437428  0.750000  1
  Al  Al11  1  0.562430  0.437428  0.750000  1
  Al  Al12  1  0.163584  0.836837  0.422423  1
  Al  Al13  1  0.163056  0.326115  0.422434  1
  Al  Al14  1  0.673250  0.836837  0.422423  1
  Al  Al15  1  0.836699  0.164008  0.575314  1
  Al  Al16  1  0.836246  0.672490  0.575684  1
  Al  Al17  1  0.327311  0.164008  0.575314  1
  Al  Al18  1  0.836699  0.164008  0.924686  1
  Al  Al19  1  0.836246  0.672490  0.924316  1
  Al  Al20  1  0.327311  0.164008  0.924686  1
  Al  Al21  1  0.163584  0.836837  0.077577  1
  Al  Al22  1  0.163056  0.326115  0.077566  1
  Al  Al23  1  0.673250  0.836837  0.077577  1
  Al  Al24  1  0.333276  0.666554  0.528079  1
  Al  Al25  1  0.666319  0.332637  0.469338  1
  Al  Al26  1  0.666319  0.332637  0.030662  1
  Al  Al27  1  0.333276  0.666554  0.971921  1
  Al  Al28  1  0.001120  0.002239  0.250000  1
  Al  Al29  1  0.000108  0.000217  0.750000  1
  Ru  Ru30  1  0.999936  0.999872  0.499654  1
  Ru  Ru31  1  0.999936  0.999872  0.000346  1
  Rh  Rh32  1  0.500302  0.000604  0.498903  1
  Rh  Rh33  1  0.999342  0.499206  0.499269  1
  Rh  Rh34  1  0.499864  0.499206  0.499269  1
  Rh  Rh35  1  0.500302  0.000604  0.001097  1
  Rh  Rh36  1  0.999342  0.499206  0.000731  1
  Rh  Rh37  1  0.499864  0.499206  0.000731  1
