# generated using pymatgen
data_La6Pr4SnBi5Cl2
_symmetry_space_group_name_H-M   'P 1'
_cell_length_a   9.71523933
_cell_length_b   9.71523899
_cell_length_c   6.75255400
_cell_angle_alpha   90.00000000
_cell_angle_beta   90.00000000
_cell_angle_gamma   119.86419910
_symmetry_Int_Tables_number   1
_chemical_formula_structural   La6Pr4SnBi5Cl2
_chemical_formula_sum   'La6 Pr4 Sn1 Bi5 Cl2'
_cell_volume   552.71132323
_cell_formula_units_Z   1
loop_
 _symmetry_equiv_pos_site_id
 _symmetry_equiv_pos_as_xyz
  1  'x, y, z'
loop_
 _atom_site_type_symbol
 _atom_site_label
 _atom_site_symmetry_multiplicity
 _atom_site_fract_x
 _atom_site_fract_y
 _atom_site_fract_z
 _atom_site_occupancy
  La  La0  1  0.735429  0.999898  0.750000  1
  La  La1  1  0.733034  0.733034  0.250000  1
  La  La2  1  0.003749  0.265483  0.250000  1
  La  La3  1  0.999898  0.735429  0.750000  1
  La  La4  1  0.265641  0.265641  0.750000  1
  La  La5  1  0.265483  0.003749  0.250000  1
  Pr  Pr6  1  0.665236  0.333585  0.000746  1
  Pr  Pr7  1  0.333585  0.665236  0.499254  1
  Pr  Pr8  1  0.665236  0.333585  0.499254  1
  Pr  Pr9  1  0.333585  0.665236  0.000746  1
  Sn  Sn10  1  0.386860  0.386860  0.250000  1
  Bi  Bi11  1  0.612973  0.612973  0.750000  1
  Bi  Bi12  1  0.000765  0.614347  0.250000  1
  Bi  Bi13  1  0.614347  0.000765  0.250000  1
  Bi  Bi14  1  0.386458  0.999948  0.750000  1
  Bi  Bi15  1  0.999948  0.386458  0.750000  1
  Cl  Cl16  1  0.998887  0.998887  0.500556  1
  Cl  Cl17  1  0.998887  0.998887  0.999444  1
