# generated using pymatgen
data_Pr8Sc12Ga15Ge
_symmetry_space_group_name_H-M   'P 1'
_cell_length_a   7.45673233
_cell_length_b   7.68507551
_cell_length_c   14.73590700
_cell_angle_alpha   90.00000000
_cell_angle_beta   90.00000000
_cell_angle_gamma   90.05593612
_symmetry_Int_Tables_number   1
_chemical_formula_structural   Pr8Sc12Ga15Ge
_chemical_formula_sum   'Pr8 Sc12 Ga15 Ge1'
_cell_volume   844.44886771
_cell_formula_units_Z   1
loop_
 _symmetry_equiv_pos_site_id
 _symmetry_equiv_pos_as_xyz
  1  'x, y, z'
loop_
 _atom_site_type_symbol
 _atom_site_label
 _atom_site_symmetry_multiplicity
 _atom_site_fract_x
 _atom_site_fract_y
 _atom_site_fract_z
 _atom_site_occupancy
  Pr  Pr0  1  0.012078  0.174953  0.095557  1
  Pr  Pr1  1  0.987186  0.823401  0.903616  1
  Pr  Pr2  1  0.487452  0.675370  0.904176  1
  Pr  Pr3  1  0.987186  0.823401  0.596384  1
  Pr  Pr4  1  0.511655  0.324337  0.095144  1
  Pr  Pr5  1  0.012078  0.174953  0.404443  1
  Pr  Pr6  1  0.511655  0.324337  0.404856  1
  Pr  Pr7  1  0.487452  0.675370  0.595824  1
  Sc  Sc8  1  0.159508  0.499539  0.750000  1
  Sc  Sc9  1  0.838117  0.500174  0.250000  1
  Sc  Sc10  1  0.338764  0.999374  0.250000  1
  Sc  Sc11  1  0.661945  0.998249  0.750000  1
  Sc  Sc12  1  0.331684  0.173981  0.624274  1
  Sc  Sc13  1  0.669492  0.826809  0.375184  1
  Sc  Sc14  1  0.169784  0.673812  0.374952  1
  Sc  Sc15  1  0.669492  0.826809  0.124816  1
  Sc  Sc16  1  0.830049  0.328412  0.624438  1
  Sc  Sc17  1  0.331684  0.173981  0.875726  1
  Sc  Sc18  1  0.830049  0.328412  0.875562  1
  Sc  Sc19  1  0.169784  0.673812  0.125048  1
  Ga  Ga20  1  0.032078  0.123425  0.750000  1
  Ga  Ga21  1  0.967843  0.877719  0.250000  1
  Ga  Ga22  1  0.467833  0.622400  0.250000  1
  Ga  Ga23  1  0.530901  0.379343  0.750000  1
  Ga  Ga24  1  0.287533  0.879472  0.750000  1
  Ga  Ga25  1  0.713879  0.121934  0.250000  1
  Ga  Ga26  1  0.213891  0.378231  0.250000  1
  Ga  Ga27  1  0.156615  0.462481  0.540610  1
  Ga  Ga28  1  0.843416  0.537538  0.459697  1
  Ga  Ga29  1  0.343086  0.961345  0.460242  1
  Ga  Ga30  1  0.843416  0.537538  0.040303  1
  Ga  Ga31  1  0.657682  0.037573  0.540834  1
  Ga  Ga32  1  0.156615  0.462481  0.959390  1
  Ga  Ga33  1  0.657682  0.037573  0.959166  1
  Ga  Ga34  1  0.343086  0.961345  0.039758  1
  Ge  Ge35  1  0.787354  0.620115  0.750000  1
