# generated using pymatgen
data_Y2Si7(Ni3Mo)3
_symmetry_space_group_name_H-M   'P 1'
_cell_length_a   3.74847200
_cell_length_b   9.36327114
_cell_length_c   9.36327100
_cell_angle_alpha   119.99999597
_cell_angle_beta   90.00000000
_cell_angle_gamma   90.00000000
_symmetry_Int_Tables_number   1
_chemical_formula_structural   Y2Si7(Ni3Mo)3
_chemical_formula_sum   'Y2 Si7 Ni9 Mo3'
_cell_volume   284.60341937
_cell_formula_units_Z   1
loop_
 _symmetry_equiv_pos_site_id
 _symmetry_equiv_pos_as_xyz
  1  'x, y, z'
loop_
 _atom_site_type_symbol
 _atom_site_label
 _atom_site_symmetry_multiplicity
 _atom_site_fract_x
 _atom_site_fract_y
 _atom_site_fract_z
 _atom_site_occupancy
  Y  Y0  1  0.000000  0.666667  0.333333  1
  Y  Y1  1  0.500000  0.333333  0.666667  1
  Si  Si2  1  0.000000  0.000000  0.000000  1
  Si  Si3  1  0.500000  0.707719  0.114738  1
  Si  Si4  1  0.500000  0.407020  0.292281  1
  Si  Si5  1  0.500000  0.885262  0.592980  1
  Si  Si6  1  0.000000  0.590432  0.701122  1
  Si  Si7  1  0.000000  0.110691  0.409568  1
  Si  Si8  1  0.000000  0.298878  0.889309  1
  Ni  Ni9  1  0.000000  0.568862  0.941490  1
  Ni  Ni10  1  0.000000  0.372628  0.431138  1
  Ni  Ni11  1  0.000000  0.058510  0.627372  1
  Ni  Ni12  1  0.000000  0.871996  0.157431  1
  Ni  Ni13  1  0.000000  0.285436  0.128004  1
  Ni  Ni14  1  0.000000  0.842569  0.714564  1
  Ni  Ni15  1  0.500000  0.946516  0.383305  1
  Ni  Ni16  1  0.500000  0.436788  0.053484  1
  Ni  Ni17  1  0.500000  0.616695  0.563212  1
  Mo  Mo18  1  0.500000  0.781384  0.897093  1
  Mo  Mo19  1  0.500000  0.115708  0.218616  1
  Mo  Mo20  1  0.500000  0.102907  0.884292  1
