# generated using pymatgen
data_Dy3Ho7Er6(Ga3Co)2
_symmetry_space_group_name_H-M   'P 1'
_cell_length_a   9.96626100
_cell_length_b   9.96694301
_cell_length_c   6.91858600
_cell_angle_alpha   90.00077245
_cell_angle_beta   90.00000000
_cell_angle_gamma   119.99773316
_symmetry_Int_Tables_number   1
_chemical_formula_structural   Dy3Ho7Er6(Ga3Co)2
_chemical_formula_sum   'Dy3 Ho7 Er6 Ga6 Co2'
_cell_volume   595.18520418
_cell_formula_units_Z   1
loop_
 _symmetry_equiv_pos_site_id
 _symmetry_equiv_pos_as_xyz
  1  'x, y, z'
loop_
 _atom_site_type_symbol
 _atom_site_label
 _atom_site_symmetry_multiplicity
 _atom_site_fract_x
 _atom_site_fract_y
 _atom_site_fract_z
 _atom_site_occupancy
  Dy  Dy0  1  0.536626  0.073252  0.707720  1
  Dy  Dy1  1  0.000030  0.000060  0.231607  1
  Dy  Dy2  1  0.999999  0.999998  0.731645  1
  Ho  Ho3  1  0.333272  0.666546  0.827401  1
  Ho  Ho4  1  0.666745  0.333489  0.327274  1
  Ho  Ho5  1  0.463244  0.536740  0.207621  1
  Ho  Ho6  1  0.073496  0.536740  0.207621  1
  Ho  Ho7  1  0.463195  0.926390  0.207670  1
  Ho  Ho8  1  0.536753  0.463364  0.707617  1
  Ho  Ho9  1  0.926611  0.463364  0.707617  1
  Er  Er10  1  0.172854  0.826875  0.510871  1
  Er  Er11  1  0.654020  0.826875  0.510871  1
  Er  Er12  1  0.173011  0.346024  0.510993  1
  Er  Er13  1  0.827132  0.173034  0.011063  1
  Er  Er14  1  0.345904  0.173034  0.011063  1
  Er  Er15  1  0.826988  0.653976  0.010942  1
  Ga  Ga16  1  0.163360  0.836600  0.959302  1
  Ga  Ga17  1  0.673241  0.836600  0.959302  1
  Ga  Ga18  1  0.163371  0.326741  0.959222  1
  Ga  Ga19  1  0.836754  0.163409  0.459130  1
  Ga  Ga20  1  0.326654  0.163409  0.459130  1
  Ga  Ga21  1  0.836611  0.673223  0.459285  1
  Co  Co22  1  0.333330  0.666661  0.444846  1
  Co  Co23  1  0.666799  0.333596  0.945020  1
