# generated using pymatgen
data_YEr2P4Pd7
_symmetry_space_group_name_H-M   'P 1'
_cell_length_a   7.91770279
_cell_length_b   7.91770297
_cell_length_c   9.40128866
_cell_angle_alpha   55.90363711
_cell_angle_beta   55.90363574
_cell_angle_gamma   29.23946652
_symmetry_Int_Tables_number   1
_chemical_formula_structural   YEr2P4Pd7
_chemical_formula_sum   'Y1 Er2 P4 Pd7'
_cell_volume   234.64826052
_cell_formula_units_Z   1
loop_
 _symmetry_equiv_pos_site_id
 _symmetry_equiv_pos_as_xyz
  1  'x, y, z'
loop_
 _atom_site_type_symbol
 _atom_site_label
 _atom_site_symmetry_multiplicity
 _atom_site_fract_x
 _atom_site_fract_y
 _atom_site_fract_z
 _atom_site_occupancy
  Y  Y0  1  0.500000  0.500000  0.500000  1
  Er  Er1  1  0.820325  0.820325  0.176115  1
  Er  Er2  1  0.179675  0.179675  0.823885  1
  P  P3  1  0.393510  0.393510  0.319455  1
  P  P4  1  0.606490  0.606490  0.680545  1
  P  P5  1  0.839986  0.839986  0.753642  1
  P  P6  1  0.160014  0.160014  0.246358  1
  Pd  Pd7  1  0.669021  0.669021  0.077374  1
  Pd  Pd8  1  0.009779  0.009779  0.215005  1
  Pd  Pd9  1  0.990221  0.990221  0.784995  1
  Pd  Pd10  1  0.500000  0.500000  0.000000  1
  Pd  Pd11  1  0.195364  0.195364  0.469295  1
  Pd  Pd12  1  0.804636  0.804636  0.530705  1
  Pd  Pd13  1  0.330979  0.330979  0.922626  1
