# generated using pymatgen
data_Tb3Er9Si11Ni
_symmetry_space_group_name_H-M   'P 1'
_cell_length_a   3.83912700
_cell_length_b   5.67434562
_cell_length_c   23.61779226
_cell_angle_alpha   82.73106225
_cell_angle_beta   90.00000000
_cell_angle_gamma   90.00000000
_symmetry_Int_Tables_number   1
_chemical_formula_structural   Tb3Er9Si11Ni
_chemical_formula_sum   'Tb3 Er9 Si11 Ni1'
_cell_volume   510.36762328
_cell_formula_units_Z   1
loop_
 _symmetry_equiv_pos_site_id
 _symmetry_equiv_pos_as_xyz
  1  'x, y, z'
loop_
 _atom_site_type_symbol
 _atom_site_label
 _atom_site_symmetry_multiplicity
 _atom_site_fract_x
 _atom_site_fract_y
 _atom_site_fract_z
 _atom_site_occupancy
  Tb  Tb0  1  0.750000  0.349824  0.558184  1
  Tb  Tb1  1  0.750000  0.991216  0.726698  1
  Tb  Tb2  1  0.750000  0.169891  0.894500  1
  Er  Er3  1  0.750000  0.359883  0.066840  1
  Er  Er4  1  0.250000  0.662206  0.941661  1
  Er  Er5  1  0.750000  0.524694  0.221000  1
  Er  Er6  1  0.250000  0.466165  0.773720  1
  Er  Er7  1  0.750000  0.169196  0.391518  1
  Er  Er8  1  0.250000  0.823964  0.605390  1
  Er  Er9  1  0.250000  0.643221  0.438012  1
  Er  Er10  1  0.250000  0.998107  0.272291  1
  Er  Er11  1  0.250000  0.839321  0.109399  1
  Si  Si12  1  0.750000  0.876279  0.014997  1
  Si  Si13  1  0.250000  0.151594  0.990679  1
  Si  Si14  1  0.750000  0.055971  0.179542  1
  Si  Si15  1  0.250000  0.954103  0.821805  1
  Si  Si16  1  0.750000  0.706553  0.344365  1
  Si  Si17  1  0.250000  0.286184  0.653215  1
  Si  Si18  1  0.750000  0.860166  0.510519  1
  Si  Si19  1  0.250000  0.131762  0.484969  1
  Si  Si20  1  0.750000  0.530371  0.678950  1
  Si  Si21  1  0.250000  0.463000  0.317902  1
  Si  Si22  1  0.750000  0.679760  0.846742  1
  Ni  Ni23  1  0.250000  0.306568  0.157097  1
