# generated using pymatgen
data_Li3Ho4ZnSi6
_symmetry_space_group_name_H-M   'P 1'
_cell_length_a   9.19635554
_cell_length_b   9.19635558
_cell_length_c   6.68468612
_cell_angle_alpha   90.52343953
_cell_angle_beta   89.47656239
_cell_angle_gamma   153.40572287
_symmetry_Int_Tables_number   1
_chemical_formula_structural   Li3Ho4ZnSi6
_chemical_formula_sum   'Li3 Ho4 Zn1 Si6'
_cell_volume   253.07611870
_cell_formula_units_Z   1
loop_
 _symmetry_equiv_pos_site_id
 _symmetry_equiv_pos_as_xyz
  1  'x, y, z'
loop_
 _atom_site_type_symbol
 _atom_site_label
 _atom_site_symmetry_multiplicity
 _atom_site_fract_x
 _atom_site_fract_y
 _atom_site_fract_z
 _atom_site_occupancy
  Li  Li0  1  0.189889  0.810111  0.438583  1
  Li  Li1  1  0.190905  0.809095  0.061255  1
  Li  Li2  1  0.810603  0.189397  0.939770  1
  Ho  Ho3  1  0.550777  0.449223  0.251600  1
  Ho  Ho4  1  0.449357  0.550643  0.751773  1
  Ho  Ho5  1  0.346136  0.653864  0.249257  1
  Ho  Ho6  1  0.652368  0.347632  0.746435  1
  Zn  Zn7  1  0.808318  0.191682  0.557458  1
  Si  Si8  1  0.939623  0.060377  0.069540  1
  Si  Si9  1  0.060315  0.939685  0.931081  1
  Si  Si10  1  0.059075  0.940925  0.573471  1
  Si  Si11  1  0.940406  0.059594  0.427086  1
  Si  Si12  1  0.721613  0.278387  0.250987  1
  Si  Si13  1  0.280615  0.719385  0.751703  1
