# generated using pymatgen
data_Be6V4SiGe
_symmetry_space_group_name_H-M   'P 1'
_cell_length_a   4.42838500
_cell_length_b   4.42838533
_cell_length_c   7.39789700
_cell_angle_alpha   90.00000000
_cell_angle_beta   90.00000000
_cell_angle_gamma   120.00000501
_symmetry_Int_Tables_number   1
_chemical_formula_structural   Be6V4SiGe
_chemical_formula_sum   'Be6 V4 Si1 Ge1'
_cell_volume   125.64050248
_cell_formula_units_Z   1
loop_
 _symmetry_equiv_pos_site_id
 _symmetry_equiv_pos_as_xyz
  1  'x, y, z'
loop_
 _atom_site_type_symbol
 _atom_site_label
 _atom_site_symmetry_multiplicity
 _atom_site_fract_x
 _atom_site_fract_y
 _atom_site_fract_z
 _atom_site_occupancy
  Be  Be0  1  0.823804  0.647609  0.253469  1
  Be  Be1  1  0.176196  0.823804  0.746531  1
  Be  Be2  1  0.647609  0.823804  0.746531  1
  Be  Be3  1  0.352391  0.176196  0.253469  1
  Be  Be4  1  0.823804  0.176196  0.253469  1
  Be  Be5  1  0.176196  0.352391  0.746531  1
  V  V6  1  0.333333  0.666667  0.065187  1
  V  V7  1  0.666667  0.333333  0.564707  1
  V  V8  1  0.666667  0.333333  0.934813  1
  V  V9  1  0.333333  0.666667  0.435293  1
  Si  Si10  1  0.000000  0.000000  0.500000  1
  Ge  Ge11  1  0.000000  0.000000  0.000000  1
