# generated using pymatgen
data_Er4Ga4IrPd3
_symmetry_space_group_name_H-M   'P 1'
_cell_length_a   4.43277700
_cell_length_b   6.83509813
_cell_length_c   7.65444016
_cell_angle_alpha   89.71356365
_cell_angle_beta   90.00000000
_cell_angle_gamma   90.00000000
_symmetry_Int_Tables_number   1
_chemical_formula_structural   Er4Ga4IrPd3
_chemical_formula_sum   'Er4 Ga4 Ir1 Pd3'
_cell_volume   231.91489531
_cell_formula_units_Z   1
loop_
 _symmetry_equiv_pos_site_id
 _symmetry_equiv_pos_as_xyz
  1  'x, y, z'
loop_
 _atom_site_type_symbol
 _atom_site_label
 _atom_site_symmetry_multiplicity
 _atom_site_fract_x
 _atom_site_fract_y
 _atom_site_fract_z
 _atom_site_occupancy
  Er  Er0  1  0.250000  0.989078  0.306778  1
  Er  Er1  1  0.250000  0.479106  0.197760  1
  Er  Er2  1  0.750000  0.023025  0.690460  1
  Er  Er3  1  0.750000  0.518731  0.805498  1
  Ga  Ga4  1  0.250000  0.330340  0.569538  1
  Ga  Ga5  1  0.250000  0.830648  0.930126  1
  Ga  Ga6  1  0.750000  0.663329  0.428836  1
  Ga  Ga7  1  0.750000  0.170808  0.072962  1
  Ir  Ir8  1  0.750000  0.271151  0.395939  1
  Pd  Pd9  1  0.250000  0.224300  0.896323  1
  Pd  Pd10  1  0.250000  0.724343  0.603860  1
  Pd  Pd11  1  0.750000  0.775142  0.101920  1
