# generated using pymatgen
data_Na2TaNb5(Co4P3)4
_symmetry_space_group_name_H-M   'P 1'
_cell_length_a   12.03096400
_cell_length_b   12.03042321
_cell_length_c   3.60181500
_cell_angle_alpha   90.00000000
_cell_angle_beta   90.00000000
_cell_angle_gamma   120.00148701
_symmetry_Int_Tables_number   1
_chemical_formula_structural   Na2TaNb5(Co4P3)4
_chemical_formula_sum   'Na2 Ta1 Nb5 Co16 P12'
_cell_volume   451.46788148
_cell_formula_units_Z   1
loop_
 _symmetry_equiv_pos_site_id
 _symmetry_equiv_pos_as_xyz
  1  'x, y, z'
loop_
 _atom_site_type_symbol
 _atom_site_label
 _atom_site_symmetry_multiplicity
 _atom_site_fract_x
 _atom_site_fract_y
 _atom_site_fract_z
 _atom_site_occupancy
  Na  Na0  1  0.333250  0.666402  0.000000  1
  Na  Na1  1  0.666850  0.333598  0.000000  1
  Ta  Ta2  1  0.443818  0.000000  0.000000  1
  Nb  Nb3  1  0.820782  0.000000  0.500000  1
  Nb  Nb4  1  0.000378  0.820741  0.500000  1
  Nb  Nb5  1  0.179637  0.179259  0.500000  1
  Nb  Nb6  1  0.000023  0.444582  0.000000  1
  Nb  Nb7  1  0.555442  0.555418  0.000000  1
  Co  Co8  1  0.275512  0.000000  0.500000  1
  Co  Co9  1  0.999838  0.274519  0.500000  1
  Co  Co10  1  0.725320  0.725481  0.500000  1
  Co  Co11  1  0.636239  0.809340  0.000000  1
  Co  Co12  1  0.191573  0.827754  0.000000  1
  Co  Co13  1  0.172752  0.363497  0.000000  1
  Co  Co14  1  0.363819  0.172246  0.000000  1
  Co  Co15  1  0.809255  0.636503  0.000000  1
  Co  Co16  1  0.826900  0.190660  0.000000  1
  Co  Co17  1  0.524985  0.876271  0.500000  1
  Co  Co18  1  0.124574  0.650490  0.500000  1
  Co  Co19  1  0.349981  0.474378  0.500000  1
  Co  Co20  1  0.474083  0.349510  0.500000  1
  Co  Co21  1  0.875603  0.525622  0.500000  1
  Co  Co22  1  0.648714  0.123729  0.500000  1
  Co  Co23  1  0.999715  0.000000  0.000000  1
  P  P24  1  0.171644  0.000000  0.000000  1
  P  P25  1  0.000073  0.172164  0.000000  1
  P  P26  1  0.827908  0.827836  0.000000  1
  P  P27  1  0.517254  0.687956  0.500000  1
  P  P28  1  0.312582  0.829296  0.500000  1
  P  P29  1  0.170463  0.482757  0.500000  1
  P  P30  1  0.483285  0.170704  0.500000  1
  P  P31  1  0.687706  0.517243  0.500000  1
  P  P32  1  0.829298  0.312044  0.500000  1
  P  P33  1  0.649347  0.000000  0.000000  1
  P  P34  1  0.000034  0.648672  0.000000  1
  P  P35  1  0.351362  0.351328  0.000000  1
