# generated using pymatgen
data_Ca9TbSi6F
_symmetry_space_group_name_H-M   'P 1'
_cell_length_a   9.07147761
_cell_length_b   9.04921580
_cell_length_c   9.07040735
_cell_angle_alpha   130.20084965
_cell_angle_beta   130.26594249
_cell_angle_gamma   72.94799284
_symmetry_Int_Tables_number   1
_chemical_formula_structural   Ca9TbSi6F
_chemical_formula_sum   'Ca9 Tb1 Si6 F1'
_cell_volume   424.02476096
_cell_formula_units_Z   1
loop_
 _symmetry_equiv_pos_site_id
 _symmetry_equiv_pos_as_xyz
  1  'x, y, z'
loop_
 _atom_site_type_symbol
 _atom_site_label
 _atom_site_symmetry_multiplicity
 _atom_site_fract_x
 _atom_site_fract_y
 _atom_site_fract_z
 _atom_site_occupancy
  Ca  Ca0  1  0.432538  0.773612  0.000000  1
  Ca  Ca1  1  0.931495  0.931777  0.644638  1
  Ca  Ca2  1  0.286857  0.287138  0.355362  1
  Ca  Ca3  1  0.711506  0.066289  0.000000  1
  Ca  Ca4  1  0.067664  0.712473  0.000000  1
  Ca  Ca5  1  0.565990  0.565504  0.337150  1
  Ca  Ca6  1  0.228839  0.228353  0.662850  1
  Ca  Ca7  1  0.252572  0.752201  0.504213  1
  Ca  Ca8  1  0.748359  0.247987  0.495787  1
  Tb  Tb9  1  0.777366  0.434796  0.000000  1
  Si  Si10  1  0.994693  0.498120  0.487484  1
  Si  Si11  1  0.507209  0.010635  0.512516  1
  Si  Si12  1  0.128506  0.362991  0.000000  1
  Si  Si13  1  0.358465  0.135836  0.000000  1
  Si  Si14  1  0.865453  0.858943  0.225912  1
  Si  Si15  1  0.639541  0.633031  0.774088  1
  F  F16  1  0.502946  0.500316  0.000000  1
