# generated using pymatgen
data_Be8V3Pt
_symmetry_space_group_name_H-M   'P 1'
_cell_length_a   4.34755400
_cell_length_b   4.34755382
_cell_length_c   7.13448100
_cell_angle_alpha   90.00000000
_cell_angle_beta   90.00000000
_cell_angle_gamma   120.00000137
_symmetry_Int_Tables_number   1
_chemical_formula_structural   Be8V3Pt
_chemical_formula_sum   'Be8 V3 Pt1'
_cell_volume   116.78389702
_cell_formula_units_Z   1
loop_
 _symmetry_equiv_pos_site_id
 _symmetry_equiv_pos_as_xyz
  1  'x, y, z'
loop_
 _atom_site_type_symbol
 _atom_site_label
 _atom_site_symmetry_multiplicity
 _atom_site_fract_x
 _atom_site_fract_y
 _atom_site_fract_z
 _atom_site_occupancy
  Be  Be0  1  0.000000  0.000000  0.998400  1
  Be  Be1  1  0.000000  0.000000  0.494601  1
  Be  Be2  1  0.829938  0.659875  0.251851  1
  Be  Be3  1  0.168296  0.831704  0.747975  1
  Be  Be4  1  0.663408  0.831704  0.747975  1
  Be  Be5  1  0.340125  0.170062  0.251851  1
  Be  Be6  1  0.829938  0.170062  0.251851  1
  Be  Be7  1  0.168296  0.336592  0.747975  1
  V  V8  1  0.666667  0.333333  0.568076  1
  V  V9  1  0.666667  0.333333  0.930446  1
  V  V10  1  0.333333  0.666667  0.441564  1
  Pt  Pt11  1  0.333333  0.666667  0.067435  1
