# generated using pymatgen
data_Nd2In2Ga5Ni2Ag
_symmetry_space_group_name_H-M   'P 1'
_cell_length_a   4.26775913
_cell_length_b   6.61008222
_cell_length_c   8.42178226
_cell_angle_alpha   90.61654715
_cell_angle_beta   104.67309928
_cell_angle_gamma   89.99956979
_symmetry_Int_Tables_number   1
_chemical_formula_structural   Nd2In2Ga5Ni2Ag
_chemical_formula_sum   'Nd2 In2 Ga5 Ni2 Ag1'
_cell_volume   229.81801115
_cell_formula_units_Z   1
loop_
 _symmetry_equiv_pos_site_id
 _symmetry_equiv_pos_as_xyz
  1  'x, y, z'
loop_
 _atom_site_type_symbol
 _atom_site_label
 _atom_site_symmetry_multiplicity
 _atom_site_fract_x
 _atom_site_fract_y
 _atom_site_fract_z
 _atom_site_occupancy
  Nd  Nd0  1  0.873072  0.756593  0.745937  1
  Nd  Nd1  1  0.125601  0.242867  0.251132  1
  In  In2  1  0.495800  0.011857  0.992258  1
  In  In3  1  0.071246  0.730074  0.142405  1
  Ga  Ga4  1  0.925412  0.272574  0.850960  1
  Ga  Ga5  1  0.690103  0.547040  0.380135  1
  Ga  Ga6  1  0.313699  0.449999  0.627321  1
  Ga  Ga7  1  0.692735  0.945882  0.385316  1
  Ga  Ga8  1  0.310254  0.056128  0.620370  1
  Ni  Ni9  1  0.226646  0.749246  0.453148  1
  Ni  Ni10  1  0.779713  0.250500  0.559374  1
  Ag  Ag11  1  0.495718  0.487240  0.991644  1
