# generated using pymatgen
data_Nd6Sm2Er12Si15Ag
_symmetry_space_group_name_H-M   'P 1'
_cell_length_a   7.48062211
_cell_length_b   7.74479718
_cell_length_c   14.75335957
_cell_angle_alpha   89.80473678
_cell_angle_beta   89.52887854
_cell_angle_gamma   90.31355077
_symmetry_Int_Tables_number   1
_chemical_formula_structural   Nd6Sm2Er12Si15Ag
_chemical_formula_sum   'Nd6 Sm2 Er12 Si15 Ag1'
_cell_volume   854.70239101
_cell_formula_units_Z   1
loop_
 _symmetry_equiv_pos_site_id
 _symmetry_equiv_pos_as_xyz
  1  'x, y, z'
loop_
 _atom_site_type_symbol
 _atom_site_label
 _atom_site_symmetry_multiplicity
 _atom_site_fract_x
 _atom_site_fract_y
 _atom_site_fract_z
 _atom_site_occupancy
  Nd  Nd0  1  0.020927  0.179074  0.100547  1
  Nd  Nd1  1  0.979533  0.823461  0.902431  1
  Nd  Nd2  1  0.479225  0.679162  0.902639  1
  Nd  Nd3  1  0.981589  0.829049  0.598811  1
  Nd  Nd4  1  0.519348  0.320962  0.097946  1
  Nd  Nd5  1  0.015481  0.172852  0.398797  1
  Sm  Sm6  1  0.519441  0.318819  0.398411  1
  Sm  Sm7  1  0.487352  0.683189  0.601239  1
  Er  Er8  1  0.159133  0.510009  0.751201  1
  Er  Er9  1  0.842334  0.490972  0.251781  1
  Er  Er10  1  0.342278  0.004979  0.249301  1
  Er  Er11  1  0.660969  0.991089  0.750516  1
  Er  Er12  1  0.334113  0.175864  0.624349  1
  Er  Er13  1  0.669445  0.820892  0.375693  1
  Er  Er14  1  0.173353  0.673703  0.374820  1
  Er  Er15  1  0.675976  0.822434  0.123566  1
  Er  Er16  1  0.822391  0.326425  0.622154  1
  Er  Er17  1  0.323177  0.178020  0.877208  1
  Er  Er18  1  0.823559  0.321282  0.877894  1
  Er  Er19  1  0.175503  0.676984  0.123498  1
  Si  Si20  1  0.032294  0.119576  0.750548  1
  Si  Si21  1  0.969044  0.883851  0.249873  1
  Si  Si22  1  0.469378  0.610411  0.248406  1
  Si  Si23  1  0.532695  0.389677  0.751551  1
  Si  Si24  1  0.276998  0.879701  0.750095  1
  Si  Si25  1  0.720791  0.122461  0.248897  1
  Si  Si26  1  0.225209  0.374124  0.249664  1
  Si  Si27  1  0.777669  0.622822  0.751768  1
  Si  Si28  1  0.838782  0.533155  0.457740  1
  Si  Si29  1  0.346498  0.965163  0.461042  1
  Si  Si30  1  0.851302  0.532899  0.039129  1
  Si  Si31  1  0.651210  0.033669  0.537592  1
  Si  Si32  1  0.146679  0.467550  0.961705  1
  Si  Si33  1  0.647611  0.031582  0.960730  1
  Si  Si34  1  0.350631  0.967347  0.039633  1
  Ag  Ag35  1  0.158078  0.466789  0.538824  1
