# generated using pymatgen
data_YHo2Hf(Al8Pt3)3
_symmetry_space_group_name_H-M   'P 1'
_cell_length_a   7.52075549
_cell_length_b   7.52738439
_cell_length_c   13.09561115
_cell_angle_alpha   84.54894762
_cell_angle_beta   79.03429926
_cell_angle_gamma   59.89754456
_symmetry_Int_Tables_number   1
_chemical_formula_structural   YHo2Hf(Al8Pt3)3
_chemical_formula_sum   'Y1 Ho2 Hf1 Al24 Pt9'
_cell_volume   629.66514108
_cell_formula_units_Z   1
loop_
 _symmetry_equiv_pos_site_id
 _symmetry_equiv_pos_as_xyz
  1  'x, y, z'
loop_
 _atom_site_type_symbol
 _atom_site_label
 _atom_site_symmetry_multiplicity
 _atom_site_fract_x
 _atom_site_fract_y
 _atom_site_fract_z
 _atom_site_occupancy
  Y  Y0  1  0.606500  0.831947  0.191630  1
  Ho  Ho1  1  0.733897  0.498627  0.807644  1
  Ho  Ho2  1  0.266615  0.501212  0.192057  1
  Hf  Hf3  1  0.393776  0.168362  0.807474  1
  Al  Al4  1  0.681456  0.836812  0.941109  1
  Al  Al5  1  0.316511  0.166610  0.053733  1
  Al  Al6  1  0.146331  0.832804  0.562637  1
  Al  Al7  1  0.853182  0.167163  0.438271  1
  Al  Al8  1  0.479952  0.166739  0.560513  1
  Al  Al9  1  0.519359  0.833895  0.441395  1
  Al  Al10  1  0.217223  0.165573  0.329863  1
  Al  Al11  1  0.779594  0.836402  0.673583  1
  Al  Al12  1  0.435870  0.504804  0.673918  1
  Al  Al13  1  0.562554  0.493530  0.329209  1
  Al  Al14  1  0.110466  0.159723  0.672826  1
  Al  Al15  1  0.890508  0.839779  0.330441  1
  Al  Al16  1  0.354367  0.495883  0.941239  1
  Al  Al17  1  0.647609  0.500064  0.055331  1
  Al  Al18  1  0.019460  0.168252  0.949431  1
  Al  Al19  1  0.984799  0.832564  0.046629  1
  Al  Al20  1  0.186868  0.499187  0.441404  1
  Al  Al21  1  0.813605  0.500331  0.559211  1
  Al  Al22  1  0.733913  0.164156  0.183441  1
  Al  Al23  1  0.265842  0.841846  0.816535  1
  Al  Al24  1  0.066489  0.626136  0.815229  1
  Al  Al25  1  0.939456  0.368247  0.184426  1
  Al  Al26  1  0.850147  0.041473  0.815765  1
  Al  Al27  1  0.144565  0.958546  0.183798  1
  Pt  Pt28  1  0.120408  0.489813  0.639985  1
  Pt  Pt29  1  0.879419  0.508433  0.361561  1
  Pt  Pt30  1  0.657392  0.171863  0.998678  1
  Pt  Pt31  1  0.343752  0.827785  0.999162  1
  Pt  Pt32  1  0.537400  0.166895  0.361699  1
  Pt  Pt33  1  0.463104  0.833486  0.639823  1
  Pt  Pt34  1  0.777003  0.176347  0.638422  1
  Pt  Pt35  1  0.220758  0.824591  0.363176  1
  Pt  Pt36  1  0.999850  0.500123  0.998753  1
