# generated using pymatgen
data_Rb(PtO2)6
_symmetry_space_group_name_H-M   'P 1'
_cell_length_a   8.77381608
_cell_length_b   8.77381540
_cell_length_c   8.77381611
_cell_angle_alpha   107.63054572
_cell_angle_beta   107.63054411
_cell_angle_gamma   113.21882060
_symmetry_Int_Tables_number   1
_chemical_formula_structural   Rb(PtO2)6
_chemical_formula_sum   'Rb2 Pt12 O24'
_cell_volume   518.24874971
_cell_formula_units_Z   2
loop_
 _symmetry_equiv_pos_site_id
 _symmetry_equiv_pos_as_xyz
  1  'x, y, z'
loop_
 _atom_site_type_symbol
 _atom_site_label
 _atom_site_symmetry_multiplicity
 _atom_site_fract_x
 _atom_site_fract_y
 _atom_site_fract_z
 _atom_site_occupancy
  Rb  Rb0  1  0.789107  0.789107  0.000000  1
  Rb  Rb1  1  0.210893  0.210893  0.000000  1
  Pt  Pt2  1  0.314019  0.834069  0.814748  1
  Pt  Pt3  1  0.647972  0.167217  0.815190  1
  Pt  Pt4  1  0.980677  0.500727  0.814748  1
  Pt  Pt5  1  0.019323  0.499273  0.185252  1
  Pt  Pt6  1  0.352028  0.832783  0.184810  1
  Pt  Pt7  1  0.685981  0.165931  0.185252  1
  Pt  Pt8  1  0.832783  0.647972  0.480756  1
  Pt  Pt9  1  0.165931  0.980677  0.479950  1
  Pt  Pt10  1  0.499273  0.314019  0.479950  1
  Pt  Pt11  1  0.500727  0.685981  0.520050  1
  Pt  Pt12  1  0.834069  0.019323  0.520050  1
  Pt  Pt13  1  0.167217  0.352028  0.519244  1
  O  O14  1  0.785136  0.501813  0.620639  1
  O  O15  1  0.118825  0.835502  0.620639  1
  O  O16  1  0.452421  0.162025  0.614446  1
  O  O17  1  0.881175  0.164498  0.379361  1
  O  O18  1  0.214864  0.498187  0.379361  1
  O  O19  1  0.547579  0.837975  0.385554  1
  O  O20  1  0.498187  0.118825  0.283324  1
  O  O21  1  0.837975  0.452421  0.290394  1
  O  O22  1  0.164498  0.785136  0.283324  1
  O  O23  1  0.162025  0.547579  0.709606  1
  O  O24  1  0.501813  0.881175  0.716676  1
  O  O25  1  0.835502  0.214864  0.716676  1
  O  O26  1  0.510693  0.870063  0.049068  1
  O  O27  1  0.846790  0.203522  0.050312  1
  O  O28  1  0.179006  0.538376  0.049068  1
  O  O29  1  0.153210  0.796478  0.949688  1
  O  O30  1  0.489307  0.129937  0.950932  1
  O  O31  1  0.820994  0.461624  0.950932  1
  O  O32  1  0.129937  0.179006  0.640630  1
  O  O33  1  0.461624  0.510693  0.640630  1
  O  O34  1  0.796478  0.846790  0.643268  1
  O  O35  1  0.538376  0.489307  0.359370  1
  O  O36  1  0.870063  0.820994  0.359370  1
  O  O37  1  0.203522  0.153210  0.356732  1
