# generated using pymatgen
data_Dy2Ho3Hf3(Co4P3)4
_symmetry_space_group_name_H-M   'P 1'
_cell_length_a   12.27328000
_cell_length_b   12.27327804
_cell_length_c   3.70635500
_cell_angle_alpha   90.00000000
_cell_angle_beta   90.00000000
_cell_angle_gamma   120.00000529
_symmetry_Int_Tables_number   1
_chemical_formula_structural   Dy2Ho3Hf3(Co4P3)4
_chemical_formula_sum   'Dy2 Ho3 Hf3 Co16 P12'
_cell_volume   483.50262673
_cell_formula_units_Z   1
loop_
 _symmetry_equiv_pos_site_id
 _symmetry_equiv_pos_as_xyz
  1  'x, y, z'
loop_
 _atom_site_type_symbol
 _atom_site_label
 _atom_site_symmetry_multiplicity
 _atom_site_fract_x
 _atom_site_fract_y
 _atom_site_fract_z
 _atom_site_occupancy
  Dy  Dy0  1  0.666667  0.333333  0.000000  1
  Dy  Dy1  1  0.333333  0.666667  0.000000  1
  Ho  Ho2  1  0.817415  0.817415  0.500000  1
  Ho  Ho3  1  0.182585  0.000000  0.500000  1
  Ho  Ho4  1  0.000000  0.182585  0.500000  1
  Hf  Hf5  1  0.441100  0.441100  0.000000  1
  Hf  Hf6  1  0.558900  0.000000  0.000000  1
  Hf  Hf7  1  0.000000  0.558900  0.000000  1
  Co  Co8  1  0.875714  0.355922  0.500000  1
  Co  Co9  1  0.644078  0.519793  0.500000  1
  Co  Co10  1  0.480207  0.124286  0.500000  1
  Co  Co11  1  0.355922  0.875714  0.500000  1
  Co  Co12  1  0.519793  0.644078  0.500000  1
  Co  Co13  1  0.124286  0.480207  0.500000  1
  Co  Co14  1  0.804653  0.177991  0.000000  1
  Co  Co15  1  0.822009  0.626661  0.000000  1
  Co  Co16  1  0.373339  0.195347  0.000000  1
  Co  Co17  1  0.177991  0.804653  0.000000  1
  Co  Co18  1  0.626661  0.822009  0.000000  1
  Co  Co19  1  0.195347  0.373339  0.000000  1
  Co  Co20  1  0.278350  0.278350  0.500000  1
  Co  Co21  1  0.721650  0.000000  0.500000  1
  Co  Co22  1  0.000000  0.721650  0.500000  1
  Co  Co23  1  0.000000  0.000000  0.000000  1
  P  P24  1  0.692634  0.171303  0.500000  1
  P  P25  1  0.828697  0.521331  0.500000  1
  P  P26  1  0.478669  0.307366  0.500000  1
  P  P27  1  0.171303  0.692634  0.500000  1
  P  P28  1  0.521331  0.828697  0.500000  1
  P  P29  1  0.307366  0.478669  0.500000  1
  P  P30  1  0.177789  0.177789  0.000000  1
  P  P31  1  0.822211  0.000000  0.000000  1
  P  P32  1  0.000000  0.822211  0.000000  1
  P  P33  1  0.648324  0.648324  0.000000  1
  P  P34  1  0.351676  0.000000  0.000000  1
  P  P35  1  0.000000  0.351676  0.000000  1
