# generated using pymatgen
data_Pr6Y10Cd3AgIr4
_symmetry_space_group_name_H-M   'P 1'
_cell_length_a   9.79221454
_cell_length_b   9.79221477
_cell_length_c   9.79221601
_cell_angle_alpha   60.01078876
_cell_angle_beta   60.01079597
_cell_angle_gamma   60.01079144
_symmetry_Int_Tables_number   1
_chemical_formula_structural   Pr6Y10Cd3AgIr4
_chemical_formula_sum   'Pr6 Y10 Cd3 Ag1 Ir4'
_cell_volume   664.10091962
_cell_formula_units_Z   1
loop_
 _symmetry_equiv_pos_site_id
 _symmetry_equiv_pos_as_xyz
  1  'x, y, z'
loop_
 _atom_site_type_symbol
 _atom_site_label
 _atom_site_symmetry_multiplicity
 _atom_site_fract_x
 _atom_site_fract_y
 _atom_site_fract_z
 _atom_site_occupancy
  Pr  Pr0  1  0.937269  0.559535  0.559535  1
  Pr  Pr1  1  0.558711  0.939760  0.939760  1
  Pr  Pr2  1  0.559535  0.937269  0.559535  1
  Pr  Pr3  1  0.939760  0.558711  0.939760  1
  Pr  Pr4  1  0.559535  0.559535  0.937269  1
  Pr  Pr5  1  0.939760  0.939760  0.558711  1
  Y  Y6  1  0.347078  0.347078  0.347078  1
  Y  Y7  1  0.348794  0.348794  0.956398  1
  Y  Y8  1  0.348794  0.956398  0.348794  1
  Y  Y9  1  0.956398  0.348794  0.348794  1
  Y  Y10  1  0.811346  0.188050  0.188050  1
  Y  Y11  1  0.186813  0.811935  0.811935  1
  Y  Y12  1  0.188050  0.811346  0.188050  1
  Y  Y13  1  0.811935  0.186813  0.811935  1
  Y  Y14  1  0.188050  0.188050  0.811346  1
  Y  Y15  1  0.811935  0.811935  0.186813  1
  Cd  Cd16  1  0.579792  0.579792  0.263494  1
  Cd  Cd17  1  0.579792  0.263494  0.579792  1
  Cd  Cd18  1  0.263494  0.579792  0.579792  1
  Ag  Ag19  1  0.580944  0.580944  0.580944  1
  Ir  Ir20  1  0.141334  0.141334  0.141334  1
  Ir  Ir21  1  0.141856  0.141856  0.577165  1
  Ir  Ir22  1  0.141856  0.577165  0.141856  1
  Ir  Ir23  1  0.577165  0.141856  0.141856  1
