# generated using pymatgen
data_Er2ScB2Ir3Rh2
_symmetry_space_group_name_H-M   'P 1'
_cell_length_a   9.68740550
_cell_length_b   9.71793950
_cell_length_c   3.18715800
_cell_angle_alpha   90.00000000
_cell_angle_beta   90.00000000
_cell_angle_gamma   90.03686607
_symmetry_Int_Tables_number   1
_chemical_formula_structural   Er2ScB2Ir3Rh2
_chemical_formula_sum   'Er4 Sc2 B4 Ir6 Rh4'
_cell_volume   300.04415713
_cell_formula_units_Z   2
loop_
 _symmetry_equiv_pos_site_id
 _symmetry_equiv_pos_as_xyz
  1  'x, y, z'
loop_
 _atom_site_type_symbol
 _atom_site_label
 _atom_site_symmetry_multiplicity
 _atom_site_fract_x
 _atom_site_fract_y
 _atom_site_fract_z
 _atom_site_occupancy
  Er  Er0  1  0.824861  0.325007  0.000000  1
  Er  Er1  1  0.325035  0.175142  0.000000  1
  Er  Er2  1  0.674965  0.824858  0.000000  1
  Er  Er3  1  0.175139  0.674993  0.000000  1
  Sc  Sc4  1  0.000000  0.000000  0.000000  1
  Sc  Sc5  1  0.500000  0.500000  0.000000  1
  B  B6  1  0.621017  0.121056  0.000000  1
  B  B7  1  0.119712  0.378232  0.000000  1
  B  B8  1  0.880288  0.621768  0.000000  1
  B  B9  1  0.378983  0.878944  0.000000  1
  Ir  Ir10  1  0.071120  0.225690  0.500000  1
  Ir  Ir11  1  0.224468  0.929923  0.500000  1
  Ir  Ir12  1  0.775532  0.070077  0.500000  1
  Ir  Ir13  1  0.928880  0.774310  0.500000  1
  Ir  Ir14  1  0.429044  0.724924  0.500000  1
  Ir  Ir15  1  0.570956  0.275076  0.500000  1
  Rh  Rh16  1  0.724909  0.570322  0.500000  1
  Rh  Rh17  1  0.275091  0.429678  0.500000  1
  Rh  Rh18  1  0.500000  0.000000  0.500000  1
  Rh  Rh19  1  0.000000  0.500000  0.500000  1
