# generated using pymatgen
data_Dy13Er7(Sn3Pb5)2
_symmetry_space_group_name_H-M   'P 1'
_cell_length_a   8.11521507
_cell_length_b   15.51579601
_cell_length_c   8.18895500
_cell_angle_alpha   90.00132939
_cell_angle_beta   90.00732152
_cell_angle_gamma   89.99906926
_symmetry_Int_Tables_number   1
_chemical_formula_structural   Dy13Er7(Sn3Pb5)2
_chemical_formula_sum   'Dy13 Er7 Sn6 Pb10'
_cell_volume   1031.10424722
_cell_formula_units_Z   1
loop_
 _symmetry_equiv_pos_site_id
 _symmetry_equiv_pos_as_xyz
  1  'x, y, z'
loop_
 _atom_site_type_symbol
 _atom_site_label
 _atom_site_symmetry_multiplicity
 _atom_site_fract_x
 _atom_site_fract_y
 _atom_site_fract_z
 _atom_site_occupancy
  Dy  Dy0  1  0.877607  0.377947  0.661498  1
  Dy  Dy1  1  0.377764  0.377813  0.838403  1
  Dy  Dy2  1  0.877777  0.122109  0.661513  1
  Dy  Dy3  1  0.621900  0.876549  0.160196  1
  Dy  Dy4  1  0.121870  0.623436  0.339928  1
  Dy  Dy5  1  0.465265  0.603525  0.676366  1
  Dy  Dy6  1  0.965196  0.896472  0.823592  1
  Dy  Dy7  1  0.534332  0.100290  0.325269  1
  Dy  Dy8  1  0.034323  0.399675  0.174661  1
  Dy  Dy9  1  0.534272  0.399774  0.325319  1
  Dy  Dy10  1  0.034320  0.100195  0.174663  1
  Dy  Dy11  1  0.465230  0.896559  0.676306  1
  Dy  Dy12  1  0.965285  0.603584  0.823744  1
  Er  Er13  1  0.622035  0.623612  0.160072  1
  Er  Er14  1  0.122114  0.876454  0.339970  1
  Er  Er15  1  0.377548  0.122182  0.838617  1
  Er  Er16  1  0.790489  0.749975  0.496403  1
  Er  Er17  1  0.290489  0.750035  0.003628  1
  Er  Er18  1  0.210165  0.249830  0.507535  1
  Er  Er19  1  0.709742  0.249947  0.992509  1
  Sn  Sn20  1  0.425896  0.749955  0.376911  1
  Sn  Sn21  1  0.925893  0.750176  0.123088  1
  Sn  Sn22  1  0.573426  0.249671  0.624018  1
  Sn  Sn23  1  0.074035  0.249824  0.876239  1
  Sn  Sn24  1  0.657700  0.749690  0.851381  1
  Sn  Sn25  1  0.157592  0.750347  0.648418  1
  Pb  Pb26  1  0.717362  0.458698  0.967138  1
  Pb  Pb27  1  0.217683  0.041384  0.533437  1
  Pb  Pb28  1  0.281932  0.957912  0.033706  1
  Pb  Pb29  1  0.781787  0.542441  0.465956  1
  Pb  Pb30  1  0.282734  0.542421  0.033674  1
  Pb  Pb31  1  0.782712  0.957646  0.466321  1
  Pb  Pb32  1  0.717002  0.041709  0.966635  1
  Pb  Pb33  1  0.217503  0.458383  0.533265  1
  Pb  Pb34  1  0.344519  0.249843  0.151881  1
  Pb  Pb35  1  0.844504  0.249933  0.347740  1
