# generated using pymatgen
data_Tb4VPdPt2F28
_symmetry_space_group_name_H-M   'P 1'
_cell_length_a   5.55350302
_cell_length_b   8.91686698
_cell_length_c   11.96283082
_cell_angle_alpha   62.44767615
_cell_angle_beta   90.12262937
_cell_angle_gamma   90.08677784
_symmetry_Int_Tables_number   1
_chemical_formula_structural   Tb4VPdPt2F28
_chemical_formula_sum   'Tb4 V1 Pd1 Pt2 F28'
_cell_volume   525.21173721
_cell_formula_units_Z   1
loop_
 _symmetry_equiv_pos_site_id
 _symmetry_equiv_pos_as_xyz
  1  'x, y, z'
loop_
 _atom_site_type_symbol
 _atom_site_label
 _atom_site_symmetry_multiplicity
 _atom_site_fract_x
 _atom_site_fract_y
 _atom_site_fract_z
 _atom_site_occupancy
  Tb  Tb0  1  0.258413  0.811133  0.263519  1
  Tb  Tb1  1  0.739897  0.186625  0.735759  1
  Tb  Tb2  1  0.761700  0.184745  0.235308  1
  Tb  Tb3  1  0.239232  0.811190  0.768536  1
  V  V4  1  0.755383  0.725152  0.044147  1
  Pd  Pd5  1  0.243372  0.271713  0.958288  1
  Pt  Pt6  1  0.258663  0.272543  0.456384  1
  Pt  Pt7  1  0.741085  0.726704  0.544023  1
  F  F8  1  0.933462  0.702995  0.415143  1
  F  F9  1  0.063545  0.297479  0.583701  1
  F  F10  1  0.438170  0.297380  0.083790  1
  F  F11  1  0.548532  0.712817  0.922656  1
  F  F12  1  0.486325  0.731827  0.138793  1
  F  F13  1  0.534764  0.267198  0.869864  1
  F  F14  1  0.965771  0.275472  0.362322  1
  F  F15  1  0.034660  0.725537  0.636687  1
  F  F16  1  0.958024  0.745549  0.165528  1
  F  F17  1  0.052960  0.252324  0.828205  1
  F  F18  1  0.449685  0.256676  0.323509  1
  F  F19  1  0.553925  0.744577  0.677157  1
  F  F20  1  0.767896  0.492520  0.134772  1
  F  F21  1  0.233762  0.516835  0.859416  1
  F  F22  1  0.270632  0.520410  0.356979  1
  F  F23  1  0.726824  0.478442  0.643410  1
  F  F24  1  0.946560  0.283902  0.041641  1
  F  F25  1  0.034920  0.719532  0.952956  1
  F  F26  1  0.440812  0.719447  0.458272  1
  F  F27  1  0.558973  0.280156  0.541641  1
  F  F28  1  0.744565  0.974910  0.450005  1
  F  F29  1  0.257749  0.024643  0.550252  1
  F  F30  1  0.242300  0.026244  0.049650  1
  F  F31  1  0.758976  0.957304  0.951184  1
  F  F32  1  0.584763  0.970161  0.231969  1
  F  F33  1  0.413134  0.032941  0.767827  1
  F  F34  1  0.085392  0.029798  0.267408  1
  F  F35  1  0.915176  0.973122  0.729298  1
