# generated using pymatgen
data_Pr6NbCo16TcP12
_symmetry_space_group_name_H-M   'P 1'
_cell_length_a   3.78242200
_cell_length_b   10.79827300
_cell_length_c   12.52533100
_cell_angle_alpha   90.00000000
_cell_angle_beta   90.00000000
_cell_angle_gamma   90.00000000
_symmetry_Int_Tables_number   1
_chemical_formula_structural   Pr6NbCo16TcP12
_chemical_formula_sum   'Pr6 Nb1 Co16 Tc1 P12'
_cell_volume   511.57992684
_cell_formula_units_Z   1
loop_
 _symmetry_equiv_pos_site_id
 _symmetry_equiv_pos_as_xyz
  1  'x, y, z'
loop_
 _atom_site_type_symbol
 _atom_site_label
 _atom_site_symmetry_multiplicity
 _atom_site_fract_x
 _atom_site_fract_y
 _atom_site_fract_z
 _atom_site_occupancy
  Pr  Pr0  1  0.000000  0.500000  0.523251  1
  Pr  Pr1  1  0.500000  0.000000  0.474301  1
  Pr  Pr2  1  0.500000  0.817617  0.205223  1
  Pr  Pr3  1  0.500000  0.182383  0.205223  1
  Pr  Pr4  1  0.000000  0.680249  0.793900  1
  Pr  Pr5  1  0.000000  0.319751  0.793900  1
  Nb  Nb6  1  0.000000  0.000000  0.847300  1
  Co  Co7  1  0.500000  0.500000  0.704362  1
  Co  Co8  1  0.000000  0.000000  0.295863  1
  Co  Co9  1  0.000000  0.500000  0.989833  1
  Co  Co10  1  0.500000  0.000000  0.014143  1
  Co  Co11  1  0.500000  0.334464  0.993917  1
  Co  Co12  1  0.500000  0.665536  0.993917  1
  Co  Co13  1  0.000000  0.169422  0.009379  1
  Co  Co14  1  0.000000  0.830578  0.009379  1
  Co  Co15  1  0.500000  0.297223  0.429944  1
  Co  Co16  1  0.500000  0.702777  0.429944  1
  Co  Co17  1  0.000000  0.205109  0.567243  1
  Co  Co18  1  0.000000  0.794891  0.567243  1
  Co  Co19  1  0.500000  0.879815  0.706406  1
  Co  Co20  1  0.500000  0.120185  0.706406  1
  Co  Co21  1  0.000000  0.617703  0.290881  1
  Co  Co22  1  0.000000  0.382297  0.290881  1
  Tc  Tc23  1  0.500000  0.500000  0.154966  1
  P  P24  1  0.500000  0.500000  0.887631  1
  P  P25  1  0.000000  0.000000  0.113888  1
  P  P26  1  0.500000  0.500000  0.342300  1
  P  P27  1  0.000000  0.000000  0.650878  1
  P  P28  1  0.500000  0.306179  0.612718  1
  P  P29  1  0.500000  0.693821  0.612718  1
  P  P30  1  0.000000  0.195144  0.385439  1
  P  P31  1  0.000000  0.804856  0.385439  1
  P  P32  1  0.500000  0.842943  0.899659  1
  P  P33  1  0.500000  0.157057  0.899659  1
  P  P34  1  0.000000  0.650626  0.105934  1
  P  P35  1  0.000000  0.349374  0.105934  1
