# generated using pymatgen
data_PaAsPCl13
_symmetry_space_group_name_H-M   'P 1'
_cell_length_a   10.04614825
_cell_length_b   10.04614883
_cell_length_c   12.40489600
_cell_angle_alpha   90.00000000
_cell_angle_beta   90.00000000
_cell_angle_gamma   115.39092461
_symmetry_Int_Tables_number   1
_chemical_formula_structural   PaAsPCl13
_chemical_formula_sum   'Pa2 As2 P2 Cl26'
_cell_volume   1131.02955578
_cell_formula_units_Z   2
loop_
 _symmetry_equiv_pos_site_id
 _symmetry_equiv_pos_as_xyz
  1  'x, y, z'
loop_
 _atom_site_type_symbol
 _atom_site_label
 _atom_site_symmetry_multiplicity
 _atom_site_fract_x
 _atom_site_fract_y
 _atom_site_fract_z
 _atom_site_occupancy
  Pa  Pa0  1  0.793389  0.206611  0.997961  1
  Pa  Pa1  1  0.206611  0.793389  0.497961  1
  As  As2  1  0.452085  0.547915  0.345425  1
  As  As3  1  0.547915  0.452085  0.845425  1
  P  P4  1  0.140477  0.859523  0.035917  1
  P  P5  1  0.859523  0.140477  0.535917  1
  Cl  Cl6  1  0.313554  0.022365  0.617513  1
  Cl  Cl7  1  0.863764  0.136236  0.378409  1
  Cl  Cl8  1  0.622980  0.691783  0.869270  1
  Cl  Cl9  1  0.136236  0.863764  0.878409  1
  Cl  Cl10  1  0.939073  0.763787  0.091855  1
  Cl  Cl11  1  0.691783  0.622980  0.369270  1
  Cl  Cl12  1  0.749385  0.250615  0.582336  1
  Cl  Cl13  1  0.236213  0.060927  0.091855  1
  Cl  Cl14  1  0.686446  0.977635  0.117513  1
  Cl  Cl15  1  0.250615  0.749385  0.082336  1
  Cl  Cl16  1  0.060927  0.236213  0.591855  1
  Cl  Cl17  1  0.098177  0.563708  0.376717  1
  Cl  Cl18  1  0.977635  0.686446  0.617513  1
  Cl  Cl19  1  0.022365  0.313554  0.117513  1
  Cl  Cl20  1  0.083079  0.916921  0.378737  1
  Cl  Cl21  1  0.901823  0.436292  0.876717  1
  Cl  Cl22  1  0.563708  0.098177  0.876717  1
  Cl  Cl23  1  0.436292  0.901823  0.376717  1
  Cl  Cl24  1  0.308217  0.377020  0.869270  1
  Cl  Cl25  1  0.377020  0.308217  0.369270  1
  Cl  Cl26  1  0.916921  0.083079  0.878737  1
  Cl  Cl27  1  0.553247  0.446753  0.666657  1
  Cl  Cl28  1  0.331370  0.668630  0.613148  1
  Cl  Cl29  1  0.668630  0.331370  0.113148  1
  Cl  Cl30  1  0.763787  0.939073  0.591855  1
  Cl  Cl31  1  0.446753  0.553247  0.166657  1
