# generated using pymatgen
data_Ho12Co3Os2Pb
_symmetry_space_group_name_H-M   'P 1'
_cell_length_a   8.31104576
_cell_length_b   8.31081272
_cell_length_c   8.31104637
_cell_angle_alpha   111.93213751
_cell_angle_beta   111.12210388
_cell_angle_gamma   105.43548048
_symmetry_Int_Tables_number   1
_chemical_formula_structural   Ho12Co3Os2Pb
_chemical_formula_sum   'Ho12 Co3 Os2 Pb1'
_cell_volume   440.24988207
_cell_formula_units_Z   1
loop_
 _symmetry_equiv_pos_site_id
 _symmetry_equiv_pos_as_xyz
  1  'x, y, z'
loop_
 _atom_site_type_symbol
 _atom_site_label
 _atom_site_symmetry_multiplicity
 _atom_site_fract_x
 _atom_site_fract_y
 _atom_site_fract_z
 _atom_site_occupancy
  Ho  Ho0  1  0.817377  0.723540  0.540925  1
  Ho  Ho1  1  0.181888  0.277638  0.459521  1
  Ho  Ho2  1  0.181884  0.722362  0.904249  1
  Ho  Ho3  1  0.817384  0.276460  0.093838  1
  Ho  Ho4  1  0.691600  0.381302  0.694295  1
  Ho  Ho5  1  0.312991  0.618698  0.310296  1
  Ho  Ho6  1  0.691600  0.997310  0.310299  1
  Ho  Ho7  1  0.312989  0.002690  0.694289  1
  Ho  Ho8  1  0.585491  0.777018  0.808468  1
  Ho  Ho9  1  0.415273  0.219503  0.195780  1
  Ho  Ho10  1  0.976277  0.780497  0.195770  1
  Ho  Ho11  1  0.031450  0.222982  0.808472  1
  Co  Co12  1  0.360932  0.000000  0.360932  1
  Co  Co13  1  0.108984  0.609252  0.499735  1
  Co  Co14  1  0.890481  0.390748  0.499731  1
  Os  Os15  1  0.620847  0.000000  0.620847  1
  Os  Os16  1  0.000331  0.000000  0.000331  1
  Pb  Pb17  1  0.502220  0.500000  0.002220  1
