# generated using pymatgen
data_DyHoTh2(Al3Rh)6
_symmetry_space_group_name_H-M   'P 1'
_cell_length_a   7.62040032
_cell_length_b   7.61863388
_cell_length_c   9.49776300
_cell_angle_alpha   90.00000000
_cell_angle_beta   90.00000000
_cell_angle_gamma   119.39225941
_symmetry_Int_Tables_number   1
_chemical_formula_structural   DyHoTh2(Al3Rh)6
_chemical_formula_sum   'Dy1 Ho1 Th2 Al18 Rh6'
_cell_volume   480.43432183
_cell_formula_units_Z   1
loop_
 _symmetry_equiv_pos_site_id
 _symmetry_equiv_pos_as_xyz
  1  'x, y, z'
loop_
 _atom_site_type_symbol
 _atom_site_label
 _atom_site_symmetry_multiplicity
 _atom_site_fract_x
 _atom_site_fract_y
 _atom_site_fract_z
 _atom_site_occupancy
  Dy  Dy0  1  0.327578  0.005127  0.250000  1
  Ho  Ho1  1  0.005436  0.327541  0.250000  1
  Th  Th2  1  0.994143  0.671548  0.750000  1
  Th  Th3  1  0.671713  0.994297  0.750000  1
  Al  Al4  1  0.135003  0.135217  0.750000  1
  Al  Al5  1  0.874066  0.874102  0.250000  1
  Al  Al6  1  0.005300  0.335611  0.569089  1
  Al  Al7  1  0.000715  0.663703  0.416789  1
  Al  Al8  1  0.000715  0.663703  0.083211  1
  Al  Al9  1  0.335619  0.005275  0.930515  1
  Al  Al10  1  0.005300  0.335611  0.930911  1
  Al  Al11  1  0.664616  0.001195  0.083103  1
  Al  Al12  1  0.664616  0.001195  0.416897  1
  Al  Al13  1  0.335619  0.005275  0.569485  1
  Al  Al14  1  0.331956  0.332065  0.057547  1
  Al  Al15  1  0.663096  0.663083  0.960627  1
  Al  Al16  1  0.663096  0.663083  0.539373  1
  Al  Al17  1  0.331956  0.332065  0.442453  1
  Al  Al18  1  0.339917  0.544136  0.750000  1
  Al  Al19  1  0.658716  0.446840  0.250000  1
  Al  Al20  1  0.544040  0.340118  0.750000  1
  Al  Al21  1  0.446623  0.658954  0.250000  1
  Rh  Rh22  1  0.672877  0.328263  0.500675  1
  Rh  Rh23  1  0.328368  0.673129  0.500615  1
  Rh  Rh24  1  0.328368  0.673129  0.999385  1
  Rh  Rh25  1  0.672877  0.328263  0.999325  1
  Rh  Rh26  1  0.998835  0.998734  0.500967  1
  Rh  Rh27  1  0.998835  0.998734  0.999033  1
