# generated using pymatgen
data_TbThInPd2
_symmetry_space_group_name_H-M   'P 1'
_cell_length_a   7.90541600
_cell_length_b   7.83073400
_cell_length_c   3.78327700
_cell_angle_alpha   90.00000000
_cell_angle_beta   90.00000000
_cell_angle_gamma   90.00000000
_symmetry_Int_Tables_number   1
_chemical_formula_structural   TbThInPd2
_chemical_formula_sum   'Tb2 Th2 In2 Pd4'
_cell_volume   234.20455663
_cell_formula_units_Z   2
loop_
 _symmetry_equiv_pos_site_id
 _symmetry_equiv_pos_as_xyz
  1  'x, y, z'
loop_
 _atom_site_type_symbol
 _atom_site_label
 _atom_site_symmetry_multiplicity
 _atom_site_fract_x
 _atom_site_fract_y
 _atom_site_fract_z
 _atom_site_occupancy
  Tb  Tb0  1  0.173384  0.323453  0.500000  1
  Tb  Tb1  1  0.673384  0.176547  0.500000  1
  Th  Th2  1  0.325593  0.832002  0.500000  1
  Th  Th3  1  0.825593  0.667998  0.500000  1
  In  In4  1  0.996230  0.007912  0.000000  1
  In  In5  1  0.496230  0.492088  0.000000  1
  Pd  Pd6  1  0.373421  0.124547  0.000000  1
  Pd  Pd7  1  0.873421  0.375453  0.000000  1
  Pd  Pd8  1  0.131372  0.630487  0.000000  1
  Pd  Pd9  1  0.631372  0.869513  0.000000  1
