# generated using pymatgen
data_Eu2Si2TcOs
_symmetry_space_group_name_H-M   'P 1'
_cell_length_a   4.34330600
_cell_length_b   4.34330600
_cell_length_c   6.90832100
_cell_angle_alpha   90.00000000
_cell_angle_beta   90.00000000
_cell_angle_gamma   90.00000000
_symmetry_Int_Tables_number   1
_chemical_formula_structural   Eu2Si2TcOs
_chemical_formula_sum   'Eu2 Si2 Tc1 Os1'
_cell_volume   130.32068827
_cell_formula_units_Z   1
loop_
 _symmetry_equiv_pos_site_id
 _symmetry_equiv_pos_as_xyz
  1  'x, y, z'
loop_
 _atom_site_type_symbol
 _atom_site_label
 _atom_site_symmetry_multiplicity
 _atom_site_fract_x
 _atom_site_fract_y
 _atom_site_fract_z
 _atom_site_occupancy
  Eu  Eu0  1  0.000000  0.500000  0.322322  1
  Eu  Eu1  1  0.500000  0.000000  0.677679  1
  Si  Si2  1  0.500000  0.000000  0.163788  1
  Si  Si3  1  0.000000  0.500000  0.836212  1
  Tc  Tc4  1  0.000000  0.000000  0.000000  1
  Os  Os5  1  0.500000  0.500000  0.000000  1
