# generated using pymatgen
data_Nd2Np(SnIr)3
_symmetry_space_group_name_H-M   'P 1'
_cell_length_a   7.64639600
_cell_length_b   7.44689504
_cell_length_c   4.10140200
_cell_angle_alpha   90.00000000
_cell_angle_beta   90.00000000
_cell_angle_gamma   120.89021970
_symmetry_Int_Tables_number   1
_chemical_formula_structural   Nd2Np(SnIr)3
_chemical_formula_sum   'Nd2 Np1 Sn3 Ir3'
_cell_volume   200.41436964
_cell_formula_units_Z   1
loop_
 _symmetry_equiv_pos_site_id
 _symmetry_equiv_pos_as_xyz
  1  'x, y, z'
loop_
 _atom_site_type_symbol
 _atom_site_label
 _atom_site_symmetry_multiplicity
 _atom_site_fract_x
 _atom_site_fract_y
 _atom_site_fract_z
 _atom_site_occupancy
  Nd  Nd0  1  0.000924  0.590624  0.000000  1
  Nd  Nd1  1  0.410300  0.409376  0.000000  1
  Np  Np2  1  0.585708  0.000000  0.000000  1
  Sn  Sn3  1  0.241485  0.000000  0.500000  1
  Sn  Sn4  1  0.008276  0.261798  0.500000  1
  Sn  Sn5  1  0.746478  0.738202  0.500000  1
  Ir  Ir6  1  0.363431  0.703339  0.500000  1
  Ir  Ir7  1  0.660093  0.296661  0.500000  1
  Ir  Ir8  1  0.983305  0.000000  0.000000  1
