# generated using pymatgen
data_Tm5ThV2(Co4P3)4
_symmetry_space_group_name_H-M   'P 1'
_cell_length_a   3.67501600
_cell_length_b   10.49993800
_cell_length_c   12.15853000
_cell_angle_alpha   90.00000000
_cell_angle_beta   90.00000000
_cell_angle_gamma   90.00000000
_symmetry_Int_Tables_number   1
_chemical_formula_structural   Tm5ThV2(Co4P3)4
_chemical_formula_sum   'Tm5 Th1 V2 Co16 P12'
_cell_volume   469.16654867
_cell_formula_units_Z   1
loop_
 _symmetry_equiv_pos_site_id
 _symmetry_equiv_pos_as_xyz
  1  'x, y, z'
loop_
 _atom_site_type_symbol
 _atom_site_label
 _atom_site_symmetry_multiplicity
 _atom_site_fract_x
 _atom_site_fract_y
 _atom_site_fract_z
 _atom_site_occupancy
  Tm  Tm0  1  0.500000  0.000000  0.476568  1
  Tm  Tm1  1  0.500000  0.819094  0.204096  1
  Tm  Tm2  1  0.500000  0.180906  0.204096  1
  Tm  Tm3  1  0.000000  0.682549  0.797859  1
  Tm  Tm4  1  0.000000  0.317451  0.797859  1
  Th  Th5  1  0.000000  0.500000  0.525681  1
  V  V6  1  0.500000  0.500000  0.152027  1
  V  V7  1  0.000000  0.000000  0.845375  1
  Co  Co8  1  0.500000  0.500000  0.702308  1
  Co  Co9  1  0.000000  0.000000  0.297332  1
  Co  Co10  1  0.000000  0.500000  0.986292  1
  Co  Co11  1  0.500000  0.000000  0.013677  1
  Co  Co12  1  0.500000  0.332296  0.992652  1
  Co  Co13  1  0.500000  0.667704  0.992652  1
  Co  Co14  1  0.000000  0.167151  0.007055  1
  Co  Co15  1  0.000000  0.832849  0.007055  1
  Co  Co16  1  0.500000  0.293306  0.431309  1
  Co  Co17  1  0.500000  0.706694  0.431309  1
  Co  Co18  1  0.000000  0.200621  0.569370  1
  Co  Co19  1  0.000000  0.799379  0.569370  1
  Co  Co20  1  0.500000  0.879803  0.709466  1
  Co  Co21  1  0.500000  0.120197  0.709466  1
  Co  Co22  1  0.000000  0.622378  0.290337  1
  Co  Co23  1  0.000000  0.377622  0.290337  1
  P  P24  1  0.500000  0.500000  0.881520  1
  P  P25  1  0.000000  0.000000  0.118709  1
  P  P26  1  0.500000  0.500000  0.340386  1
  P  P27  1  0.000000  0.000000  0.651769  1
  P  P28  1  0.500000  0.305667  0.619139  1
  P  P29  1  0.500000  0.694333  0.619139  1
  P  P30  1  0.000000  0.186801  0.382993  1
  P  P31  1  0.000000  0.813199  0.382993  1
  P  P32  1  0.500000  0.845806  0.892037  1
  P  P33  1  0.500000  0.154194  0.892037  1
  P  P34  1  0.000000  0.655144  0.107864  1
  P  P35  1  0.000000  0.344856  0.107864  1
