# generated using pymatgen
data_DyEr5Lu2Re2(OsC4)2
_symmetry_space_group_name_H-M   'P 1'
_cell_length_a   5.04754400
_cell_length_b   6.50012023
_cell_length_c   9.70839821
_cell_angle_alpha   89.64549846
_cell_angle_beta   90.00000000
_cell_angle_gamma   90.00000000
_symmetry_Int_Tables_number   1
_chemical_formula_structural   DyEr5Lu2Re2(OsC4)2
_chemical_formula_sum   'Dy1 Er5 Lu2 Re2 Os2 C8'
_cell_volume   318.52298093
_cell_formula_units_Z   1
loop_
 _symmetry_equiv_pos_site_id
 _symmetry_equiv_pos_as_xyz
  1  'x, y, z'
loop_
 _atom_site_type_symbol
 _atom_site_label
 _atom_site_symmetry_multiplicity
 _atom_site_fract_x
 _atom_site_fract_y
 _atom_site_fract_z
 _atom_site_occupancy
  Dy  Dy0  1  0.250000  0.031442  0.287733  1
  Er  Er1  1  0.250000  0.676353  0.555740  1
  Er  Er2  1  0.250000  0.177133  0.943798  1
  Er  Er3  1  0.250000  0.533007  0.215207  1
  Er  Er4  1  0.750000  0.466262  0.783820  1
  Er  Er5  1  0.750000  0.968191  0.713641  1
  Lu  Lu6  1  0.750000  0.326619  0.443017  1
  Lu  Lu7  1  0.750000  0.824613  0.057475  1
  Re  Re8  1  0.250000  0.719825  0.867993  1
  Re  Re9  1  0.750000  0.279849  0.132629  1
  Os  Os10  1  0.750000  0.777633  0.366286  1
  Os  Os11  1  0.250000  0.221940  0.632756  1
  C  C12  1  0.250000  0.453813  0.760265  1
  C  C13  1  0.750000  0.546330  0.239004  1
  C  C14  1  0.750000  0.046139  0.258936  1
  C  C15  1  0.250000  0.953638  0.741455  1
  C  C16  1  0.250000  0.825317  0.054478  1
  C  C17  1  0.750000  0.171960  0.946208  1
  C  C18  1  0.750000  0.670317  0.552864  1
  C  C19  1  0.250000  0.329617  0.446693  1
