# generated using pymatgen
data_YbCe(GaIr)2
_symmetry_space_group_name_H-M   'P 1'
_cell_length_a   4.23549800
_cell_length_b   7.00432677
_cell_length_c   7.89108607
_cell_angle_alpha   91.37356223
_cell_angle_beta   90.00000000
_cell_angle_gamma   90.00000000
_symmetry_Int_Tables_number   1
_chemical_formula_structural   YbCe(GaIr)2
_chemical_formula_sum   'Yb2 Ce2 Ga4 Ir4'
_cell_volume   234.03609903
_cell_formula_units_Z   2
loop_
 _symmetry_equiv_pos_site_id
 _symmetry_equiv_pos_as_xyz
  1  'x, y, z'
loop_
 _atom_site_type_symbol
 _atom_site_label
 _atom_site_symmetry_multiplicity
 _atom_site_fract_x
 _atom_site_fract_y
 _atom_site_fract_z
 _atom_site_occupancy
  Yb  Yb0  1  0.250000  0.528657  0.186470  1
  Yb  Yb1  1  0.750000  0.471343  0.813530  1
  Ce  Ce2  1  0.750000  0.967835  0.690203  1
  Ce  Ce3  1  0.250000  0.032165  0.309797  1
  Ga  Ga4  1  0.250000  0.639505  0.567938  1
  Ga  Ga5  1  0.750000  0.360495  0.432062  1
  Ga  Ga6  1  0.750000  0.838455  0.068134  1
  Ga  Ga7  1  0.250000  0.161545  0.931866  1
  Ir  Ir8  1  0.250000  0.780528  0.880669  1
  Ir  Ir9  1  0.750000  0.219472  0.119331  1
  Ir  Ir10  1  0.750000  0.741519  0.391337  1
  Ir  Ir11  1  0.250000  0.258481  0.608663  1
