# generated using pymatgen
data_HoEr3Si6IrPd
_symmetry_space_group_name_H-M   'P 1'
_cell_length_a   8.16995200
_cell_length_b   8.16995115
_cell_length_c   7.83464600
_cell_angle_alpha   90.00000000
_cell_angle_beta   90.00000000
_cell_angle_gamma   120.00000344
_symmetry_Int_Tables_number   1
_chemical_formula_structural   HoEr3Si6IrPd
_chemical_formula_sum   'Ho2 Er6 Si12 Ir2 Pd2'
_cell_volume   452.88606677
_cell_formula_units_Z   2
loop_
 _symmetry_equiv_pos_site_id
 _symmetry_equiv_pos_as_xyz
  1  'x, y, z'
loop_
 _atom_site_type_symbol
 _atom_site_label
 _atom_site_symmetry_multiplicity
 _atom_site_fract_x
 _atom_site_fract_y
 _atom_site_fract_z
 _atom_site_occupancy
  Ho  Ho0  1  0.000000  0.000000  0.250840  1
  Ho  Ho1  1  0.000000  0.000000  0.749160  1
  Er  Er2  1  0.510878  0.021756  0.245441  1
  Er  Er3  1  0.489122  0.978244  0.754559  1
  Er  Er4  1  0.978244  0.489122  0.245441  1
  Er  Er5  1  0.021756  0.510878  0.754559  1
  Er  Er6  1  0.510878  0.489122  0.245441  1
  Er  Er7  1  0.489122  0.510878  0.754559  1
  Si  Si8  1  0.166195  0.332389  0.005070  1
  Si  Si9  1  0.833805  0.667611  0.994930  1
  Si  Si10  1  0.667611  0.833805  0.005070  1
  Si  Si11  1  0.834601  0.669203  0.498561  1
  Si  Si12  1  0.332389  0.166195  0.994930  1
  Si  Si13  1  0.165399  0.330797  0.501439  1
  Si  Si14  1  0.166195  0.833805  0.005070  1
  Si  Si15  1  0.330797  0.165399  0.498561  1
  Si  Si16  1  0.833805  0.166195  0.994930  1
  Si  Si17  1  0.669203  0.834601  0.501439  1
  Si  Si18  1  0.834601  0.165399  0.498561  1
  Si  Si19  1  0.165399  0.834601  0.501439  1
  Ir  Ir20  1  0.333333  0.666667  0.028587  1
  Ir  Ir21  1  0.666667  0.333333  0.971413  1
  Pd  Pd22  1  0.666667  0.333333  0.545269  1
  Pd  Pd23  1  0.333333  0.666667  0.454731  1
