# generated using pymatgen
data_SiIr2Se5
_symmetry_space_group_name_H-M   'P 1'
_cell_length_a   3.72457700
_cell_length_b   7.73093476
_cell_length_c   12.90973257
_cell_angle_alpha   77.20274569
_cell_angle_beta   90.00000000
_cell_angle_gamma   90.00000000
_symmetry_Int_Tables_number   1
_chemical_formula_structural   SiIr2Se5
_chemical_formula_sum   'Si2 Ir4 Se10'
_cell_volume   362.49504692
_cell_formula_units_Z   2
loop_
 _symmetry_equiv_pos_site_id
 _symmetry_equiv_pos_as_xyz
  1  'x, y, z'
loop_
 _atom_site_type_symbol
 _atom_site_label
 _atom_site_symmetry_multiplicity
 _atom_site_fract_x
 _atom_site_fract_y
 _atom_site_fract_z
 _atom_site_occupancy
  Si  Si0  1  0.500000  0.160418  0.683506  1
  Si  Si1  1  0.500000  0.839582  0.316494  1
  Ir  Ir2  1  0.000000  0.248432  0.151235  1
  Ir  Ir3  1  0.000000  0.751568  0.848765  1
  Ir  Ir4  1  0.500000  0.746916  0.152889  1
  Ir  Ir5  1  0.500000  0.253084  0.847111  1
  Se  Se6  1  0.000000  0.954688  0.103945  1
  Se  Se7  1  0.000000  0.045312  0.896055  1
  Se  Se8  1  0.000000  0.471817  0.774345  1
  Se  Se9  1  0.000000  0.528183  0.225655  1
  Se  Se10  1  0.500000  0.664219  0.974030  1
  Se  Se11  1  0.500000  0.335781  0.025970  1
  Se  Se12  1  0.500000  0.157747  0.285043  1
  Se  Se13  1  0.500000  0.842253  0.714957  1
  Se  Se14  1  0.000000  0.229284  0.568848  1
  Se  Se15  1  0.000000  0.770716  0.431152  1
