# generated using pymatgen
data_Dy6TmLu3In8
_symmetry_space_group_name_H-M   'P 1'
_cell_length_a   9.23061600
_cell_length_b   9.23061604
_cell_length_c   6.63414000
_cell_angle_alpha   90.00000000
_cell_angle_beta   90.00000000
_cell_angle_gamma   119.99999984
_symmetry_Int_Tables_number   1
_chemical_formula_structural   Dy6TmLu3In8
_chemical_formula_sum   'Dy6 Tm1 Lu3 In8'
_cell_volume   489.52698311
_cell_formula_units_Z   1
loop_
 _symmetry_equiv_pos_site_id
 _symmetry_equiv_pos_as_xyz
  1  'x, y, z'
loop_
 _atom_site_type_symbol
 _atom_site_label
 _atom_site_symmetry_multiplicity
 _atom_site_fract_x
 _atom_site_fract_y
 _atom_site_fract_z
 _atom_site_occupancy
  Dy  Dy0  1  0.289557  0.000040  0.750033  1
  Dy  Dy1  1  0.710483  0.000040  0.249967  1
  Dy  Dy2  1  0.999960  0.289517  0.750033  1
  Dy  Dy3  1  0.999960  0.710443  0.249967  1
  Dy  Dy4  1  0.710483  0.710443  0.750033  1
  Dy  Dy5  1  0.289557  0.289517  0.249967  1
  Tm  Tm6  1  0.333333  0.666667  0.500000  1
  Lu  Lu7  1  0.666667  0.333333  0.500000  1
  Lu  Lu8  1  0.666667  0.333333  0.000000  1
  Lu  Lu9  1  0.333333  0.666667  0.000000  1
  In  In10  1  0.000000  0.000000  0.500000  1
  In  In11  1  0.000000  0.000000  0.000000  1
  In  In12  1  0.627026  0.000060  0.750027  1
  In  In13  1  0.373034  0.000060  0.249973  1
  In  In14  1  0.999940  0.626966  0.750027  1
  In  In15  1  0.999940  0.372974  0.249973  1
  In  In16  1  0.373034  0.372974  0.750027  1
  In  In17  1  0.627026  0.626966  0.249973  1
