# generated using pymatgen
data_Co2CuSb12Os
_symmetry_space_group_name_H-M   'P 1'
_cell_length_a   8.02757881
_cell_length_b   8.03369205
_cell_length_c   9.30330290
_cell_angle_alpha   54.88223272
_cell_angle_beta   54.90125225
_cell_angle_gamma   70.62200219
_symmetry_Int_Tables_number   1
_chemical_formula_structural   Co2CuSb12Os
_chemical_formula_sum   'Co2 Cu1 Sb12 Os1'
_cell_volume   401.52626686
_cell_formula_units_Z   1
loop_
 _symmetry_equiv_pos_site_id
 _symmetry_equiv_pos_as_xyz
  1  'x, y, z'
loop_
 _atom_site_type_symbol
 _atom_site_label
 _atom_site_symmetry_multiplicity
 _atom_site_fract_x
 _atom_site_fract_y
 _atom_site_fract_z
 _atom_site_occupancy
  Co  Co0  1  0.500000  0.000000  0.500000  1
  Co  Co1  1  0.000000  0.500000  0.500000  1
  Cu  Cu2  1  0.500000  0.000000  0.000000  1
  Sb  Sb3  1  0.668499  0.668181  0.492600  1
  Sb  Sb4  1  0.331501  0.331819  0.507400  1
  Sb  Sb5  1  0.658672  0.656148  0.188461  1
  Sb  Sb6  1  0.341328  0.343852  0.811539  1
  Sb  Sb7  1  0.161986  0.847908  0.661232  1
  Sb  Sb8  1  0.838014  0.152092  0.338768  1
  Sb  Sb9  1  0.850201  0.165698  0.651974  1
  Sb  Sb10  1  0.149799  0.834302  0.348026  1
  Sb  Sb11  1  0.822367  0.490218  0.838275  1
  Sb  Sb12  1  0.177633  0.509782  0.161725  1
  Sb  Sb13  1  0.501861  0.182087  0.167197  1
  Sb  Sb14  1  0.498139  0.817913  0.832803  1
  Os  Os15  1  0.000000  0.500000  0.000000  1
