# generated using pymatgen
data_Tb5Pr4DySb8
_symmetry_space_group_name_H-M   'P 1'
_cell_length_a   8.17175400
_cell_length_b   8.33991400
_cell_length_c   15.72318700
_cell_angle_alpha   90.00000000
_cell_angle_beta   90.00000000
_cell_angle_gamma   90.00000000
_symmetry_Int_Tables_number   1
_chemical_formula_structural   Tb5Pr4DySb8
_chemical_formula_sum   'Tb10 Pr8 Dy2 Sb16'
_cell_volume   1071.56232581
_cell_formula_units_Z   2
loop_
 _symmetry_equiv_pos_site_id
 _symmetry_equiv_pos_as_xyz
  1  'x, y, z'
loop_
 _atom_site_type_symbol
 _atom_site_label
 _atom_site_symmetry_multiplicity
 _atom_site_fract_x
 _atom_site_fract_y
 _atom_site_fract_z
 _atom_site_occupancy
  Tb  Tb0  1  0.350553  0.849685  0.877703  1
  Tb  Tb1  1  0.850553  0.650315  0.622297  1
  Tb  Tb2  1  0.649657  0.150227  0.377455  1
  Tb  Tb3  1  0.149657  0.349773  0.122545  1
  Tb  Tb4  1  0.649657  0.150227  0.122545  1
  Tb  Tb5  1  0.149657  0.349773  0.377455  1
  Tb  Tb6  1  0.350553  0.849685  0.622297  1
  Tb  Tb7  1  0.850553  0.650315  0.877703  1
  Tb  Tb8  1  0.191056  0.497535  0.750000  1
  Tb  Tb9  1  0.691056  0.002465  0.750000  1
  Pr  Pr10  1  0.519764  0.319690  0.906237  1
  Pr  Pr11  1  0.019764  0.180310  0.593763  1
  Pr  Pr12  1  0.480075  0.680035  0.406089  1
  Pr  Pr13  1  0.980075  0.819965  0.093911  1
  Pr  Pr14  1  0.480075  0.680035  0.093911  1
  Pr  Pr15  1  0.980075  0.819965  0.406089  1
  Pr  Pr16  1  0.519764  0.319690  0.593763  1
  Pr  Pr17  1  0.019764  0.180310  0.906237  1
  Dy  Dy18  1  0.808983  0.502672  0.250000  1
  Dy  Dy19  1  0.308983  0.997328  0.250000  1
  Sb  Sb20  1  0.295371  0.040741  0.046930  1
  Sb  Sb21  1  0.795371  0.459259  0.453070  1
  Sb  Sb22  1  0.704729  0.959175  0.546529  1
  Sb  Sb23  1  0.204729  0.540825  0.953471  1
  Sb  Sb24  1  0.704729  0.959175  0.953471  1
  Sb  Sb25  1  0.204729  0.540825  0.546529  1
  Sb  Sb26  1  0.295371  0.040741  0.453070  1
  Sb  Sb27  1  0.795371  0.459259  0.046930  1
  Sb  Sb28  1  0.549614  0.637678  0.750000  1
  Sb  Sb29  1  0.049614  0.862322  0.750000  1
  Sb  Sb30  1  0.450853  0.362007  0.250000  1
  Sb  Sb31  1  0.950853  0.137993  0.250000  1
  Sb  Sb32  1  0.337361  0.150971  0.750000  1
  Sb  Sb33  1  0.837361  0.349029  0.750000  1
  Sb  Sb34  1  0.661835  0.848545  0.250000  1
  Sb  Sb35  1  0.161835  0.651455  0.250000  1
