# generated using pymatgen
data_Y4Al19Rh5
_symmetry_space_group_name_H-M   'P 1'
_cell_length_a   7.59113505
_cell_length_b   7.59112654
_cell_length_c   9.48271654
_cell_angle_alpha   89.84132574
_cell_angle_beta   89.84129294
_cell_angle_gamma   119.13667535
_symmetry_Int_Tables_number   1
_chemical_formula_structural   Y4Al19Rh5
_chemical_formula_sum   'Y4 Al19 Rh5'
_cell_volume   477.29030466
_cell_formula_units_Z   1
loop_
 _symmetry_equiv_pos_site_id
 _symmetry_equiv_pos_as_xyz
  1  'x, y, z'
loop_
 _atom_site_type_symbol
 _atom_site_label
 _atom_site_symmetry_multiplicity
 _atom_site_fract_x
 _atom_site_fract_y
 _atom_site_fract_z
 _atom_site_occupancy
  Y  Y0  1  0.995262  0.681052  0.247534  1
  Y  Y1  1  0.004738  0.318948  0.752466  1
  Y  Y2  1  0.681053  0.995262  0.247533  1
  Y  Y3  1  0.318947  0.004738  0.752467  1
  Al  Al4  1  0.140712  0.140711  0.261087  1
  Al  Al5  1  0.859288  0.859289  0.738913  1
  Al  Al6  1  0.004352  0.349898  0.081647  1
  Al  Al7  1  0.995648  0.650102  0.918353  1
  Al  Al8  1  0.001130  0.662937  0.570775  1
  Al  Al9  1  0.337063  0.998871  0.429225  1
  Al  Al10  1  0.998870  0.337063  0.429225  1
  Al  Al11  1  0.662937  0.001129  0.570775  1
  Al  Al12  1  0.650101  0.995648  0.918352  1
  Al  Al13  1  0.349899  0.004352  0.081648  1
  Al  Al14  1  0.332249  0.332249  0.548371  1
  Al  Al15  1  0.667751  0.667751  0.451629  1
  Al  Al16  1  0.653534  0.653533  0.060784  1
  Al  Al17  1  0.346466  0.346467  0.939216  1
  Al  Al18  1  0.339007  0.554595  0.252779  1
  Al  Al19  1  0.660993  0.445405  0.747221  1
  Al  Al20  1  0.554595  0.339006  0.252779  1
  Al  Al21  1  0.445405  0.660994  0.747221  1
  Al  Al22  1  0.000000  0.000000  0.000000  1
  Rh  Rh23  1  0.672290  0.327710  0.000001  1
  Rh  Rh24  1  0.327710  0.672290  0.999999  1
  Rh  Rh25  1  0.328494  0.671507  0.500000  1
  Rh  Rh26  1  0.671506  0.328493  0.500000  1
  Rh  Rh27  1  0.000000  0.000000  0.500000  1
