# generated using pymatgen
data_Gd3Tm(Rh2O7)2
_symmetry_space_group_name_H-M   'P 1'
_cell_length_a   7.25597417
_cell_length_b   7.25898960
_cell_length_c   7.25898900
_cell_angle_alpha   59.99999819
_cell_angle_beta   59.98624997
_cell_angle_gamma   59.98625000
_symmetry_Int_Tables_number   1
_chemical_formula_structural   Gd3Tm(Rh2O7)2
_chemical_formula_sum   'Gd3 Tm1 Rh4 O14'
_cell_volume   270.29794597
_cell_formula_units_Z   1
loop_
 _symmetry_equiv_pos_site_id
 _symmetry_equiv_pos_as_xyz
  1  'x, y, z'
loop_
 _atom_site_type_symbol
 _atom_site_label
 _atom_site_symmetry_multiplicity
 _atom_site_fract_x
 _atom_site_fract_y
 _atom_site_fract_z
 _atom_site_occupancy
  Gd  Gd0  1  0.125000  0.125000  0.125000  1
  Gd  Gd1  1  0.125000  0.625000  0.125000  1
  Gd  Gd2  1  0.125000  0.125000  0.625000  1
  Tm  Tm3  1  0.625000  0.125000  0.125000  1
  Rh  Rh4  1  0.625000  0.625000  0.125000  1
  Rh  Rh5  1  0.625000  0.625000  0.625000  1
  Rh  Rh6  1  0.625000  0.125000  0.625000  1
  Rh  Rh7  1  0.125000  0.625000  0.625000  1
  O  O8  1  0.706785  0.288723  0.288723  1
  O  O9  1  0.706785  0.715769  0.288723  1
  O  O10  1  0.289895  0.710524  0.289058  1
  O  O11  1  0.991918  0.002694  0.002694  1
  O  O12  1  0.706785  0.288723  0.715769  1
  O  O13  1  0.960105  0.539476  0.539476  1
  O  O14  1  0.289895  0.710524  0.710524  1
  O  O15  1  0.543215  0.961277  0.534231  1
  O  O16  1  0.258082  0.247306  0.247306  1
  O  O17  1  0.960105  0.539476  0.960942  1
  O  O18  1  0.543215  0.534231  0.961277  1
  O  O19  1  0.960105  0.960942  0.539476  1
  O  O20  1  0.543215  0.961277  0.961277  1
  O  O21  1  0.289895  0.289058  0.710524  1
