# generated using pymatgen
data_Ho5Er15(Bi2P)4
_symmetry_space_group_name_H-M   'P 1'
_cell_length_a   7.92622904
_cell_length_b   8.93478810
_cell_length_c   12.05960118
_cell_angle_alpha   90.01658508
_cell_angle_beta   90.01039002
_cell_angle_gamma   90.00369662
_symmetry_Int_Tables_number   1
_chemical_formula_structural   Ho5Er15(Bi2P)4
_chemical_formula_sum   'Ho5 Er15 Bi8 P4'
_cell_volume   854.05097695
_cell_formula_units_Z   1
loop_
 _symmetry_equiv_pos_site_id
 _symmetry_equiv_pos_as_xyz
  1  'x, y, z'
loop_
 _atom_site_type_symbol
 _atom_site_label
 _atom_site_symmetry_multiplicity
 _atom_site_fract_x
 _atom_site_fract_y
 _atom_site_fract_z
 _atom_site_occupancy
  Ho  Ho0  1  0.317089  0.550792  0.435953  1
  Ho  Ho1  1  0.816946  0.050518  0.064097  1
  Ho  Ho2  1  0.682926  0.449239  0.564070  1
  Ho  Ho3  1  0.817043  0.449397  0.064076  1
  Ho  Ho4  1  0.183016  0.550751  0.935948  1
  Er  Er5  1  0.850286  0.750067  0.794345  1
  Er  Er6  1  0.149705  0.249987  0.205666  1
  Er  Er7  1  0.350305  0.249945  0.705629  1
  Er  Er8  1  0.649694  0.750043  0.294391  1
  Er  Er9  1  0.376245  0.750060  0.699663  1
  Er  Er10  1  0.623727  0.250008  0.300391  1
  Er  Er11  1  0.876261  0.249969  0.800281  1
  Er  Er12  1  0.123772  0.750058  0.199705  1
  Er  Er13  1  0.958215  0.750054  0.501807  1
  Er  Er14  1  0.041786  0.249957  0.498218  1
  Er  Er15  1  0.458120  0.249945  0.998158  1
  Er  Er16  1  0.541757  0.750048  0.001795  1
  Er  Er17  1  0.682448  0.050725  0.564032  1
  Er  Er18  1  0.317530  0.949261  0.435978  1
  Er  Er19  1  0.182453  0.949298  0.935945  1
  Bi  Bi20  1  0.577178  0.490368  0.826717  1
  Bi  Bi21  1  0.422808  0.509671  0.173255  1
  Bi  Bi22  1  0.077177  0.509675  0.673233  1
  Bi  Bi23  1  0.422755  0.990369  0.173336  1
  Bi  Bi24  1  0.922857  0.490336  0.326761  1
  Bi  Bi25  1  0.577216  0.009669  0.826628  1
  Bi  Bi26  1  0.922926  0.009657  0.326882  1
  Bi  Bi27  1  0.077187  0.990347  0.673234  1
  P  P28  1  0.575535  0.750798  0.512798  1
  P  P29  1  0.424482  0.249185  0.487217  1
  P  P30  1  0.075774  0.249507  0.987133  1
  P  P31  1  0.924782  0.750300  0.012658  1
