# generated using pymatgen
data_TiNb5Co2(BRu2)4
_symmetry_space_group_name_H-M   'P 1'
_cell_length_a   9.25534100
_cell_length_b   9.25534100
_cell_length_c   3.02261800
_cell_angle_alpha   90.00000000
_cell_angle_beta   90.00000000
_cell_angle_gamma   90.00000000
_symmetry_Int_Tables_number   1
_chemical_formula_structural   TiNb5Co2(BRu2)4
_chemical_formula_sum   'Ti1 Nb5 Co2 B4 Ru8'
_cell_volume   258.92149920
_cell_formula_units_Z   1
loop_
 _symmetry_equiv_pos_site_id
 _symmetry_equiv_pos_as_xyz
  1  'x, y, z'
loop_
 _atom_site_type_symbol
 _atom_site_label
 _atom_site_symmetry_multiplicity
 _atom_site_fract_x
 _atom_site_fract_y
 _atom_site_fract_z
 _atom_site_occupancy
  Ti  Ti0  1  0.500000  0.500000  0.000000  1
  Nb  Nb1  1  0.822936  0.674107  0.000000  1
  Nb  Nb2  1  0.177064  0.325893  0.000000  1
  Nb  Nb3  1  0.325893  0.822936  0.000000  1
  Nb  Nb4  1  0.674107  0.177064  0.000000  1
  Nb  Nb5  1  0.000000  0.000000  0.000000  1
  Co  Co6  1  0.500000  0.000000  0.500000  1
  Co  Co7  1  0.000000  0.500000  0.500000  1
  B  B8  1  0.607645  0.886682  0.000000  1
  B  B9  1  0.392355  0.113318  0.000000  1
  B  B10  1  0.113318  0.607645  0.000000  1
  B  B11  1  0.886682  0.392355  0.000000  1
  Ru  Ru12  1  0.564919  0.721630  0.500000  1
  Ru  Ru13  1  0.435081  0.278370  0.500000  1
  Ru  Ru14  1  0.065425  0.774511  0.500000  1
  Ru  Ru15  1  0.934575  0.225489  0.500000  1
  Ru  Ru16  1  0.278370  0.564919  0.500000  1
  Ru  Ru17  1  0.721630  0.435081  0.500000  1
  Ru  Ru18  1  0.225489  0.065425  0.500000  1
  Ru  Ru19  1  0.774511  0.934575  0.500000  1
