# generated using pymatgen
data_Sm5EuCd23Sn
_symmetry_space_group_name_H-M   'P 1'
_cell_length_a   10.12811086
_cell_length_b   10.12811118
_cell_length_c   10.11804600
_cell_angle_alpha   60.03286876
_cell_angle_beta   60.03286770
_cell_angle_gamma   59.93426153
_symmetry_Int_Tables_number   1
_chemical_formula_structural   Sm5EuCd23Sn
_chemical_formula_sum   'Sm5 Eu1 Cd23 Sn1'
_cell_volume   733.90136366
_cell_formula_units_Z   1
loop_
 _symmetry_equiv_pos_site_id
 _symmetry_equiv_pos_as_xyz
  1  'x, y, z'
loop_
 _atom_site_type_symbol
 _atom_site_label
 _atom_site_symmetry_multiplicity
 _atom_site_fract_x
 _atom_site_fract_y
 _atom_site_fract_z
 _atom_site_occupancy
  Sm  Sm0  1  0.219524  0.780293  0.219707  1
  Sm  Sm1  1  0.780293  0.219524  0.219707  1
  Sm  Sm2  1  0.220978  0.220978  0.779022  1
  Sm  Sm3  1  0.780293  0.219524  0.780476  1
  Sm  Sm4  1  0.219524  0.780293  0.780476  1
  Eu  Eu5  1  0.779016  0.779016  0.220984  1
  Cd  Cd6  1  0.841152  0.841152  0.478378  1
  Cd  Cd7  1  0.841928  0.475892  0.841090  1
  Cd  Cd8  1  0.475892  0.841928  0.841090  1
  Cd  Cd9  1  0.841152  0.841152  0.839318  1
  Cd  Cd10  1  0.158910  0.158910  0.524108  1
  Cd  Cd11  1  0.160682  0.521622  0.158848  1
  Cd  Cd12  1  0.521622  0.160682  0.158848  1
  Cd  Cd13  1  0.158910  0.158910  0.158072  1
  Cd  Cd14  1  0.623889  0.623889  0.125378  1
  Cd  Cd15  1  0.623597  0.126912  0.624745  1
  Cd  Cd16  1  0.126912  0.623597  0.624745  1
  Cd  Cd17  1  0.623889  0.623889  0.626843  1
  Cd  Cd18  1  0.375255  0.375255  0.873088  1
  Cd  Cd19  1  0.373157  0.874622  0.376111  1
  Cd  Cd20  1  0.874622  0.373157  0.376111  1
  Cd  Cd21  1  0.375255  0.375255  0.376403  1
  Cd  Cd22  1  0.000349  0.000349  0.499651  1
  Cd  Cd23  1  0.499199  0.000997  0.500801  1
  Cd  Cd24  1  0.000997  0.499199  0.500801  1
  Cd  Cd25  1  0.500349  0.500349  0.999651  1
  Cd  Cd26  1  0.000997  0.499199  0.999003  1
  Cd  Cd27  1  0.499199  0.000997  0.999003  1
  Cd  Cd28  1  0.500390  0.500390  0.499610  1
  Sn  Sn29  1  0.002066  0.002066  0.997934  1
