# generated using pymatgen
data_CaPrNd6(ReC2)4
_symmetry_space_group_name_H-M   'P 1'
_cell_length_a   5.34808500
_cell_length_b   6.69621807
_cell_length_c   10.28900460
_cell_angle_alpha   90.30601595
_cell_angle_beta   90.00000000
_cell_angle_gamma   90.00000000
_symmetry_Int_Tables_number   1
_chemical_formula_structural   CaPrNd6(ReC2)4
_chemical_formula_sum   'Ca1 Pr1 Nd6 Re4 C8'
_cell_volume   368.46399508
_cell_formula_units_Z   1
loop_
 _symmetry_equiv_pos_site_id
 _symmetry_equiv_pos_as_xyz
  1  'x, y, z'
loop_
 _atom_site_type_symbol
 _atom_site_label
 _atom_site_symmetry_multiplicity
 _atom_site_fract_x
 _atom_site_fract_y
 _atom_site_fract_z
 _atom_site_occupancy
  Ca  Ca0  1  0.250000  0.470455  0.779438  1
  Pr  Pr1  1  0.250000  0.973174  0.717618  1
  Nd  Nd2  1  0.750000  0.028862  0.285993  1
  Nd  Nd3  1  0.750000  0.528533  0.216697  1
  Nd  Nd4  1  0.250000  0.809324  0.049580  1
  Nd  Nd5  1  0.750000  0.689128  0.552289  1
  Nd  Nd6  1  0.250000  0.312718  0.450056  1
  Nd  Nd7  1  0.750000  0.193635  0.948037  1
  Re  Re8  1  0.250000  0.268625  0.143681  1
  Re  Re9  1  0.750000  0.228438  0.642358  1
  Re  Re10  1  0.250000  0.770837  0.356102  1
  Re  Re11  1  0.750000  0.729211  0.857312  1
  C  C12  1  0.250000  0.692158  0.533862  1
  C  C13  1  0.750000  0.807447  0.036455  1
  C  C14  1  0.250000  0.186087  0.965657  1
  C  C15  1  0.750000  0.313999  0.464214  1
  C  C16  1  0.250000  0.034327  0.258363  1
  C  C17  1  0.750000  0.465026  0.758081  1
  C  C18  1  0.250000  0.533181  0.241477  1
  C  C19  1  0.750000  0.964836  0.742730  1
