# generated using pymatgen
data_Cs5Rb9Nb2(Tl3P5)2
_symmetry_space_group_name_H-M   'P 1'
_cell_length_a   8.56249708
_cell_length_b   9.61385399
_cell_length_c   14.51891954
_cell_angle_alpha   85.16695654
_cell_angle_beta   84.75298991
_cell_angle_gamma   86.94246825
_symmetry_Int_Tables_number   1
_chemical_formula_structural   Cs5Rb9Nb2(Tl3P5)2
_chemical_formula_sum   'Cs5 Rb9 Nb2 Tl6 P10'
_cell_volume   1184.68240535
_cell_formula_units_Z   1
loop_
 _symmetry_equiv_pos_site_id
 _symmetry_equiv_pos_as_xyz
  1  'x, y, z'
loop_
 _atom_site_type_symbol
 _atom_site_label
 _atom_site_symmetry_multiplicity
 _atom_site_fract_x
 _atom_site_fract_y
 _atom_site_fract_z
 _atom_site_occupancy
  Cs  Cs0  1  0.323899  0.341822  0.596065  1
  Cs  Cs1  1  0.168294  0.639122  0.348154  1
  Cs  Cs2  1  0.180824  0.191812  0.868896  1
  Cs  Cs3  1  0.319674  0.920225  0.111372  1
  Cs  Cs4  1  0.677916  0.656407  0.404870  1
  Rb  Rb5  1  0.838680  0.359565  0.657475  1
  Rb  Rb6  1  0.816896  0.804084  0.138825  1
  Rb  Rb7  1  0.235659  0.005015  0.469624  1
  Rb  Rb8  1  0.269781  0.255671  0.251110  1
  Rb  Rb9  1  0.736957  0.499980  0.973516  1
  Rb  Rb10  1  0.264439  0.501649  0.025298  1
  Rb  Rb11  1  0.677407  0.086412  0.886219  1
  Rb  Rb12  1  0.760730  0.996607  0.531437  1
  Rb  Rb13  1  0.729946  0.744552  0.748767  1
  Nb  Nb14  1  0.355377  0.606123  0.773997  1
  Nb  Nb15  1  0.647854  0.393717  0.223254  1
  Tl  Tl16  1  0.053551  0.815303  0.874325  1
  Tl  Tl17  1  0.945445  0.181799  0.126535  1
  Tl  Tl18  1  0.368481  0.957476  0.701252  1
  Tl  Tl19  1  0.085070  0.718433  0.619858  1
  Tl  Tl20  1  0.910799  0.280480  0.381026  1
  Tl  Tl21  1  0.629779  0.042094  0.297600  1
  P  P22  1  0.921824  0.451218  0.207109  1
  P  P23  1  0.616003  0.205651  0.122300  1
  P  P24  1  0.081313  0.547744  0.792537  1
  P  P25  1  0.580440  0.300437  0.383932  1
  P  P26  1  0.414990  0.702353  0.613212  1
  P  P27  1  0.022241  0.999502  0.699457  1
  P  P28  1  0.515807  0.405821  0.808359  1
  P  P29  1  0.492480  0.595189  0.186367  1
  P  P30  1  0.385601  0.794051  0.874752  1
  P  P31  1  0.971838  0.999688  0.302502  1
