# generated using pymatgen
data_NpI4
_symmetry_space_group_name_H-M   'P 1'
_cell_length_a   8.28757141
_cell_length_b   8.28757235
_cell_length_c   7.31670442
_cell_angle_alpha   67.68469993
_cell_angle_beta   67.68469601
_cell_angle_gamma   31.41743367
_symmetry_Int_Tables_number   1
_chemical_formula_structural   NpI4
_chemical_formula_sum   'Np1 I4'
_cell_volume   240.71978060
_cell_formula_units_Z   1
loop_
 _symmetry_equiv_pos_site_id
 _symmetry_equiv_pos_as_xyz
  1  'x, y, z'
loop_
 _atom_site_type_symbol
 _atom_site_label
 _atom_site_symmetry_multiplicity
 _atom_site_fract_x
 _atom_site_fract_y
 _atom_site_fract_z
 _atom_site_occupancy
  Np  Np0  1  0.000000  0.000000  0.000000  1
  I  I1  1  0.127157  0.127157  0.193496  1
  I  I2  1  0.614601  0.614601  0.723027  1
  I  I3  1  0.872843  0.872843  0.806504  1
  I  I4  1  0.385399  0.385399  0.276973  1
