# generated using pymatgen
data_Dy3AlCo2Si
_symmetry_space_group_name_H-M   'P 1'
_cell_length_a   5.54106100
_cell_length_b   5.54105968
_cell_length_c   12.97060300
_cell_angle_alpha   90.00000000
_cell_angle_beta   90.00000000
_cell_angle_gamma   135.44254873
_symmetry_Int_Tables_number   1
_chemical_formula_structural   Dy3AlCo2Si
_chemical_formula_sum   'Dy6 Al2 Co4 Si2'
_cell_volume   279.41545408
_cell_formula_units_Z   2
loop_
 _symmetry_equiv_pos_site_id
 _symmetry_equiv_pos_as_xyz
  1  'x, y, z'
loop_
 _atom_site_type_symbol
 _atom_site_label
 _atom_site_symmetry_multiplicity
 _atom_site_fract_x
 _atom_site_fract_y
 _atom_site_fract_z
 _atom_site_occupancy
  Dy  Dy0  1  0.010631  0.989369  0.250000  1
  Dy  Dy1  1  0.989369  0.010631  0.750000  1
  Dy  Dy2  1  0.708825  0.291175  0.602314  1
  Dy  Dy3  1  0.291175  0.708825  0.397686  1
  Dy  Dy4  1  0.291175  0.708825  0.102314  1
  Dy  Dy5  1  0.708825  0.291175  0.897686  1
  Al  Al6  1  0.000000  0.000000  0.000000  1
  Al  Al7  1  0.000000  0.000000  0.500000  1
  Co  Co8  1  0.423827  0.576173  0.589848  1
  Co  Co9  1  0.576173  0.423827  0.410152  1
  Co  Co10  1  0.576173  0.423827  0.089848  1
  Co  Co11  1  0.423827  0.576173  0.910152  1
  Si  Si12  1  0.705718  0.294282  0.250000  1
  Si  Si13  1  0.294282  0.705718  0.750000  1
