# generated using pymatgen
data_MnCdSiO4
_symmetry_space_group_name_H-M   'P 1'
_cell_length_a   4.99373200
_cell_length_b   6.48813300
_cell_length_c   11.21190100
_cell_angle_alpha   90.00000000
_cell_angle_beta   90.00000000
_cell_angle_gamma   90.00000000
_symmetry_Int_Tables_number   1
_chemical_formula_structural   MnCdSiO4
_chemical_formula_sum   'Mn4 Cd4 Si4 O16'
_cell_volume   363.26556305
_cell_formula_units_Z   4
loop_
 _symmetry_equiv_pos_site_id
 _symmetry_equiv_pos_as_xyz
  1  'x, y, z'
loop_
 _atom_site_type_symbol
 _atom_site_label
 _atom_site_symmetry_multiplicity
 _atom_site_fract_x
 _atom_site_fract_y
 _atom_site_fract_z
 _atom_site_occupancy
  Mn  Mn0  1  0.500000  0.500000  0.500000  1
  Mn  Mn1  1  0.000000  0.500000  0.000000  1
  Mn  Mn2  1  0.500000  0.000000  0.500000  1
  Mn  Mn3  1  0.000000  0.000000  0.000000  1
  Cd  Cd4  1  0.018109  0.750000  0.720690  1
  Cd  Cd5  1  0.981891  0.250000  0.279310  1
  Cd  Cd6  1  0.518109  0.250000  0.779310  1
  Cd  Cd7  1  0.481891  0.750000  0.220690  1
  Si  Si8  1  0.578597  0.750000  0.908907  1
  Si  Si9  1  0.421403  0.250000  0.091093  1
  Si  Si10  1  0.078597  0.250000  0.591093  1
  Si  Si11  1  0.921403  0.750000  0.408907  1
  O  O12  1  0.717006  0.545655  0.843740  1
  O  O13  1  0.282994  0.454345  0.156260  1
  O  O14  1  0.217006  0.454345  0.656260  1
  O  O15  1  0.282994  0.045655  0.156260  1
  O  O16  1  0.782994  0.545655  0.343740  1
  O  O17  1  0.717006  0.954345  0.843740  1
  O  O18  1  0.782994  0.954345  0.343740  1
  O  O19  1  0.217006  0.045655  0.656260  1
  O  O20  1  0.777347  0.750000  0.544219  1
  O  O21  1  0.222653  0.250000  0.455781  1
  O  O22  1  0.277347  0.250000  0.955781  1
  O  O23  1  0.722653  0.750000  0.044219  1
  O  O24  1  0.250557  0.750000  0.913213  1
  O  O25  1  0.749443  0.250000  0.086787  1
  O  O26  1  0.750557  0.250000  0.586787  1
  O  O27  1  0.249443  0.750000  0.413213  1
