# generated using pymatgen
data_Sm3Ho3CoBr10
_symmetry_space_group_name_H-M   'P 1'
_cell_length_a   7.40914945
_cell_length_b   9.22285031
_cell_length_c   9.37065128
_cell_angle_alpha   107.94813108
_cell_angle_beta   96.34555210
_cell_angle_gamma   104.41219814
_symmetry_Int_Tables_number   1
_chemical_formula_structural   Sm3Ho3CoBr10
_chemical_formula_sum   'Sm3 Ho3 Co1 Br10'
_cell_volume   577.68936259
_cell_formula_units_Z   1
loop_
 _symmetry_equiv_pos_site_id
 _symmetry_equiv_pos_as_xyz
  1  'x, y, z'
loop_
 _atom_site_type_symbol
 _atom_site_label
 _atom_site_symmetry_multiplicity
 _atom_site_fract_x
 _atom_site_fract_y
 _atom_site_fract_z
 _atom_site_occupancy
  Sm  Sm0  1  0.034721  0.715750  0.409819  1
  Sm  Sm1  1  0.965282  0.283676  0.586520  1
  Sm  Sm2  1  0.873698  0.951379  0.746225  1
  Ho  Ho3  1  0.124222  0.047537  0.260164  1
  Ho  Ho4  1  0.350007  0.127931  0.673347  1
  Ho  Ho5  1  0.650020  0.872638  0.327257  1
  Co  Co6  1  0.999979  0.999503  0.500068  1
  Br  Br7  1  0.452725  0.821788  0.581950  1
  Br  Br8  1  0.542309  0.176480  0.415488  1
  Br  Br9  1  0.912635  0.627256  0.670454  1
  Br  Br10  1  0.089832  0.365396  0.323426  1
  Br  Br11  1  0.250057  0.083615  0.954403  1
  Br  Br12  1  0.757531  0.919589  0.053808  1
  Br  Br13  1  0.346709  0.443235  0.768968  1
  Br  Br14  1  0.651647  0.556965  0.230023  1
  Br  Br15  1  0.766991  0.250217  0.841109  1
  Br  Br16  1  0.231633  0.757043  0.156968  1
