# generated using pymatgen
data_Tb10InBi3Pb2
_symmetry_space_group_name_H-M   'P 1'
_cell_length_a   9.16509445
_cell_length_b   9.17190230
_cell_length_c   6.55468100
_cell_angle_alpha   90.00000000
_cell_angle_beta   90.00000000
_cell_angle_gamma   120.08879190
_symmetry_Int_Tables_number   1
_chemical_formula_structural   Tb10InBi3Pb2
_chemical_formula_sum   'Tb10 In1 Bi3 Pb2'
_cell_volume   476.74844647
_cell_formula_units_Z   1
loop_
 _symmetry_equiv_pos_site_id
 _symmetry_equiv_pos_as_xyz
  1  'x, y, z'
loop_
 _atom_site_type_symbol
 _atom_site_label
 _atom_site_symmetry_multiplicity
 _atom_site_fract_x
 _atom_site_fract_y
 _atom_site_fract_z
 _atom_site_occupancy
  Tb  Tb0  1  0.663582  0.335951  0.999861  1
  Tb  Tb1  1  0.339749  0.666419  0.999850  1
  Tb  Tb2  1  0.339749  0.666419  0.500150  1
  Tb  Tb3  1  0.663582  0.335951  0.500139  1
  Tb  Tb4  1  0.758479  0.762172  0.750000  1
  Tb  Tb5  1  0.242426  0.004615  0.750000  1
  Tb  Tb6  1  0.000926  0.238341  0.750000  1
  Tb  Tb7  1  0.242022  0.241159  0.250000  1
  Tb  Tb8  1  0.758866  0.991879  0.250000  1
  Tb  Tb9  1  0.992810  0.758406  0.250000  1
  In  In10  1  0.603706  0.602596  0.250000  1
  Bi  Bi11  1  0.002516  0.609287  0.750000  1
  Bi  Bi12  1  0.391137  0.997828  0.250000  1
  Bi  Bi13  1  0.998547  0.391153  0.250000  1
  Pb  Pb14  1  0.394119  0.394575  0.750000  1
  Pb  Pb15  1  0.607783  0.003247  0.750000  1
