# generated using pymatgen
data_YbErB4Ir5
_symmetry_space_group_name_H-M   'P 1'
_cell_length_a   7.49680724
_cell_length_b   6.33070036
_cell_length_c   5.59554618
_cell_angle_alpha   77.62290036
_cell_angle_beta   55.57086998
_cell_angle_gamma   46.80622333
_symmetry_Int_Tables_number   1
_chemical_formula_structural   YbErB4Ir5
_chemical_formula_sum   'Yb1 Er1 B4 Ir5'
_cell_volume   152.97003388
_cell_formula_units_Z   1
loop_
 _symmetry_equiv_pos_site_id
 _symmetry_equiv_pos_as_xyz
  1  'x, y, z'
loop_
 _atom_site_type_symbol
 _atom_site_label
 _atom_site_symmetry_multiplicity
 _atom_site_fract_x
 _atom_site_fract_y
 _atom_site_fract_z
 _atom_site_occupancy
  Yb  Yb0  1  0.641358  0.641357  0.358642  1
  Er  Er1  1  0.364435  0.364434  0.635565  1
  B  B2  1  0.287777  0.974734  0.025265  1
  B  B3  1  0.024252  0.709997  0.290001  1
  B  B4  1  0.974735  0.287775  0.712223  1
  B  B5  1  0.709999  0.024251  0.975748  1
  Ir  Ir6  1  0.997491  0.997491  0.002509  1
  Ir  Ir7  1  0.500256  0.500257  0.999743  1
  Ir  Ir8  1  0.249722  0.249723  0.250278  1
  Ir  Ir9  1  0.000257  0.000257  0.499744  1
  Ir  Ir10  1  0.749723  0.749722  0.750278  1
