# generated using pymatgen
data_YEr2ThCdIr
_symmetry_space_group_name_H-M   'P 1'
_cell_length_a   9.72476652
_cell_length_b   9.72239587
_cell_length_c   9.72239629
_cell_angle_alpha   60.01613525
_cell_angle_beta   59.99193466
_cell_angle_gamma   59.99193626
_symmetry_Int_Tables_number   1
_chemical_formula_structural   YEr2ThCdIr
_chemical_formula_sum   'Y4 Er8 Th4 Cd4 Ir4'
_cell_volume   649.99613388
_cell_formula_units_Z   4
loop_
 _symmetry_equiv_pos_site_id
 _symmetry_equiv_pos_as_xyz
  1  'x, y, z'
loop_
 _atom_site_type_symbol
 _atom_site_label
 _atom_site_symmetry_multiplicity
 _atom_site_fract_x
 _atom_site_fract_y
 _atom_site_fract_z
 _atom_site_occupancy
  Y  Y0  1  0.564276  0.935724  0.564276  1
  Y  Y1  1  0.935724  0.564276  0.935724  1
  Y  Y2  1  0.564276  0.564276  0.935724  1
  Y  Y3  1  0.935724  0.935724  0.564276  1
  Er  Er4  1  0.812591  0.187409  0.187409  1
  Er  Er5  1  0.187409  0.812591  0.812591  1
  Er  Er6  1  0.187451  0.812549  0.187451  1
  Er  Er7  1  0.812549  0.187451  0.812549  1
  Er  Er8  1  0.187451  0.187451  0.812549  1
  Er  Er9  1  0.812549  0.812549  0.187451  1
  Er  Er10  1  0.936275  0.563725  0.563725  1
  Er  Er11  1  0.563725  0.936275  0.936275  1
  Th  Th12  1  0.349563  0.350031  0.350031  1
  Th  Th13  1  0.350031  0.349563  0.950374  1
  Th  Th14  1  0.350031  0.950374  0.349563  1
  Th  Th15  1  0.950374  0.350031  0.350031  1
  Cd  Cd16  1  0.582989  0.582679  0.582679  1
  Cd  Cd17  1  0.582679  0.582989  0.251654  1
  Cd  Cd18  1  0.582679  0.251654  0.582989  1
  Cd  Cd19  1  0.251654  0.582679  0.582679  1
  Ir  Ir20  1  0.143117  0.142784  0.142784  1
  Ir  Ir21  1  0.142784  0.143117  0.571314  1
  Ir  Ir22  1  0.142784  0.571314  0.143117  1
  Ir  Ir23  1  0.571314  0.142784  0.142784  1
