# generated using pymatgen
data_YbDy2Pa(Ga3Ir)6
_symmetry_space_group_name_H-M   'P 1'
_cell_length_a   7.61152010
_cell_length_b   7.60374811
_cell_length_c   9.46761200
_cell_angle_alpha   90.00000000
_cell_angle_beta   90.00000000
_cell_angle_gamma   119.78111679
_symmetry_Int_Tables_number   1
_chemical_formula_structural   YbDy2Pa(Ga3Ir)6
_chemical_formula_sum   'Yb1 Dy2 Pa1 Ga18 Ir6'
_cell_volume   475.58031395
_cell_formula_units_Z   1
loop_
 _symmetry_equiv_pos_site_id
 _symmetry_equiv_pos_as_xyz
  1  'x, y, z'
loop_
 _atom_site_type_symbol
 _atom_site_label
 _atom_site_symmetry_multiplicity
 _atom_site_fract_x
 _atom_site_fract_y
 _atom_site_fract_z
 _atom_site_occupancy
  Yb  Yb0  1  0.670433  0.996956  0.250000  1
  Dy  Dy1  1  0.002132  0.331492  0.750000  1
  Dy  Dy2  1  0.330612  0.002519  0.750000  1
  Pa  Pa3  1  0.998841  0.669833  0.250000  1
  Ga  Ga4  1  0.130540  0.129388  0.250000  1
  Ga  Ga5  1  0.871912  0.874942  0.750000  1
  Ga  Ga6  1  0.997007  0.328455  0.080755  1
  Ga  Ga7  1  0.000420  0.665289  0.916461  1
  Ga  Ga8  1  0.000420  0.665289  0.583539  1
  Ga  Ga9  1  0.341411  0.003548  0.419238  1
  Ga  Ga10  1  0.997007  0.328455  0.419245  1
  Ga  Ga11  1  0.665354  0.000568  0.578104  1
  Ga  Ga12  1  0.665354  0.000568  0.921896  1
  Ga  Ga13  1  0.341411  0.003548  0.080762  1
  Ga  Ga14  1  0.331156  0.331429  0.566381  1
  Ga  Ga15  1  0.663815  0.669150  0.434289  1
  Ga  Ga16  1  0.663815  0.669150  0.065711  1
  Ga  Ga17  1  0.331156  0.331429  0.933619  1
  Ga  Ga18  1  0.337927  0.544565  0.250000  1
  Ga  Ga19  1  0.660626  0.453186  0.750000  1
  Ga  Ga20  1  0.546327  0.341088  0.250000  1
  Ga  Ga21  1  0.453089  0.663150  0.750000  1
  Ir  Ir22  1  0.674198  0.332404  0.000883  1
  Ir  Ir23  1  0.324551  0.669788  0.001656  1
  Ir  Ir24  1  0.324551  0.669788  0.498344  1
  Ir  Ir25  1  0.674198  0.332404  0.499117  1
  Ir  Ir26  1  0.000869  0.995809  0.002353  1
  Ir  Ir27  1  0.000869  0.995809  0.497647  1
