# generated using pymatgen
data_Ba6TbYFe(CoO5)3
_symmetry_space_group_name_H-M   'P 1'
_cell_length_a   6.05739100
_cell_length_b   8.09358162
_cell_length_c   18.58930201
_cell_angle_alpha   89.09157494
_cell_angle_beta   90.00000000
_cell_angle_gamma   90.00000000
_symmetry_Int_Tables_number   1
_chemical_formula_structural   Ba6TbYFe(CoO5)3
_chemical_formula_sum   'Ba12 Tb2 Y2 Fe2 Co6 O30'
_cell_volume   911.24435922
_cell_formula_units_Z   2
loop_
 _symmetry_equiv_pos_site_id
 _symmetry_equiv_pos_as_xyz
  1  'x, y, z'
loop_
 _atom_site_type_symbol
 _atom_site_label
 _atom_site_symmetry_multiplicity
 _atom_site_fract_x
 _atom_site_fract_y
 _atom_site_fract_z
 _atom_site_occupancy
  Ba  Ba0  1  0.277979  0.000000  0.250000  1
  Ba  Ba1  1  0.722618  0.000000  0.750000  1
  Ba  Ba2  1  0.329739  0.500000  0.250000  1
  Ba  Ba3  1  0.670170  0.500000  0.750000  1
  Ba  Ba4  1  0.750301  0.981376  0.090219  1
  Ba  Ba5  1  0.750301  0.018624  0.409781  1
  Ba  Ba6  1  0.250636  0.024420  0.909935  1
  Ba  Ba7  1  0.250636  0.975580  0.590065  1
  Ba  Ba8  1  0.246773  0.499969  0.578649  1
  Ba  Ba9  1  0.246773  0.500031  0.921351  1
  Ba  Ba10  1  0.753143  0.505835  0.420947  1
  Ba  Ba11  1  0.753143  0.494165  0.079053  1
  Tb  Tb12  1  0.252197  0.753982  0.410472  1
  Tb  Tb13  1  0.252197  0.246018  0.089528  1
  Y  Y14  1  0.747855  0.246209  0.589696  1
  Y  Y15  1  0.747855  0.753791  0.910304  1
  Fe  Fe16  1  0.253824  0.754853  0.059888  1
  Fe  Fe17  1  0.253824  0.245147  0.440112  1
  Co  Co18  1  0.747210  0.245886  0.937577  1
  Co  Co19  1  0.747210  0.754114  0.562423  1
  Co  Co20  1  0.776708  0.768742  0.263176  1
  Co  Co21  1  0.776708  0.231258  0.236824  1
  Co  Co22  1  0.223553  0.230963  0.735622  1
  Co  Co23  1  0.223553  0.769037  0.764378  1
  O  O24  1  0.821299  0.000000  0.250000  1
  O  O25  1  0.177959  0.000000  0.750000  1
  O  O26  1  0.768295  0.956867  0.607118  1
  O  O27  1  0.768295  0.043133  0.892882  1
  O  O28  1  0.228648  0.040944  0.391263  1
  O  O29  1  0.228648  0.959056  0.108737  1
  O  O30  1  0.242256  0.529481  0.090017  1
  O  O31  1  0.242256  0.470519  0.409983  1
  O  O32  1  0.755738  0.467157  0.911109  1
  O  O33  1  0.755738  0.532843  0.588891  1
  O  O34  1  0.036844  0.716494  0.309426  1
  O  O35  1  0.036844  0.283506  0.190574  1
  O  O36  1  0.962337  0.283102  0.689813  1
  O  O37  1  0.962337  0.716898  0.810187  1
  O  O38  1  0.548125  0.752041  0.336129  1
  O  O39  1  0.548125  0.247959  0.163871  1
  O  O40  1  0.454445  0.247670  0.663952  1
  O  O41  1  0.454445  0.752330  0.836048  1
  O  O42  1  0.487776  0.764930  0.503620  1
  O  O43  1  0.487776  0.235070  0.996380  1
  O  O44  1  0.513268  0.234056  0.497744  1
  O  O45  1  0.513268  0.765944  0.002256  1
  O  O46  1  0.016901  0.766052  0.991519  1
  O  O47  1  0.016901  0.233948  0.508481  1
  O  O48  1  0.984662  0.234095  0.006400  1
  O  O49  1  0.984662  0.765905  0.493600  1
  O  O50  1  0.347508  0.697984  0.682748  1
  O  O51  1  0.347508  0.302016  0.817252  1
  O  O52  1  0.651119  0.300673  0.318497  1
  O  O53  1  0.651119  0.699327  0.181503  1
