# generated using pymatgen
data_Tb8AgHg3Pd8
_symmetry_space_group_name_H-M   'P 1'
_cell_length_a   7.72258400
_cell_length_b   7.72258400
_cell_length_c   7.51041400
_cell_angle_alpha   90.00000000
_cell_angle_beta   90.00000000
_cell_angle_gamma   90.00000000
_symmetry_Int_Tables_number   1
_chemical_formula_structural   Tb8AgHg3Pd8
_chemical_formula_sum   'Tb8 Ag1 Hg3 Pd8'
_cell_volume   447.90835057
_cell_formula_units_Z   1
loop_
 _symmetry_equiv_pos_site_id
 _symmetry_equiv_pos_as_xyz
  1  'x, y, z'
loop_
 _atom_site_type_symbol
 _atom_site_label
 _atom_site_symmetry_multiplicity
 _atom_site_fract_x
 _atom_site_fract_y
 _atom_site_fract_z
 _atom_site_occupancy
  Tb  Tb0  1  0.664458  0.676762  0.500614  1
  Tb  Tb1  1  0.816548  0.170274  0.500820  1
  Tb  Tb2  1  0.670274  0.683452  0.999180  1
  Tb  Tb3  1  0.823238  0.164458  0.999386  1
  Tb  Tb4  1  0.183452  0.829726  0.500820  1
  Tb  Tb5  1  0.329726  0.316548  0.999180  1
  Tb  Tb6  1  0.176762  0.835542  0.999386  1
  Tb  Tb7  1  0.335542  0.323238  0.500614  1
  Ag  Ag8  1  0.000000  0.500000  0.750000  1
  Hg  Hg9  1  0.000000  0.500000  0.250000  1
  Hg  Hg10  1  0.500000  0.000000  0.750000  1
  Hg  Hg11  1  0.500000  0.000000  0.250000  1
  Pd  Pd12  1  0.634448  0.378598  0.243312  1
  Pd  Pd13  1  0.364528  0.620299  0.756602  1
  Pd  Pd14  1  0.879701  0.864528  0.743398  1
  Pd  Pd15  1  0.635472  0.379701  0.756602  1
  Pd  Pd16  1  0.365552  0.621402  0.243312  1
  Pd  Pd17  1  0.121402  0.134448  0.256688  1
  Pd  Pd18  1  0.878598  0.865552  0.256688  1
  Pd  Pd19  1  0.120299  0.135472  0.743398  1
