# generated using pymatgen
data_Lu2TiBe2Ir5
_symmetry_space_group_name_H-M   'P 1'
_cell_length_a   9.61979500
_cell_length_b   9.61979500
_cell_length_c   3.19414700
_cell_angle_alpha   90.00000000
_cell_angle_beta   90.00000000
_cell_angle_gamma   90.00000000
_symmetry_Int_Tables_number   1
_chemical_formula_structural   Lu2TiBe2Ir5
_chemical_formula_sum   'Lu4 Ti2 Be4 Ir10'
_cell_volume   295.58781941
_cell_formula_units_Z   2
loop_
 _symmetry_equiv_pos_site_id
 _symmetry_equiv_pos_as_xyz
  1  'x, y, z'
loop_
 _atom_site_type_symbol
 _atom_site_label
 _atom_site_symmetry_multiplicity
 _atom_site_fract_x
 _atom_site_fract_y
 _atom_site_fract_z
 _atom_site_occupancy
  Lu  Lu0  1  0.675552  0.175552  0.000000  1
  Lu  Lu1  1  0.324448  0.824448  0.000000  1
  Lu  Lu2  1  0.175552  0.324448  0.000000  1
  Lu  Lu3  1  0.824448  0.675552  0.000000  1
  Ti  Ti4  1  0.000000  0.000000  0.000000  1
  Ti  Ti5  1  0.500000  0.500000  0.000000  1
  Be  Be6  1  0.122505  0.622505  0.000000  1
  Be  Be7  1  0.877495  0.377495  0.000000  1
  Be  Be8  1  0.622505  0.877495  0.000000  1
  Be  Be9  1  0.377495  0.122505  0.000000  1
  Ir  Ir10  1  0.211110  0.068544  0.500000  1
  Ir  Ir11  1  0.788890  0.931456  0.500000  1
  Ir  Ir12  1  0.068544  0.788890  0.500000  1
  Ir  Ir13  1  0.711110  0.431456  0.500000  1
  Ir  Ir14  1  0.931456  0.211110  0.500000  1
  Ir  Ir15  1  0.288890  0.568544  0.500000  1
  Ir  Ir16  1  0.568544  0.711110  0.500000  1
  Ir  Ir17  1  0.431456  0.288890  0.500000  1
  Ir  Ir18  1  0.500000  0.000000  0.500000  1
  Ir  Ir19  1  0.000000  0.500000  0.500000  1
