# generated using pymatgen
data_LaYb7Sb6
_symmetry_space_group_name_H-M   'P 1'
_cell_length_a   8.23790975
_cell_length_b   8.23583664
_cell_length_c   8.23583709
_cell_angle_alpha   109.46611846
_cell_angle_beta   109.47632079
_cell_angle_gamma   109.47631997
_symmetry_Int_Tables_number   1
_chemical_formula_structural   LaYb7Sb6
_chemical_formula_sum   'La1 Yb7 Sb6'
_cell_volume   430.11370771
_cell_formula_units_Z   1
loop_
 _symmetry_equiv_pos_site_id
 _symmetry_equiv_pos_as_xyz
  1  'x, y, z'
loop_
 _atom_site_type_symbol
 _atom_site_label
 _atom_site_symmetry_multiplicity
 _atom_site_fract_x
 _atom_site_fract_y
 _atom_site_fract_z
 _atom_site_occupancy
  La  La0  1  0.145961  0.500000  0.000000  1
  Yb  Yb1  1  0.499202  0.999805  0.648012  1
  Yb  Yb2  1  0.356560  0.353457  0.360433  1
  Yb  Yb3  1  0.996127  0.139567  0.493024  1
  Yb  Yb4  1  0.851190  0.851988  0.851792  1
  Yb  Yb5  1  0.999398  0.648208  0.500195  1
  Yb  Yb6  1  0.647634  0.500000  0.000000  1
  Yb  Yb7  1  0.503103  0.006976  0.146543  1
  Sb  Sb8  1  0.876673  0.249173  0.127515  1
  Sb  Sb9  1  0.127502  0.878343  0.250827  1
  Sb  Sb10  1  0.374873  0.626019  0.751110  1
  Sb  Sb11  1  0.248855  0.125091  0.873981  1
  Sb  Sb12  1  0.749158  0.372485  0.621657  1
  Sb  Sb13  1  0.623764  0.748890  0.374909  1
