# generated using pymatgen
data_Li7La8AlPt8
_symmetry_space_group_name_H-M   'P 1'
_cell_length_a   4.14261400
_cell_length_b   7.56341003
_cell_length_c   16.86803600
_cell_angle_alpha   89.56996381
_cell_angle_beta   90.00000000
_cell_angle_gamma   90.00000000
_symmetry_Int_Tables_number   1
_chemical_formula_structural   Li7La8AlPt8
_chemical_formula_sum   'Li7 La8 Al1 Pt8'
_cell_volume   528.49928058
_cell_formula_units_Z   1
loop_
 _symmetry_equiv_pos_site_id
 _symmetry_equiv_pos_as_xyz
  1  'x, y, z'
loop_
 _atom_site_type_symbol
 _atom_site_label
 _atom_site_symmetry_multiplicity
 _atom_site_fract_x
 _atom_site_fract_y
 _atom_site_fract_z
 _atom_site_occupancy
  Li  Li0  1  0.250000  0.995124  0.440299  1
  Li  Li1  1  0.750000  0.870104  0.851077  1
  Li  Li2  1  0.750000  0.005516  0.559705  1
  Li  Li3  1  0.250000  0.491415  0.060850  1
  Li  Li4  1  0.750000  0.370409  0.648725  1
  Li  Li5  1  0.750000  0.502250  0.941003  1
  Li  Li6  1  0.250000  0.629930  0.352631  1
  La  La7  1  0.750000  0.332926  0.441669  1
  La  La8  1  0.250000  0.048203  0.716114  1
  La  La9  1  0.250000  0.547651  0.783966  1
  La  La10  1  0.250000  0.667539  0.559223  1
  La  La11  1  0.750000  0.829106  0.057286  1
  La  La12  1  0.250000  0.167823  0.940475  1
  La  La13  1  0.750000  0.455626  0.218413  1
  La  La14  1  0.750000  0.952717  0.282103  1
  Al  Al15  1  0.250000  0.130711  0.148728  1
  Pt  Pt16  1  0.750000  0.251527  0.813446  1
  Pt  Pt17  1  0.250000  0.243524  0.306506  1
  Pt  Pt18  1  0.250000  0.745810  0.935123  1
  Pt  Pt19  1  0.250000  0.249131  0.563063  1
  Pt  Pt20  1  0.250000  0.765290  0.184110  1
  Pt  Pt21  1  0.750000  0.749570  0.437145  1
  Pt  Pt22  1  0.750000  0.244185  0.071654  1
  Pt  Pt23  1  0.750000  0.753914  0.686682  1
