# generated using pymatgen
data_Nd4Al3ZnPt4
_symmetry_space_group_name_H-M   'P 1'
_cell_length_a   4.52304300
_cell_length_b   7.08481865
_cell_length_c   7.91160043
_cell_angle_alpha   89.61607480
_cell_angle_beta   90.00000000
_cell_angle_gamma   90.00000000
_symmetry_Int_Tables_number   1
_chemical_formula_structural   Nd4Al3ZnPt4
_chemical_formula_sum   'Nd4 Al3 Zn1 Pt4'
_cell_volume   253.52106451
_cell_formula_units_Z   1
loop_
 _symmetry_equiv_pos_site_id
 _symmetry_equiv_pos_as_xyz
  1  'x, y, z'
loop_
 _atom_site_type_symbol
 _atom_site_label
 _atom_site_symmetry_multiplicity
 _atom_site_fract_x
 _atom_site_fract_y
 _atom_site_fract_z
 _atom_site_occupancy
  Nd  Nd0  1  0.750000  0.470946  0.181907  1
  Nd  Nd1  1  0.250000  0.028959  0.685624  1
  Nd  Nd2  1  0.750000  0.970684  0.312603  1
  Nd  Nd3  1  0.250000  0.533663  0.819721  1
  Al  Al4  1  0.250000  0.644933  0.435693  1
  Al  Al5  1  0.750000  0.351161  0.565853  1
  Al  Al6  1  0.250000  0.147894  0.065976  1
  Zn  Zn7  1  0.750000  0.847393  0.931130  1
  Pt  Pt8  1  0.750000  0.715362  0.604165  1
  Pt  Pt9  1  0.750000  0.227040  0.887170  1
  Pt  Pt10  1  0.250000  0.281101  0.387559  1
  Pt  Pt11  1  0.250000  0.780864  0.122599  1
