# generated using pymatgen
data_Tb2AsPd3Pt5
_symmetry_space_group_name_H-M   'P 1'
_cell_length_a   4.15755500
_cell_length_b   4.10641800
_cell_length_c   11.31223800
_cell_angle_alpha   90.00000000
_cell_angle_beta   90.00000000
_cell_angle_gamma   90.00000000
_symmetry_Int_Tables_number   1
_chemical_formula_structural   Tb2AsPd3Pt5
_chemical_formula_sum   'Tb2 As1 Pd3 Pt5'
_cell_volume   193.12997837
_cell_formula_units_Z   1
loop_
 _symmetry_equiv_pos_site_id
 _symmetry_equiv_pos_as_xyz
  1  'x, y, z'
loop_
 _atom_site_type_symbol
 _atom_site_label
 _atom_site_symmetry_multiplicity
 _atom_site_fract_x
 _atom_site_fract_y
 _atom_site_fract_z
 _atom_site_occupancy
  Tb  Tb0  1  0.500000  0.500000  0.818963  1
  Tb  Tb1  1  0.500000  0.500000  0.181481  1
  As  As2  1  0.000000  0.000000  0.499602  1
  Pd  Pd3  1  0.500000  0.000000  0.630767  1
  Pd  Pd4  1  0.000000  0.500000  0.632300  1
  Pd  Pd5  1  0.500000  0.000000  0.369505  1
  Pt  Pt6  1  0.500000  0.000000  0.999814  1
  Pt  Pt7  1  0.000000  0.500000  0.000119  1
  Pt  Pt8  1  0.000000  0.500000  0.367100  1
  Pt  Pt9  1  0.000000  0.000000  0.817216  1
  Pt  Pt10  1  0.000000  0.000000  0.183134  1
