# generated using pymatgen
data_Lu2AlNiRu
_symmetry_space_group_name_H-M   'P 1'
_cell_length_a   5.35049653
_cell_length_b   5.35049487
_cell_length_c   5.35049620
_cell_angle_alpha   135.26238369
_cell_angle_beta   117.35271466
_cell_angle_gamma   80.22355290
_symmetry_Int_Tables_number   1
_chemical_formula_structural   Lu2AlNiRu
_chemical_formula_sum   'Lu2 Al1 Ni1 Ru1'
_cell_volume   92.70666967
_cell_formula_units_Z   1
loop_
 _symmetry_equiv_pos_site_id
 _symmetry_equiv_pos_as_xyz
  1  'x, y, z'
loop_
 _atom_site_type_symbol
 _atom_site_label
 _atom_site_symmetry_multiplicity
 _atom_site_fract_x
 _atom_site_fract_y
 _atom_site_fract_z
 _atom_site_occupancy
  Lu  Lu0  1  0.697937  0.201868  0.496069  1
  Lu  Lu1  1  0.294202  0.798132  0.496068  1
  Al  Al2  1  0.997913  0.000000  0.997913  1
  Ni  Ni3  1  0.738370  0.500000  0.238370  1
  Ru  Ru4  1  0.271580  0.499999  0.771579  1
