# generated using pymatgen
data_NdTiF7
_symmetry_space_group_name_H-M   'P 1'
_cell_length_a   5.66961100
_cell_length_b   9.08851828
_cell_length_c   12.17029763
_cell_angle_alpha   62.08257151
_cell_angle_beta   90.00000000
_cell_angle_gamma   90.00000000
_symmetry_Int_Tables_number   1
_chemical_formula_structural   NdTiF7
_chemical_formula_sum   'Nd4 Ti4 F28'
_cell_volume   554.13385225
_cell_formula_units_Z   4
loop_
 _symmetry_equiv_pos_site_id
 _symmetry_equiv_pos_as_xyz
  1  'x, y, z'
loop_
 _atom_site_type_symbol
 _atom_site_label
 _atom_site_symmetry_multiplicity
 _atom_site_fract_x
 _atom_site_fract_y
 _atom_site_fract_z
 _atom_site_occupancy
  Nd  Nd0  1  0.758194  0.808516  0.265589  1
  Nd  Nd1  1  0.258194  0.191484  0.234411  1
  Nd  Nd2  1  0.241806  0.191484  0.734411  1
  Nd  Nd3  1  0.741806  0.808516  0.765589  1
  Ti  Ti4  1  0.244542  0.726093  0.543092  1
  Ti  Ti5  1  0.744542  0.273907  0.956908  1
  Ti  Ti6  1  0.755458  0.273907  0.456908  1
  Ti  Ti7  1  0.255458  0.726093  0.043092  1
  F  F8  1  0.968042  0.715196  0.458359  1
  F  F9  1  0.468042  0.284804  0.041641  1
  F  F10  1  0.031958  0.284804  0.541641  1
  F  F11  1  0.531958  0.715196  0.958359  1
  F  F12  1  0.057908  0.709853  0.924935  1
  F  F13  1  0.557908  0.290147  0.575065  1
  F  F14  1  0.942092  0.290147  0.075065  1
  F  F15  1  0.442092  0.709853  0.424935  1
  F  F16  1  0.734309  0.508788  0.863063  1
  F  F17  1  0.234309  0.491212  0.636937  1
  F  F18  1  0.265691  0.491212  0.136937  1
  F  F19  1  0.765691  0.508788  0.363063  1
  F  F20  1  0.739530  0.040488  0.049723  1
  F  F21  1  0.239530  0.959512  0.450277  1
  F  F22  1  0.260470  0.959512  0.950277  1
  F  F23  1  0.760470  0.040488  0.549723  1
  F  F24  1  0.051063  0.742499  0.665124  1
  F  F25  1  0.551063  0.257501  0.834876  1
  F  F26  1  0.948937  0.257501  0.334876  1
  F  F27  1  0.448937  0.742499  0.165124  1
  F  F28  1  0.011056  0.268791  0.865387  1
  F  F29  1  0.511056  0.731209  0.634613  1
  F  F30  1  0.988944  0.731209  0.134613  1
  F  F31  1  0.488944  0.268791  0.365387  1
  F  F32  1  0.089545  0.968106  0.229922  1
  F  F33  1  0.589545  0.031894  0.270078  1
  F  F34  1  0.910455  0.031894  0.770078  1
  F  F35  1  0.410455  0.968106  0.729922  1
