# generated using pymatgen
data_Nd6CoCl10
_symmetry_space_group_name_H-M   'P 1'
_cell_length_a   7.39481640
_cell_length_b   9.06797167
_cell_length_c   9.21595583
_cell_angle_alpha   110.44018021
_cell_angle_beta   107.36386089
_cell_angle_gamma   96.60147348
_symmetry_Int_Tables_number   1
_chemical_formula_structural   Nd6CoCl10
_chemical_formula_sum   'Nd6 Co1 Cl10'
_cell_volume   535.83009929
_cell_formula_units_Z   1
loop_
 _symmetry_equiv_pos_site_id
 _symmetry_equiv_pos_as_xyz
  1  'x, y, z'
loop_
 _atom_site_type_symbol
 _atom_site_label
 _atom_site_symmetry_multiplicity
 _atom_site_fract_x
 _atom_site_fract_y
 _atom_site_fract_z
 _atom_site_occupancy
  Nd  Nd0  1  0.867111  0.239760  0.949330  1
  Nd  Nd1  1  0.132889  0.760240  0.050670  1
  Nd  Nd2  1  0.022678  0.890378  0.686973  1
  Nd  Nd3  1  0.977322  0.109622  0.313027  1
  Nd  Nd4  1  0.373042  0.199357  0.149064  1
  Nd  Nd5  1  0.626958  0.800643  0.850936  1
  Co  Co6  1  0.000000  0.000000  0.000000  1
  Cl  Cl7  1  0.907121  0.160210  0.633341  1
  Cl  Cl8  1  0.092879  0.839790  0.366659  1
  Cl  Cl9  1  0.448404  0.071939  0.830061  1
  Cl  Cl10  1  0.551596  0.928061  0.169939  1
  Cl  Cl11  1  0.196827  0.644063  0.742342  1
  Cl  Cl12  1  0.803173  0.355937  0.257658  1
  Cl  Cl13  1  0.243356  0.454608  0.080175  1
  Cl  Cl14  1  0.756644  0.545392  0.919825  1
  Cl  Cl15  1  0.636865  0.717245  0.536399  1
  Cl  Cl16  1  0.363135  0.282755  0.463601  1
