# generated using pymatgen
data_Y(CrC)4
_symmetry_space_group_name_H-M   'P 1'
_cell_length_a   5.75770475
_cell_length_b   5.75770516
_cell_length_c   5.75770428
_cell_angle_alpha   94.44132140
_cell_angle_beta   94.44130997
_cell_angle_gamma   147.68523558
_symmetry_Int_Tables_number   1
_chemical_formula_structural   Y(CrC)4
_chemical_formula_sum   'Y1 Cr4 C4'
_cell_volume   98.00554483
_cell_formula_units_Z   1
loop_
 _symmetry_equiv_pos_site_id
 _symmetry_equiv_pos_as_xyz
  1  'x, y, z'
loop_
 _atom_site_type_symbol
 _atom_site_label
 _atom_site_symmetry_multiplicity
 _atom_site_fract_x
 _atom_site_fract_y
 _atom_site_fract_z
 _atom_site_occupancy
  Y  Y0  1  0.000000  0.000000  0.000000  1
  Cr  Cr1  1  0.819029  0.634572  0.453600  1
  Cr  Cr2  1  0.180971  0.365428  0.546400  1
  Cr  Cr3  1  0.634572  0.180971  0.815543  1
  Cr  Cr4  1  0.365428  0.819029  0.184457  1
  C  C5  1  0.254208  0.599027  0.853236  1
  C  C6  1  0.745792  0.400973  0.146764  1
  C  C7  1  0.599027  0.745792  0.344819  1
  C  C8  1  0.400973  0.254208  0.655181  1
