# generated using pymatgen
data_Sc12Mn2RePb2
_symmetry_space_group_name_H-M   'P 1'
_cell_length_a   7.88996890
_cell_length_b   7.88996799
_cell_length_c   7.88996800
_cell_angle_alpha   109.05805529
_cell_angle_beta   109.05804533
_cell_angle_gamma   110.30075795
_symmetry_Int_Tables_number   1
_chemical_formula_structural   Sc12Mn2RePb2
_chemical_formula_sum   'Sc12 Mn2 Re1 Pb2'
_cell_volume   378.03803418
_cell_formula_units_Z   1
loop_
 _symmetry_equiv_pos_site_id
 _symmetry_equiv_pos_as_xyz
  1  'x, y, z'
loop_
 _atom_site_type_symbol
 _atom_site_label
 _atom_site_symmetry_multiplicity
 _atom_site_fract_x
 _atom_site_fract_y
 _atom_site_fract_z
 _atom_site_occupancy
  Sc  Sc0  1  0.305919  0.305919  0.611838  1
  Sc  Sc1  1  0.694081  0.694081  0.388162  1
  Sc  Sc2  1  0.305919  0.694081  0.000000  1
  Sc  Sc3  1  0.694081  0.305919  0.000000  1
  Sc  Sc4  1  0.431397  0.195623  0.235775  1
  Sc  Sc5  1  0.568603  0.804377  0.764225  1
  Sc  Sc6  1  0.959849  0.195623  0.764225  1
  Sc  Sc7  1  0.195623  0.959849  0.764225  1
  Sc  Sc8  1  0.040151  0.804377  0.235775  1
  Sc  Sc9  1  0.804377  0.040151  0.235775  1
  Sc  Sc10  1  0.195623  0.431397  0.235775  1
  Sc  Sc11  1  0.804377  0.568603  0.764225  1
  Mn  Mn12  1  0.382149  0.382149  0.000000  1
  Mn  Mn13  1  0.617851  0.617851  0.000000  1
  Re  Re14  1  0.000000  0.000000  0.000000  1
  Pb  Pb15  1  0.500000  0.000000  0.500000  1
  Pb  Pb16  1  0.000000  0.500000  0.500000  1
