# generated using pymatgen
data_K4Ag6S5
_symmetry_space_group_name_H-M   'P 1'
_cell_length_a   10.01528800
_cell_length_b   10.01528764
_cell_length_c   10.16318200
_cell_angle_alpha   90.00000000
_cell_angle_beta   90.00000000
_cell_angle_gamma   119.99999457
_symmetry_Int_Tables_number   1
_chemical_formula_structural   K4Ag6S5
_chemical_formula_sum   'K8 Ag12 S10'
_cell_volume   882.85062274
_cell_formula_units_Z   2
loop_
 _symmetry_equiv_pos_site_id
 _symmetry_equiv_pos_as_xyz
  1  'x, y, z'
loop_
 _atom_site_type_symbol
 _atom_site_label
 _atom_site_symmetry_multiplicity
 _atom_site_fract_x
 _atom_site_fract_y
 _atom_site_fract_z
 _atom_site_occupancy
  K  K0  1  0.594317  0.908471  0.750000  1
  K  K1  1  0.091529  0.685846  0.750000  1
  K  K2  1  0.314154  0.405683  0.750000  1
  K  K3  1  0.405683  0.314154  0.250000  1
  K  K4  1  0.685846  0.091529  0.250000  1
  K  K5  1  0.000000  0.000000  0.000000  1
  K  K6  1  0.000000  0.000000  0.500000  1
  K  K7  1  0.908471  0.594317  0.250000  1
  Ag  Ag8  1  0.174057  0.463052  0.404445  1
  Ag  Ag9  1  0.288995  0.825943  0.404445  1
  Ag  Ag10  1  0.536948  0.711005  0.404445  1
  Ag  Ag11  1  0.711005  0.536948  0.595555  1
  Ag  Ag12  1  0.288995  0.825943  0.095555  1
  Ag  Ag13  1  0.174057  0.463052  0.095555  1
  Ag  Ag14  1  0.825943  0.288995  0.904445  1
  Ag  Ag15  1  0.463052  0.174057  0.904445  1
  Ag  Ag16  1  0.463052  0.174057  0.595555  1
  Ag  Ag17  1  0.825943  0.288995  0.595555  1
  Ag  Ag18  1  0.711005  0.536948  0.904445  1
  Ag  Ag19  1  0.536948  0.711005  0.095555  1
  S  S20  1  0.260250  0.051419  0.750000  1
  S  S21  1  0.333333  0.666667  0.553782  1
  S  S22  1  0.333333  0.666667  0.946218  1
  S  S23  1  0.666667  0.333333  0.053782  1
  S  S24  1  0.666667  0.333333  0.446218  1
  S  S25  1  0.051419  0.260250  0.250000  1
  S  S26  1  0.208832  0.948581  0.250000  1
  S  S27  1  0.739750  0.791168  0.250000  1
  S  S28  1  0.948581  0.208832  0.750000  1
  S  S29  1  0.791168  0.739750  0.750000  1
