# generated using pymatgen
data_Tb2CO
_symmetry_space_group_name_H-M   'P 1'
_cell_length_a   6.10445560
_cell_length_b   6.10445513
_cell_length_c   6.10445534
_cell_angle_alpha   33.93101766
_cell_angle_beta   33.93102731
_cell_angle_gamma   33.93101196
_symmetry_Int_Tables_number   1
_chemical_formula_structural   Tb2CO
_chemical_formula_sum   'Tb2 C1 O1'
_cell_volume   63.17174536
_cell_formula_units_Z   1
loop_
 _symmetry_equiv_pos_site_id
 _symmetry_equiv_pos_as_xyz
  1  'x, y, z'
loop_
 _atom_site_type_symbol
 _atom_site_label
 _atom_site_symmetry_multiplicity
 _atom_site_fract_x
 _atom_site_fract_y
 _atom_site_fract_z
 _atom_site_occupancy
  Tb  Tb0  1  0.252531  0.252531  0.252531  1
  Tb  Tb1  1  0.747469  0.747469  0.747469  1
  C  C2  1  0.000000  0.000000  0.000000  1
  O  O3  1  0.500000  0.500000  0.500000  1
