# generated using pymatgen
data_SmTm19Pt16
_symmetry_space_group_name_H-M   'P 1'
_cell_length_a   7.38372638
_cell_length_b   7.47073305
_cell_length_c   14.69480304
_cell_angle_alpha   89.99957262
_cell_angle_beta   89.87377342
_cell_angle_gamma   89.98407860
_symmetry_Int_Tables_number   1
_chemical_formula_structural   SmTm19Pt16
_chemical_formula_sum   'Sm1 Tm19 Pt16'
_cell_volume   810.59050413
_cell_formula_units_Z   1
loop_
 _symmetry_equiv_pos_site_id
 _symmetry_equiv_pos_as_xyz
  1  'x, y, z'
loop_
 _atom_site_type_symbol
 _atom_site_label
 _atom_site_symmetry_multiplicity
 _atom_site_fract_x
 _atom_site_fract_y
 _atom_site_fract_z
 _atom_site_occupancy
  Sm  Sm0  1  0.984614  0.825335  0.593008  1
  Tm  Tm1  1  0.638261  0.167932  0.622761  1
  Tm  Tm2  1  0.138505  0.331906  0.879103  1
  Tm  Tm3  1  0.361486  0.832425  0.121815  1
  Tm  Tm4  1  0.859100  0.666540  0.377794  1
  Tm  Tm5  1  0.360491  0.830968  0.378045  1
  Tm  Tm6  1  0.861756  0.668140  0.121676  1
  Tm  Tm7  1  0.637754  0.168297  0.879054  1
  Tm  Tm8  1  0.138937  0.331993  0.621735  1
  Tm  Tm9  1  0.484865  0.675035  0.594138  1
  Tm  Tm10  1  0.983474  0.824825  0.905662  1
  Tm  Tm11  1  0.516166  0.324084  0.094326  1
  Tm  Tm12  1  0.015001  0.178464  0.404763  1
  Tm  Tm13  1  0.514776  0.323258  0.406217  1
  Tm  Tm14  1  0.016313  0.175713  0.094629  1
  Tm  Tm15  1  0.482757  0.675454  0.905841  1
  Tm  Tm16  1  0.801188  0.510228  0.751025  1
  Tm  Tm17  1  0.300833  0.989685  0.750939  1
  Tm  Tm18  1  0.199317  0.490102  0.249593  1
  Tm  Tm19  1  0.699203  0.009951  0.249804  1
  Pt  Pt20  1  0.692880  0.975148  0.455028  1
  Pt  Pt21  1  0.196480  0.527960  0.042206  1
  Pt  Pt22  1  0.303058  0.027627  0.958272  1
  Pt  Pt23  1  0.801167  0.465357  0.539997  1
  Pt  Pt24  1  0.311409  0.034926  0.539788  1
  Pt  Pt25  1  0.802923  0.472429  0.958114  1
  Pt  Pt26  1  0.697025  0.971906  0.041831  1
  Pt  Pt27  1  0.196635  0.526290  0.457490  1
  Pt  Pt28  1  0.434757  0.384362  0.749868  1
  Pt  Pt29  1  0.933063  0.116021  0.751608  1
  Pt  Pt30  1  0.566801  0.613461  0.249869  1
  Pt  Pt31  1  0.066625  0.886360  0.250278  1
  Pt  Pt32  1  0.658947  0.856024  0.751288  1
  Pt  Pt33  1  0.164139  0.641363  0.752851  1
  Pt  Pt34  1  0.339472  0.144161  0.249720  1
  Pt  Pt35  1  0.839822  0.356269  0.249866  1
