# generated using pymatgen
data_DyY4Bi2Os
_symmetry_space_group_name_H-M   'P 1'
_cell_length_a   7.99317600
_cell_length_b   9.06131356
_cell_length_c   12.53239206
_cell_angle_alpha   89.97800224
_cell_angle_beta   90.00435565
_cell_angle_gamma   90.00046679
_symmetry_Int_Tables_number   1
_chemical_formula_structural   DyY4Bi2Os
_chemical_formula_sum   'Dy4 Y16 Bi8 Os4'
_cell_volume   907.70447050
_cell_formula_units_Z   4
loop_
 _symmetry_equiv_pos_site_id
 _symmetry_equiv_pos_as_xyz
  1  'x, y, z'
loop_
 _atom_site_type_symbol
 _atom_site_label
 _atom_site_symmetry_multiplicity
 _atom_site_fract_x
 _atom_site_fract_y
 _atom_site_fract_z
 _atom_site_occupancy
  Dy  Dy0  1  0.827574  0.041203  0.063603  1
  Dy  Dy1  1  0.672500  0.458775  0.563987  1
  Dy  Dy2  1  0.827008  0.458872  0.063899  1
  Dy  Dy3  1  0.173588  0.542516  0.935693  1
  Y  Y4  1  0.840042  0.749714  0.791375  1
  Y  Y5  1  0.159532  0.250060  0.209022  1
  Y  Y6  1  0.340459  0.250277  0.708896  1
  Y  Y7  1  0.659986  0.749902  0.291515  1
  Y  Y8  1  0.374415  0.749630  0.693069  1
  Y  Y9  1  0.625152  0.249871  0.307358  1
  Y  Y10  1  0.874468  0.250355  0.806883  1
  Y  Y11  1  0.125770  0.750120  0.193470  1
  Y  Y12  1  0.944166  0.749137  0.504102  1
  Y  Y13  1  0.057385  0.250568  0.496143  1
  Y  Y14  1  0.442366  0.250768  0.996050  1
  Y  Y15  1  0.556315  0.749488  0.004167  1
  Y  Y16  1  0.674046  0.040767  0.565012  1
  Y  Y17  1  0.325554  0.957777  0.434648  1
  Y  Y18  1  0.174850  0.957875  0.934842  1
  Y  Y19  1  0.324859  0.542404  0.434316  1
  Bi  Bi20  1  0.567831  0.492815  0.828025  1
  Bi  Bi21  1  0.432259  0.506995  0.172135  1
  Bi  Bi22  1  0.067975  0.507025  0.672198  1
  Bi  Bi23  1  0.432398  0.993170  0.171716  1
  Bi  Bi24  1  0.931820  0.492560  0.327907  1
  Bi  Bi25  1  0.567757  0.007164  0.828356  1
  Bi  Bi26  1  0.931934  0.007218  0.328414  1
  Bi  Bi27  1  0.067982  0.992953  0.671825  1
  Os  Os28  1  0.575405  0.749042  0.510756  1
  Os  Os29  1  0.425521  0.250440  0.489961  1
  Os  Os30  1  0.074144  0.250942  0.989802  1
  Os  Os31  1  0.924938  0.749600  0.010854  1
