# generated using pymatgen
data_Hf4TiCr2Si4Mo
_symmetry_space_group_name_H-M   'P 1'
_cell_length_a   3.49640900
_cell_length_b   6.83124925
_cell_length_c   8.07882696
_cell_angle_alpha   89.93519541
_cell_angle_beta   90.00000000
_cell_angle_gamma   90.00000000
_symmetry_Int_Tables_number   1
_chemical_formula_structural   Hf4TiCr2Si4Mo
_chemical_formula_sum   'Hf4 Ti1 Cr2 Si4 Mo1'
_cell_volume   192.96137704
_cell_formula_units_Z   1
loop_
 _symmetry_equiv_pos_site_id
 _symmetry_equiv_pos_as_xyz
  1  'x, y, z'
loop_
 _atom_site_type_symbol
 _atom_site_label
 _atom_site_symmetry_multiplicity
 _atom_site_fract_x
 _atom_site_fract_y
 _atom_site_fract_z
 _atom_site_occupancy
  Hf  Hf0  1  0.750000  0.455052  0.162941  1
  Hf  Hf1  1  0.750000  0.959375  0.325152  1
  Hf  Hf2  1  0.250000  0.545355  0.836008  1
  Hf  Hf3  1  0.250000  0.046321  0.668932  1
  Ti  Ti4  1  0.250000  0.628842  0.439324  1
  Cr  Cr5  1  0.750000  0.879195  0.943184  1
  Cr  Cr6  1  0.250000  0.121334  0.058325  1
  Si  Si7  1  0.750000  0.236959  0.872177  1
  Si  Si8  1  0.750000  0.747216  0.645885  1
  Si  Si9  1  0.250000  0.760913  0.129462  1
  Si  Si10  1  0.250000  0.253656  0.356752  1
  Mo  Mo11  1  0.750000  0.365782  0.561857  1
