# generated using pymatgen
data_Dy2Er3ReRuO12
_symmetry_space_group_name_H-M   'P 1'
_cell_length_a   6.81038495
_cell_length_b   6.81038614
_cell_length_c   7.46698828
_cell_angle_alpha   73.93287844
_cell_angle_beta   73.93287533
_cell_angle_gamma   49.05347386
_symmetry_Int_Tables_number   1
_chemical_formula_structural   Dy2Er3ReRuO12
_chemical_formula_sum   'Dy2 Er3 Re1 Ru1 O12'
_cell_volume   249.19144806
_cell_formula_units_Z   1
loop_
 _symmetry_equiv_pos_site_id
 _symmetry_equiv_pos_as_xyz
  1  'x, y, z'
loop_
 _atom_site_type_symbol
 _atom_site_label
 _atom_site_symmetry_multiplicity
 _atom_site_fract_x
 _atom_site_fract_y
 _atom_site_fract_z
 _atom_site_occupancy
  Dy  Dy0  1  0.710829  0.683905  0.642864  1
  Dy  Dy1  1  0.316095  0.289171  0.357136  1
  Er  Er2  1  0.689708  0.681781  0.173513  1
  Er  Er3  1  0.318219  0.310292  0.826487  1
  Er  Er4  1  0.006893  0.993107  0.500000  1
  Re  Re5  1  0.205078  0.794922  0.000000  1
  Ru  Ru6  1  0.770059  0.229941  0.000000  1
  O  O7  1  0.005581  0.997807  0.204134  1
  O  O8  1  0.002193  0.994419  0.795866  1
  O  O9  1  0.566585  0.085245  0.084124  1
  O  O10  1  0.406953  0.911477  0.915621  1
  O  O11  1  0.914755  0.433415  0.915876  1
  O  O12  1  0.088523  0.593047  0.084379  1
  O  O13  1  0.487904  0.512252  0.175875  1
  O  O14  1  0.487748  0.512096  0.824125  1
  O  O15  1  0.407099  0.892532  0.429898  1
  O  O16  1  0.599342  0.091032  0.578261  1
  O  O17  1  0.107468  0.592901  0.570102  1
  O  O18  1  0.908968  0.400658  0.421739  1
