# generated using pymatgen
data_Be3Tc4B5W8
_symmetry_space_group_name_H-M   'P 1'
_cell_length_a   3.11484600
_cell_length_b   7.61508798
_cell_length_c   9.82214242
_cell_angle_alpha   90.17535371
_cell_angle_beta   90.00000000
_cell_angle_gamma   90.00000000
_symmetry_Int_Tables_number   1
_chemical_formula_structural   Be3Tc4B5W8
_chemical_formula_sum   'Be3 Tc4 B5 W8'
_cell_volume   232.97842126
_cell_formula_units_Z   1
loop_
 _symmetry_equiv_pos_site_id
 _symmetry_equiv_pos_as_xyz
  1  'x, y, z'
loop_
 _atom_site_type_symbol
 _atom_site_label
 _atom_site_symmetry_multiplicity
 _atom_site_fract_x
 _atom_site_fract_y
 _atom_site_fract_z
 _atom_site_occupancy
  Be  Be0  1  0.500000  0.121853  0.461166  1
  Be  Be1  1  0.500000  0.878076  0.537832  1
  Be  Be2  1  0.000000  0.381126  0.962913  1
  Tc  Tc3  1  0.500000  0.623433  0.396438  1
  Tc  Tc4  1  0.500000  0.378277  0.603648  1
  Tc  Tc5  1  0.000000  0.875735  0.897725  1
  Tc  Tc6  1  0.000000  0.122256  0.103259  1
  B  B7  1  0.000000  0.617377  0.040525  1
  B  B8  1  0.500000  0.126810  0.262377  1
  B  B9  1  0.500000  0.875581  0.736829  1
  B  B10  1  0.000000  0.376558  0.764081  1
  B  B11  1  0.000000  0.624340  0.234296  1
  W  W12  1  0.500000  0.811364  0.130835  1
  W  W13  1  0.500000  0.182174  0.864933  1
  W  W14  1  0.000000  0.680709  0.635669  1
  W  W15  1  0.000000  0.319814  0.365217  1
  W  W16  1  0.500000  0.580781  0.861044  1
  W  W17  1  0.500000  0.422760  0.142733  1
  W  W18  1  0.000000  0.920766  0.352400  1
  W  W19  1  0.000000  0.080207  0.646080  1
