# generated using pymatgen
data_Ho15ErIn3HgIr4
_symmetry_space_group_name_H-M   'P 1'
_cell_length_a   9.60529842
_cell_length_b   9.62148985
_cell_length_c   9.61597354
_cell_angle_alpha   59.98101762
_cell_angle_beta   59.95677293
_cell_angle_gamma   59.94421423
_symmetry_Int_Tables_number   1
_chemical_formula_structural   Ho15ErIn3HgIr4
_chemical_formula_sum   'Ho15 Er1 In3 Hg1 Ir4'
_cell_volume   627.83252048
_cell_formula_units_Z   1
loop_
 _symmetry_equiv_pos_site_id
 _symmetry_equiv_pos_as_xyz
  1  'x, y, z'
loop_
 _atom_site_type_symbol
 _atom_site_label
 _atom_site_symmetry_multiplicity
 _atom_site_fract_x
 _atom_site_fract_y
 _atom_site_fract_z
 _atom_site_occupancy
  Ho  Ho0  1  0.058724  0.064016  0.438426  1
  Ho  Ho1  1  0.650089  0.048938  0.650140  1
  Ho  Ho2  1  0.191139  0.808815  0.191230  1
  Ho  Ho3  1  0.437970  0.061379  0.439270  1
  Ho  Ho4  1  0.191402  0.190809  0.809376  1
  Ho  Ho5  1  0.650089  0.650833  0.650140  1
  Ho  Ho6  1  0.048546  0.650614  0.650227  1
  Ho  Ho7  1  0.438025  0.061368  0.061227  1
  Ho  Ho8  1  0.649931  0.650196  0.049677  1
  Ho  Ho9  1  0.191402  0.808412  0.809376  1
  Ho  Ho10  1  0.809160  0.190616  0.809608  1
  Ho  Ho11  1  0.809738  0.190397  0.190821  1
  Ho  Ho12  1  0.809738  0.809044  0.190821  1
  Ho  Ho13  1  0.058724  0.438834  0.438426  1
  Ho  Ho14  1  0.438025  0.439378  0.061227  1
  Er  Er15  1  0.058486  0.439040  0.063434  1
  In  In16  1  0.417439  0.416945  0.748671  1
  In  In17  1  0.417514  0.748558  0.417031  1
  In  In18  1  0.417514  0.416896  0.417031  1
  Hg  Hg19  1  0.757392  0.414226  0.414155  1
  Ir  Ir20  1  0.858064  0.858748  0.858600  1
  Ir  Ir21  1  0.424737  0.858519  0.858226  1
  Ir  Ir22  1  0.858091  0.858826  0.424258  1
  Ir  Ir23  1  0.858064  0.424589  0.858600  1
