# generated using pymatgen
data_Li4Ac3Sn4
_symmetry_space_group_name_H-M   'P 1'
_cell_length_a   9.25073729
_cell_length_b   9.25073677
_cell_length_c   9.25073695
_cell_angle_alpha   149.03375995
_cell_angle_beta   132.25078301
_cell_angle_gamma   58.00484620
_symmetry_Int_Tables_number   1
_chemical_formula_structural   Li4Ac3Sn4
_chemical_formula_sum   'Li4 Ac3 Sn4'
_cell_volume   299.23163792
_cell_formula_units_Z   1
loop_
 _symmetry_equiv_pos_site_id
 _symmetry_equiv_pos_as_xyz
  1  'x, y, z'
loop_
 _atom_site_type_symbol
 _atom_site_label
 _atom_site_symmetry_multiplicity
 _atom_site_fract_x
 _atom_site_fract_y
 _atom_site_fract_z
 _atom_site_occupancy
  Li  Li0  1  0.639912  0.328860  0.311051  1
  Li  Li1  1  0.360088  0.671140  0.688949  1
  Li  Li2  1  0.017808  0.328860  0.688949  1
  Li  Li3  1  0.982192  0.671140  0.311051  1
  Ac  Ac4  1  0.368058  0.868058  0.500000  1
  Ac  Ac5  1  0.631942  0.131942  0.500000  1
  Ac  Ac6  1  0.000000  0.000000  0.000000  1
  Sn  Sn7  1  0.213562  0.213562  0.000000  1
  Sn  Sn8  1  0.786438  0.786438  0.000000  1
  Sn  Sn9  1  0.693315  0.500000  0.193315  1
  Sn  Sn10  1  0.306685  0.500000  0.806685  1
