# generated using pymatgen
data_Ho6GaNiRu
_symmetry_space_group_name_H-M   'P 1'
_cell_length_a   8.29812430
_cell_length_b   8.29812405
_cell_length_c   8.29812481
_cell_angle_alpha   112.88122129
_cell_angle_beta   110.23143997
_cell_angle_gamma   105.38863222
_symmetry_Int_Tables_number   1
_chemical_formula_structural   Ho6GaNiRu
_chemical_formula_sum   'Ho12 Ga2 Ni2 Ru2'
_cell_volume   437.95091930
_cell_formula_units_Z   2
loop_
 _symmetry_equiv_pos_site_id
 _symmetry_equiv_pos_as_xyz
  1  'x, y, z'
loop_
 _atom_site_type_symbol
 _atom_site_label
 _atom_site_symmetry_multiplicity
 _atom_site_fract_x
 _atom_site_fract_y
 _atom_site_fract_z
 _atom_site_occupancy
  Ho  Ho0  1  0.435069  0.241424  0.193645  1
  Ho  Ho1  1  0.564931  0.758576  0.806355  1
  Ho  Ho2  1  0.047779  0.241424  0.806355  1
  Ho  Ho3  1  0.952221  0.758576  0.193645  1
  Ho  Ho4  1  0.180153  0.279386  0.459538  1
  Ho  Ho5  1  0.819847  0.720614  0.540462  1
  Ho  Ho6  1  0.180153  0.720614  0.900767  1
  Ho  Ho7  1  0.819847  0.279386  0.099233  1
  Ho  Ho8  1  0.328971  0.640087  0.311117  1
  Ho  Ho9  1  0.671029  0.359913  0.688883  1
  Ho  Ho10  1  0.328971  0.017854  0.688883  1
  Ho  Ho11  1  0.671029  0.982146  0.311117  1
  Ga  Ga12  1  0.500000  0.500000  0.000000  1
  Ga  Ga13  1  0.000000  0.000000  0.000000  1
  Ni  Ni14  1  0.118164  0.618164  0.500000  1
  Ni  Ni15  1  0.881836  0.381836  0.500000  1
  Ru  Ru16  1  0.329567  0.000000  0.329567  1
  Ru  Ru17  1  0.670433  0.000000  0.670433  1
