# generated using pymatgen
data_YHoB6Ru
_symmetry_space_group_name_H-M   'P 1'
_cell_length_a   3.65464400
_cell_length_b   9.14288300
_cell_length_c   11.52522500
_cell_angle_alpha   90.00000000
_cell_angle_beta   90.00000000
_cell_angle_gamma   90.00000000
_symmetry_Int_Tables_number   1
_chemical_formula_structural   YHoB6Ru
_chemical_formula_sum   'Y4 Ho4 B24 Ru4'
_cell_volume   385.10366644
_cell_formula_units_Z   4
loop_
 _symmetry_equiv_pos_site_id
 _symmetry_equiv_pos_as_xyz
  1  'x, y, z'
loop_
 _atom_site_type_symbol
 _atom_site_label
 _atom_site_symmetry_multiplicity
 _atom_site_fract_x
 _atom_site_fract_y
 _atom_site_fract_z
 _atom_site_occupancy
  Y  Y0  1  0.000000  0.322831  0.413971  1
  Y  Y1  1  0.000000  0.677169  0.586029  1
  Y  Y2  1  0.000000  0.822831  0.086029  1
  Y  Y3  1  0.000000  0.177169  0.913971  1
  Ho  Ho4  1  0.000000  0.943852  0.372283  1
  Ho  Ho5  1  0.000000  0.056148  0.627717  1
  Ho  Ho6  1  0.000000  0.443852  0.127717  1
  Ho  Ho7  1  0.000000  0.556148  0.872283  1
  B  B8  1  0.500000  0.554362  0.432789  1
  B  B9  1  0.500000  0.445638  0.567211  1
  B  B10  1  0.500000  0.054362  0.067211  1
  B  B11  1  0.500000  0.945638  0.932789  1
  B  B12  1  0.500000  0.748108  0.419480  1
  B  B13  1  0.500000  0.251892  0.580520  1
  B  B14  1  0.500000  0.248108  0.080520  1
  B  B15  1  0.500000  0.751892  0.919480  1
  B  B16  1  0.500000  0.791431  0.266442  1
  B  B17  1  0.500000  0.208569  0.733558  1
  B  B18  1  0.500000  0.291431  0.233558  1
  B  B19  1  0.500000  0.708569  0.766442  1
  B  B20  1  0.500000  0.631991  0.185366  1
  B  B21  1  0.500000  0.368009  0.814634  1
  B  B22  1  0.500000  0.131991  0.314634  1
  B  B23  1  0.500000  0.868009  0.685366  1
  B  B24  1  0.500000  0.983894  0.213166  1
  B  B25  1  0.500000  0.016106  0.786834  1
  B  B26  1  0.500000  0.483894  0.286834  1
  B  B27  1  0.500000  0.516106  0.713166  1
  B  B28  1  0.500000  0.607819  0.029788  1
  B  B29  1  0.500000  0.392181  0.970212  1
  B  B30  1  0.500000  0.107819  0.470212  1
  B  B31  1  0.500000  0.892181  0.529788  1
  Ru  Ru32  1  0.000000  0.638048  0.320930  1
  Ru  Ru33  1  0.000000  0.361952  0.679070  1
  Ru  Ru34  1  0.000000  0.138048  0.179070  1
  Ru  Ru35  1  0.000000  0.861952  0.820930  1
