# generated using pymatgen
data_Li3Pr2ErAu3
_symmetry_space_group_name_H-M   'P 1'
_cell_length_a   7.42937500
_cell_length_b   7.46837972
_cell_length_c   4.25013800
_cell_angle_alpha   90.00000000
_cell_angle_beta   90.00000000
_cell_angle_gamma   120.17380907
_symmetry_Int_Tables_number   1
_chemical_formula_structural   Li3Pr2ErAu3
_chemical_formula_sum   'Li3 Pr2 Er1 Au3'
_cell_volume   203.86798785
_cell_formula_units_Z   1
loop_
 _symmetry_equiv_pos_site_id
 _symmetry_equiv_pos_as_xyz
  1  'x, y, z'
loop_
 _atom_site_type_symbol
 _atom_site_label
 _atom_site_symmetry_multiplicity
 _atom_site_fract_x
 _atom_site_fract_y
 _atom_site_fract_z
 _atom_site_occupancy
  Li  Li0  1  0.773257  0.767918  0.500000  1
  Li  Li1  1  0.226743  0.994662  0.500000  1
  Li  Li2  1  0.000000  0.232027  0.500000  1
  Pr  Pr3  1  0.412532  0.414178  0.000000  1
  Pr  Pr4  1  0.587468  0.001647  0.000000  1
  Er  Er5  1  0.000000  0.592437  0.000000  1
  Au  Au6  1  0.000000  0.987455  0.000000  1
  Au  Au7  1  0.683880  0.346777  0.500000  1
  Au  Au8  1  0.316120  0.662897  0.500000  1
