# generated using pymatgen
data_Dy10Er2Fe2I17
_symmetry_space_group_name_H-M   'P 1'
_cell_length_a   9.72953140
_cell_length_b   11.68070390
_cell_length_c   11.69959550
_cell_angle_alpha   93.52027705
_cell_angle_beta   104.77620764
_cell_angle_gamma   113.99060263
_symmetry_Int_Tables_number   1
_chemical_formula_structural   Dy10Er2Fe2I17
_chemical_formula_sum   'Dy10 Er2 Fe2 I17'
_cell_volume   1153.90006012
_cell_formula_units_Z   1
loop_
 _symmetry_equiv_pos_site_id
 _symmetry_equiv_pos_as_xyz
  1  'x, y, z'
loop_
 _atom_site_type_symbol
 _atom_site_label
 _atom_site_symmetry_multiplicity
 _atom_site_fract_x
 _atom_site_fract_y
 _atom_site_fract_z
 _atom_site_occupancy
  Dy  Dy0  1  0.051641  0.503033  0.319152  1
  Dy  Dy1  1  0.992188  0.807527  0.590665  1
  Dy  Dy2  1  0.658170  0.242078  0.279233  1
  Dy  Dy3  1  0.008957  0.191170  0.412372  1
  Dy  Dy4  1  0.217904  0.672243  0.981150  1
  Dy  Dy5  1  0.252713  0.976326  0.888170  1
  Dy  Dy6  1  0.346084  0.758396  0.718986  1
  Dy  Dy7  1  0.949390  0.499526  0.681443  1
  Dy  Dy8  1  0.745291  0.021713  0.110768  1
  Dy  Dy9  1  0.137380  0.285918  0.153160  1
  Er  Er10  1  0.781346  0.328033  0.018100  1
  Er  Er11  1  0.859594  0.713671  0.846428  1
  Fe  Fe12  1  0.104199  0.738143  0.785985  1
  Fe  Fe13  1  0.895964  0.261911  0.213985  1
  I  I14  1  0.785106  0.528368  0.417648  1
  I  I15  1  0.647304  0.420586  0.765491  1
  I  I16  1  0.844546  0.896885  0.327651  1
  I  I17  1  0.326680  0.214282  0.367327  1
  I  I18  1  0.155225  0.103005  0.672291  1
  I  I19  1  0.585295  0.053774  0.843344  1
  I  I20  1  0.760128  0.190711  0.538172  1
  I  I21  1  0.552540  0.712387  0.954459  1
  I  I22  1  0.352727  0.579248  0.236135  1
  I  I23  1  0.215403  0.471222  0.581944  1
  I  I24  1  0.055288  0.367858  0.897572  1
  I  I25  1  0.449052  0.287618  0.045384  1
  I  I26  1  0.000043  0.000333  0.000262  1
  I  I27  1  0.239591  0.809506  0.461006  1
  I  I28  1  0.415327  0.947509  0.156526  1
  I  I29  1  0.672460  0.785431  0.633255  1
  I  I30  1  0.942466  0.631590  0.101933  1
