# generated using pymatgen
data_Tb13Dy7Si15Ag
_symmetry_space_group_name_H-M   'P 1'
_cell_length_a   7.48372629
_cell_length_b   7.72349937
_cell_length_c   14.68545140
_cell_angle_alpha   89.83776030
_cell_angle_beta   89.46810802
_cell_angle_gamma   90.19277278
_symmetry_Int_Tables_number   1
_chemical_formula_structural   Tb13Dy7Si15Ag
_chemical_formula_sum   'Tb13 Dy7 Si15 Ag1'
_cell_volume   848.78238796
_cell_formula_units_Z   1
loop_
 _symmetry_equiv_pos_site_id
 _symmetry_equiv_pos_as_xyz
  1  'x, y, z'
loop_
 _atom_site_type_symbol
 _atom_site_label
 _atom_site_symmetry_multiplicity
 _atom_site_fract_x
 _atom_site_fract_y
 _atom_site_fract_z
 _atom_site_occupancy
  Tb  Tb0  1  0.648048  0.990911  0.249951  1
  Tb  Tb1  1  0.149750  0.511331  0.248083  1
  Tb  Tb2  1  0.848553  0.488780  0.749639  1
  Tb  Tb3  1  0.349827  0.011838  0.750128  1
  Tb  Tb4  1  0.975705  0.822778  0.101233  1
  Tb  Tb5  1  0.471487  0.683813  0.401197  1
  Tb  Tb6  1  0.520669  0.314900  0.898824  1
  Tb  Tb7  1  0.029863  0.182486  0.598575  1
  Tb  Tb8  1  0.030258  0.176287  0.899857  1
  Tb  Tb9  1  0.529457  0.316371  0.598408  1
  Tb  Tb10  1  0.473166  0.682816  0.100763  1
  Tb  Tb11  1  0.969570  0.816783  0.400197  1
  Tb  Tb12  1  0.675761  0.825705  0.876100  1
  Dy  Dy13  1  0.181597  0.680171  0.621867  1
  Dy  Dy14  1  0.820338  0.323743  0.124199  1
  Dy  Dy15  1  0.317937  0.178350  0.377202  1
  Dy  Dy16  1  0.322651  0.178568  0.123618  1
  Dy  Dy17  1  0.819325  0.320423  0.377244  1
  Dy  Dy18  1  0.182399  0.676231  0.877737  1
  Dy  Dy19  1  0.681714  0.820997  0.622445  1
  Si  Si20  1  0.765606  0.627807  0.251505  1
  Si  Si21  1  0.266302  0.873775  0.251223  1
  Si  Si22  1  0.734372  0.125591  0.748708  1
  Si  Si23  1  0.231668  0.374179  0.747587  1
  Si  Si24  1  0.022644  0.105199  0.250397  1
  Si  Si25  1  0.524057  0.395825  0.252224  1
  Si  Si26  1  0.474886  0.604221  0.748040  1
  Si  Si27  1  0.976806  0.892441  0.748408  1
  Si  Si28  1  0.354888  0.971275  0.540016  1
  Si  Si29  1  0.649511  0.028811  0.041453  1
  Si  Si30  1  0.146252  0.470273  0.460098  1
  Si  Si31  1  0.158269  0.470537  0.042219  1
  Si  Si32  1  0.645437  0.028873  0.459468  1
  Si  Si33  1  0.351454  0.969283  0.961331  1
  Si  Si34  1  0.855519  0.529758  0.538849  1
  Ag  Ag35  1  0.844251  0.528864  0.961208  1
