# generated using pymatgen
data_SrCeCu2SbAs3
_symmetry_space_group_name_H-M   'P 1'
_cell_length_a   4.10812800
_cell_length_b   4.09266100
_cell_length_c   10.43615800
_cell_angle_alpha   90.00000000
_cell_angle_beta   90.00000000
_cell_angle_gamma   90.00000000
_symmetry_Int_Tables_number   1
_chemical_formula_structural   SrCeCu2SbAs3
_chemical_formula_sum   'Sr1 Ce1 Cu2 Sb1 As3'
_cell_volume   175.46495338
_cell_formula_units_Z   1
loop_
 _symmetry_equiv_pos_site_id
 _symmetry_equiv_pos_as_xyz
  1  'x, y, z'
loop_
 _atom_site_type_symbol
 _atom_site_label
 _atom_site_symmetry_multiplicity
 _atom_site_fract_x
 _atom_site_fract_y
 _atom_site_fract_z
 _atom_site_occupancy
  Sr  Sr0  1  0.500000  0.000000  0.250663  1
  Ce  Ce1  1  0.000000  0.500000  0.760858  1
  Cu  Cu2  1  0.000000  0.000000  0.991379  1
  Cu  Cu3  1  0.500000  0.500000  0.992011  1
  Sb  Sb4  1  0.500000  0.500000  0.514211  1
  As  As5  1  0.500000  0.000000  0.840978  1
  As  As6  1  0.000000  0.500000  0.122807  1
  As  As7  1  0.000000  0.000000  0.527092  1
