# generated using pymatgen
data_Pr7Nd(PI5)2
_symmetry_space_group_name_H-M   'P 1'
_cell_length_a   4.27956600
_cell_length_b   9.07812076
_cell_length_c   19.13417158
_cell_angle_alpha   89.95329533
_cell_angle_beta   90.00000000
_cell_angle_gamma   90.00000000
_symmetry_Int_Tables_number   1
_chemical_formula_structural   Pr7Nd(PI5)2
_chemical_formula_sum   'Pr7 Nd1 P2 I10'
_cell_volume   743.37029674
_cell_formula_units_Z   1
loop_
 _symmetry_equiv_pos_site_id
 _symmetry_equiv_pos_as_xyz
  1  'x, y, z'
loop_
 _atom_site_type_symbol
 _atom_site_label
 _atom_site_symmetry_multiplicity
 _atom_site_fract_x
 _atom_site_fract_y
 _atom_site_fract_z
 _atom_site_occupancy
  Pr  Pr0  1  0.500000  0.579790  0.999986  1
  Pr  Pr1  1  0.000000  0.372014  0.144332  1
  Pr  Pr2  1  0.000000  0.837478  0.500001  1
  Pr  Pr3  1  0.500000  0.628002  0.354884  1
  Pr  Pr4  1  0.000000  0.418705  0.500041  1
  Pr  Pr5  1  0.500000  0.627915  0.645069  1
  Pr  Pr6  1  0.500000  0.163929  0.999957  1
  Nd  Nd7  1  0.000000  0.371896  0.855827  1
  P  P8  1  0.500000  0.628116  0.499990  1
  P  P9  1  0.000000  0.371830  0.999478  1
  I  I10  1  0.500000  0.113512  0.167502  1
  I  I11  1  0.000000  0.364176  0.669999  1
  I  I12  1  0.000000  0.870858  0.999909  1
  I  I13  1  0.000000  0.886561  0.332499  1
  I  I14  1  0.500000  0.116414  0.832448  1
  I  I15  1  0.500000  0.633018  0.830530  1
  I  I16  1  0.000000  0.886534  0.667555  1
  I  I17  1  0.000000  0.364084  0.330419  1
  I  I18  1  0.500000  0.635986  0.169553  1
  I  I19  1  0.500000  0.129182  0.500019  1
