# generated using pymatgen
data_Pr4Ho11Sc5Bi12
_symmetry_space_group_name_H-M   'P 1'
_cell_length_a   8.21659963
_cell_length_b   9.40341649
_cell_length_c   12.08974965
_cell_angle_alpha   90.00168476
_cell_angle_beta   89.87030311
_cell_angle_gamma   90.06442678
_symmetry_Int_Tables_number   1
_chemical_formula_structural   Pr4Ho11Sc5Bi12
_chemical_formula_sum   'Pr4 Ho11 Sc5 Bi12'
_cell_volume   934.10074332
_cell_formula_units_Z   1
loop_
 _symmetry_equiv_pos_site_id
 _symmetry_equiv_pos_as_xyz
  1  'x, y, z'
loop_
 _atom_site_type_symbol
 _atom_site_label
 _atom_site_symmetry_multiplicity
 _atom_site_fract_x
 _atom_site_fract_y
 _atom_site_fract_z
 _atom_site_occupancy
  Pr  Pr0  1  0.170389  0.749408  0.225033  1
  Pr  Pr1  1  0.329745  0.749390  0.725765  1
  Pr  Pr2  1  0.829880  0.249507  0.774673  1
  Pr  Pr3  1  0.670414  0.251058  0.274316  1
  Ho  Ho4  1  0.692515  0.935681  0.563146  1
  Ho  Ho5  1  0.190445  0.064107  0.937642  1
  Ho  Ho6  1  0.307643  0.436008  0.436707  1
  Ho  Ho7  1  0.191530  0.436251  0.937195  1
  Ho  Ho8  1  0.307342  0.064019  0.436970  1
  Ho  Ho9  1  0.808300  0.936800  0.062952  1
  Ho  Ho10  1  0.692576  0.563876  0.563095  1
  Ho  Ho11  1  0.665584  0.747347  0.285841  1
  Ho  Ho12  1  0.835078  0.749209  0.788806  1
  Ho  Ho13  1  0.335197  0.249686  0.712283  1
  Ho  Ho14  1  0.164900  0.249345  0.211710  1
  Sc  Sc15  1  0.807952  0.567095  0.062699  1
  Sc  Sc16  1  0.481054  0.747673  0.003739  1
  Sc  Sc17  1  0.022518  0.749876  0.502709  1
  Sc  Sc18  1  0.522120  0.250720  0.996870  1
  Sc  Sc19  1  0.977445  0.249781  0.496684  1
  Bi  Bi20  1  0.399795  0.750170  0.465030  1
  Bi  Bi21  1  0.097862  0.748089  0.966781  1
  Bi  Bi22  1  0.601231  0.249714  0.534528  1
  Bi  Bi23  1  0.895665  0.257687  0.035754  1
  Bi  Bi24  1  0.936027  0.506310  0.332783  1
  Bi  Bi25  1  0.563908  0.992828  0.834443  1
  Bi  Bi26  1  0.063842  0.006020  0.666265  1
  Bi  Bi27  1  0.438553  0.493757  0.165313  1
  Bi  Bi28  1  0.063695  0.493455  0.666081  1
  Bi  Bi29  1  0.436494  0.005926  0.165914  1
  Bi  Bi30  1  0.935702  0.992946  0.333524  1
  Bi  Bi31  1  0.564599  0.506261  0.834748  1
