# generated using pymatgen
data_DyTm2Co9
_symmetry_space_group_name_H-M   'P 1'
_cell_length_a   8.50077788
_cell_length_b   8.50077828
_cell_length_c   8.50077874
_cell_angle_alpha   33.65480712
_cell_angle_beta   33.65480230
_cell_angle_gamma   33.65480410
_symmetry_Int_Tables_number   1
_chemical_formula_structural   DyTm2Co9
_chemical_formula_sum   'Dy1 Tm2 Co9'
_cell_volume   168.07493837
_cell_formula_units_Z   1
loop_
 _symmetry_equiv_pos_site_id
 _symmetry_equiv_pos_as_xyz
  1  'x, y, z'
loop_
 _atom_site_type_symbol
 _atom_site_label
 _atom_site_symmetry_multiplicity
 _atom_site_fract_x
 _atom_site_fract_y
 _atom_site_fract_z
 _atom_site_occupancy
  Dy  Dy0  1  0.000000  0.000000  0.000000  1
  Tm  Tm1  1  0.139354  0.139354  0.139354  1
  Tm  Tm2  1  0.860646  0.860646  0.860646  1
  Co  Co3  1  0.581043  0.081869  0.581043  1
  Co  Co4  1  0.581043  0.581043  0.081869  1
  Co  Co5  1  0.333258  0.333258  0.333258  1
  Co  Co6  1  0.918131  0.418957  0.418957  1
  Co  Co7  1  0.081869  0.581043  0.581043  1
  Co  Co8  1  0.418957  0.918131  0.418957  1
  Co  Co9  1  0.666742  0.666742  0.666742  1
  Co  Co10  1  0.500000  0.500000  0.500000  1
  Co  Co11  1  0.418957  0.418957  0.918131  1
