# generated using pymatgen
data_CaGaHgPd3
_symmetry_space_group_name_H-M   'P 1'
_cell_length_a   5.18730910
_cell_length_b   5.18730951
_cell_length_c   5.18730900
_cell_angle_alpha   65.69538673
_cell_angle_beta   65.69539683
_cell_angle_gamma   65.69539587
_symmetry_Int_Tables_number   1
_chemical_formula_structural   CaGaHgPd3
_chemical_formula_sum   'Ca1 Ga1 Hg1 Pd3'
_cell_volume   110.89766648
_cell_formula_units_Z   1
loop_
 _symmetry_equiv_pos_site_id
 _symmetry_equiv_pos_as_xyz
  1  'x, y, z'
loop_
 _atom_site_type_symbol
 _atom_site_label
 _atom_site_symmetry_multiplicity
 _atom_site_fract_x
 _atom_site_fract_y
 _atom_site_fract_z
 _atom_site_occupancy
  Ca  Ca0  1  0.124774  0.124774  0.124774  1
  Ga  Ga1  1  0.500220  0.500220  0.500220  1
  Hg  Hg2  1  0.872404  0.872404  0.872404  1
  Pd  Pd3  1  0.501674  0.501674  0.999254  1
  Pd  Pd4  1  0.999254  0.501674  0.501674  1
  Pd  Pd5  1  0.501674  0.999254  0.501674  1
