# generated using pymatgen
data_Th2Ga12Ni
_symmetry_space_group_name_H-M   'P 1'
_cell_length_a   6.06089000
_cell_length_b   6.06089000
_cell_length_c   15.38286400
_cell_angle_alpha   90.00000000
_cell_angle_beta   90.00000000
_cell_angle_gamma   90.00000000
_symmetry_Int_Tables_number   1
_chemical_formula_structural   Th2Ga12Ni
_chemical_formula_sum   'Th4 Ga24 Ni2'
_cell_volume   565.08008845
_cell_formula_units_Z   2
loop_
 _symmetry_equiv_pos_site_id
 _symmetry_equiv_pos_as_xyz
  1  'x, y, z'
loop_
 _atom_site_type_symbol
 _atom_site_label
 _atom_site_symmetry_multiplicity
 _atom_site_fract_x
 _atom_site_fract_y
 _atom_site_fract_z
 _atom_site_occupancy
  Th  Th0  1  0.500000  0.000000  0.244813  1
  Th  Th1  1  0.500000  0.000000  0.755187  1
  Th  Th2  1  0.000000  0.500000  0.755187  1
  Th  Th3  1  0.000000  0.500000  0.244813  1
  Ga  Ga4  1  0.329313  0.829313  0.428887  1
  Ga  Ga5  1  0.670687  0.170687  0.428887  1
  Ga  Ga6  1  0.329313  0.170687  0.571113  1
  Ga  Ga7  1  0.670687  0.829313  0.571113  1
  Ga  Ga8  1  0.170687  0.670687  0.571113  1
  Ga  Ga9  1  0.829313  0.329313  0.571113  1
  Ga  Ga10  1  0.829313  0.670687  0.428887  1
  Ga  Ga11  1  0.170687  0.329313  0.428887  1
  Ga  Ga12  1  0.250850  0.750850  0.915510  1
  Ga  Ga13  1  0.749150  0.249150  0.915510  1
  Ga  Ga14  1  0.250850  0.249150  0.084490  1
  Ga  Ga15  1  0.749150  0.750850  0.084490  1
  Ga  Ga16  1  0.249150  0.749150  0.084490  1
  Ga  Ga17  1  0.750850  0.250850  0.084490  1
  Ga  Ga18  1  0.750850  0.749150  0.915510  1
  Ga  Ga19  1  0.249150  0.250850  0.915510  1
  Ga  Ga20  1  0.500000  0.500000  0.341541  1
  Ga  Ga21  1  0.500000  0.500000  0.658459  1
  Ga  Ga22  1  0.000000  0.000000  0.658459  1
  Ga  Ga23  1  0.000000  0.000000  0.341541  1
  Ga  Ga24  1  0.500000  0.500000  0.182670  1
  Ga  Ga25  1  0.500000  0.500000  0.817330  1
  Ga  Ga26  1  0.000000  0.000000  0.817330  1
  Ga  Ga27  1  0.000000  0.000000  0.182670  1
  Ni  Ni28  1  0.500000  0.000000  0.000000  1
  Ni  Ni29  1  0.000000  0.500000  0.000000  1
