# generated using pymatgen
data_YbMn2O4
_symmetry_space_group_name_H-M   'P 1'
_cell_length_a   3.15876595
_cell_length_b   9.72394900
_cell_length_c   10.09585163
_cell_angle_alpha   89.99951511
_cell_angle_beta   90.00424187
_cell_angle_gamma   89.99991107
_symmetry_Int_Tables_number   1
_chemical_formula_structural   YbMn2O4
_chemical_formula_sum   'Yb4 Mn8 O16'
_cell_volume   310.10093676
_cell_formula_units_Z   4
loop_
 _symmetry_equiv_pos_site_id
 _symmetry_equiv_pos_as_xyz
  1  'x, y, z'
loop_
 _atom_site_type_symbol
 _atom_site_label
 _atom_site_symmetry_multiplicity
 _atom_site_fract_x
 _atom_site_fract_y
 _atom_site_fract_z
 _atom_site_occupancy
  Yb  Yb0  1  0.312806  0.749998  0.146831  1
  Yb  Yb1  1  0.687169  0.749999  0.646844  1
  Yb  Yb2  1  0.687345  0.250011  0.853256  1
  Yb  Yb3  1  0.312654  0.250017  0.353250  1
  Mn  Mn4  1  0.209581  0.430564  0.612078  1
  Mn  Mn5  1  0.211459  0.930508  0.888167  1
  Mn  Mn6  1  0.790471  0.430558  0.112084  1
  Mn  Mn7  1  0.211482  0.569504  0.888174  1
  Mn  Mn8  1  0.788590  0.569492  0.388152  1
  Mn  Mn9  1  0.790537  0.069428  0.112095  1
  Mn  Mn10  1  0.788504  0.930494  0.388167  1
  Mn  Mn11  1  0.209524  0.069433  0.612090  1
  O  O12  1  0.390261  0.500087  0.249841  1
  O  O13  1  0.390244  0.999909  0.249819  1
  O  O14  1  0.609724  0.999906  0.749828  1
  O  O15  1  0.609752  0.500083  0.749849  1
  O  O16  1  0.194053  0.750000  0.809772  1
  O  O17  1  0.806023  0.750002  0.309762  1
  O  O18  1  0.193701  0.249995  0.690202  1
  O  O19  1  0.806209  0.249994  0.190199  1
  O  O20  1  0.795330  0.110563  0.472090  1
  O  O21  1  0.796254  0.610628  0.027791  1
  O  O22  1  0.795432  0.389442  0.472098  1
  O  O23  1  0.203702  0.889370  0.527787  1
  O  O24  1  0.203780  0.610631  0.527797  1
  O  O25  1  0.204574  0.110564  0.972088  1
  O  O26  1  0.204602  0.389443  0.972111  1
  O  O27  1  0.796233  0.889374  0.027775  1
