# generated using pymatgen
data_Gd2B10Pt
_symmetry_space_group_name_H-M   'P 1'
_cell_length_a   4.18636500
_cell_length_b   5.71996200
_cell_length_c   11.41350700
_cell_angle_alpha   90.00000000
_cell_angle_beta   90.00000000
_cell_angle_gamma   90.00000000
_symmetry_Int_Tables_number   1
_chemical_formula_structural   Gd2B10Pt
_chemical_formula_sum   'Gd4 B20 Pt2'
_cell_volume   273.30611197
_cell_formula_units_Z   2
loop_
 _symmetry_equiv_pos_site_id
 _symmetry_equiv_pos_as_xyz
  1  'x, y, z'
loop_
 _atom_site_type_symbol
 _atom_site_label
 _atom_site_symmetry_multiplicity
 _atom_site_fract_x
 _atom_site_fract_y
 _atom_site_fract_z
 _atom_site_occupancy
  Gd  Gd0  1  0.500000  0.188542  0.359472  1
  Gd  Gd1  1  0.500000  0.811458  0.640528  1
  Gd  Gd2  1  0.500000  0.311458  0.859472  1
  Gd  Gd3  1  0.500000  0.688542  0.140528  1
  B  B4  1  0.000000  0.383700  0.043920  1
  B  B5  1  0.000000  0.616300  0.956080  1
  B  B6  1  0.000000  0.116300  0.543920  1
  B  B7  1  0.000000  0.883700  0.456080  1
  B  B8  1  0.000000  0.361234  0.197711  1
  B  B9  1  0.000000  0.638766  0.802289  1
  B  B10  1  0.000000  0.138766  0.697711  1
  B  B11  1  0.000000  0.861234  0.302289  1
  B  B12  1  0.000000  0.054624  0.193877  1
  B  B13  1  0.000000  0.945376  0.806123  1
  B  B14  1  0.000000  0.445376  0.693877  1
  B  B15  1  0.000000  0.554624  0.306123  1
  B  B16  1  0.302723  0.219679  0.120274  1
  B  B17  1  0.697277  0.780321  0.879726  1
  B  B18  1  0.302723  0.780321  0.879726  1
  B  B19  1  0.697277  0.280321  0.620274  1
  B  B20  1  0.697277  0.219679  0.120274  1
  B  B21  1  0.302723  0.719679  0.379726  1
  B  B22  1  0.697277  0.719679  0.379726  1
  B  B23  1  0.302723  0.280321  0.620274  1
  Pt  Pt24  1  0.000000  0.000000  0.000000  1
  Pt  Pt25  1  0.000000  0.500000  0.500000  1
