# generated using pymatgen
data_La4B4Rh9Au
_symmetry_space_group_name_H-M   'P 1'
_cell_length_a   5.58038700
_cell_length_b   5.58038842
_cell_length_c   21.35758800
_cell_angle_alpha   90.00000000
_cell_angle_beta   90.00000000
_cell_angle_gamma   120.03776511
_symmetry_Int_Tables_number   1
_chemical_formula_structural   La4B4Rh9Au
_chemical_formula_sum   'La8 B8 Rh18 Au2'
_cell_volume   575.76622959
_cell_formula_units_Z   2
loop_
 _symmetry_equiv_pos_site_id
 _symmetry_equiv_pos_as_xyz
  1  'x, y, z'
loop_
 _atom_site_type_symbol
 _atom_site_label
 _atom_site_symmetry_multiplicity
 _atom_site_fract_x
 _atom_site_fract_y
 _atom_site_fract_z
 _atom_site_occupancy
  La  La0  1  0.666722  0.333278  0.524159  1
  La  La1  1  0.333278  0.666722  0.475841  1
  La  La2  1  0.333278  0.666722  0.024159  1
  La  La3  1  0.666722  0.333278  0.975841  1
  La  La4  1  0.666725  0.333275  0.675334  1
  La  La5  1  0.333275  0.666725  0.324666  1
  La  La6  1  0.333275  0.666725  0.175334  1
  La  La7  1  0.666725  0.333275  0.824666  1
  B  B8  1  0.000119  0.999881  0.676947  1
  B  B9  1  0.999881  0.000119  0.323053  1
  B  B10  1  0.999881  0.000119  0.176947  1
  B  B11  1  0.000119  0.999881  0.823053  1
  B  B12  1  0.666659  0.333341  0.324463  1
  B  B13  1  0.333341  0.666659  0.675537  1
  B  B14  1  0.333341  0.666659  0.824463  1
  B  B15  1  0.666659  0.333341  0.175537  1
  Rh  Rh16  1  0.166676  0.333114  0.750000  1
  Rh  Rh17  1  0.166659  0.833341  0.750000  1
  Rh  Rh18  1  0.666886  0.833324  0.750000  1
  Rh  Rh19  1  0.833324  0.666886  0.250000  1
  Rh  Rh20  1  0.833341  0.166659  0.250000  1
  Rh  Rh21  1  0.333114  0.166676  0.250000  1
  Rh  Rh22  1  0.165942  0.331596  0.610125  1
  Rh  Rh23  1  0.165962  0.834038  0.610095  1
  Rh  Rh24  1  0.668404  0.834058  0.610125  1
  Rh  Rh25  1  0.834058  0.668404  0.389875  1
  Rh  Rh26  1  0.834038  0.165962  0.389905  1
  Rh  Rh27  1  0.331596  0.165942  0.389875  1
  Rh  Rh28  1  0.834058  0.668404  0.110125  1
  Rh  Rh29  1  0.834038  0.165962  0.110095  1
  Rh  Rh30  1  0.331596  0.165942  0.110125  1
  Rh  Rh31  1  0.165942  0.331596  0.889875  1
  Rh  Rh32  1  0.165962  0.834038  0.889905  1
  Rh  Rh33  1  0.668404  0.834058  0.889875  1
  Au  Au34  1  0.000000  0.000000  0.500000  1
  Au  Au35  1  0.000000  0.000000  0.000000  1
