# generated using pymatgen
data_Sc3Ta(ZnRh2)4
_symmetry_space_group_name_H-M   'P 1'
_cell_length_a   5.96571400
_cell_length_b   5.96513700
_cell_length_c   6.78425600
_cell_angle_alpha   89.99933725
_cell_angle_beta   90.00032654
_cell_angle_gamma   90.00072999
_symmetry_Int_Tables_number   1
_chemical_formula_structural   Sc3Ta(ZnRh2)4
_chemical_formula_sum   'Sc3 Ta1 Zn4 Rh8'
_cell_volume   241.42657820
_cell_formula_units_Z   1
loop_
 _symmetry_equiv_pos_site_id
 _symmetry_equiv_pos_as_xyz
  1  'x, y, z'
loop_
 _atom_site_type_symbol
 _atom_site_label
 _atom_site_symmetry_multiplicity
 _atom_site_fract_x
 _atom_site_fract_y
 _atom_site_fract_z
 _atom_site_occupancy
  Sc  Sc0  1  0.249935  0.750011  0.000035  1
  Sc  Sc1  1  0.749973  0.249984  0.500018  1
  Sc  Sc2  1  0.250023  0.750006  0.499961  1
  Ta  Ta3  1  0.750045  0.250016  0.999971  1
  Zn  Zn4  1  0.249962  0.250010  0.000034  1
  Zn  Zn5  1  0.749999  0.749993  0.000042  1
  Zn  Zn6  1  0.250028  0.250030  0.499993  1
  Zn  Zn7  1  0.749960  0.749976  0.499988  1
  Rh  Rh8  1  0.503092  0.003150  0.245387  1
  Rh  Rh9  1  0.503085  0.496858  0.245377  1
  Rh  Rh10  1  0.996959  0.003159  0.245441  1
  Rh  Rh11  1  0.996923  0.496821  0.245431  1
  Rh  Rh12  1  0.996969  0.003102  0.754533  1
  Rh  Rh13  1  0.996974  0.496860  0.754582  1
  Rh  Rh14  1  0.503048  0.003125  0.754581  1
  Rh  Rh15  1  0.503022  0.496898  0.754624  1
