# generated using pymatgen
data_TbCe2Er(SnRu)4
_symmetry_space_group_name_H-M   'P 1'
_cell_length_a   6.22195128
_cell_length_b   6.22195153
_cell_length_c   10.09533307
_cell_angle_alpha   78.56881324
_cell_angle_beta   78.56881350
_cell_angle_gamma   45.36795371
_symmetry_Int_Tables_number   1
_chemical_formula_structural   TbCe2Er(SnRu)4
_chemical_formula_sum   'Tb1 Ce2 Er1 Sn4 Ru4'
_cell_volume   271.62637332
_cell_formula_units_Z   1
loop_
 _symmetry_equiv_pos_site_id
 _symmetry_equiv_pos_as_xyz
  1  'x, y, z'
loop_
 _atom_site_type_symbol
 _atom_site_label
 _atom_site_symmetry_multiplicity
 _atom_site_fract_x
 _atom_site_fract_y
 _atom_site_fract_z
 _atom_site_occupancy
  Tb  Tb0  1  0.876416  0.876416  0.406991  1
  Ce  Ce1  1  0.861914  0.861914  0.911986  1
  Ce  Ce2  1  0.140189  0.140189  0.087274  1
  Er  Er3  1  0.121245  0.121245  0.593947  1
  Sn  Sn4  1  0.425915  0.425915  0.159691  1
  Sn  Sn5  1  0.404773  0.404773  0.643023  1
  Sn  Sn6  1  0.574987  0.574987  0.839818  1
  Sn  Sn7  1  0.594534  0.594534  0.358864  1
  Ru  Ru8  1  0.816540  0.816540  0.149220  1
  Ru  Ru9  1  0.196370  0.196370  0.308486  1
  Ru  Ru10  1  0.183215  0.183215  0.848884  1
  Ru  Ru11  1  0.803905  0.803905  0.691813  1
