# generated using pymatgen
data_LiV(NiAs)2
_symmetry_space_group_name_H-M   'P 1'
_cell_length_a   6.02897601
_cell_length_b   3.72827100
_cell_length_c   7.08114602
_cell_angle_alpha   90.00000000
_cell_angle_beta   89.99263151
_cell_angle_gamma   90.00000000
_symmetry_Int_Tables_number   1
_chemical_formula_structural   LiV(NiAs)2
_chemical_formula_sum   'Li2 V2 Ni4 As4'
_cell_volume   159.16756591
_cell_formula_units_Z   2
loop_
 _symmetry_equiv_pos_site_id
 _symmetry_equiv_pos_as_xyz
  1  'x, y, z'
loop_
 _atom_site_type_symbol
 _atom_site_label
 _atom_site_symmetry_multiplicity
 _atom_site_fract_x
 _atom_site_fract_y
 _atom_site_fract_z
 _atom_site_occupancy
  Li  Li0  1  0.033828  0.250000  0.314603  1
  Li  Li1  1  0.534008  0.250000  0.185502  1
  V  V2  1  0.964363  0.750000  0.686109  1
  V  V3  1  0.464302  0.750000  0.813785  1
  Ni  Ni4  1  0.140614  0.250000  0.939647  1
  Ni  Ni5  1  0.640708  0.250000  0.560507  1
  Ni  Ni6  1  0.857458  0.750000  0.058190  1
  Ni  Ni7  1  0.357614  0.750000  0.441656  1
  As  As8  1  0.251788  0.250000  0.624390  1
  As  As9  1  0.751773  0.250000  0.875605  1
  As  As10  1  0.751804  0.750000  0.383479  1
  As  As11  1  0.251739  0.750000  0.116526  1
