# generated using pymatgen
data_TmMg(ZnNi)2
_symmetry_space_group_name_H-M   'P 1'
_cell_length_a   5.05703127
_cell_length_b   5.05703215
_cell_length_c   5.05703103
_cell_angle_alpha   119.26657497
_cell_angle_beta   118.29192319
_cell_angle_gamma   92.12973803
_symmetry_Int_Tables_number   1
_chemical_formula_structural   TmMg(ZnNi)2
_chemical_formula_sum   'Tm1 Mg1 Zn2 Ni2'
_cell_volume   93.05727691
_cell_formula_units_Z   1
loop_
 _symmetry_equiv_pos_site_id
 _symmetry_equiv_pos_as_xyz
  1  'x, y, z'
loop_
 _atom_site_type_symbol
 _atom_site_label
 _atom_site_symmetry_multiplicity
 _atom_site_fract_x
 _atom_site_fract_y
 _atom_site_fract_z
 _atom_site_occupancy
  Tm  Tm0  1  0.009019  0.009019  0.000000  1
  Mg  Mg1  1  0.246719  0.746719  0.500000  1
  Zn  Zn2  1  0.622476  0.871230  0.248754  1
  Zn  Zn3  1  0.622476  0.373723  0.751246  1
  Ni  Ni4  1  0.125324  0.374655  0.750669  1
  Ni  Ni5  1  0.623985  0.374655  0.249331  1
