# generated using pymatgen
data_Ho4Sc6Si20Ir5Pt3
_symmetry_space_group_name_H-M   'P 1'
_cell_length_a   12.50072963
_cell_length_b   12.45156503
_cell_length_c   4.17150100
_cell_angle_alpha   90.00000000
_cell_angle_beta   90.00000000
_cell_angle_gamma   89.99523380
_symmetry_Int_Tables_number   1
_chemical_formula_structural   Ho4Sc6Si20Ir5Pt3
_chemical_formula_sum   'Ho4 Sc6 Si20 Ir5 Pt3'
_cell_volume   649.30934522
_cell_formula_units_Z   1
loop_
 _symmetry_equiv_pos_site_id
 _symmetry_equiv_pos_as_xyz
  1  'x, y, z'
loop_
 _atom_site_type_symbol
 _atom_site_label
 _atom_site_symmetry_multiplicity
 _atom_site_fract_x
 _atom_site_fract_y
 _atom_site_fract_z
 _atom_site_occupancy
  Ho  Ho0  1  0.886269  0.384830  0.500000  1
  Ho  Ho1  1  0.113803  0.614523  0.500000  1
  Ho  Ho2  1  0.386069  0.114478  0.500000  1
  Ho  Ho3  1  0.614616  0.886471  0.500000  1
  Sc  Sc4  1  0.500619  0.499903  0.000000  1
  Sc  Sc5  1  0.996182  0.000351  0.000000  1
  Sc  Sc6  1  0.673747  0.174573  0.500000  1
  Sc  Sc7  1  0.326465  0.824441  0.500000  1
  Sc  Sc8  1  0.173736  0.324266  0.500000  1
  Sc  Sc9  1  0.826629  0.675686  0.500000  1
  Si  Si10  1  0.567230  0.068444  0.000000  1
  Si  Si11  1  0.435460  0.931766  0.000000  1
  Si  Si12  1  0.064835  0.431431  0.000000  1
  Si  Si13  1  0.935179  0.568530  0.000000  1
  Si  Si14  1  0.666435  0.704355  0.000000  1
  Si  Si15  1  0.334421  0.295731  0.000000  1
  Si  Si16  1  0.165209  0.796333  0.000000  1
  Si  Si17  1  0.835152  0.199990  0.000000  1
  Si  Si18  1  0.301101  0.666409  0.000000  1
  Si  Si19  1  0.700467  0.332476  0.000000  1
  Si  Si20  1  0.198501  0.165883  0.000000  1
  Si  Si21  1  0.801394  0.836355  0.000000  1
  Si  Si22  1  0.649111  0.506516  0.500000  1
  Si  Si23  1  0.351494  0.494309  0.500000  1
  Si  Si24  1  0.147986  0.993946  0.500000  1
  Si  Si25  1  0.847421  0.008182  0.500000  1
  Si  Si26  1  0.492586  0.651036  0.500000  1
  Si  Si27  1  0.507859  0.349349  0.500000  1
  Si  Si28  1  0.008065  0.150762  0.500000  1
  Si  Si29  1  0.991492  0.849534  0.500000  1
  Ir  Ir30  1  0.755438  0.021805  0.000000  1
  Ir  Ir31  1  0.479640  0.742669  0.000000  1
  Ir  Ir32  1  0.520407  0.257283  0.000000  1
  Ir  Ir33  1  0.021076  0.242771  0.000000  1
  Ir  Ir34  1  0.979399  0.757132  0.000000  1
  Pt  Pt35  1  0.744192  0.521632  0.000000  1
  Pt  Pt36  1  0.256136  0.477869  0.000000  1
  Pt  Pt37  1  0.244184  0.977979  0.000000  1
