# generated using pymatgen
data_Nd8Mo3SeO24
_symmetry_space_group_name_H-M   'P 1'
_cell_length_a   5.75496759
_cell_length_b   5.75496847
_cell_length_c   16.37133634
_cell_angle_alpha   100.12310025
_cell_angle_beta   100.12310190
_cell_angle_gamma   89.99999836
_symmetry_Int_Tables_number   1
_chemical_formula_structural   Nd8Mo3SeO24
_chemical_formula_sum   'Nd8 Mo3 Se1 O24'
_cell_volume   525.19548079
_cell_formula_units_Z   1
loop_
 _symmetry_equiv_pos_site_id
 _symmetry_equiv_pos_as_xyz
  1  'x, y, z'
loop_
 _atom_site_type_symbol
 _atom_site_label
 _atom_site_symmetry_multiplicity
 _atom_site_fract_x
 _atom_site_fract_y
 _atom_site_fract_z
 _atom_site_occupancy
  Nd  Nd0  1  0.038546  0.288546  0.077091  1
  Nd  Nd1  1  0.538652  0.788652  0.077302  1
  Nd  Nd2  1  0.211348  0.461348  0.422698  1
  Nd  Nd3  1  0.711454  0.961455  0.422909  1
  Nd  Nd4  1  0.286915  0.036914  0.573830  1
  Nd  Nd5  1  0.787079  0.537079  0.574156  1
  Nd  Nd6  1  0.462922  0.212921  0.925844  1
  Nd  Nd7  1  0.963086  0.713086  0.926170  1
  Mo  Mo8  1  0.125000  0.875000  0.250000  1
  Mo  Mo9  1  0.875000  0.125000  0.750000  1
  Mo  Mo10  1  0.375000  0.625000  0.750000  1
  Se  Se11  1  0.625000  0.375000  0.250000  1
  O  O12  1  0.750126  0.007077  0.000319  1
  O  O13  1  0.250193  0.493243  0.000319  1
  O  O14  1  0.751680  0.507863  0.002939  1
  O  O15  1  0.251259  0.995077  0.002939  1
  O  O16  1  0.917732  0.002856  0.175102  1
  O  O17  1  0.428662  0.182218  0.182276  1
  O  O18  1  0.753614  0.500058  0.182276  1
  O  O19  1  0.257369  0.672247  0.175102  1
  O  O20  1  0.327753  0.082267  0.324898  1
  O  O21  1  0.817782  0.246386  0.317724  1
  O  O22  1  0.499942  0.571338  0.317724  1
  O  O23  1  0.997145  0.742630  0.324898  1
  O  O24  1  0.004923  0.248320  0.497061  1
  O  O25  1  0.506758  0.249874  0.499681  1
  O  O26  1  0.492137  0.748741  0.497061  1
  O  O27  1  0.992924  0.749807  0.499681  1
  O  O28  1  0.006867  0.261260  0.676483  1
  O  O29  1  0.507204  0.414970  0.676806  1
  O  O30  1  0.169602  0.761836  0.676806  1
  O  O31  1  0.669616  0.915222  0.676483  1
  O  O32  1  0.738740  0.330384  0.823517  1
  O  O33  1  0.238164  0.492796  0.823194  1
  O  O34  1  0.585030  0.830398  0.823194  1
  O  O35  1  0.084777  0.993133  0.823517  1
