# generated using pymatgen
data_Y3Mg3RuPt2
_symmetry_space_group_name_H-M   'P 1'
_cell_length_a   7.37647500
_cell_length_b   7.37647447
_cell_length_c   4.06936200
_cell_angle_alpha   90.00000000
_cell_angle_beta   90.00000000
_cell_angle_gamma   119.99998890
_symmetry_Int_Tables_number   1
_chemical_formula_structural   Y3Mg3RuPt2
_chemical_formula_sum   'Y3 Mg3 Ru1 Pt2'
_cell_volume   191.75854439
_cell_formula_units_Z   1
loop_
 _symmetry_equiv_pos_site_id
 _symmetry_equiv_pos_as_xyz
  1  'x, y, z'
loop_
 _atom_site_type_symbol
 _atom_site_label
 _atom_site_symmetry_multiplicity
 _atom_site_fract_x
 _atom_site_fract_y
 _atom_site_fract_z
 _atom_site_occupancy
  Y  Y0  1  0.418253  0.406443  0.500000  1
  Y  Y1  1  0.988189  0.581747  0.500000  1
  Y  Y2  1  0.593557  0.011811  0.500000  1
  Mg  Mg3  1  0.753273  0.754393  0.000000  1
  Mg  Mg4  1  0.245607  0.998881  0.000000  1
  Mg  Mg5  1  0.001119  0.246727  0.000000  1
  Ru  Ru6  1  0.666667  0.333333  0.000000  1
  Pt  Pt7  1  0.333333  0.666667  0.000000  1
  Pt  Pt8  1  0.000000  0.000000  0.500000  1
