# generated using pymatgen
data_LaTaH5
_symmetry_space_group_name_H-M   'P 1'
_cell_length_a   4.73163200
_cell_length_b   4.96731100
_cell_length_c   12.37265700
_cell_angle_alpha   90.00000000
_cell_angle_beta   90.00000000
_cell_angle_gamma   90.00000000
_symmetry_Int_Tables_number   1
_chemical_formula_structural   LaTaH5
_chemical_formula_sum   'La4 Ta4 H20'
_cell_volume   290.80059139
_cell_formula_units_Z   4
loop_
 _symmetry_equiv_pos_site_id
 _symmetry_equiv_pos_as_xyz
  1  'x, y, z'
loop_
 _atom_site_type_symbol
 _atom_site_label
 _atom_site_symmetry_multiplicity
 _atom_site_fract_x
 _atom_site_fract_y
 _atom_site_fract_z
 _atom_site_occupancy
  La  La0  1  0.254129  0.250618  0.652516  1
  La  La1  1  0.754129  0.249382  0.347484  1
  La  La2  1  0.245871  0.749382  0.152516  1
  La  La3  1  0.745871  0.750618  0.847484  1
  Ta  Ta4  1  0.265032  0.253313  0.931380  1
  Ta  Ta5  1  0.765032  0.246687  0.068620  1
  Ta  Ta6  1  0.234968  0.746687  0.431380  1
  Ta  Ta7  1  0.734968  0.753313  0.568620  1
  H  H8  1  0.491509  0.493878  0.499654  1
  H  H9  1  0.991509  0.006122  0.500346  1
  H  H10  1  0.008491  0.506122  0.999654  1
  H  H11  1  0.508491  0.993878  0.000346  1
  H  H12  1  0.160748  0.016640  0.820281  1
  H  H13  1  0.660748  0.483360  0.179719  1
  H  H14  1  0.339252  0.983360  0.320281  1
  H  H15  1  0.839252  0.516640  0.679719  1
  H  H16  1  0.190406  0.507821  0.822625  1
  H  H17  1  0.690406  0.992179  0.177375  1
  H  H18  1  0.309594  0.492179  0.322625  1
  H  H19  1  0.809594  0.007821  0.677375  1
  H  H20  1  0.544791  0.240555  0.820264  1
  H  H21  1  0.044791  0.259445  0.179736  1
  H  H22  1  0.955209  0.759445  0.320264  1
  H  H23  1  0.455209  0.740555  0.679736  1
  H  H24  1  0.012264  0.993334  0.997787  1
  H  H25  1  0.512264  0.506666  0.002213  1
  H  H26  1  0.487736  0.006666  0.497787  1
  H  H27  1  0.987736  0.493334  0.502213  1
