# generated using pymatgen
data_Ru4I11Cl
_symmetry_space_group_name_H-M   'P 1'
_cell_length_a   6.25121200
_cell_length_b   7.55837828
_cell_length_c   12.95866101
_cell_angle_alpha   90.53719805
_cell_angle_beta   90.00000000
_cell_angle_gamma   90.00000000
_symmetry_Int_Tables_number   1
_chemical_formula_structural   Ru4I11Cl
_chemical_formula_sum   'Ru4 I11 Cl1'
_cell_volume   612.25718614
_cell_formula_units_Z   1
loop_
 _symmetry_equiv_pos_site_id
 _symmetry_equiv_pos_as_xyz
  1  'x, y, z'
loop_
 _atom_site_type_symbol
 _atom_site_label
 _atom_site_symmetry_multiplicity
 _atom_site_fract_x
 _atom_site_fract_y
 _atom_site_fract_z
 _atom_site_occupancy
  Ru  Ru0  1  0.777249  0.744515  0.000080  1
  Ru  Ru1  1  0.279776  0.253698  0.498174  1
  Ru  Ru2  1  0.222751  0.744515  0.000080  1
  Ru  Ru3  1  0.720224  0.253698  0.498174  1
  I  I4  1  0.500000  0.554045  0.498497  1
  I  I5  1  0.000000  0.386986  0.355296  1
  I  I6  1  0.500000  0.025945  0.001208  1
  I  I7  1  0.000000  0.894972  0.151531  1
  I  I8  1  0.000000  0.392663  0.637925  1
  I  I9  1  0.000000  0.892208  0.848612  1
  I  I10  1  0.500000  0.606058  0.141860  1
  I  I11  1  0.500000  0.104236  0.649764  1
  I  I12  1  0.000000  0.445310  0.999346  1
  I  I13  1  0.000000  0.973411  0.493535  1
  I  I14  1  0.500000  0.603414  0.858076  1
  Cl  Cl15  1  0.500000  0.124329  0.367841  1
