# generated using pymatgen
data_Dy18Tm2Si15Rh
_symmetry_space_group_name_H-M   'P 1'
_cell_length_a   7.43299061
_cell_length_b   7.66772238
_cell_length_c   14.57446312
_cell_angle_alpha   89.70689559
_cell_angle_beta   89.65168701
_cell_angle_gamma   90.16421306
_symmetry_Int_Tables_number   1
_chemical_formula_structural   Dy18Tm2Si15Rh
_chemical_formula_sum   'Dy18 Tm2 Si15 Rh1'
_cell_volume   830.62882832
_cell_formula_units_Z   1
loop_
 _symmetry_equiv_pos_site_id
 _symmetry_equiv_pos_as_xyz
  1  'x, y, z'
loop_
 _atom_site_type_symbol
 _atom_site_label
 _atom_site_symmetry_multiplicity
 _atom_site_fract_x
 _atom_site_fract_y
 _atom_site_fract_z
 _atom_site_occupancy
  Dy  Dy0  1  0.847931  0.488346  0.757884  1
  Dy  Dy1  1  0.352583  0.010144  0.752069  1
  Dy  Dy2  1  0.973977  0.816557  0.097957  1
  Dy  Dy3  1  0.470817  0.682759  0.401073  1
  Dy  Dy4  1  0.528659  0.321572  0.900696  1
  Dy  Dy5  1  0.029727  0.184212  0.599614  1
  Dy  Dy6  1  0.028446  0.184676  0.901944  1
  Dy  Dy7  1  0.529997  0.317692  0.598847  1
  Dy  Dy8  1  0.473486  0.682293  0.099607  1
  Dy  Dy9  1  0.969683  0.817236  0.400304  1
  Dy  Dy10  1  0.683503  0.812109  0.882450  1
  Dy  Dy11  1  0.179087  0.681657  0.621813  1
  Dy  Dy12  1  0.817638  0.333558  0.118156  1
  Dy  Dy13  1  0.315944  0.177990  0.376177  1
  Dy  Dy14  1  0.321068  0.179313  0.123598  1
  Dy  Dy15  1  0.819317  0.319230  0.377239  1
  Dy  Dy16  1  0.176386  0.675874  0.878496  1
  Dy  Dy17  1  0.683118  0.818877  0.622377  1
  Tm  Tm18  1  0.648831  0.992559  0.248696  1
  Tm  Tm19  1  0.148268  0.510652  0.247651  1
  Si  Si20  1  0.765205  0.629913  0.251680  1
  Si  Si21  1  0.266070  0.871379  0.250707  1
  Si  Si22  1  0.733401  0.123628  0.748671  1
  Si  Si23  1  0.235265  0.373292  0.746697  1
  Si  Si24  1  0.018862  0.106000  0.248787  1
  Si  Si25  1  0.521890  0.396720  0.251388  1
  Si  Si26  1  0.472379  0.605658  0.746767  1
  Si  Si27  1  0.976905  0.897485  0.748499  1
  Si  Si28  1  0.354592  0.971987  0.539937  1
  Si  Si29  1  0.646667  0.027384  0.042336  1
  Si  Si30  1  0.147062  0.470818  0.459554  1
  Si  Si31  1  0.155296  0.472480  0.041790  1
  Si  Si32  1  0.643723  0.028049  0.459003  1
  Si  Si33  1  0.353250  0.969345  0.961270  1
  Si  Si34  1  0.854921  0.528615  0.538788  1
  Rh  Rh35  1  0.856045  0.519938  0.957480  1
