# generated using pymatgen
data_CaNdLu2(B6Os)2
_symmetry_space_group_name_H-M   'P 1'
_cell_length_a   3.64147800
_cell_length_b   9.14901124
_cell_length_c   11.58288603
_cell_angle_alpha   89.86161752
_cell_angle_beta   90.00000000
_cell_angle_gamma   90.00000000
_symmetry_Int_Tables_number   1
_chemical_formula_structural   CaNdLu2(B6Os)2
_chemical_formula_sum   'Ca2 Nd2 Lu4 B24 Os4'
_cell_volume   385.89341528
_cell_formula_units_Z   2
loop_
 _symmetry_equiv_pos_site_id
 _symmetry_equiv_pos_as_xyz
  1  'x, y, z'
loop_
 _atom_site_type_symbol
 _atom_site_label
 _atom_site_symmetry_multiplicity
 _atom_site_fract_x
 _atom_site_fract_y
 _atom_site_fract_z
 _atom_site_occupancy
  Ca  Ca0  1  0.000000  0.323535  0.415594  1
  Ca  Ca1  1  0.000000  0.676465  0.584406  1
  Nd  Nd2  1  0.000000  0.821675  0.086326  1
  Nd  Nd3  1  0.000000  0.178325  0.913674  1
  Lu  Lu4  1  0.000000  0.942529  0.371664  1
  Lu  Lu5  1  0.000000  0.057471  0.628336  1
  Lu  Lu6  1  0.000000  0.443557  0.131261  1
  Lu  Lu7  1  0.000000  0.556443  0.868739  1
  B  B8  1  0.500000  0.554351  0.432390  1
  B  B9  1  0.500000  0.445649  0.567610  1
  B  B10  1  0.500000  0.056198  0.070200  1
  B  B11  1  0.500000  0.943802  0.929800  1
  B  B12  1  0.500000  0.749363  0.417957  1
  B  B13  1  0.500000  0.250637  0.582043  1
  B  B14  1  0.500000  0.251084  0.084700  1
  B  B15  1  0.500000  0.748916  0.915300  1
  B  B16  1  0.500000  0.791105  0.267022  1
  B  B17  1  0.500000  0.208895  0.732977  1
  B  B18  1  0.500000  0.292022  0.236112  1
  B  B19  1  0.500000  0.707978  0.763889  1
  B  B20  1  0.500000  0.629222  0.186557  1
  B  B21  1  0.500000  0.370778  0.813443  1
  B  B22  1  0.500000  0.130727  0.316141  1
  B  B23  1  0.500000  0.869273  0.683859  1
  B  B24  1  0.500000  0.984832  0.214897  1
  B  B25  1  0.500000  0.015168  0.785103  1
  B  B26  1  0.500000  0.483195  0.288318  1
  B  B27  1  0.500000  0.516805  0.711682  1
  B  B28  1  0.500000  0.597531  0.026544  1
  B  B29  1  0.500000  0.402469  0.973456  1
  B  B30  1  0.500000  0.098170  0.473314  1
  B  B31  1  0.500000  0.901830  0.526686  1
  Os  Os32  1  0.000000  0.639919  0.318858  1
  Os  Os33  1  0.000000  0.360081  0.681142  1
  Os  Os34  1  0.000000  0.139640  0.181550  1
  Os  Os35  1  0.000000  0.860360  0.818450  1
