# generated using pymatgen
data_SrIn3PtAu2
_symmetry_space_group_name_H-M   'P 1'
_cell_length_a   4.58569400
_cell_length_b   7.82712200
_cell_length_c   9.19081300
_cell_angle_alpha   90.00000000
_cell_angle_beta   90.00000000
_cell_angle_gamma   90.00000000
_symmetry_Int_Tables_number   1
_chemical_formula_structural   SrIn3PtAu2
_chemical_formula_sum   'Sr2 In6 Pt2 Au4'
_cell_volume   329.88388778
_cell_formula_units_Z   2
loop_
 _symmetry_equiv_pos_site_id
 _symmetry_equiv_pos_as_xyz
  1  'x, y, z'
loop_
 _atom_site_type_symbol
 _atom_site_label
 _atom_site_symmetry_multiplicity
 _atom_site_fract_x
 _atom_site_fract_y
 _atom_site_fract_z
 _atom_site_occupancy
  Sr  Sr0  1  0.500000  0.000000  0.733924  1
  Sr  Sr1  1  0.000000  0.500000  0.266076  1
  In  In2  1  0.000000  0.303024  0.890262  1
  In  In3  1  0.500000  0.196976  0.109738  1
  In  In4  1  0.000000  0.696976  0.890262  1
  In  In5  1  0.000000  0.000000  0.354377  1
  In  In6  1  0.500000  0.803024  0.109738  1
  In  In7  1  0.500000  0.500000  0.645623  1
  Pt  Pt8  1  0.500000  0.500000  0.953712  1
  Pt  Pt9  1  0.000000  0.000000  0.046288  1
  Au  Au10  1  0.000000  0.728033  0.589866  1
  Au  Au11  1  0.500000  0.771967  0.410134  1
  Au  Au12  1  0.500000  0.228033  0.410134  1
  Au  Au13  1  0.000000  0.271967  0.589866  1
