# generated using pymatgen
data_Er3Lu13In4Ir3Ru
_symmetry_space_group_name_H-M   'P 1'
_cell_length_a   9.50142905
_cell_length_b   9.49862047
_cell_length_c   9.50142814
_cell_angle_alpha   59.90660348
_cell_angle_beta   59.91729489
_cell_angle_gamma   59.90659782
_symmetry_Int_Tables_number   1
_chemical_formula_structural   Er3Lu13In4Ir3Ru
_chemical_formula_sum   'Er3 Lu13 In4 Ir3 Ru1'
_cell_volume   605.11425413
_cell_formula_units_Z   1
loop_
 _symmetry_equiv_pos_site_id
 _symmetry_equiv_pos_as_xyz
  1  'x, y, z'
loop_
 _atom_site_type_symbol
 _atom_site_label
 _atom_site_symmetry_multiplicity
 _atom_site_fract_x
 _atom_site_fract_y
 _atom_site_fract_z
 _atom_site_occupancy
  Er  Er0  1  0.060399  0.439645  0.440105  1
  Er  Er1  1  0.440105  0.439645  0.060399  1
  Er  Er2  1  0.058839  0.441539  0.058839  1
  Lu  Lu3  1  0.059108  0.058327  0.441809  1
  Lu  Lu4  1  0.651215  0.045426  0.651215  1
  Lu  Lu5  1  0.191732  0.809455  0.191732  1
  Lu  Lu6  1  0.439995  0.059826  0.439995  1
  Lu  Lu7  1  0.191874  0.191544  0.809104  1
  Lu  Lu8  1  0.651278  0.651668  0.651278  1
  Lu  Lu9  1  0.045525  0.651385  0.650964  1
  Lu  Lu10  1  0.441809  0.058327  0.059108  1
  Lu  Lu11  1  0.650964  0.651385  0.045525  1
  Lu  Lu12  1  0.190336  0.809485  0.808768  1
  Lu  Lu13  1  0.809183  0.190134  0.809183  1
  Lu  Lu14  1  0.809104  0.191544  0.191874  1
  Lu  Lu15  1  0.808768  0.809485  0.190336  1
  In  In16  1  0.749381  0.416759  0.417067  1
  In  In17  1  0.417067  0.416759  0.749381  1
  In  In18  1  0.416694  0.750116  0.416694  1
  In  In19  1  0.417062  0.416912  0.417062  1
  Ir  Ir20  1  0.422059  0.859321  0.858966  1
  Ir  Ir21  1  0.858966  0.859321  0.422059  1
  Ir  Ir22  1  0.859101  0.421826  0.859101  1
  Ru  Ru23  1  0.859440  0.860171  0.859440  1
