# generated using pymatgen
data_Rb2Y5HoF20
_symmetry_space_group_name_H-M   'P 1'
_cell_length_a   8.30175602
_cell_length_b   8.30173163
_cell_length_c   8.30371100
_cell_angle_alpha   59.99183638
_cell_angle_beta   59.99196893
_cell_angle_gamma   60.01539592
_symmetry_Int_Tables_number   1
_chemical_formula_structural   Rb2Y5HoF20
_chemical_formula_sum   'Rb2 Y5 Ho1 F20'
_cell_volume   404.66273527
_cell_formula_units_Z   1
loop_
 _symmetry_equiv_pos_site_id
 _symmetry_equiv_pos_as_xyz
  1  'x, y, z'
loop_
 _atom_site_type_symbol
 _atom_site_label
 _atom_site_symmetry_multiplicity
 _atom_site_fract_x
 _atom_site_fract_y
 _atom_site_fract_z
 _atom_site_occupancy
  Rb  Rb0  1  0.250004  0.250004  0.249995  1
  Rb  Rb1  1  0.750005  0.750003  0.749996  1
  Y  Y2  1  0.759601  0.240442  0.240405  1
  Y  Y3  1  0.240443  0.759597  0.759557  1
  Y  Y4  1  0.240441  0.759599  0.240404  1
  Y  Y5  1  0.759600  0.240444  0.759553  1
  Y  Y6  1  0.240429  0.240430  0.759570  1
  Ho  Ho7  1  0.759446  0.759438  0.240558  1
  F  F8  1  0.829052  0.501433  0.498568  1
  F  F9  1  0.170418  0.500006  0.499996  1
  F  F10  1  0.501430  0.829053  0.170946  1
  F  F11  1  0.500004  0.170419  0.829581  1
  F  F12  1  0.501431  0.829052  0.498570  1
  F  F13  1  0.170419  0.500005  0.829581  1
  F  F14  1  0.500004  0.170417  0.499997  1
  F  F15  1  0.829052  0.501431  0.170948  1
  F  F16  1  0.500009  0.500009  0.829580  1
  F  F17  1  0.500010  0.500010  0.170401  1
  F  F18  1  0.170421  0.829598  0.499990  1
  F  F19  1  0.829597  0.170420  0.499993  1
  F  F20  1  0.110557  0.110558  0.110644  1
  F  F21  1  0.888987  0.888991  0.890578  1
  F  F22  1  0.110559  0.110556  0.668242  1
  F  F23  1  0.109419  0.668563  0.111008  1
  F  F24  1  0.888989  0.888990  0.331443  1
  F  F25  1  0.889357  0.331758  0.889443  1
  F  F26  1  0.668558  0.109420  0.111009  1
  F  F27  1  0.331761  0.889355  0.889443  1
