# generated using pymatgen
data_Y7Tm(Ga3Pt)4
_symmetry_space_group_name_H-M   'P 1'
_cell_length_a   8.87504200
_cell_length_b   8.90560274
_cell_length_c   7.07807400
_cell_angle_alpha   90.00000000
_cell_angle_beta   90.00000000
_cell_angle_gamma   120.11495296
_symmetry_Int_Tables_number   1
_chemical_formula_structural   Y7Tm(Ga3Pt)4
_chemical_formula_sum   'Y7 Tm1 Ga12 Pt4'
_cell_volume   483.92185647
_cell_formula_units_Z   1
loop_
 _symmetry_equiv_pos_site_id
 _symmetry_equiv_pos_as_xyz
  1  'x, y, z'
loop_
 _atom_site_type_symbol
 _atom_site_label
 _atom_site_symmetry_multiplicity
 _atom_site_fract_x
 _atom_site_fract_y
 _atom_site_fract_z
 _atom_site_occupancy
  Y  Y0  1  0.000147  0.000013  0.250000  1
  Y  Y1  1  0.999534  0.999827  0.750000  1
  Y  Y2  1  0.519229  0.038703  0.250000  1
  Y  Y3  1  0.519192  0.480617  0.250000  1
  Y  Y4  1  0.962840  0.481447  0.250000  1
  Y  Y5  1  0.480552  0.961462  0.750000  1
  Y  Y6  1  0.480587  0.519001  0.750000  1
  Tm  Tm7  1  0.039500  0.519728  0.750000  1
  Ga  Ga8  1  0.166798  0.333949  0.044817  1
  Ga  Ga9  1  0.166883  0.832823  0.455187  1
  Ga  Ga10  1  0.664436  0.832240  0.454088  1
  Ga  Ga11  1  0.664436  0.832240  0.045912  1
  Ga  Ga12  1  0.166883  0.832823  0.044813  1
  Ga  Ga13  1  0.833432  0.665255  0.952829  1
  Ga  Ga14  1  0.833355  0.168207  0.952848  1
  Ga  Ga15  1  0.335295  0.167625  0.954107  1
  Ga  Ga16  1  0.166798  0.333949  0.455183  1
  Ga  Ga17  1  0.335295  0.167625  0.545893  1
  Ga  Ga18  1  0.833432  0.665255  0.547171  1
  Ga  Ga19  1  0.833355  0.168207  0.547152  1
  Pt  Pt20  1  0.330701  0.665304  0.028704  1
  Pt  Pt21  1  0.330701  0.665304  0.471296  1
  Pt  Pt22  1  0.668309  0.334198  0.967900  1
  Pt  Pt23  1  0.668309  0.334198  0.532100  1
