# generated using pymatgen
data_LuThSc14(AlNi)4
_symmetry_space_group_name_H-M   'P 1'
_cell_length_a   8.87629429
_cell_length_b   8.87629343
_cell_length_c   8.87145334
_cell_angle_alpha   60.47970184
_cell_angle_beta   60.47969364
_cell_angle_gamma   60.64394890
_symmetry_Int_Tables_number   1
_chemical_formula_structural   LuThSc14(AlNi)4
_chemical_formula_sum   'Lu1 Th1 Sc14 Al4 Ni4'
_cell_volume   500.21163877
_cell_formula_units_Z   1
loop_
 _symmetry_equiv_pos_site_id
 _symmetry_equiv_pos_as_xyz
  1  'x, y, z'
loop_
 _atom_site_type_symbol
 _atom_site_label
 _atom_site_symmetry_multiplicity
 _atom_site_fract_x
 _atom_site_fract_y
 _atom_site_fract_z
 _atom_site_occupancy
  Lu  Lu0  1  0.937729  0.937729  0.563982  1
  Th  Th1  1  0.346052  0.346052  0.346488  1
  Sc  Sc2  1  0.352452  0.352452  0.939200  1
  Sc  Sc3  1  0.357131  0.936281  0.351431  1
  Sc  Sc4  1  0.936281  0.357131  0.351431  1
  Sc  Sc5  1  0.813781  0.191229  0.186421  1
  Sc  Sc6  1  0.196407  0.808724  0.810341  1
  Sc  Sc7  1  0.191229  0.813781  0.186421  1
  Sc  Sc8  1  0.808724  0.196407  0.810341  1
  Sc  Sc9  1  0.188356  0.188356  0.814926  1
  Sc  Sc10  1  0.810563  0.810563  0.192454  1
  Sc  Sc11  1  0.933842  0.564660  0.566435  1
  Sc  Sc12  1  0.562017  0.937412  0.938886  1
  Sc  Sc13  1  0.564660  0.933842  0.566435  1
  Sc  Sc14  1  0.937412  0.562017  0.938886  1
  Sc  Sc15  1  0.566931  0.566931  0.933477  1
  Al  Al16  1  0.581353  0.581353  0.581615  1
  Al  Al17  1  0.583364  0.583364  0.257124  1
  Al  Al18  1  0.578381  0.261052  0.584346  1
  Al  Al19  1  0.261052  0.578381  0.584346  1
  Ni  Ni20  1  0.144350  0.144350  0.147081  1
  Ni  Ni21  1  0.135904  0.135904  0.574721  1
  Ni  Ni22  1  0.136510  0.575517  0.136611  1
  Ni  Ni23  1  0.575517  0.136510  0.136611  1
