# generated using pymatgen
data_Sc24ZnTc7
_symmetry_space_group_name_H-M   'P 1'
_cell_length_a   5.81924532
_cell_length_b   8.59071600
_cell_length_c   13.86698600
_cell_angle_alpha   90.00000000
_cell_angle_beta   90.35599110
_cell_angle_gamma   90.00000000
_symmetry_Int_Tables_number   1
_chemical_formula_structural   Sc24ZnTc7
_chemical_formula_sum   'Sc24 Zn1 Tc7'
_cell_volume   693.21782668
_cell_formula_units_Z   1
loop_
 _symmetry_equiv_pos_site_id
 _symmetry_equiv_pos_as_xyz
  1  'x, y, z'
loop_
 _atom_site_type_symbol
 _atom_site_label
 _atom_site_symmetry_multiplicity
 _atom_site_fract_x
 _atom_site_fract_y
 _atom_site_fract_z
 _atom_site_occupancy
  Sc  Sc0  1  0.532659  0.750000  0.353707  1
  Sc  Sc1  1  0.027291  0.250000  0.147291  1
  Sc  Sc2  1  0.473542  0.250000  0.646498  1
  Sc  Sc3  1  0.968047  0.750000  0.858291  1
  Sc  Sc4  1  0.792059  0.750000  0.112319  1
  Sc  Sc5  1  0.296727  0.250000  0.384584  1
  Sc  Sc6  1  0.204019  0.250000  0.888497  1
  Sc  Sc7  1  0.696298  0.750000  0.611358  1
  Sc  Sc8  1  0.444481  0.942779  0.794121  1
  Sc  Sc9  1  0.931406  0.068032  0.707247  1
  Sc  Sc10  1  0.559408  0.437846  0.210582  1
  Sc  Sc11  1  0.061889  0.563585  0.290098  1
  Sc  Sc12  1  0.559408  0.062154  0.210582  1
  Sc  Sc13  1  0.061889  0.936415  0.290098  1
  Sc  Sc14  1  0.444481  0.557221  0.794121  1
  Sc  Sc15  1  0.931406  0.431968  0.707247  1
  Sc  Sc16  1  0.249154  0.949308  0.526822  1
  Sc  Sc17  1  0.746985  0.061437  0.969208  1
  Sc  Sc18  1  0.752012  0.439066  0.465844  1
  Sc  Sc19  1  0.253180  0.558795  0.034579  1
  Sc  Sc20  1  0.752012  0.060934  0.465844  1
  Sc  Sc21  1  0.253180  0.941205  0.034579  1
  Sc  Sc22  1  0.249154  0.550692  0.526822  1
  Sc  Sc23  1  0.746985  0.438563  0.969208  1
  Zn  Zn24  1  0.153193  0.750000  0.675195  1
  Tc  Tc25  1  0.933756  0.750000  0.450126  1
  Tc  Tc26  1  0.426304  0.250000  0.057994  1
  Tc  Tc27  1  0.079079  0.250000  0.555319  1
  Tc  Tc28  1  0.568350  0.750000  0.941381  1
  Tc  Tc29  1  0.349769  0.750000  0.180994  1
  Tc  Tc30  1  0.852517  0.250000  0.319741  1
  Tc  Tc31  1  0.649356  0.250000  0.819703  1
