# generated using pymatgen
data_Yb4MnNiOs6
_symmetry_space_group_name_H-M   'P 1'
_cell_length_a   5.34779533
_cell_length_b   5.34779604
_cell_length_c   8.61182000
_cell_angle_alpha   90.00000000
_cell_angle_beta   90.00000000
_cell_angle_gamma   122.39546769
_symmetry_Int_Tables_number   1
_chemical_formula_structural   Yb4MnNiOs6
_chemical_formula_sum   'Yb4 Mn1 Ni1 Os6'
_cell_volume   207.95889960
_cell_formula_units_Z   1
loop_
 _symmetry_equiv_pos_site_id
 _symmetry_equiv_pos_as_xyz
  1  'x, y, z'
loop_
 _atom_site_type_symbol
 _atom_site_label
 _atom_site_symmetry_multiplicity
 _atom_site_fract_x
 _atom_site_fract_y
 _atom_site_fract_z
 _atom_site_occupancy
  Yb  Yb0  1  0.332252  0.667748  0.431430  1
  Yb  Yb1  1  0.669383  0.330617  0.558015  1
  Yb  Yb2  1  0.669383  0.330617  0.941985  1
  Yb  Yb3  1  0.332252  0.667748  0.068570  1
  Mn  Mn4  1  0.174768  0.825232  0.750000  1
  Ni  Ni5  1  0.823290  0.176710  0.250000  1
  Os  Os6  1  0.000546  0.999454  0.499866  1
  Os  Os7  1  0.000546  0.999454  0.000134  1
  Os  Os8  1  0.819498  0.664080  0.250000  1
  Os  Os9  1  0.335920  0.180502  0.250000  1
  Os  Os10  1  0.180663  0.338501  0.750000  1
  Os  Os11  1  0.661499  0.819337  0.750000  1
