# generated using pymatgen
data_LiTa2Nb(Co4P3)2
_symmetry_space_group_name_H-M   'P 1'
_cell_length_a   11.93872500
_cell_length_b   11.93944567
_cell_length_c   3.56233000
_cell_angle_alpha   90.00000000
_cell_angle_beta   90.00000000
_cell_angle_gamma   119.99800608
_symmetry_Int_Tables_number   1
_chemical_formula_structural   LiTa2Nb(Co4P3)2
_chemical_formula_sum   'Li2 Ta4 Nb2 Co16 P12'
_cell_volume   439.75989250
_cell_formula_units_Z   2
loop_
 _symmetry_equiv_pos_site_id
 _symmetry_equiv_pos_as_xyz
  1  'x, y, z'
loop_
 _atom_site_type_symbol
 _atom_site_label
 _atom_site_symmetry_multiplicity
 _atom_site_fract_x
 _atom_site_fract_y
 _atom_site_fract_z
 _atom_site_occupancy
  Li  Li0  1  0.333254  0.666630  0.000000  1
  Li  Li1  1  0.666625  0.333370  0.000000  1
  Ta  Ta2  1  0.821086  0.000000  0.500000  1
  Ta  Ta3  1  0.444667  0.000000  0.000000  1
  Ta  Ta4  1  0.999559  0.444100  0.000000  1
  Ta  Ta5  1  0.555460  0.555900  0.000000  1
  Nb  Nb6  1  0.000017  0.820410  0.500000  1
  Nb  Nb7  1  0.179608  0.179590  0.500000  1
  Co  Co8  1  0.277125  0.000000  0.500000  1
  Co  Co9  1  0.999690  0.276610  0.500000  1
  Co  Co10  1  0.723080  0.723390  0.500000  1
  Co  Co11  1  0.634987  0.808484  0.000000  1
  Co  Co12  1  0.192934  0.826678  0.000000  1
  Co  Co13  1  0.173395  0.366337  0.000000  1
  Co  Co14  1  0.366256  0.173322  0.000000  1
  Co  Co15  1  0.807058  0.633663  0.000000  1
  Co  Co16  1  0.826503  0.191516  0.000000  1
  Co  Co17  1  0.522715  0.873916  0.500000  1
  Co  Co18  1  0.126097  0.648759  0.500000  1
  Co  Co19  1  0.351074  0.477329  0.500000  1
  Co  Co20  1  0.477337  0.351241  0.500000  1
  Co  Co21  1  0.873745  0.522671  0.500000  1
  Co  Co22  1  0.648800  0.126084  0.500000  1
  Co  Co23  1  0.998955  0.000000  0.000000  1
  P  P24  1  0.172483  0.000000  0.000000  1
  P  P25  1  0.000092  0.172851  0.000000  1
  P  P26  1  0.827241  0.827149  0.000000  1
  P  P27  1  0.511317  0.685510  0.500000  1
  P  P28  1  0.314316  0.825811  0.500000  1
  P  P29  1  0.173902  0.488449  0.500000  1
  P  P30  1  0.488503  0.174189  0.500000  1
  P  P31  1  0.685452  0.511551  0.500000  1
  P  P32  1  0.825806  0.314490  0.500000  1
  P  P33  1  0.649964  0.000000  0.000000  1
  P  P34  1  0.000047  0.649196  0.000000  1
  P  P35  1  0.350851  0.350804  0.000000  1
