# generated using pymatgen
data_Tb3Tm5(B6Rh)4
_symmetry_space_group_name_H-M   'P 1'
_cell_length_a   3.64192900
_cell_length_b   9.14040201
_cell_length_c   11.48488401
_cell_angle_alpha   90.00470166
_cell_angle_beta   90.00000000
_cell_angle_gamma   90.00000000
_symmetry_Int_Tables_number   1
_chemical_formula_structural   Tb3Tm5(B6Rh)4
_chemical_formula_sum   'Tb3 Tm5 B24 Rh4'
_cell_volume   382.31680127
_cell_formula_units_Z   1
loop_
 _symmetry_equiv_pos_site_id
 _symmetry_equiv_pos_as_xyz
  1  'x, y, z'
loop_
 _atom_site_type_symbol
 _atom_site_label
 _atom_site_symmetry_multiplicity
 _atom_site_fract_x
 _atom_site_fract_y
 _atom_site_fract_z
 _atom_site_occupancy
  Tb  Tb0  1  0.500000  0.322138  0.413548  1
  Tb  Tb1  1  0.500000  0.677983  0.586242  1
  Tb  Tb2  1  0.500000  0.177785  0.913935  1
  Tm  Tm3  1  0.500000  0.821610  0.086176  1
  Tm  Tm4  1  0.500000  0.444589  0.126668  1
  Tm  Tm5  1  0.500000  0.556117  0.873785  1
  Tm  Tm6  1  0.500000  0.055563  0.626851  1
  Tm  Tm7  1  0.500000  0.944209  0.372862  1
  B  B8  1  0.000000  0.106481  0.471013  1
  B  B9  1  0.000000  0.893209  0.528620  1
  B  B10  1  0.000000  0.392617  0.971127  1
  B  B11  1  0.000000  0.608952  0.029517  1
  B  B12  1  0.000000  0.132229  0.316221  1
  B  B13  1  0.000000  0.867469  0.683515  1
  B  B14  1  0.000000  0.367634  0.816825  1
  B  B15  1  0.000000  0.633397  0.182758  1
  B  B16  1  0.000000  0.053368  0.065772  1
  B  B17  1  0.000000  0.944739  0.935357  1
  B  B18  1  0.000000  0.445492  0.565822  1
  B  B19  1  0.000000  0.554697  0.433828  1
  B  B20  1  0.000000  0.483679  0.285752  1
  B  B21  1  0.000000  0.516984  0.714298  1
  B  B22  1  0.000000  0.016340  0.786220  1
  B  B23  1  0.000000  0.982075  0.213114  1
  B  B24  1  0.000000  0.250227  0.080046  1
  B  B25  1  0.000000  0.750034  0.921422  1
  B  B26  1  0.000000  0.249460  0.579877  1
  B  B27  1  0.000000  0.750567  0.419627  1
  B  B28  1  0.000000  0.294267  0.235306  1
  B  B29  1  0.000000  0.705888  0.764970  1
  B  B30  1  0.000000  0.205578  0.735755  1
  B  B31  1  0.000000  0.794914  0.263212  1
  Rh  Rh32  1  0.500000  0.138765  0.179153  1
  Rh  Rh33  1  0.500000  0.860039  0.821301  1
  Rh  Rh34  1  0.500000  0.359814  0.680177  1
  Rh  Rh35  1  0.500000  0.641090  0.319327  1
