# generated using pymatgen
data_Zr3Ti13Bi18
_symmetry_space_group_name_H-M   'P 1'
_cell_length_a   10.39705100
_cell_length_b   10.39705100
_cell_length_c   7.50628800
_cell_angle_alpha   90.00000000
_cell_angle_beta   90.00000000
_cell_angle_gamma   90.00000000
_symmetry_Int_Tables_number   1
_chemical_formula_structural   Zr3Ti13Bi18
_chemical_formula_sum   'Zr3 Ti13 Bi18'
_cell_volume   811.41974566
_cell_formula_units_Z   1
loop_
 _symmetry_equiv_pos_site_id
 _symmetry_equiv_pos_as_xyz
  1  'x, y, z'
loop_
 _atom_site_type_symbol
 _atom_site_label
 _atom_site_symmetry_multiplicity
 _atom_site_fract_x
 _atom_site_fract_y
 _atom_site_fract_z
 _atom_site_occupancy
  Zr  Zr0  1  0.500000  0.000000  0.424256  1
  Zr  Zr1  1  0.000000  0.500000  0.076187  1
  Zr  Zr2  1  0.500000  0.000000  0.921441  1
  Ti  Ti3  1  0.859683  0.000000  0.852518  1
  Ti  Ti4  1  0.000000  0.142132  0.144980  1
  Ti  Ti5  1  0.000000  0.857868  0.144980  1
  Ti  Ti6  1  0.642132  0.500000  0.144980  1
  Ti  Ti7  1  0.140317  0.000000  0.852518  1
  Ti  Ti8  1  0.357868  0.500000  0.144980  1
  Ti  Ti9  1  0.249034  0.749034  0.001620  1
  Ti  Ti10  1  0.500000  0.359683  0.852518  1
  Ti  Ti11  1  0.000000  0.500000  0.574324  1
  Ti  Ti12  1  0.750966  0.250966  0.001620  1
  Ti  Ti13  1  0.500000  0.640317  0.852518  1
  Ti  Ti14  1  0.750966  0.749034  0.001620  1
  Ti  Ti15  1  0.249034  0.250966  0.001620  1
  Bi  Bi16  1  0.669616  0.169616  0.655942  1
  Bi  Bi17  1  0.500000  0.242880  0.192050  1
  Bi  Bi18  1  0.000000  0.000000  0.499829  1
  Bi  Bi19  1  0.166276  0.666276  0.349395  1
  Bi  Bi20  1  0.238804  0.500000  0.804530  1
  Bi  Bi21  1  0.669616  0.830384  0.655942  1
  Bi  Bi22  1  0.000000  0.261196  0.804530  1
  Bi  Bi23  1  0.742880  0.000000  0.192050  1
  Bi  Bi24  1  0.500000  0.757120  0.192050  1
  Bi  Bi25  1  0.257120  0.000000  0.192050  1
  Bi  Bi26  1  0.330384  0.830384  0.655942  1
  Bi  Bi27  1  0.761196  0.500000  0.804530  1
  Bi  Bi28  1  0.500000  0.500000  0.499829  1
  Bi  Bi29  1  0.000000  0.738804  0.804530  1
  Bi  Bi30  1  0.166276  0.333724  0.349395  1
  Bi  Bi31  1  0.833724  0.333724  0.349395  1
  Bi  Bi32  1  0.330384  0.169616  0.655942  1
  Bi  Bi33  1  0.833724  0.666276  0.349395  1
