# generated using pymatgen
data_Li3Y16InRh4
_symmetry_space_group_name_H-M   'P 1'
_cell_length_a   9.69356538
_cell_length_b   9.70542003
_cell_length_c   9.70542000
_cell_angle_alpha   60.00000693
_cell_angle_beta   59.95954416
_cell_angle_gamma   59.95953783
_symmetry_Int_Tables_number   1
_chemical_formula_structural   Li3Y16InRh4
_chemical_formula_sum   'Li3 Y16 In1 Rh4'
_cell_volume   645.25500271
_cell_formula_units_Z   1
loop_
 _symmetry_equiv_pos_site_id
 _symmetry_equiv_pos_as_xyz
  1  'x, y, z'
loop_
 _atom_site_type_symbol
 _atom_site_label
 _atom_site_symmetry_multiplicity
 _atom_site_fract_x
 _atom_site_fract_y
 _atom_site_fract_z
 _atom_site_occupancy
  Li  Li0  1  0.425810  0.423796  0.423796  1
  Li  Li1  1  0.425810  0.423796  0.726598  1
  Li  Li2  1  0.425810  0.726598  0.423796  1
  Y  Y3  1  0.811872  0.810753  0.188687  1
  Y  Y4  1  0.811872  0.188687  0.810753  1
  Y  Y5  1  0.182907  0.185299  0.815897  1
  Y  Y6  1  0.653534  0.048511  0.648977  1
  Y  Y7  1  0.065987  0.064418  0.434798  1
  Y  Y8  1  0.436196  0.436166  0.063819  1
  Y  Y9  1  0.653534  0.648977  0.648977  1
  Y  Y10  1  0.811872  0.188687  0.188687  1
  Y  Y11  1  0.182907  0.815897  0.815897  1
  Y  Y12  1  0.036740  0.654420  0.654420  1
  Y  Y13  1  0.436196  0.063819  0.063819  1
  Y  Y14  1  0.436196  0.063819  0.436166  1
  Y  Y15  1  0.065987  0.434798  0.064418  1
  Y  Y16  1  0.653534  0.648977  0.048511  1
  Y  Y17  1  0.182907  0.815897  0.185299  1
  Y  Y18  1  0.065987  0.434798  0.434798  1
  In  In19  1  0.742375  0.419208  0.419208  1
  Rh  Rh20  1  0.854540  0.427277  0.859091  1
  Rh  Rh21  1  0.854540  0.859091  0.859091  1
  Rh  Rh22  1  0.854540  0.859091  0.427277  1
  Rh  Rh23  1  0.428348  0.857218  0.857218  1
