# generated using pymatgen
data_ScBH6
_symmetry_space_group_name_H-M   'P 1'
_cell_length_a   3.68453181
_cell_length_b   3.74285900
_cell_length_c   5.06526531
_cell_angle_alpha   89.30234842
_cell_angle_beta   90.41282957
_cell_angle_gamma   122.01022316
_symmetry_Int_Tables_number   1
_chemical_formula_structural   ScBH6
_chemical_formula_sum   'Sc1 B1 H6'
_cell_volume   59.22808099
_cell_formula_units_Z   1
loop_
 _symmetry_equiv_pos_site_id
 _symmetry_equiv_pos_as_xyz
  1  'x, y, z'
loop_
 _atom_site_type_symbol
 _atom_site_label
 _atom_site_symmetry_multiplicity
 _atom_site_fract_x
 _atom_site_fract_y
 _atom_site_fract_z
 _atom_site_occupancy
  Sc  Sc0  1  0.191379  0.150707  0.573245  1
  B  B1  1  0.179215  0.134588  0.073202  1
  H  H2  1  0.233065  0.434941  0.198297  1
  H  H3  1  0.862644  0.486056  0.580645  1
  H  H4  1  0.860644  0.999679  0.935032  1
  H  H5  1  0.500842  0.249772  0.942437  1
  H  H6  1  0.118475  0.844300  0.217642  1
  H  H7  1  0.525718  0.819517  0.566866  1
