# generated using pymatgen
data_Cs3Rb5(GeSe4)2
_symmetry_space_group_name_H-M   'P 1'
_cell_length_a   8.29250500
_cell_length_b   10.48719500
_cell_length_c   15.86988300
_cell_angle_alpha   90.00000000
_cell_angle_beta   90.00000000
_cell_angle_gamma   90.00000000
_symmetry_Int_Tables_number   1
_chemical_formula_structural   Cs3Rb5(GeSe4)2
_chemical_formula_sum   'Cs6 Rb10 Ge4 Se16'
_cell_volume   1380.12623145
_cell_formula_units_Z   2
loop_
 _symmetry_equiv_pos_site_id
 _symmetry_equiv_pos_as_xyz
  1  'x, y, z'
loop_
 _atom_site_type_symbol
 _atom_site_label
 _atom_site_symmetry_multiplicity
 _atom_site_fract_x
 _atom_site_fract_y
 _atom_site_fract_z
 _atom_site_occupancy
  Cs  Cs0  1  0.999609  0.999267  0.999304  1
  Cs  Cs1  1  0.499609  0.000733  0.500696  1
  Cs  Cs2  1  0.999609  0.500733  0.999304  1
  Cs  Cs3  1  0.499609  0.499267  0.500696  1
  Cs  Cs4  1  0.003937  0.750000  0.419976  1
  Cs  Cs5  1  0.503937  0.250000  0.080024  1
  Rb  Rb6  1  0.009619  0.250000  0.579832  1
  Rb  Rb7  1  0.509619  0.750000  0.920168  1
  Rb  Rb8  1  0.817126  0.046192  0.269599  1
  Rb  Rb9  1  0.317126  0.953808  0.230401  1
  Rb  Rb10  1  0.181533  0.547000  0.730597  1
  Rb  Rb11  1  0.681533  0.453000  0.769403  1
  Rb  Rb12  1  0.181533  0.953000  0.730597  1
  Rb  Rb13  1  0.681533  0.047000  0.769403  1
  Rb  Rb14  1  0.817126  0.453808  0.269599  1
  Rb  Rb15  1  0.317126  0.546192  0.230401  1
  Ge  Ge16  1  0.784181  0.750000  0.668748  1
  Ge  Ge17  1  0.214527  0.250000  0.333179  1
  Ge  Ge18  1  0.714527  0.750000  0.166821  1
  Ge  Ge19  1  0.284181  0.250000  0.831252  1
  Se  Se20  1  0.993971  0.250000  0.824141  1
  Se  Se21  1  0.504705  0.250000  0.326885  1
  Se  Se22  1  0.493971  0.750000  0.675859  1
  Se  Se23  1  0.004705  0.750000  0.173115  1
  Se  Se24  1  0.621696  0.568386  0.091758  1
  Se  Se25  1  0.121696  0.431614  0.408242  1
  Se  Se26  1  0.375944  0.065954  0.905731  1
  Se  Se27  1  0.875944  0.934046  0.594269  1
  Se  Se28  1  0.375944  0.434046  0.905731  1
  Se  Se29  1  0.875944  0.565954  0.594269  1
  Se  Se30  1  0.621696  0.931614  0.091758  1
  Se  Se31  1  0.121696  0.068386  0.408242  1
  Se  Se32  1  0.612524  0.750000  0.311132  1
  Se  Se33  1  0.112524  0.250000  0.188868  1
  Se  Se34  1  0.384715  0.250000  0.686415  1
  Se  Se35  1  0.884715  0.750000  0.813585  1
