# generated using pymatgen
data_TbNd9C4I15
_symmetry_space_group_name_H-M   'P 1'
_cell_length_a   9.77379300
_cell_length_b   10.63392361
_cell_length_c   11.75779923
_cell_angle_alpha   93.80462235
_cell_angle_beta   114.18954953
_cell_angle_gamma   109.43750934
_symmetry_Int_Tables_number   1
_chemical_formula_structural   TbNd9C4I15
_chemical_formula_sum   'Tb1 Nd9 C4 I15'
_cell_volume   1021.59207807
_cell_formula_units_Z   1
loop_
 _symmetry_equiv_pos_site_id
 _symmetry_equiv_pos_as_xyz
  1  'x, y, z'
loop_
 _atom_site_type_symbol
 _atom_site_label
 _atom_site_symmetry_multiplicity
 _atom_site_fract_x
 _atom_site_fract_y
 _atom_site_fract_z
 _atom_site_occupancy
  Tb  Tb0  1  0.593982  0.543857  0.336367  1
  Nd  Nd1  1  0.344458  0.744360  0.163342  1
  Nd  Nd2  1  0.775814  0.882562  0.256742  1
  Nd  Nd3  1  0.528680  0.184930  0.102788  1
  Nd  Nd4  1  0.224304  0.116650  0.743819  1
  Nd  Nd5  1  0.403522  0.458906  0.658163  1
  Nd  Nd6  1  0.472592  0.814572  0.898495  1
  Nd  Nd7  1  0.703990  0.567338  0.044308  1
  Nd  Nd8  1  0.296133  0.432502  0.955740  1
  Nd  Nd9  1  0.655411  0.256084  0.834609  1
  C  C10  1  0.482915  0.301111  0.939012  1
  C  C11  1  0.517846  0.698063  0.061411  1
  C  C12  1  0.453555  0.363819  0.835229  1
  C  C13  1  0.546344  0.635180  0.165499  1
  I  I14  1  0.206604  0.906040  0.937627  1
  I  I15  1  0.104062  0.187283  0.468798  1
  I  I16  1  0.152445  0.555431  0.703573  1
  I  I17  1  0.405394  0.969603  0.647742  1
  I  I18  1  0.714289  0.734658  0.821890  1
  I  I19  1  0.293300  0.270742  0.183282  1
  I  I20  1  0.841943  0.446450  0.299979  1
  I  I21  1  0.887662  0.804118  0.528179  1
  I  I22  1  0.365014  0.629212  0.411894  1
  I  I23  1  0.052683  0.832648  0.221104  1
  I  I24  1  0.794146  0.095686  0.062757  1
  I  I25  1  0.641321  0.372847  0.584727  1
  I  I26  1  0.947893  0.166436  0.780056  1
  I  I27  1  0.593792  0.029411  0.352046  1
  I  I28  1  0.999908  0.499498  0.000821  1
