# generated using pymatgen
data_Sr5AgAu3
_symmetry_space_group_name_H-M   'P 1'
_cell_length_a   8.45278800
_cell_length_b   8.47334000
_cell_length_c   16.38369100
_cell_angle_alpha   90.00000000
_cell_angle_beta   90.00000000
_cell_angle_gamma   90.00000000
_symmetry_Int_Tables_number   1
_chemical_formula_structural   Sr5AgAu3
_chemical_formula_sum   'Sr20 Ag4 Au12'
_cell_volume   1173.45478026
_cell_formula_units_Z   4
loop_
 _symmetry_equiv_pos_site_id
 _symmetry_equiv_pos_as_xyz
  1  'x, y, z'
loop_
 _atom_site_type_symbol
 _atom_site_label
 _atom_site_symmetry_multiplicity
 _atom_site_fract_x
 _atom_site_fract_y
 _atom_site_fract_z
 _atom_site_occupancy
  Sr  Sr0  1  0.323613  0.826496  0.881271  1
  Sr  Sr1  1  0.823613  0.673504  0.618729  1
  Sr  Sr2  1  0.676387  0.173504  0.381272  1
  Sr  Sr3  1  0.176387  0.326496  0.118728  1
  Sr  Sr4  1  0.676387  0.173504  0.118728  1
  Sr  Sr5  1  0.176387  0.326496  0.381272  1
  Sr  Sr6  1  0.323613  0.826496  0.618729  1
  Sr  Sr7  1  0.823613  0.673504  0.881271  1
  Sr  Sr8  1  0.476639  0.323788  0.902276  1
  Sr  Sr9  1  0.976639  0.176212  0.597724  1
  Sr  Sr10  1  0.523361  0.676212  0.402276  1
  Sr  Sr11  1  0.023361  0.823788  0.097724  1
  Sr  Sr12  1  0.523361  0.676212  0.097724  1
  Sr  Sr13  1  0.023361  0.823788  0.402276  1
  Sr  Sr14  1  0.476639  0.323788  0.597724  1
  Sr  Sr15  1  0.976639  0.176212  0.902276  1
  Sr  Sr16  1  0.157745  0.494379  0.750000  1
  Sr  Sr17  1  0.657745  0.005621  0.750000  1
  Sr  Sr18  1  0.842255  0.505621  0.250000  1
  Sr  Sr19  1  0.342255  0.994379  0.250000  1
  Ag  Ag20  1  0.272727  0.124671  0.750000  1
  Ag  Ag21  1  0.772727  0.375329  0.750000  1
  Ag  Ag22  1  0.727273  0.875329  0.250000  1
  Ag  Ag23  1  0.227273  0.624671  0.250000  1
  Au  Au24  1  0.348167  0.016476  0.049015  1
  Au  Au25  1  0.848167  0.483524  0.450985  1
  Au  Au26  1  0.651833  0.983524  0.549015  1
  Au  Au27  1  0.151833  0.516476  0.950985  1
  Au  Au28  1  0.651833  0.983524  0.950985  1
  Au  Au29  1  0.151833  0.516476  0.549015  1
  Au  Au30  1  0.348167  0.016476  0.450985  1
  Au  Au31  1  0.848167  0.483524  0.049015  1
  Au  Au32  1  0.527603  0.610214  0.750000  1
  Au  Au33  1  0.027603  0.889786  0.750000  1
  Au  Au34  1  0.472397  0.389786  0.250000  1
  Au  Au35  1  0.972397  0.110214  0.250000  1
