# generated using pymatgen
data_Li3Dy8Si12Au
_symmetry_space_group_name_H-M   'P 1'
_cell_length_a   10.63583599
_cell_length_b   8.91156349
_cell_length_c   8.19854000
_cell_angle_alpha   76.74032210
_cell_angle_beta   54.60799328
_cell_angle_gamma   48.63934826
_symmetry_Int_Tables_number   1
_chemical_formula_structural   Li3Dy8Si12Au
_chemical_formula_sum   'Li3 Dy8 Si12 Au1'
_cell_volume   460.29123879
_cell_formula_units_Z   1
loop_
 _symmetry_equiv_pos_site_id
 _symmetry_equiv_pos_as_xyz
  1  'x, y, z'
loop_
 _atom_site_type_symbol
 _atom_site_label
 _atom_site_symmetry_multiplicity
 _atom_site_fract_x
 _atom_site_fract_y
 _atom_site_fract_z
 _atom_site_occupancy
  Li  Li0  1  0.832683  0.167063  0.832970  1
  Li  Li1  1  0.166844  0.833369  0.166989  1
  Li  Li2  1  0.416931  0.082997  0.417123  1
  Dy  Dy3  1  0.378965  0.378591  0.619231  1
  Dy  Dy4  1  0.619670  0.622976  0.379669  1
  Dy  Dy5  1  0.873101  0.873456  0.626919  1
  Dy  Dy6  1  0.626677  0.626670  0.872722  1
  Dy  Dy7  1  0.876095  0.878492  0.125919  1
  Dy  Dy8  1  0.124994  0.120635  0.875053  1
  Dy  Dy9  1  0.374244  0.376071  0.126894  1
  Dy  Dy10  1  0.127346  0.122487  0.374726  1
  Si  Si11  1  0.667748  0.332477  0.668147  1
  Si  Si12  1  0.332162  0.668207  0.331975  1
  Si  Si13  1  0.580366  0.919731  0.579510  1
  Si  Si14  1  0.913140  0.586265  0.913000  1
  Si  Si15  1  0.329785  0.663721  0.837352  1
  Si  Si16  1  0.168809  0.836964  0.663995  1
  Si  Si17  1  0.837205  0.168645  0.330065  1
  Si  Si18  1  0.663989  0.330432  0.169272  1
  Si  Si19  1  0.917485  0.594380  0.419777  1
  Si  Si20  1  0.082920  0.406837  0.586175  1
  Si  Si21  1  0.419450  0.069090  0.917569  1
  Si  Si22  1  0.587049  0.923157  0.081750  1
  Au  Au23  1  0.082345  0.417285  0.083199  1
