# generated using pymatgen
data_Nd10Ir3Rh2Au
_symmetry_space_group_name_H-M   'P 1'
_cell_length_a   11.36352783
_cell_length_b   11.37997800
_cell_length_c   6.61065440
_cell_angle_alpha   90.00000000
_cell_angle_beta   89.83757460
_cell_angle_gamma   90.00000000
_symmetry_Int_Tables_number   1
_chemical_formula_structural   Nd10Ir3Rh2Au
_chemical_formula_sum   'Nd20 Ir6 Rh4 Au2'
_cell_volume   854.86455553
_cell_formula_units_Z   2
loop_
 _symmetry_equiv_pos_site_id
 _symmetry_equiv_pos_as_xyz
  1  'x, y, z'
loop_
 _atom_site_type_symbol
 _atom_site_label
 _atom_site_symmetry_multiplicity
 _atom_site_fract_x
 _atom_site_fract_y
 _atom_site_fract_z
 _atom_site_occupancy
  Nd  Nd0  1  0.080333  0.287897  0.116136  1
  Nd  Nd1  1  0.788908  0.408397  0.115953  1
  Nd  Nd2  1  0.206359  0.588296  0.114269  1
  Nd  Nd3  1  0.901223  0.705673  0.114226  1
  Nd  Nd4  1  0.419667  0.787897  0.383864  1
  Nd  Nd5  1  0.598777  0.205673  0.385774  1
  Nd  Nd6  1  0.293641  0.088296  0.385731  1
  Nd  Nd7  1  0.711092  0.908397  0.384047  1
  Nd  Nd8  1  0.413440  0.203763  0.870686  1
  Nd  Nd9  1  0.708909  0.092050  0.885232  1
  Nd  Nd10  1  0.297636  0.910077  0.869034  1
  Nd  Nd11  1  0.594550  0.794144  0.884597  1
  Nd  Nd12  1  0.086560  0.703763  0.629314  1
  Nd  Nd13  1  0.905450  0.294144  0.615403  1
  Nd  Nd14  1  0.202364  0.410077  0.630966  1
  Nd  Nd15  1  0.791091  0.592050  0.614768  1
  Nd  Nd16  1  0.996332  0.001192  0.996867  1
  Nd  Nd17  1  0.504936  0.505807  0.996168  1
  Nd  Nd18  1  0.503668  0.501192  0.503133  1
  Nd  Nd19  1  0.995064  0.005807  0.503832  1
  Ir  Ir20  1  0.653139  0.656632  0.251389  1
  Ir  Ir21  1  0.846861  0.156632  0.248611  1
  Ir  Ir22  1  0.345074  0.653069  0.750193  1
  Ir  Ir23  1  0.154926  0.153069  0.749807  1
  Ir  Ir24  1  0.847391  0.845930  0.750454  1
  Ir  Ir25  1  0.652609  0.345930  0.749546  1
  Rh  Rh26  1  0.001880  0.501841  0.377093  1
  Rh  Rh27  1  0.498120  0.001841  0.122907  1
  Rh  Rh28  1  0.499488  0.999311  0.617707  1
  Rh  Rh29  1  0.000512  0.499311  0.882293  1
  Au  Au30  1  0.156145  0.845921  0.251714  1
  Au  Au31  1  0.343855  0.345921  0.248286  1
