# generated using pymatgen
data_EuDy3Co14(P2Ru)6
_symmetry_space_group_name_H-M   'P 1'
_cell_length_a   3.73187800
_cell_length_b   10.48157587
_cell_length_c   11.89007179
_cell_angle_alpha   90.11176526
_cell_angle_beta   90.00000000
_cell_angle_gamma   90.00000000
_symmetry_Int_Tables_number   1
_chemical_formula_structural   EuDy3Co14(P2Ru)6
_chemical_formula_sum   'Eu1 Dy3 Co14 P12 Ru6'
_cell_volume   465.09071606
_cell_formula_units_Z   1
loop_
 _symmetry_equiv_pos_site_id
 _symmetry_equiv_pos_as_xyz
  1  'x, y, z'
loop_
 _atom_site_type_symbol
 _atom_site_label
 _atom_site_symmetry_multiplicity
 _atom_site_fract_x
 _atom_site_fract_y
 _atom_site_fract_z
 _atom_site_occupancy
  Eu  Eu0  1  0.250000  0.587250  0.705804  1
  Dy  Dy1  1  0.250000  0.913160  0.205011  1
  Dy  Dy2  1  0.750000  0.414567  0.292192  1
  Dy  Dy3  1  0.750000  0.085049  0.792437  1
  Co  Co4  1  0.750000  0.597519  0.507614  1
  Co  Co5  1  0.750000  0.902308  0.013203  1
  Co  Co6  1  0.250000  0.224790  0.179821  1
  Co  Co7  1  0.250000  0.274276  0.679008  1
  Co  Co8  1  0.750000  0.780926  0.823604  1
  Co  Co9  1  0.750000  0.723734  0.321391  1
  Co  Co10  1  0.250000  0.886357  0.699676  1
  Co  Co11  1  0.250000  0.615335  0.200460  1
  Co  Co12  1  0.750000  0.113270  0.298720  1
  Co  Co13  1  0.750000  0.382893  0.800721  1
  Co  Co14  1  0.250000  0.464380  0.933632  1
  Co  Co15  1  0.250000  0.034888  0.431113  1
  Co  Co16  1  0.750000  0.537165  0.068102  1
  Co  Co17  1  0.750000  0.963371  0.566758  1
  P  P18  1  0.250000  0.422146  0.112762  1
  P  P19  1  0.250000  0.077694  0.611793  1
  P  P20  1  0.750000  0.579181  0.888138  1
  P  P21  1  0.750000  0.921071  0.386685  1
  P  P22  1  0.250000  0.273152  0.866489  1
  P  P23  1  0.250000  0.226860  0.366587  1
  P  P24  1  0.750000  0.729342  0.132466  1
  P  P25  1  0.750000  0.772025  0.631925  1
  P  P26  1  0.250000  0.600346  0.387412  1
  P  P27  1  0.250000  0.899322  0.886767  1
  P  P28  1  0.750000  0.400823  0.612521  1
  P  P29  1  0.750000  0.097336  0.112698  1
  Ru  Ru30  1  0.250000  0.714421  0.989904  1
  Ru  Ru31  1  0.250000  0.787107  0.488276  1
  Ru  Ru32  1  0.750000  0.289798  0.015091  1
  Ru  Ru33  1  0.750000  0.209227  0.513496  1
  Ru  Ru34  1  0.250000  0.407706  0.488445  1
  Ru  Ru35  1  0.250000  0.091207  0.989276  1
