# generated using pymatgen
data_Y9TmSi5Pb
_symmetry_space_group_name_H-M   'P 1'
_cell_length_a   8.53694714
_cell_length_b   8.56866618
_cell_length_c   6.40395412
_cell_angle_alpha   90.02109397
_cell_angle_beta   89.99572265
_cell_angle_gamma   119.85736409
_symmetry_Int_Tables_number   1
_chemical_formula_structural   Y9TmSi5Pb
_chemical_formula_sum   'Y9 Tm1 Si5 Pb1'
_cell_volume   406.27214137
_cell_formula_units_Z   1
loop_
 _symmetry_equiv_pos_site_id
 _symmetry_equiv_pos_as_xyz
  1  'x, y, z'
loop_
 _atom_site_type_symbol
 _atom_site_label
 _atom_site_symmetry_multiplicity
 _atom_site_fract_x
 _atom_site_fract_y
 _atom_site_fract_z
 _atom_site_occupancy
  Y  Y0  1  0.988529  0.747185  0.749635  1
  Y  Y1  1  0.998289  0.243135  0.250609  1
  Y  Y2  1  0.754875  0.757236  0.250496  1
  Y  Y3  1  0.766164  0.999834  0.749589  1
  Y  Y4  1  0.241210  0.253186  0.749336  1
  Y  Y5  1  0.241230  0.999802  0.250404  1
  Y  Y6  1  0.674823  0.343906  0.003815  1
  Y  Y7  1  0.674783  0.343736  0.496180  1
  Y  Y8  1  0.331046  0.656263  0.003856  1
  Tm  Tm9  1  0.330869  0.655582  0.496257  1
  Si  Si10  1  0.392979  0.392626  0.251556  1
  Si  Si11  1  0.002949  0.608656  0.251295  1
  Si  Si12  1  0.999386  0.394994  0.748610  1
  Si  Si13  1  0.603151  0.606187  0.748562  1
  Si  Si14  1  0.604776  0.998931  0.251078  1
  Pb  Pb15  1  0.394941  0.998740  0.748723  1
