# generated using pymatgen
data_La6YPd3
_symmetry_space_group_name_H-M   'P 1'
_cell_length_a   10.33711600
_cell_length_b   10.33697314
_cell_length_c   6.56673100
_cell_angle_alpha   90.00000000
_cell_angle_beta   90.00000000
_cell_angle_gamma   120.00005921
_symmetry_Int_Tables_number   1
_chemical_formula_structural   La6YPd3
_chemical_formula_sum   'La12 Y2 Pd6'
_cell_volume   607.67640886
_cell_formula_units_Z   2
loop_
 _symmetry_equiv_pos_site_id
 _symmetry_equiv_pos_as_xyz
  1  'x, y, z'
loop_
 _atom_site_type_symbol
 _atom_site_label
 _atom_site_symmetry_multiplicity
 _atom_site_fract_x
 _atom_site_fract_y
 _atom_site_fract_z
 _atom_site_occupancy
  La  La0  1  0.128068  0.871915  0.247710  1
  La  La1  1  0.743834  0.871893  0.247721  1
  La  La2  1  0.128105  0.256158  0.247721  1
  La  La3  1  0.871932  0.128085  0.747710  1
  La  La4  1  0.256166  0.128107  0.747721  1
  La  La5  1  0.871895  0.743842  0.747721  1
  La  La6  1  0.539362  0.460641  0.444533  1
  La  La7  1  0.921269  0.460641  0.444535  1
  La  La8  1  0.539362  0.078758  0.444519  1
  La  La9  1  0.460638  0.539359  0.944533  1
  La  La10  1  0.078731  0.539359  0.944535  1
  La  La11  1  0.460638  0.921242  0.944519  1
  Y  Y12  1  0.333333  0.666670  0.451249  1
  Y  Y13  1  0.666667  0.333330  0.951249  1
  Pd  Pd14  1  0.810328  0.189685  0.188300  1
  Pd  Pd15  1  0.379359  0.189684  0.188306  1
  Pd  Pd16  1  0.810320  0.620645  0.188300  1
  Pd  Pd17  1  0.189672  0.810315  0.688300  1
  Pd  Pd18  1  0.620641  0.810316  0.688306  1
  Pd  Pd19  1  0.189680  0.379355  0.688300  1
