# generated using pymatgen
data_Pa3Ga3Co2Ni
_symmetry_space_group_name_H-M   'P 1'
_cell_length_a   3.93989100
_cell_length_b   6.78915970
_cell_length_c   6.78698973
_cell_angle_alpha   120.01057769
_cell_angle_beta   90.00000000
_cell_angle_gamma   90.00000000
_symmetry_Int_Tables_number   1
_chemical_formula_structural   Pa3Ga3Co2Ni
_chemical_formula_sum   'Pa3 Ga3 Co2 Ni1'
_cell_volume   157.20333470
_cell_formula_units_Z   1
loop_
 _symmetry_equiv_pos_site_id
 _symmetry_equiv_pos_as_xyz
  1  'x, y, z'
loop_
 _atom_site_type_symbol
 _atom_site_label
 _atom_site_symmetry_multiplicity
 _atom_site_fract_x
 _atom_site_fract_y
 _atom_site_fract_z
 _atom_site_occupancy
  Pa  Pa0  1  0.500000  0.574632  0.000000  1
  Pa  Pa1  1  0.500000  0.425859  0.425295  1
  Pa  Pa2  1  0.500000  0.000565  0.574705  1
  Ga  Ga3  1  0.000000  0.238761  0.000000  1
  Ga  Ga4  1  0.000000  0.760586  0.760002  1
  Ga  Ga5  1  0.000000  0.000584  0.239998  1
  Co  Co6  1  0.000000  0.333626  0.667192  1
  Co  Co7  1  0.000000  0.666433  0.332808  1
  Ni  Ni8  1  0.500000  0.998853  0.000000  1
