# generated using pymatgen
data_Lu2Nb(Ni10B3)2
_symmetry_space_group_name_H-M   'P 1'
_cell_length_a   7.55427693
_cell_length_b   7.55427649
_cell_length_c   7.55427700
_cell_angle_alpha   60.00000215
_cell_angle_beta   60.00000408
_cell_angle_gamma   60.00000079
_symmetry_Int_Tables_number   1
_chemical_formula_structural   Lu2Nb(Ni10B3)2
_chemical_formula_sum   'Lu2 Nb1 Ni20 B6'
_cell_volume   304.83421313
_cell_formula_units_Z   1
loop_
 _symmetry_equiv_pos_site_id
 _symmetry_equiv_pos_as_xyz
  1  'x, y, z'
loop_
 _atom_site_type_symbol
 _atom_site_label
 _atom_site_symmetry_multiplicity
 _atom_site_fract_x
 _atom_site_fract_y
 _atom_site_fract_z
 _atom_site_occupancy
  Lu  Lu0  1  0.250000  0.250000  0.250000  1
  Lu  Lu1  1  0.750000  0.750000  0.750000  1
  Nb  Nb2  1  0.000000  0.000000  0.000000  1
  Ni  Ni3  1  0.387424  0.387424  0.387424  1
  Ni  Ni4  1  0.612576  0.612576  0.612576  1
  Ni  Ni5  1  0.387424  0.387424  0.837728  1
  Ni  Ni6  1  0.387424  0.837728  0.387424  1
  Ni  Ni7  1  0.612576  0.612576  0.162272  1
  Ni  Ni8  1  0.612576  0.162272  0.612576  1
  Ni  Ni9  1  0.837728  0.387424  0.387424  1
  Ni  Ni10  1  0.162272  0.612576  0.612576  1
  Ni  Ni11  1  0.341788  0.000000  0.000000  1
  Ni  Ni12  1  0.658212  0.000000  0.000000  1
  Ni  Ni13  1  0.000000  0.341788  0.658212  1
  Ni  Ni14  1  0.000000  0.658212  0.341788  1
  Ni  Ni15  1  0.000000  0.341788  0.000000  1
  Ni  Ni16  1  0.658212  0.000000  0.341788  1
  Ni  Ni17  1  0.000000  0.658212  0.000000  1
  Ni  Ni18  1  0.341788  0.000000  0.658212  1
  Ni  Ni19  1  0.000000  0.000000  0.341788  1
  Ni  Ni20  1  0.000000  0.000000  0.658212  1
  Ni  Ni21  1  0.658212  0.341788  0.000000  1
  Ni  Ni22  1  0.341788  0.658212  0.000000  1
  B  B23  1  0.732043  0.267957  0.267957  1
  B  B24  1  0.267957  0.732043  0.732043  1
  B  B25  1  0.267957  0.732043  0.267957  1
  B  B26  1  0.732043  0.267957  0.732043  1
  B  B27  1  0.267957  0.267957  0.732043  1
  B  B28  1  0.732043  0.732043  0.267957  1
