# generated using pymatgen
data_Pr4B4PtRh9
_symmetry_space_group_name_H-M   'P 1'
_cell_length_a   5.57447501
_cell_length_b   5.57447644
_cell_length_c   21.18345900
_cell_angle_alpha   90.00000000
_cell_angle_beta   90.00000000
_cell_angle_gamma   119.99646852
_symmetry_Int_Tables_number   1
_chemical_formula_structural   Pr4B4PtRh9
_chemical_formula_sum   'Pr8 B8 Pt2 Rh18'
_cell_volume   570.09997110
_cell_formula_units_Z   2
loop_
 _symmetry_equiv_pos_site_id
 _symmetry_equiv_pos_as_xyz
  1  'x, y, z'
loop_
 _atom_site_type_symbol
 _atom_site_label
 _atom_site_symmetry_multiplicity
 _atom_site_fract_x
 _atom_site_fract_y
 _atom_site_fract_z
 _atom_site_occupancy
  Pr  Pr0  1  0.666679  0.333321  0.521530  1
  Pr  Pr1  1  0.333321  0.666679  0.478470  1
  Pr  Pr2  1  0.333321  0.666679  0.021530  1
  Pr  Pr3  1  0.666679  0.333321  0.978470  1
  Pr  Pr4  1  0.666740  0.333260  0.674302  1
  Pr  Pr5  1  0.333260  0.666740  0.325698  1
  Pr  Pr6  1  0.333260  0.666740  0.174302  1
  Pr  Pr7  1  0.666740  0.333260  0.825698  1
  B  B8  1  0.000082  0.999918  0.677698  1
  B  B9  1  0.999918  0.000082  0.322302  1
  B  B10  1  0.999918  0.000082  0.177698  1
  B  B11  1  0.000082  0.999918  0.822302  1
  B  B12  1  0.666601  0.333399  0.325794  1
  B  B13  1  0.333399  0.666601  0.674206  1
  B  B14  1  0.333399  0.666601  0.825794  1
  B  B15  1  0.666601  0.333399  0.174206  1
  Pt  Pt16  1  0.000000  0.000000  0.500000  1
  Pt  Pt17  1  0.000000  0.000000  0.000000  1
  Rh  Rh18  1  0.167245  0.334314  0.750000  1
  Rh  Rh19  1  0.167245  0.832755  0.750000  1
  Rh  Rh20  1  0.665686  0.832755  0.750000  1
  Rh  Rh21  1  0.832755  0.665686  0.250000  1
  Rh  Rh22  1  0.832755  0.167245  0.250000  1
  Rh  Rh23  1  0.334314  0.167245  0.250000  1
  Rh  Rh24  1  0.163637  0.327017  0.609773  1
  Rh  Rh25  1  0.163632  0.836368  0.609768  1
  Rh  Rh26  1  0.672983  0.836363  0.609773  1
  Rh  Rh27  1  0.836363  0.672983  0.390227  1
  Rh  Rh28  1  0.836368  0.163632  0.390232  1
  Rh  Rh29  1  0.327017  0.163637  0.390227  1
  Rh  Rh30  1  0.836363  0.672983  0.109773  1
  Rh  Rh31  1  0.836368  0.163632  0.109768  1
  Rh  Rh32  1  0.327017  0.163637  0.109773  1
  Rh  Rh33  1  0.163637  0.327017  0.890227  1
  Rh  Rh34  1  0.163632  0.836368  0.890232  1
  Rh  Rh35  1  0.672983  0.836363  0.890227  1
