# generated using pymatgen
data_Yb8ThPd6
_symmetry_space_group_name_H-M   'P 1'
_cell_length_a   7.58113948
_cell_length_b   7.58113937
_cell_length_c   7.58113900
_cell_angle_alpha   70.78408868
_cell_angle_beta   70.78408097
_cell_angle_gamma   70.78408719
_symmetry_Int_Tables_number   1
_chemical_formula_structural   Yb8ThPd6
_chemical_formula_sum   'Yb8 Th1 Pd6'
_cell_volume   376.41638399
_cell_formula_units_Z   1
loop_
 _symmetry_equiv_pos_site_id
 _symmetry_equiv_pos_as_xyz
  1  'x, y, z'
loop_
 _atom_site_type_symbol
 _atom_site_label
 _atom_site_symmetry_multiplicity
 _atom_site_fract_x
 _atom_site_fract_y
 _atom_site_fract_z
 _atom_site_occupancy
  Yb  Yb0  1  0.795026  0.795026  0.795026  1
  Yb  Yb1  1  0.204974  0.204974  0.204974  1
  Yb  Yb2  1  0.333911  0.599934  0.843937  1
  Yb  Yb3  1  0.843937  0.333911  0.599934  1
  Yb  Yb4  1  0.599934  0.843937  0.333911  1
  Yb  Yb5  1  0.666089  0.400066  0.156063  1
  Yb  Yb6  1  0.156063  0.666089  0.400066  1
  Yb  Yb7  1  0.400066  0.156063  0.666089  1
  Th  Th8  1  0.000000  0.000000  0.000000  1
  Pd  Pd9  1  0.150228  0.955227  0.600045  1
  Pd  Pd10  1  0.600045  0.150228  0.955227  1
  Pd  Pd11  1  0.955227  0.600045  0.150228  1
  Pd  Pd12  1  0.849772  0.044773  0.399955  1
  Pd  Pd13  1  0.399955  0.849772  0.044773  1
  Pd  Pd14  1  0.044773  0.399955  0.849772  1
