# generated using pymatgen
data_Ta4MnTe4
_symmetry_space_group_name_H-M   'P 1'
_cell_length_a   4.85410300
_cell_length_b   10.96799700
_cell_length_c   19.19898300
_cell_angle_alpha   90.00000000
_cell_angle_beta   90.00000000
_cell_angle_gamma   90.00000000
_symmetry_Int_Tables_number   1
_chemical_formula_structural   Ta4MnTe4
_chemical_formula_sum   'Ta16 Mn4 Te16'
_cell_volume   1022.14976826
_cell_formula_units_Z   4
loop_
 _symmetry_equiv_pos_site_id
 _symmetry_equiv_pos_as_xyz
  1  'x, y, z'
loop_
 _atom_site_type_symbol
 _atom_site_label
 _atom_site_symmetry_multiplicity
 _atom_site_fract_x
 _atom_site_fract_y
 _atom_site_fract_z
 _atom_site_occupancy
  Ta  Ta0  1  0.500000  0.563722  0.384503  1
  Ta  Ta1  1  0.500000  0.436278  0.615497  1
  Ta  Ta2  1  0.500000  0.063722  0.115497  1
  Ta  Ta3  1  0.500000  0.936278  0.884503  1
  Ta  Ta4  1  0.500000  0.702619  0.536380  1
  Ta  Ta5  1  0.500000  0.297381  0.463620  1
  Ta  Ta6  1  0.500000  0.202619  0.963620  1
  Ta  Ta7  1  0.500000  0.797381  0.036380  1
  Ta  Ta8  1  0.000000  0.688368  0.443880  1
  Ta  Ta9  1  0.000000  0.311632  0.556120  1
  Ta  Ta10  1  0.000000  0.188368  0.056120  1
  Ta  Ta11  1  0.000000  0.811632  0.943880  1
  Ta  Ta12  1  0.000000  0.402204  0.392637  1
  Ta  Ta13  1  0.000000  0.597796  0.607363  1
  Ta  Ta14  1  0.000000  0.902204  0.107363  1
  Ta  Ta15  1  0.000000  0.097796  0.892637  1
  Mn  Mn16  1  0.250179  0.500000  0.500000  1
  Mn  Mn17  1  0.749821  0.000000  0.000000  1
  Mn  Mn18  1  0.749821  0.500000  0.500000  1
  Mn  Mn19  1  0.250179  0.000000  0.000000  1
  Te  Te20  1  0.000000  0.846929  0.562903  1
  Te  Te21  1  0.000000  0.153071  0.437097  1
  Te  Te22  1  0.000000  0.346929  0.937097  1
  Te  Te23  1  0.000000  0.653071  0.062903  1
  Te  Te24  1  0.500000  0.331795  0.316047  1
  Te  Te25  1  0.500000  0.668205  0.683953  1
  Te  Te26  1  0.500000  0.831795  0.183953  1
  Te  Te27  1  0.500000  0.168205  0.816047  1
  Te  Te28  1  0.500000  0.823149  0.404091  1
  Te  Te29  1  0.500000  0.176851  0.595909  1
  Te  Te30  1  0.500000  0.323149  0.095909  1
  Te  Te31  1  0.500000  0.676851  0.904091  1
  Te  Te32  1  0.000000  0.609060  0.301672  1
  Te  Te33  1  0.000000  0.390940  0.698328  1
  Te  Te34  1  0.000000  0.109060  0.198328  1
  Te  Te35  1  0.000000  0.890940  0.801672  1
