# generated using pymatgen
data_La3Zn(Ni6B)2
_symmetry_space_group_name_H-M   'P 1'
_cell_length_a   5.09570248
_cell_length_b   5.09902691
_cell_length_c   10.95128848
_cell_angle_alpha   90.00746055
_cell_angle_beta   90.01296988
_cell_angle_gamma   119.97251092
_symmetry_Int_Tables_number   1
_chemical_formula_structural   La3Zn(Ni6B)2
_chemical_formula_sum   'La3 Zn1 Ni12 B2'
_cell_volume   246.49460732
_cell_formula_units_Z   1
loop_
 _symmetry_equiv_pos_site_id
 _symmetry_equiv_pos_as_xyz
  1  'x, y, z'
loop_
 _atom_site_type_symbol
 _atom_site_label
 _atom_site_symmetry_multiplicity
 _atom_site_fract_x
 _atom_site_fract_y
 _atom_site_fract_z
 _atom_site_occupancy
  La  La0  1  0.999971  0.000023  0.000010  1
  La  La1  1  0.999876  0.999732  0.334250  1
  La  La2  1  0.000066  0.000044  0.673736  1
  Zn  Zn3  1  0.333326  0.666743  0.316755  1
  Ni  Ni4  1  0.501252  0.002284  0.500440  1
  Ni  Ni5  1  0.501076  0.498847  0.500382  1
  Ni  Ni6  1  0.997820  0.498899  0.500392  1
  Ni  Ni7  1  0.666608  0.333149  0.317645  1
  Ni  Ni8  1  0.666930  0.333637  0.681826  1
  Ni  Ni9  1  0.333346  0.666630  0.681980  1
  Ni  Ni10  1  0.501256  0.002538  0.129954  1
  Ni  Ni11  1  0.501204  0.498669  0.129861  1
  Ni  Ni12  1  0.997455  0.498776  0.129905  1
  Ni  Ni13  1  0.499808  0.999855  0.868474  1
  Ni  Ni14  1  0.499951  0.500178  0.868624  1
  Ni  Ni15  1  0.000032  0.500009  0.868623  1
  B  B16  1  0.333342  0.666765  0.998840  1
  B  B17  1  0.666582  0.333222  0.998300  1
