# generated using pymatgen
data_Pa3Sb4Os2Pt
_symmetry_space_group_name_H-M   'P 1'
_cell_length_a   8.38742460
_cell_length_b   8.38742416
_cell_length_c   8.38742510
_cell_angle_alpha   109.16674715
_cell_angle_beta   109.16674849
_cell_angle_gamma   110.08189537
_symmetry_Int_Tables_number   1
_chemical_formula_structural   Pa3Sb4Os2Pt
_chemical_formula_sum   'Pa6 Sb8 Os4 Pt2'
_cell_volume   454.17890851
_cell_formula_units_Z   2
loop_
 _symmetry_equiv_pos_site_id
 _symmetry_equiv_pos_as_xyz
  1  'x, y, z'
loop_
 _atom_site_type_symbol
 _atom_site_label
 _atom_site_symmetry_multiplicity
 _atom_site_fract_x
 _atom_site_fract_y
 _atom_site_fract_z
 _atom_site_occupancy
  Pa  Pa0  1  0.878622  0.250000  0.128622  1
  Pa  Pa1  1  0.621378  0.750000  0.371378  1
  Pa  Pa2  1  0.250000  0.121378  0.871378  1
  Pa  Pa3  1  0.750000  0.378622  0.628622  1
  Pa  Pa4  1  0.125000  0.875000  0.250000  1
  Pa  Pa5  1  0.375000  0.625000  0.750000  1
  Sb  Sb6  1  0.675177  0.500664  0.997020  1
  Sb  Sb7  1  0.496356  0.999336  0.674514  1
  Sb  Sb8  1  0.003644  0.678158  0.502980  1
  Sb  Sb9  1  0.824823  0.821842  0.825486  1
  Sb  Sb10  1  0.499336  0.996356  0.174514  1
  Sb  Sb11  1  0.178158  0.503644  0.002980  1
  Sb  Sb12  1  0.000664  0.175177  0.497020  1
  Sb  Sb13  1  0.321842  0.324823  0.325486  1
  Os  Os14  1  0.376954  0.250000  0.626954  1
  Os  Os15  1  0.123046  0.750000  0.873046  1
  Os  Os16  1  0.250000  0.623046  0.373046  1
  Os  Os17  1  0.750000  0.876954  0.126954  1
  Pt  Pt18  1  0.625000  0.375000  0.250000  1
  Pt  Pt19  1  0.875000  0.125000  0.750000  1
