# generated using pymatgen
data_Ta6CdGaS12
_symmetry_space_group_name_H-M   'P 1'
_cell_length_a   5.80615900
_cell_length_b   5.80615995
_cell_length_c   14.16726600
_cell_angle_alpha   90.00000000
_cell_angle_beta   90.00000000
_cell_angle_gamma   120.00000029
_symmetry_Int_Tables_number   1
_chemical_formula_structural   Ta6CdGaS12
_chemical_formula_sum   'Ta6 Cd1 Ga1 S12'
_cell_volume   413.61339871
_cell_formula_units_Z   1
loop_
 _symmetry_equiv_pos_site_id
 _symmetry_equiv_pos_as_xyz
  1  'x, y, z'
loop_
 _atom_site_type_symbol
 _atom_site_label
 _atom_site_symmetry_multiplicity
 _atom_site_fract_x
 _atom_site_fract_y
 _atom_site_fract_z
 _atom_site_occupancy
  Ta  Ta0  1  0.000000  0.000000  0.247334  1
  Ta  Ta1  1  0.000000  0.000000  0.752666  1
  Ta  Ta2  1  0.333333  0.666667  0.247806  1
  Ta  Ta3  1  0.666667  0.333333  0.752194  1
  Ta  Ta4  1  0.666667  0.333333  0.247806  1
  Ta  Ta5  1  0.333333  0.666667  0.752194  1
  Cd  Cd6  1  0.000000  0.000000  0.000000  1
  Ga  Ga7  1  0.000000  0.000000  0.500000  1
  S  S8  1  0.335562  0.000000  0.136939  1
  S  S9  1  0.000000  0.335562  0.136939  1
  S  S10  1  0.664438  0.664438  0.136939  1
  S  S11  1  0.330930  0.330930  0.642958  1
  S  S12  1  0.669070  0.669070  0.357042  1
  S  S13  1  0.669070  0.000000  0.642958  1
  S  S14  1  0.000000  0.669070  0.642958  1
  S  S15  1  0.000000  0.664438  0.863061  1
  S  S16  1  0.335562  0.335562  0.863061  1
  S  S17  1  0.000000  0.330930  0.357042  1
  S  S18  1  0.330930  0.000000  0.357042  1
  S  S19  1  0.664438  0.000000  0.863061  1
