# generated using pymatgen
data_Ce4Ga10AgPt5
_symmetry_space_group_name_H-M   'P 1'
_cell_length_a   8.69360580
_cell_length_b   8.69360634
_cell_length_c   8.69360500
_cell_angle_alpha   138.78164288
_cell_angle_beta   106.41142304
_cell_angle_gamma   88.00933431
_symmetry_Int_Tables_number   1
_chemical_formula_structural   Ce4Ga10AgPt5
_chemical_formula_sum   'Ce4 Ga10 Ag1 Pt5'
_cell_volume   398.54566131
_cell_formula_units_Z   1
loop_
 _symmetry_equiv_pos_site_id
 _symmetry_equiv_pos_as_xyz
  1  'x, y, z'
loop_
 _atom_site_type_symbol
 _atom_site_label
 _atom_site_symmetry_multiplicity
 _atom_site_fract_x
 _atom_site_fract_y
 _atom_site_fract_z
 _atom_site_occupancy
  Ce  Ce0  1  0.863005  0.632842  0.230689  1
  Ce  Ce1  1  0.136995  0.367684  0.769838  1
  Ce  Ce2  1  0.402154  0.132316  0.269311  1
  Ce  Ce3  1  0.597846  0.867158  0.730162  1
  Ga  Ga4  1  0.500000  0.750000  0.250000  1
  Ga  Ga5  1  0.500000  0.250000  0.750000  1
  Ga  Ga6  1  0.227624  0.977624  0.750000  1
  Ga  Ga7  1  0.772376  0.522376  0.750000  1
  Ga  Ga8  1  0.775753  0.025753  0.250000  1
  Ga  Ga9  1  0.224247  0.474247  0.250000  1
  Ga  Ga10  1  0.045635  0.897434  0.160548  1
  Ga  Ga11  1  0.954365  0.114912  0.851798  1
  Ga  Ga12  1  0.736885  0.385088  0.339452  1
  Ga  Ga13  1  0.263115  0.602566  0.648202  1
  Ag  Ag14  1  0.000000  0.750000  0.750000  1
  Pt  Pt15  1  0.000000  0.250000  0.250000  1
  Pt  Pt16  1  0.251344  0.860660  0.387345  1
  Pt  Pt17  1  0.748656  0.135999  0.609314  1
  Pt  Pt18  1  0.473314  0.364001  0.112655  1
  Pt  Pt19  1  0.526686  0.639340  0.890686  1
