# generated using pymatgen
data_Ta3Co2WN
_symmetry_space_group_name_H-M   'P 1'
_cell_length_a   8.14343561
_cell_length_b   8.14343533
_cell_length_c   8.14343500
_cell_angle_alpha   59.99999727
_cell_angle_beta   59.99999842
_cell_angle_gamma   60.00000015
_symmetry_Int_Tables_number   1
_chemical_formula_structural   Ta3Co2WN
_chemical_formula_sum   'Ta12 Co8 W4 N4'
_cell_volume   381.86331755
_cell_formula_units_Z   4
loop_
 _symmetry_equiv_pos_site_id
 _symmetry_equiv_pos_as_xyz
  1  'x, y, z'
loop_
 _atom_site_type_symbol
 _atom_site_label
 _atom_site_symmetry_multiplicity
 _atom_site_fract_x
 _atom_site_fract_y
 _atom_site_fract_z
 _atom_site_occupancy
  Ta  Ta0  1  0.809808  0.809808  0.190192  1
  Ta  Ta1  1  0.190192  0.190192  0.809808  1
  Ta  Ta2  1  0.809808  0.190192  0.809808  1
  Ta  Ta3  1  0.190192  0.809808  0.190192  1
  Ta  Ta4  1  0.190192  0.809808  0.809808  1
  Ta  Ta5  1  0.809808  0.190192  0.190192  1
  Ta  Ta6  1  0.440192  0.440192  0.059808  1
  Ta  Ta7  1  0.059808  0.059808  0.440192  1
  Ta  Ta8  1  0.440192  0.059808  0.440192  1
  Ta  Ta9  1  0.059808  0.440192  0.059808  1
  Ta  Ta10  1  0.059808  0.440192  0.440192  1
  Ta  Ta11  1  0.440192  0.059808  0.059808  1
  Co  Co12  1  0.732709  0.422430  0.422430  1
  Co  Co13  1  0.422430  0.732709  0.422430  1
  Co  Co14  1  0.422430  0.422430  0.732709  1
  Co  Co15  1  0.422430  0.422430  0.422430  1
  Co  Co16  1  0.517291  0.827570  0.827570  1
  Co  Co17  1  0.827570  0.517291  0.827570  1
  Co  Co18  1  0.827570  0.827570  0.517291  1
  Co  Co19  1  0.827570  0.827570  0.827570  1
  W  W20  1  0.125000  0.625000  0.625000  1
  W  W21  1  0.625000  0.125000  0.625000  1
  W  W22  1  0.625000  0.625000  0.125000  1
  W  W23  1  0.625000  0.625000  0.625000  1
  N  N24  1  0.625000  0.125000  0.125000  1
  N  N25  1  0.125000  0.625000  0.125000  1
  N  N26  1  0.125000  0.125000  0.625000  1
  N  N27  1  0.125000  0.125000  0.125000  1
