# generated using pymatgen
data_Tb8Dy2IrPt5
_symmetry_space_group_name_H-M   'P 1'
_cell_length_a   11.09338000
_cell_length_b   11.09338000
_cell_length_c   6.44705700
_cell_angle_alpha   90.00000000
_cell_angle_beta   90.00000000
_cell_angle_gamma   90.00000000
_symmetry_Int_Tables_number   1
_chemical_formula_structural   Tb8Dy2IrPt5
_chemical_formula_sum   'Tb16 Dy4 Ir2 Pt10'
_cell_volume   793.39469022
_cell_formula_units_Z   2
loop_
 _symmetry_equiv_pos_site_id
 _symmetry_equiv_pos_as_xyz
  1  'x, y, z'
loop_
 _atom_site_type_symbol
 _atom_site_label
 _atom_site_symmetry_multiplicity
 _atom_site_fract_x
 _atom_site_fract_y
 _atom_site_fract_z
 _atom_site_occupancy
  Tb  Tb0  1  0.292463  0.088585  0.377202  1
  Tb  Tb1  1  0.292463  0.911415  0.877202  1
  Tb  Tb2  1  0.707537  0.088585  0.877202  1
  Tb  Tb3  1  0.707537  0.911415  0.377202  1
  Tb  Tb4  1  0.588585  0.792463  0.877202  1
  Tb  Tb5  1  0.588585  0.207537  0.377202  1
  Tb  Tb6  1  0.411415  0.792463  0.377202  1
  Tb  Tb7  1  0.411415  0.207537  0.877202  1
  Tb  Tb8  1  0.205207  0.412101  0.623329  1
  Tb  Tb9  1  0.205207  0.587899  0.123329  1
  Tb  Tb10  1  0.794793  0.412101  0.123329  1
  Tb  Tb11  1  0.794793  0.587899  0.623329  1
  Tb  Tb12  1  0.912101  0.705207  0.123329  1
  Tb  Tb13  1  0.912101  0.294793  0.623329  1
  Tb  Tb14  1  0.087899  0.705207  0.623329  1
  Tb  Tb15  1  0.087899  0.294793  0.123329  1
  Dy  Dy16  1  0.000000  0.000000  0.500444  1
  Dy  Dy17  1  0.000000  0.000000  0.000444  1
  Dy  Dy18  1  0.500000  0.500000  0.000444  1
  Dy  Dy19  1  0.500000  0.500000  0.500444  1
  Ir  Ir20  1  0.000000  0.500000  0.877904  1
  Ir  Ir21  1  0.000000  0.500000  0.377904  1
  Pt  Pt22  1  0.846190  0.152726  0.249915  1
  Pt  Pt23  1  0.846190  0.847274  0.749915  1
  Pt  Pt24  1  0.153810  0.152726  0.749915  1
  Pt  Pt25  1  0.153810  0.847274  0.249915  1
  Pt  Pt26  1  0.652726  0.346190  0.749915  1
  Pt  Pt27  1  0.652726  0.653810  0.249915  1
  Pt  Pt28  1  0.347274  0.346190  0.249915  1
  Pt  Pt29  1  0.347274  0.653810  0.749915  1
  Pt  Pt30  1  0.500000  0.000000  0.119423  1
  Pt  Pt31  1  0.500000  0.000000  0.619423  1
