# generated using pymatgen
data_Tb10SnBi5Cl2
_symmetry_space_group_name_H-M   'P 1'
_cell_length_a   9.26256497
_cell_length_b   9.26256585
_cell_length_c   6.51391700
_cell_angle_alpha   90.00000000
_cell_angle_beta   90.00000000
_cell_angle_gamma   119.68387577
_symmetry_Int_Tables_number   1
_chemical_formula_structural   Tb10SnBi5Cl2
_chemical_formula_sum   'Tb10 Sn1 Bi5 Cl2'
_cell_volume   485.52329044
_cell_formula_units_Z   1
loop_
 _symmetry_equiv_pos_site_id
 _symmetry_equiv_pos_as_xyz
  1  'x, y, z'
loop_
 _atom_site_type_symbol
 _atom_site_label
 _atom_site_symmetry_multiplicity
 _atom_site_fract_x
 _atom_site_fract_y
 _atom_site_fract_z
 _atom_site_occupancy
  Tb  Tb0  1  0.664275  0.334248  0.001499  1
  Tb  Tb1  1  0.334248  0.664275  0.498501  1
  Tb  Tb2  1  0.664275  0.334248  0.498501  1
  Tb  Tb3  1  0.334248  0.664275  0.001499  1
  Tb  Tb4  1  0.734129  0.000031  0.750000  1
  Tb  Tb5  1  0.729856  0.729856  0.250000  1
  Tb  Tb6  1  0.004759  0.267095  0.250000  1
  Tb  Tb7  1  0.000031  0.734129  0.750000  1
  Tb  Tb8  1  0.267929  0.267929  0.750000  1
  Tb  Tb9  1  0.267095  0.004759  0.250000  1
  Sn  Sn10  1  0.388559  0.388559  0.250000  1
  Bi  Bi11  1  0.612204  0.612204  0.750000  1
  Bi  Bi12  1  0.000986  0.614010  0.250000  1
  Bi  Bi13  1  0.614010  0.000986  0.250000  1
  Bi  Bi14  1  0.387005  0.999481  0.750000  1
  Bi  Bi15  1  0.999481  0.387005  0.750000  1
  Cl  Cl16  1  0.998455  0.998455  0.500628  1
  Cl  Cl17  1  0.998455  0.998455  0.999372  1
