# generated using pymatgen
data_ClF17
_symmetry_space_group_name_H-M   'P 1'
_cell_length_a   8.65582051
_cell_length_b   8.48992224
_cell_length_c   10.09160658
_cell_angle_alpha   82.76118244
_cell_angle_beta   87.24175061
_cell_angle_gamma   68.45490454
_symmetry_Int_Tables_number   1
_chemical_formula_structural   ClF17
_chemical_formula_sum   'Cl2 F34'
_cell_volume   684.28829201
_cell_formula_units_Z   2
loop_
 _symmetry_equiv_pos_site_id
 _symmetry_equiv_pos_as_xyz
  1  'x, y, z'
loop_
 _atom_site_type_symbol
 _atom_site_label
 _atom_site_symmetry_multiplicity
 _atom_site_fract_x
 _atom_site_fract_y
 _atom_site_fract_z
 _atom_site_occupancy
  Cl  Cl0  1  0.860797  0.249375  0.762543  1
  Cl  Cl1  1  0.139203  0.750625  0.237457  1
  F  F2  1  0.616308  0.198299  0.483153  1
  F  F3  1  0.383692  0.801701  0.516847  1
  F  F4  1  0.827214  0.696511  0.711316  1
  F  F5  1  0.172786  0.303489  0.288684  1
  F  F6  1  0.087126  0.766378  0.859736  1
  F  F7  1  0.912874  0.233622  0.140264  1
  F  F8  1  0.554315  0.142426  0.376595  1
  F  F9  1  0.445685  0.857574  0.623405  1
  F  F10  1  0.659300  0.314731  0.706190  1
  F  F11  1  0.340700  0.685269  0.293810  1
  F  F12  1  0.918436  0.082770  0.668989  1
  F  F13  1  0.081564  0.917230  0.331011  1
  F  F14  1  0.905652  0.371962  0.630078  1
  F  F15  1  0.094348  0.628038  0.369922  1
  F  F16  1  0.852232  0.817652  0.609938  1
  F  F17  1  0.147768  0.182348  0.390062  1
  F  F18  1  0.804445  0.418217  0.856158  1
  F  F19  1  0.195555  0.581783  0.143842  1
  F  F20  1  0.214816  0.684502  0.769797  1
  F  F21  1  0.785184  0.315498  0.230203  1
  F  F22  1  0.939971  0.815319  0.179775  1
  F  F23  1  0.060029  0.184681  0.820225  1
  F  F24  1  0.815211  0.123988  0.894566  1
  F  F25  1  0.184789  0.876012  0.105434  1
  F  F26  1  0.494272  0.585761  0.981737  1
  F  F27  1  0.505728  0.414239  0.018263  1
  F  F28  1  0.457955  0.080006  0.867206  1
  F  F29  1  0.542045  0.919994  0.132794  1
  F  F30  1  0.293249  0.242746  0.611258  1
  F  F31  1  0.706751  0.757254  0.388742  1
  F  F32  1  0.259994  0.391843  0.676245  1
  F  F33  1  0.740006  0.608157  0.323755  1
  F  F34  1  0.564034  0.915085  0.837088  1
  F  F35  1  0.435966  0.084915  0.162912  1
