# generated using pymatgen
data_In6TcIr
_symmetry_space_group_name_H-M   'P 1'
_cell_length_a   7.13783510
_cell_length_b   7.13783600
_cell_length_c   7.39623200
_cell_angle_alpha   90.00000000
_cell_angle_beta   90.00000000
_cell_angle_gamma   89.63337179
_symmetry_Int_Tables_number   1
_chemical_formula_structural   In6TcIr
_chemical_formula_sum   'In12 Tc2 Ir2'
_cell_volume   376.82066323
_cell_formula_units_Z   2
loop_
 _symmetry_equiv_pos_site_id
 _symmetry_equiv_pos_as_xyz
  1  'x, y, z'
loop_
 _atom_site_type_symbol
 _atom_site_label
 _atom_site_symmetry_multiplicity
 _atom_site_fract_x
 _atom_site_fract_y
 _atom_site_fract_z
 _atom_site_occupancy
  In  In0  1  0.000000  0.500000  0.500000  1
  In  In1  1  0.500000  0.000000  0.000000  1
  In  In2  1  0.500000  0.000000  0.500000  1
  In  In3  1  0.000000  0.500000  0.000000  1
  In  In4  1  0.345585  0.654415  0.240184  1
  In  In5  1  0.654415  0.345585  0.240184  1
  In  In6  1  0.156721  0.156721  0.733564  1
  In  In7  1  0.843279  0.843279  0.733564  1
  In  In8  1  0.654415  0.345585  0.759816  1
  In  In9  1  0.345585  0.654415  0.759816  1
  In  In10  1  0.843279  0.843279  0.266436  1
  In  In11  1  0.156721  0.156721  0.266436  1
  Tc  Tc12  1  0.157079  0.842921  0.500000  1
  Tc  Tc13  1  0.842921  0.157079  0.500000  1
  Ir  Ir14  1  0.344954  0.344954  0.000000  1
  Ir  Ir15  1  0.655046  0.655046  0.000000  1
