# generated using pymatgen
data_AcNd2(InPd)3
_symmetry_space_group_name_H-M   'P 1'
_cell_length_a   7.81418447
_cell_length_b   7.86229148
_cell_length_c   4.17160300
_cell_angle_alpha   90.00000000
_cell_angle_beta   90.00000000
_cell_angle_gamma   120.20386931
_symmetry_Int_Tables_number   1
_chemical_formula_structural   AcNd2(InPd)3
_chemical_formula_sum   'Ac1 Nd2 In3 Pd3'
_cell_volume   221.49837821
_cell_formula_units_Z   1
loop_
 _symmetry_equiv_pos_site_id
 _symmetry_equiv_pos_as_xyz
  1  'x, y, z'
loop_
 _atom_site_type_symbol
 _atom_site_label
 _atom_site_symmetry_multiplicity
 _atom_site_fract_x
 _atom_site_fract_y
 _atom_site_fract_z
 _atom_site_occupancy
  Ac  Ac0  1  0.000000  0.589110  0.000000  1
  Nd  Nd1  1  0.407861  0.410955  0.000000  1
  Nd  Nd2  1  0.592139  0.003094  0.000000  1
  In  In3  1  0.740093  0.751286  0.500000  1
  In  In4  1  0.000000  0.236558  0.500000  1
  In  In5  1  0.259907  0.011193  0.500000  1
  Pd  Pd6  1  0.334084  0.667775  0.500000  1
  Pd  Pd7  1  0.000000  0.996339  0.000000  1
  Pd  Pd8  1  0.665916  0.333690  0.500000  1
