# generated using pymatgen
data_Pr3Y5(WO6)4
_symmetry_space_group_name_H-M   'P 1'
_cell_length_a   5.51315600
_cell_length_b   7.84484061
_cell_length_c   11.58911524
_cell_angle_alpha   76.00085620
_cell_angle_beta   90.00000000
_cell_angle_gamma   90.00000000
_symmetry_Int_Tables_number   1
_chemical_formula_structural   Pr3Y5(WO6)4
_chemical_formula_sum   'Pr3 Y5 W4 O24'
_cell_volume   486.34048482
_cell_formula_units_Z   1
loop_
 _symmetry_equiv_pos_site_id
 _symmetry_equiv_pos_as_xyz
  1  'x, y, z'
loop_
 _atom_site_type_symbol
 _atom_site_label
 _atom_site_symmetry_multiplicity
 _atom_site_fract_x
 _atom_site_fract_y
 _atom_site_fract_z
 _atom_site_occupancy
  Pr  Pr0  1  0.256229  0.000000  0.750000  1
  Pr  Pr1  1  0.317338  0.500000  0.750000  1
  Pr  Pr2  1  0.685581  0.500000  0.250000  1
  Y  Y3  1  0.184020  0.794290  0.079229  1
  Y  Y4  1  0.741388  0.000000  0.250000  1
  Y  Y5  1  0.184020  0.205710  0.420771  1
  Y  Y6  1  0.813326  0.205740  0.923974  1
  Y  Y7  1  0.813326  0.794260  0.576026  1
  W  W8  1  0.746288  0.723464  0.886844  1
  W  W9  1  0.254695  0.729418  0.383770  1
  W  W10  1  0.746288  0.276536  0.613156  1
  W  W11  1  0.254695  0.270582  0.116230  1
  O  O12  1  0.857293  0.363500  0.453651  1
  O  O13  1  0.467557  0.835603  0.935068  1
  O  O14  1  0.857293  0.636500  0.046349  1
  O  O15  1  0.012247  0.286307  0.726850  1
  O  O16  1  0.987267  0.281336  0.229773  1
  O  O17  1  0.149454  0.354653  0.955364  1
  O  O18  1  0.649483  0.491672  0.889642  1
  O  O19  1  0.532610  0.153760  0.069636  1
  O  O20  1  0.149454  0.645347  0.544636  1
  O  O21  1  0.012247  0.713693  0.773150  1
  O  O22  1  0.455008  0.205076  0.272313  1
  O  O23  1  0.045286  0.941203  0.394334  1
  O  O24  1  0.467557  0.164397  0.564932  1
  O  O25  1  0.987267  0.718664  0.270227  1
  O  O26  1  0.944649  0.061505  0.599480  1
  O  O27  1  0.552919  0.212088  0.771174  1
  O  O28  1  0.552919  0.787912  0.728826  1
  O  O29  1  0.045286  0.058797  0.105666  1
  O  O30  1  0.649483  0.508328  0.610358  1
  O  O31  1  0.347629  0.502672  0.114371  1
  O  O32  1  0.455008  0.794924  0.227687  1
  O  O33  1  0.347629  0.497328  0.385629  1
  O  O34  1  0.532610  0.846240  0.430364  1
  O  O35  1  0.944649  0.938495  0.900520  1
