# generated using pymatgen
data_Zn22RuPt2
_symmetry_space_group_name_H-M   'P 1'
_cell_length_a   7.79876599
_cell_length_b   7.79876644
_cell_length_c   7.82625109
_cell_angle_alpha   72.07681413
_cell_angle_beta   72.07681350
_cell_angle_gamma   58.47938823
_symmetry_Int_Tables_number   1
_chemical_formula_structural   Zn22RuPt2
_chemical_formula_sum   'Zn22 Ru1 Pt2'
_cell_volume   379.69324953
_cell_formula_units_Z   1
loop_
 _symmetry_equiv_pos_site_id
 _symmetry_equiv_pos_as_xyz
  1  'x, y, z'
loop_
 _atom_site_type_symbol
 _atom_site_label
 _atom_site_symmetry_multiplicity
 _atom_site_fract_x
 _atom_site_fract_y
 _atom_site_fract_z
 _atom_site_occupancy
  Zn  Zn0  1  0.339962  0.738313  0.316846  1
  Zn  Zn1  1  0.660038  0.261687  0.683154  1
  Zn  Zn2  1  0.261687  0.660038  0.683154  1
  Zn  Zn3  1  0.738313  0.339962  0.316846  1
  Zn  Zn4  1  0.683635  0.316365  0.000000  1
  Zn  Zn5  1  0.316365  0.683635  0.000000  1
  Zn  Zn6  1  0.832491  0.832491  0.780787  1
  Zn  Zn7  1  0.167509  0.167509  0.219213  1
  Zn  Zn8  1  0.975440  0.975440  0.173562  1
  Zn  Zn9  1  0.024560  0.024560  0.826438  1
  Zn  Zn10  1  0.353731  0.353731  0.277542  1
  Zn  Zn11  1  0.646269  0.646269  0.722458  1
  Zn  Zn12  1  0.685086  0.685086  0.381190  1
  Zn  Zn13  1  0.314914  0.314914  0.618810  1
  Zn  Zn14  1  0.659689  0.023576  0.457935  1
  Zn  Zn15  1  0.340311  0.976424  0.542065  1
  Zn  Zn16  1  0.976424  0.340311  0.542065  1
  Zn  Zn17  1  0.023576  0.659689  0.457935  1
  Zn  Zn18  1  0.620408  0.998462  0.107344  1
  Zn  Zn19  1  0.379592  0.001538  0.892656  1
  Zn  Zn20  1  0.001538  0.379592  0.892656  1
  Zn  Zn21  1  0.998462  0.620408  0.107344  1
  Ru  Ru22  1  0.000000  0.000000  0.500000  1
  Pt  Pt23  1  0.657791  0.657791  0.055671  1
  Pt  Pt24  1  0.342209  0.342209  0.944329  1
