# generated using pymatgen
data_Tb19YSi15As
_symmetry_space_group_name_H-M   'P 1'
_cell_length_a   7.55471555
_cell_length_b   7.68969229
_cell_length_c   14.72193800
_cell_angle_alpha   89.88931555
_cell_angle_beta   85.62787310
_cell_angle_gamma   89.91481737
_symmetry_Int_Tables_number   1
_chemical_formula_structural   Tb19YSi15As
_chemical_formula_sum   'Tb19 Y1 Si15 As1'
_cell_volume   852.75682149
_cell_formula_units_Z   1
loop_
 _symmetry_equiv_pos_site_id
 _symmetry_equiv_pos_as_xyz
  1  'x, y, z'
loop_
 _atom_site_type_symbol
 _atom_site_label
 _atom_site_symmetry_multiplicity
 _atom_site_fract_x
 _atom_site_fract_y
 _atom_site_fract_z
 _atom_site_occupancy
  Tb  Tb0  1  0.672684  0.994404  0.245490  1
  Tb  Tb1  1  0.171646  0.504439  0.245284  1
  Tb  Tb2  1  0.828365  0.495339  0.751561  1
  Tb  Tb3  1  0.327124  0.005423  0.753911  1
  Tb  Tb4  1  0.010427  0.823248  0.102700  1
  Tb  Tb5  1  0.472634  0.685795  0.397773  1
  Tb  Tb6  1  0.488601  0.319430  0.897839  1
  Tb  Tb7  1  0.027522  0.186332  0.602818  1
  Tb  Tb8  1  0.992674  0.178850  0.898120  1
  Tb  Tb9  1  0.526638  0.313815  0.602117  1
  Tb  Tb10  1  0.506042  0.681960  0.102463  1
  Tb  Tb11  1  0.972129  0.812504  0.397648  1
  Tb  Tb12  1  0.638525  0.838294  0.881434  1
  Tb  Tb13  1  0.174698  0.677674  0.622142  1
  Tb  Tb14  1  0.861878  0.336036  0.117433  1
  Tb  Tb15  1  0.325259  0.176759  0.378353  1
  Tb  Tb16  1  0.360791  0.162981  0.118442  1
  Tb  Tb17  1  0.825421  0.322125  0.378422  1
  Tb  Tb18  1  0.140167  0.664702  0.882482  1
  Y  Y19  1  0.674992  0.823464  0.622313  1
  Si  Si20  1  0.785114  0.626639  0.251951  1
  Si  Si21  1  0.285235  0.871777  0.252386  1
  Si  Si22  1  0.713465  0.128891  0.748021  1
  Si  Si23  1  0.213698  0.372733  0.748429  1
  Si  Si24  1  0.046772  0.107968  0.252156  1
  Si  Si25  1  0.547307  0.391519  0.251462  1
  Si  Si26  1  0.453814  0.608794  0.748978  1
  Si  Si27  1  0.952756  0.892072  0.748696  1
  Si  Si28  1  0.358284  0.971674  0.542617  1
  Si  Si29  1  0.711201  0.032112  0.043074  1
  Si  Si30  1  0.143205  0.471217  0.458473  1
  Si  Si31  1  0.214354  0.467982  0.043570  1
  Si  Si32  1  0.643044  0.026798  0.457848  1
  Si  Si33  1  0.290743  0.968060  0.956019  1
  Si  Si34  1  0.856802  0.527856  0.542522  1
  As  As35  1  0.785988  0.530337  0.955055  1
