# generated using pymatgen
data_PrHo15In2(AgIr2)2
_symmetry_space_group_name_H-M   'P 1'
_cell_length_a   9.57564014
_cell_length_b   9.57564069
_cell_length_c   9.58669200
_cell_angle_alpha   59.96182202
_cell_angle_beta   59.96182011
_cell_angle_gamma   60.03099225
_symmetry_Int_Tables_number   1
_chemical_formula_structural   PrHo15In2(AgIr2)2
_chemical_formula_sum   'Pr1 Ho15 In2 Ag2 Ir4'
_cell_volume   621.35539629
_cell_formula_units_Z   1
loop_
 _symmetry_equiv_pos_site_id
 _symmetry_equiv_pos_as_xyz
  1  'x, y, z'
loop_
 _atom_site_type_symbol
 _atom_site_label
 _atom_site_symmetry_multiplicity
 _atom_site_fract_x
 _atom_site_fract_y
 _atom_site_fract_z
 _atom_site_occupancy
  Pr  Pr0  1  0.439167  0.439167  0.060833  1
  Ho  Ho1  1  0.651012  0.651012  0.048485  1
  Ho  Ho2  1  0.189445  0.812557  0.190531  1
  Ho  Ho3  1  0.062514  0.439939  0.057511  1
  Ho  Ho4  1  0.189445  0.812557  0.807469  1
  Ho  Ho5  1  0.062514  0.439939  0.440036  1
  Ho  Ho6  1  0.812557  0.189445  0.190531  1
  Ho  Ho7  1  0.651012  0.651012  0.649491  1
  Ho  Ho8  1  0.812557  0.189445  0.807469  1
  Ho  Ho9  1  0.189727  0.189727  0.810273  1
  Ho  Ho10  1  0.050669  0.650252  0.649540  1
  Ho  Ho11  1  0.439939  0.062514  0.057511  1
  Ho  Ho12  1  0.062885  0.062885  0.437115  1
  Ho  Ho13  1  0.650252  0.050669  0.649540  1
  Ho  Ho14  1  0.807613  0.807613  0.192387  1
  Ho  Ho15  1  0.439939  0.062514  0.440036  1
  In  In16  1  0.415978  0.742058  0.420983  1
  In  In17  1  0.742058  0.415978  0.420983  1
  Ag  Ag18  1  0.415274  0.415274  0.422782  1
  Ag  Ag19  1  0.415274  0.415274  0.746672  1
  Ir  Ir20  1  0.425098  0.860476  0.857212  1
  Ir  Ir21  1  0.857298  0.857298  0.860390  1
  Ir  Ir22  1  0.860476  0.425098  0.857212  1
  Ir  Ir23  1  0.857298  0.857298  0.425013  1
