# generated using pymatgen
data_Tb20GaSi14Os
_symmetry_space_group_name_H-M   'P 1'
_cell_length_a   7.43613223
_cell_length_b   7.80348421
_cell_length_c   14.70623349
_cell_angle_alpha   90.01276195
_cell_angle_beta   90.18134798
_cell_angle_gamma   90.04927420
_symmetry_Int_Tables_number   1
_chemical_formula_structural   Tb20GaSi14Os
_chemical_formula_sum   'Tb20 Ga1 Si14 Os1'
_cell_volume   853.36488794
_cell_formula_units_Z   1
loop_
 _symmetry_equiv_pos_site_id
 _symmetry_equiv_pos_as_xyz
  1  'x, y, z'
loop_
 _atom_site_type_symbol
 _atom_site_label
 _atom_site_symmetry_multiplicity
 _atom_site_fract_x
 _atom_site_fract_y
 _atom_site_fract_z
 _atom_site_occupancy
  Tb  Tb0  1  0.671456  0.186035  0.625560  1
  Tb  Tb1  1  0.191881  0.324213  0.873497  1
  Tb  Tb2  1  0.317819  0.819482  0.123279  1
  Tb  Tb3  1  0.819861  0.675852  0.375392  1
  Tb  Tb4  1  0.317888  0.820771  0.376626  1
  Tb  Tb5  1  0.817309  0.678244  0.122730  1
  Tb  Tb6  1  0.672701  0.185283  0.875148  1
  Tb  Tb7  1  0.190585  0.324267  0.627403  1
  Tb  Tb8  1  0.522410  0.671717  0.597725  1
  Tb  Tb9  1  0.027287  0.815644  0.902947  1
  Tb  Tb10  1  0.471594  0.314665  0.097676  1
  Tb  Tb11  1  0.976202  0.186087  0.401816  1
  Tb  Tb12  1  0.471920  0.317843  0.401355  1
  Tb  Tb13  1  0.973198  0.184099  0.097336  1
  Tb  Tb14  1  0.522264  0.673597  0.903162  1
  Tb  Tb15  1  0.024500  0.817361  0.597878  1
  Tb  Tb16  1  0.839805  0.513032  0.750389  1
  Tb  Tb17  1  0.354542  0.985434  0.749196  1
  Tb  Tb18  1  0.150826  0.484277  0.249728  1
  Tb  Tb19  1  0.650199  0.013852  0.248525  1
  Ga  Ga20  1  0.652595  0.967641  0.461006  1
  Si  Si21  1  0.148180  0.528567  0.039183  1
  Si  Si22  1  0.349676  0.025391  0.961167  1
  Si  Si23  1  0.856894  0.470818  0.539131  1
  Si  Si24  1  0.343695  0.025435  0.539950  1
  Si  Si25  1  0.857793  0.471236  0.961039  1
  Si  Si26  1  0.645058  0.970887  0.039015  1
  Si  Si27  1  0.148748  0.529656  0.461707  1
  Si  Si28  1  0.978448  0.100776  0.751012  1
  Si  Si29  1  0.524076  0.602792  0.249376  1
  Si  Si30  1  0.021034  0.896205  0.249259  1
  Si  Si31  1  0.742657  0.876949  0.750817  1
  Si  Si32  1  0.232142  0.632713  0.751057  1
  Si  Si33  1  0.266715  0.127258  0.249302  1
  Si  Si34  1  0.766931  0.373036  0.249529  1
  Os  Os35  1  0.481109  0.408884  0.750081  1
