# generated using pymatgen
data_YbY2Ho(B4Ru)4
_symmetry_space_group_name_H-M   'P 1'
_cell_length_a   3.55170200
_cell_length_b   5.96478669
_cell_length_c   11.52747118
_cell_angle_alpha   89.96231339
_cell_angle_beta   90.00000000
_cell_angle_gamma   90.00000000
_symmetry_Int_Tables_number   1
_chemical_formula_structural   YbY2Ho(B4Ru)4
_chemical_formula_sum   'Yb1 Y2 Ho1 B16 Ru4'
_cell_volume   244.21109355
_cell_formula_units_Z   1
loop_
 _symmetry_equiv_pos_site_id
 _symmetry_equiv_pos_as_xyz
  1  'x, y, z'
loop_
 _atom_site_type_symbol
 _atom_site_label
 _atom_site_symmetry_multiplicity
 _atom_site_fract_x
 _atom_site_fract_y
 _atom_site_fract_z
 _atom_site_occupancy
  Yb  Yb0  1  0.000000  0.129893  0.850305  1
  Y  Y1  1  0.000000  0.629078  0.651239  1
  Y  Y2  1  0.000000  0.371549  0.349936  1
  Ho  Ho3  1  0.000000  0.871459  0.149028  1
  B  B4  1  0.500000  0.975582  0.691953  1
  B  B5  1  0.500000  0.023699  0.307910  1
  B  B6  1  0.500000  0.475570  0.808939  1
  B  B7  1  0.500000  0.525010  0.191388  1
  B  B8  1  0.500000  0.788774  0.815085  1
  B  B9  1  0.500000  0.210428  0.184763  1
  B  B10  1  0.500000  0.287514  0.686034  1
  B  B11  1  0.500000  0.711435  0.314003  1
  B  B12  1  0.500000  0.864408  0.969664  1
  B  B13  1  0.500000  0.135847  0.030164  1
  B  B14  1  0.500000  0.363951  0.530237  1
  B  B15  1  0.500000  0.636260  0.469585  1
  B  B16  1  0.500000  0.888541  0.546885  1
  B  B17  1  0.500000  0.112131  0.453035  1
  B  B18  1  0.500000  0.386410  0.953035  1
  B  B19  1  0.500000  0.612095  0.046314  1
  Ru  Ru20  1  0.000000  0.639568  0.909344  1
  Ru  Ru21  1  0.000000  0.360253  0.092269  1
  Ru  Ru22  1  0.000000  0.140233  0.591189  1
  Ru  Ru23  1  0.000000  0.860315  0.407695  1
