# generated using pymatgen
data_Li3Ca2Cd
_symmetry_space_group_name_H-M   'P 1'
_cell_length_a   6.10807100
_cell_length_b   6.10807068
_cell_length_c   9.65823800
_cell_angle_alpha   90.00000000
_cell_angle_beta   90.00000000
_cell_angle_gamma   120.00000713
_symmetry_Int_Tables_number   1
_chemical_formula_structural   Li3Ca2Cd
_chemical_formula_sum   'Li6 Ca4 Cd2'
_cell_volume   312.05894393
_cell_formula_units_Z   2
loop_
 _symmetry_equiv_pos_site_id
 _symmetry_equiv_pos_as_xyz
  1  'x, y, z'
loop_
 _atom_site_type_symbol
 _atom_site_label
 _atom_site_symmetry_multiplicity
 _atom_site_fract_x
 _atom_site_fract_y
 _atom_site_fract_z
 _atom_site_occupancy
  Li  Li0  1  0.161315  0.322629  0.750000  1
  Li  Li1  1  0.161315  0.838685  0.750000  1
  Li  Li2  1  0.322629  0.161315  0.250000  1
  Li  Li3  1  0.838685  0.677371  0.250000  1
  Li  Li4  1  0.677371  0.838685  0.750000  1
  Li  Li5  1  0.838685  0.161315  0.250000  1
  Ca  Ca6  1  0.333333  0.666667  0.443226  1
  Ca  Ca7  1  0.666667  0.333333  0.556774  1
  Ca  Ca8  1  0.666667  0.333333  0.943226  1
  Ca  Ca9  1  0.333333  0.666667  0.056774  1
  Cd  Cd10  1  0.000000  0.000000  0.000000  1
  Cd  Cd11  1  0.000000  0.000000  0.500000  1
