# generated using pymatgen
data_Nd14PdRh5
_symmetry_space_group_name_H-M   'P 1'
_cell_length_a   6.42672212
_cell_length_b   10.17205566
_cell_length_c   10.17205566
_cell_angle_alpha   120.04410538
_cell_angle_beta   90.01975021
_cell_angle_gamma   89.98025020
_symmetry_Int_Tables_number   1
_chemical_formula_structural   Nd14PdRh5
_chemical_formula_sum   'Nd14 Pd1 Rh5'
_cell_volume   575.63128292
_cell_formula_units_Z   1
loop_
 _symmetry_equiv_pos_site_id
 _symmetry_equiv_pos_as_xyz
  1  'x, y, z'
loop_
 _atom_site_type_symbol
 _atom_site_label
 _atom_site_symmetry_multiplicity
 _atom_site_fract_x
 _atom_site_fract_y
 _atom_site_fract_z
 _atom_site_occupancy
  Nd  Nd0  1  0.463320  0.333712  0.666288  1
  Nd  Nd1  1  0.958783  0.664566  0.335434  1
  Nd  Nd2  1  0.254537  0.124740  0.875260  1
  Nd  Nd3  1  0.254760  0.747591  0.869200  1
  Nd  Nd4  1  0.254760  0.130800  0.252409  1
  Nd  Nd5  1  0.743844  0.875552  0.124448  1
  Nd  Nd6  1  0.754316  0.249230  0.125012  1
  Nd  Nd7  1  0.754316  0.874988  0.750770  1
  Nd  Nd8  1  0.440471  0.541754  0.458246  1
  Nd  Nd9  1  0.443946  0.921136  0.465187  1
  Nd  Nd10  1  0.443946  0.534813  0.078864  1
  Nd  Nd11  1  0.939035  0.458341  0.541659  1
  Nd  Nd12  1  0.941568  0.082460  0.542139  1
  Nd  Nd13  1  0.941568  0.457861  0.917540  1
  Pd  Pd14  1  0.185128  0.811529  0.188471  1
  Rh  Rh15  1  0.182141  0.379643  0.188886  1
  Rh  Rh16  1  0.182141  0.811114  0.620357  1
  Rh  Rh17  1  0.681032  0.189566  0.810434  1
  Rh  Rh18  1  0.683193  0.622183  0.811579  1
  Rh  Rh19  1  0.683193  0.188421  0.377817  1
