# generated using pymatgen
data_YHo3(LuBi)6
_symmetry_space_group_name_H-M   'P 1'
_cell_length_a   8.17360200
_cell_length_b   9.41243700
_cell_length_c   11.95353600
_cell_angle_alpha   90.00000000
_cell_angle_beta   90.00000000
_cell_angle_gamma   90.00000000
_symmetry_Int_Tables_number   1
_chemical_formula_structural   YHo3(LuBi)6
_chemical_formula_sum   'Y2 Ho6 Lu12 Bi12'
_cell_volume   919.62752787
_cell_formula_units_Z   2
loop_
 _symmetry_equiv_pos_site_id
 _symmetry_equiv_pos_as_xyz
  1  'x, y, z'
loop_
 _atom_site_type_symbol
 _atom_site_label
 _atom_site_symmetry_multiplicity
 _atom_site_fract_x
 _atom_site_fract_y
 _atom_site_fract_z
 _atom_site_occupancy
  Y  Y0  1  0.646786  0.250000  0.783409  1
  Y  Y1  1  0.146786  0.250000  0.716591  1
  Ho  Ho2  1  0.186299  0.750000  0.718490  1
  Ho  Ho3  1  0.686299  0.750000  0.781510  1
  Ho  Ho4  1  0.813682  0.250000  0.281490  1
  Ho  Ho5  1  0.313682  0.250000  0.218510  1
  Ho  Ho6  1  0.353372  0.750000  0.216788  1
  Ho  Ho7  1  0.853372  0.750000  0.283212  1
  Lu  Lu8  1  0.023481  0.750000  0.989492  1
  Lu  Lu9  1  0.523481  0.750000  0.510508  1
  Lu  Lu10  1  0.976446  0.250000  0.010703  1
  Lu  Lu11  1  0.476446  0.250000  0.489297  1
  Lu  Lu12  1  0.307512  0.433604  0.941066  1
  Lu  Lu13  1  0.807512  0.066396  0.558934  1
  Lu  Lu14  1  0.692499  0.933444  0.059172  1
  Lu  Lu15  1  0.192499  0.566556  0.440828  1
  Lu  Lu16  1  0.692499  0.566556  0.059172  1
  Lu  Lu17  1  0.192499  0.933444  0.440828  1
  Lu  Lu18  1  0.307512  0.066396  0.941066  1
  Lu  Lu19  1  0.807512  0.433604  0.558934  1
  Bi  Bi20  1  0.433750  0.003534  0.671946  1
  Bi  Bi21  1  0.933750  0.496466  0.828054  1
  Bi  Bi22  1  0.566293  0.503839  0.327947  1
  Bi  Bi23  1  0.066293  0.996161  0.172053  1
  Bi  Bi24  1  0.566293  0.996161  0.327947  1
  Bi  Bi25  1  0.066293  0.503839  0.172053  1
  Bi  Bi26  1  0.433750  0.496466  0.671946  1
  Bi  Bi27  1  0.933750  0.003534  0.828054  1
  Bi  Bi28  1  0.404452  0.750000  0.957246  1
  Bi  Bi29  1  0.904452  0.750000  0.542754  1
  Bi  Bi30  1  0.595377  0.250000  0.042962  1
  Bi  Bi31  1  0.095377  0.250000  0.457038  1
