# generated using pymatgen
data_YTm3(Si3Ni5)4
_symmetry_space_group_name_H-M   'P 1'
_cell_length_a   3.78183200
_cell_length_b   18.68731208
_cell_length_c   6.57851003
_cell_angle_alpha   90.01083283
_cell_angle_beta   90.00000000
_cell_angle_gamma   90.00000000
_symmetry_Int_Tables_number   1
_chemical_formula_structural   YTm3(Si3Ni5)4
_chemical_formula_sum   'Y1 Tm3 Si12 Ni20'
_cell_volume   464.91826047
_cell_formula_units_Z   1
loop_
 _symmetry_equiv_pos_site_id
 _symmetry_equiv_pos_as_xyz
  1  'x, y, z'
loop_
 _atom_site_type_symbol
 _atom_site_label
 _atom_site_symmetry_multiplicity
 _atom_site_fract_x
 _atom_site_fract_y
 _atom_site_fract_z
 _atom_site_occupancy
  Y  Y0  1  0.750000  0.643651  0.123947  1
  Tm  Tm1  1  0.250000  0.355733  0.877137  1
  Tm  Tm2  1  0.250000  0.856266  0.623355  1
  Tm  Tm3  1  0.750000  0.143987  0.376627  1
  Si  Si4  1  0.750000  0.738262  0.621076  1
  Si  Si5  1  0.250000  0.261901  0.378364  1
  Si  Si6  1  0.250000  0.762935  0.120917  1
  Si  Si7  1  0.750000  0.237945  0.878706  1
  Si  Si8  1  0.750000  0.925284  0.345479  1
  Si  Si9  1  0.250000  0.075312  0.655039  1
  Si  Si10  1  0.250000  0.574622  0.842931  1
  Si  Si11  1  0.750000  0.424941  0.154692  1
  Si  Si12  1  0.750000  0.914308  0.917242  1
  Si  Si13  1  0.250000  0.086006  0.082667  1
  Si  Si14  1  0.250000  0.585571  0.420979  1
  Si  Si15  1  0.750000  0.413093  0.582525  1
  Ni  Ni16  1  0.750000  0.801315  0.315489  1
  Ni  Ni17  1  0.250000  0.199474  0.684480  1
  Ni  Ni18  1  0.250000  0.699947  0.813581  1
  Ni  Ni19  1  0.750000  0.300524  0.184548  1
  Ni  Ni20  1  0.750000  0.994708  0.633075  1
  Ni  Ni21  1  0.250000  0.005745  0.367326  1
  Ni  Ni22  1  0.250000  0.504899  0.132870  1
  Ni  Ni23  1  0.750000  0.494031  0.866048  1
  Ni  Ni24  1  0.750000  0.514487  0.385940  1
  Ni  Ni25  1  0.250000  0.483372  0.617081  1
  Ni  Ni26  1  0.250000  0.984783  0.883201  1
  Ni  Ni27  1  0.750000  0.015548  0.116486  1
  Ni  Ni28  1  0.750000  0.794216  0.929073  1
  Ni  Ni29  1  0.250000  0.206369  0.070174  1
  Ni  Ni30  1  0.250000  0.707064  0.430199  1
  Ni  Ni31  1  0.750000  0.293043  0.570066  1
  Ni  Ni32  1  0.750000  0.615868  0.643337  1
  Ni  Ni33  1  0.250000  0.384017  0.354879  1
  Ni  Ni34  1  0.250000  0.884977  0.144745  1
  Ni  Ni35  1  0.750000  0.115792  0.855718  1
