# generated using pymatgen
data_Li2AcYSn2
_symmetry_space_group_name_H-M   'P 1'
_cell_length_a   4.81030900
_cell_length_b   7.91175027
_cell_length_c   8.31490619
_cell_angle_alpha   90.00278260
_cell_angle_beta   90.00000000
_cell_angle_gamma   90.00000000
_symmetry_Int_Tables_number   1
_chemical_formula_structural   Li2AcYSn2
_chemical_formula_sum   'Li4 Ac2 Y2 Sn4'
_cell_volume   316.44839590
_cell_formula_units_Z   2
loop_
 _symmetry_equiv_pos_site_id
 _symmetry_equiv_pos_as_xyz
  1  'x, y, z'
loop_
 _atom_site_type_symbol
 _atom_site_label
 _atom_site_symmetry_multiplicity
 _atom_site_fract_x
 _atom_site_fract_y
 _atom_site_fract_z
 _atom_site_occupancy
  Li  Li0  1  0.750000  0.191046  0.416212  1
  Li  Li1  1  0.250000  0.177596  0.917473  1
  Li  Li2  1  0.750000  0.822404  0.082527  1
  Li  Li3  1  0.250000  0.808954  0.583788  1
  Ac  Ac4  1  0.250000  0.500442  0.248243  1
  Ac  Ac5  1  0.750000  0.499558  0.751757  1
  Y  Y6  1  0.250000  0.000336  0.253116  1
  Y  Y7  1  0.750000  0.999664  0.746884  1
  Sn  Sn8  1  0.250000  0.224878  0.584274  1
  Sn  Sn9  1  0.750000  0.222987  0.083379  1
  Sn  Sn10  1  0.250000  0.777013  0.916621  1
  Sn  Sn11  1  0.750000  0.775122  0.415726  1
