# generated using pymatgen
data_Dy12In2CoCuOs2
_symmetry_space_group_name_H-M   'P 1'
_cell_length_a   8.48359987
_cell_length_b   8.48360044
_cell_length_c   8.48360059
_cell_angle_alpha   113.32794862
_cell_angle_beta   110.07721956
_cell_angle_gamma   105.11280184
_symmetry_Int_Tables_number   1
_chemical_formula_structural   Dy12In2CoCuOs2
_chemical_formula_sum   'Dy12 In2 Co1 Cu1 Os2'
_cell_volume   467.59393158
_cell_formula_units_Z   1
loop_
 _symmetry_equiv_pos_site_id
 _symmetry_equiv_pos_as_xyz
  1  'x, y, z'
loop_
 _atom_site_type_symbol
 _atom_site_label
 _atom_site_symmetry_multiplicity
 _atom_site_fract_x
 _atom_site_fract_y
 _atom_site_fract_z
 _atom_site_occupancy
  Dy  Dy0  1  0.440556  0.239782  0.200775  1
  Dy  Dy1  1  0.561076  0.759562  0.801513  1
  Dy  Dy2  1  0.039007  0.239782  0.799225  1
  Dy  Dy3  1  0.958050  0.759562  0.198487  1
  Dy  Dy4  1  0.180561  0.277098  0.465623  1
  Dy  Dy5  1  0.811477  0.714939  0.534377  1
  Dy  Dy6  1  0.180561  0.714939  0.903463  1
  Dy  Dy7  1  0.811477  0.277098  0.096537  1
  Dy  Dy8  1  0.335117  0.646976  0.311859  1
  Dy  Dy9  1  0.675564  0.360183  0.684619  1
  Dy  Dy10  1  0.335117  0.023258  0.688141  1
  Dy  Dy11  1  0.675564  0.990945  0.315381  1
  In  In12  1  0.499323  0.499323  0.000000  1
  In  In13  1  0.000875  0.000875  0.000000  1
  Co  Co14  1  0.884130  0.384130  0.500000  1
  Cu  Cu15  1  0.115865  0.615865  0.500000  1
  Os  Os16  1  0.329785  0.997840  0.331946  1
  Os  Os17  1  0.665894  0.997840  0.668054  1
