# generated using pymatgen
data_Ho8Tm4Co4BiOs
_symmetry_space_group_name_H-M   'P 1'
_cell_length_a   8.26843177
_cell_length_b   8.26864905
_cell_length_c   8.26843023
_cell_angle_alpha   110.61675811
_cell_angle_beta   111.21894188
_cell_angle_gamma   106.61474726
_symmetry_Int_Tables_number   1
_chemical_formula_structural   Ho8Tm4Co4BiOs
_chemical_formula_sum   'Ho8 Tm4 Co4 Bi1 Os1'
_cell_volume   434.35685484
_cell_formula_units_Z   1
loop_
 _symmetry_equiv_pos_site_id
 _symmetry_equiv_pos_as_xyz
  1  'x, y, z'
loop_
 _atom_site_type_symbol
 _atom_site_label
 _atom_site_symmetry_multiplicity
 _atom_site_fract_x
 _atom_site_fract_y
 _atom_site_fract_z
 _atom_site_occupancy
  Ho  Ho0  1  0.279093  0.181078  0.460169  1
  Ho  Ho1  1  0.720907  0.818922  0.539831  1
  Ho  Ho2  1  0.279092  0.818922  0.098014  1
  Ho  Ho3  1  0.720908  0.181078  0.901986  1
  Ho  Ho4  1  0.620172  0.311399  0.308766  1
  Ho  Ho5  1  0.379828  0.688601  0.691234  1
  Ho  Ho6  1  0.002633  0.311399  0.691228  1
  Ho  Ho7  1  0.997367  0.688601  0.308772  1
  Tm  Tm8  1  0.215049  0.411450  0.196402  1
  Tm  Tm9  1  0.784951  0.588550  0.803598  1
  Tm  Tm10  1  0.215056  0.018661  0.803606  1
  Tm  Tm11  1  0.784944  0.981339  0.196394  1
  Co  Co12  1  0.999998  0.374535  0.374537  1
  Co  Co13  1  0.000002  0.625465  0.625463  1
  Co  Co14  1  0.389207  0.889210  0.500003  1
  Co  Co15  1  0.610793  0.110790  0.499997  1
  Bi  Bi16  1  0.500000  0.500000  0.000000  1
  Os  Os17  1  0.000000  0.000000  0.000000  1
