# generated using pymatgen
data_Ho2Sc2ReB12Ir
_symmetry_space_group_name_H-M   'P 1'
_cell_length_a   3.57672300
_cell_length_b   8.97151734
_cell_length_c   11.37278967
_cell_angle_alpha   90.11457780
_cell_angle_beta   90.00000000
_cell_angle_gamma   90.00000000
_symmetry_Int_Tables_number   1
_chemical_formula_structural   Ho2Sc2ReB12Ir
_chemical_formula_sum   'Ho4 Sc4 Re2 B24 Ir2'
_cell_volume   364.93653771
_cell_formula_units_Z   2
loop_
 _symmetry_equiv_pos_site_id
 _symmetry_equiv_pos_as_xyz
  1  'x, y, z'
loop_
 _atom_site_type_symbol
 _atom_site_label
 _atom_site_symmetry_multiplicity
 _atom_site_fract_x
 _atom_site_fract_y
 _atom_site_fract_z
 _atom_site_occupancy
  Ho  Ho0  1  0.500000  0.316008  0.411247  1
  Ho  Ho1  1  0.500000  0.683992  0.588753  1
  Ho  Ho2  1  0.500000  0.177011  0.916847  1
  Ho  Ho3  1  0.500000  0.822989  0.083153  1
  Sc  Sc4  1  0.500000  0.442067  0.124526  1
  Sc  Sc5  1  0.500000  0.557933  0.875474  1
  Sc  Sc6  1  0.500000  0.052163  0.626630  1
  Sc  Sc7  1  0.500000  0.947837  0.373370  1
  Re  Re8  1  0.500000  0.140287  0.182280  1
  Re  Re9  1  0.500000  0.859713  0.817720  1
  B  B10  1  0.000000  0.100028  0.473340  1
  B  B11  1  0.000000  0.899972  0.526660  1
  B  B12  1  0.000000  0.400286  0.972506  1
  B  B13  1  0.000000  0.599714  0.027494  1
  B  B14  1  0.000000  0.128847  0.317181  1
  B  B15  1  0.000000  0.871153  0.682819  1
  B  B16  1  0.000000  0.371344  0.818399  1
  B  B17  1  0.000000  0.628656  0.181601  1
  B  B18  1  0.000000  0.053860  0.067290  1
  B  B19  1  0.000000  0.946140  0.932710  1
  B  B20  1  0.000000  0.444944  0.566128  1
  B  B21  1  0.000000  0.555056  0.433872  1
  B  B22  1  0.000000  0.481148  0.285851  1
  B  B23  1  0.000000  0.518852  0.714149  1
  B  B24  1  0.000000  0.019413  0.785321  1
  B  B25  1  0.000000  0.980587  0.214679  1
  B  B26  1  0.000000  0.252257  0.080887  1
  B  B27  1  0.000000  0.747743  0.919113  1
  B  B28  1  0.000000  0.246157  0.579599  1
  B  B29  1  0.000000  0.753843  0.420401  1
  B  B30  1  0.000000  0.294519  0.234897  1
  B  B31  1  0.000000  0.705481  0.765103  1
  B  B32  1  0.000000  0.207131  0.734713  1
  B  B33  1  0.000000  0.792869  0.265287  1
  Ir  Ir34  1  0.500000  0.360855  0.680191  1
  Ir  Ir35  1  0.500000  0.639145  0.319809  1
