# generated using pymatgen
data_Y4NbTcOs6
_symmetry_space_group_name_H-M   'P 1'
_cell_length_a   5.28924971
_cell_length_b   5.28925084
_cell_length_c   9.00733700
_cell_angle_alpha   90.00000000
_cell_angle_beta   90.00000000
_cell_angle_gamma   117.29060331
_symmetry_Int_Tables_number   1
_chemical_formula_structural   Y4NbTcOs6
_chemical_formula_sum   'Y4 Nb1 Tc1 Os6'
_cell_volume   223.94229879
_cell_formula_units_Z   1
loop_
 _symmetry_equiv_pos_site_id
 _symmetry_equiv_pos_as_xyz
  1  'x, y, z'
loop_
 _atom_site_type_symbol
 _atom_site_label
 _atom_site_symmetry_multiplicity
 _atom_site_fract_x
 _atom_site_fract_y
 _atom_site_fract_z
 _atom_site_occupancy
  Y  Y0  1  0.329228  0.670772  0.439181  1
  Y  Y1  1  0.667082  0.332918  0.567091  1
  Y  Y2  1  0.667082  0.332918  0.932909  1
  Y  Y3  1  0.329228  0.670772  0.060819  1
  Nb  Nb4  1  0.837009  0.162991  0.250000  1
  Tc  Tc5  1  0.174163  0.825837  0.750000  1
  Os  Os6  1  0.999226  0.000774  0.506547  1
  Os  Os7  1  0.999226  0.000774  0.993453  1
  Os  Os8  1  0.822128  0.654294  0.250000  1
  Os  Os9  1  0.345706  0.177872  0.250000  1
  Os  Os10  1  0.172724  0.342803  0.750000  1
  Os  Os11  1  0.657197  0.827276  0.750000  1
