# generated using pymatgen
data_Li4MgCo19P12
_symmetry_space_group_name_H-M   'P 1'
_cell_length_a   11.73493600
_cell_length_b   11.74396141
_cell_length_c   3.54533200
_cell_angle_alpha   90.00000000
_cell_angle_beta   90.00000000
_cell_angle_gamma   119.97458098
_symmetry_Int_Tables_number   1
_chemical_formula_structural   Li4MgCo19P12
_chemical_formula_sum   'Li4 Mg1 Co19 P12'
_cell_volume   423.24717295
_cell_formula_units_Z   1
loop_
 _symmetry_equiv_pos_site_id
 _symmetry_equiv_pos_as_xyz
  1  'x, y, z'
loop_
 _atom_site_type_symbol
 _atom_site_label
 _atom_site_symmetry_multiplicity
 _atom_site_fract_x
 _atom_site_fract_y
 _atom_site_fract_z
 _atom_site_occupancy
  Li  Li0  1  0.333652  0.666900  0.500000  1
  Li  Li1  1  0.666752  0.333100  0.500000  1
  Li  Li2  1  0.999226  0.183486  0.000000  1
  Li  Li3  1  0.815740  0.816514  0.000000  1
  Mg  Mg4  1  0.180016  0.000000  0.000000  1
  Co  Co5  1  0.197932  0.377763  0.500000  1
  Co  Co6  1  0.623761  0.820717  0.500000  1
  Co  Co7  1  0.178728  0.803687  0.500000  1
  Co  Co8  1  0.820169  0.622237  0.500000  1
  Co  Co9  1  0.803044  0.179283  0.500000  1
  Co  Co10  1  0.375041  0.196313  0.500000  1
  Co  Co11  1  0.549957  0.000000  0.500000  1
  Co  Co12  1  0.001291  0.549568  0.500000  1
  Co  Co13  1  0.451723  0.450432  0.500000  1
  Co  Co14  1  0.126561  0.481003  0.000000  1
  Co  Co15  1  0.519111  0.645343  0.000000  1
  Co  Co16  1  0.354525  0.872842  0.000000  1
  Co  Co17  1  0.645558  0.518997  0.000000  1
  Co  Co18  1  0.873768  0.354657  0.000000  1
  Co  Co19  1  0.481683  0.127158  0.000000  1
  Co  Co20  1  0.716001  0.000000  0.000000  1
  Co  Co21  1  0.000040  0.714669  0.000000  1
  Co  Co22  1  0.285370  0.285331  0.000000  1
  Co  Co23  1  0.001301  0.000000  0.500000  1
  P  P24  1  0.364234  0.000000  0.500000  1
  P  P25  1  0.999939  0.361867  0.500000  1
  P  P26  1  0.638072  0.638133  0.500000  1
  P  P27  1  0.318625  0.486203  0.000000  1
  P  P28  1  0.515134  0.832646  0.000000  1
  P  P29  1  0.167276  0.681053  0.000000  1
  P  P30  1  0.832422  0.513797  0.000000  1
  P  P31  1  0.682488  0.167354  0.000000  1
  P  P32  1  0.486223  0.318947  0.000000  1
  P  P33  1  0.822261  0.000000  0.500000  1
  P  P34  1  0.995926  0.819475  0.500000  1
  P  P35  1  0.176450  0.180525  0.500000  1
