# generated using pymatgen
data_Cs2Nb2Cu4Se3S5
_symmetry_space_group_name_H-M   'P 1'
_cell_length_a   10.35131392
_cell_length_b   10.44262816
_cell_length_c   7.79116210
_cell_angle_alpha   89.85037624
_cell_angle_beta   89.89238121
_cell_angle_gamma   148.42477182
_symmetry_Int_Tables_number   1
_chemical_formula_structural   Cs2Nb2Cu4Se3S5
_chemical_formula_sum   'Cs2 Nb2 Cu4 Se3 S5'
_cell_volume   440.96788818
_cell_formula_units_Z   1
loop_
 _symmetry_equiv_pos_site_id
 _symmetry_equiv_pos_as_xyz
  1  'x, y, z'
loop_
 _atom_site_type_symbol
 _atom_site_label
 _atom_site_symmetry_multiplicity
 _atom_site_fract_x
 _atom_site_fract_y
 _atom_site_fract_z
 _atom_site_occupancy
  Cs  Cs0  1  0.174727  0.540634  0.744558  1
  Cs  Cs1  1  0.528619  0.166961  0.249382  1
  Nb  Nb2  1  0.705225  0.500229  0.749128  1
  Nb  Nb3  1  0.503584  0.709944  0.252344  1
  Cu  Cu4  1  0.626657  0.626270  0.496260  1
  Cu  Cu5  1  0.012477  0.209184  0.257954  1
  Cu  Cu6  1  0.193207  0.996143  0.749119  1
  Cu  Cu7  1  0.618623  0.616100  0.005082  1
  Se  Se8  1  0.760729  0.960818  0.996110  1
  Se  Se9  1  0.352121  0.351465  0.750477  1
  Se  Se10  1  0.548398  0.149086  0.748790  1
  S  S11  1  0.373831  0.386296  0.252735  1
  S  S12  1  0.945909  0.748969  0.509752  1
  S  S13  1  0.940879  0.742358  0.988892  1
  S  S14  1  0.154739  0.540972  0.258729  1
  S  S15  1  0.752075  0.946371  0.490688  1
