# generated using pymatgen
data_CeY3ScIr3
_symmetry_space_group_name_H-M   'P 1'
_cell_length_a   10.92034400
_cell_length_b   10.85573400
_cell_length_c   6.25933900
_cell_angle_alpha   90.00000000
_cell_angle_beta   90.00000000
_cell_angle_gamma   90.00000000
_symmetry_Int_Tables_number   1
_chemical_formula_structural   CeY3ScIr3
_chemical_formula_sum   'Ce4 Y12 Sc4 Ir12'
_cell_volume   742.03430837
_cell_formula_units_Z   4
loop_
 _symmetry_equiv_pos_site_id
 _symmetry_equiv_pos_as_xyz
  1  'x, y, z'
loop_
 _atom_site_type_symbol
 _atom_site_label
 _atom_site_symmetry_multiplicity
 _atom_site_fract_x
 _atom_site_fract_y
 _atom_site_fract_z
 _atom_site_occupancy
  Ce  Ce0  1  0.291999  0.088586  0.381628  1
  Ce  Ce1  1  0.291999  0.911414  0.881628  1
  Ce  Ce2  1  0.708001  0.088586  0.881628  1
  Ce  Ce3  1  0.708001  0.911414  0.381628  1
  Y  Y4  1  0.587102  0.780489  0.878583  1
  Y  Y5  1  0.587102  0.219511  0.378583  1
  Y  Y6  1  0.412898  0.780489  0.378583  1
  Y  Y7  1  0.412898  0.219511  0.878583  1
  Y  Y8  1  0.209433  0.415523  0.623269  1
  Y  Y9  1  0.209433  0.584477  0.123269  1
  Y  Y10  1  0.790567  0.415523  0.123269  1
  Y  Y11  1  0.790567  0.584477  0.623269  1
  Y  Y12  1  0.914677  0.714245  0.117825  1
  Y  Y13  1  0.914677  0.285755  0.617825  1
  Y  Y14  1  0.085323  0.714245  0.617825  1
  Y  Y15  1  0.085323  0.285755  0.117825  1
  Sc  Sc16  1  0.000000  0.000000  0.490432  1
  Sc  Sc17  1  0.000000  0.000000  0.990432  1
  Sc  Sc18  1  0.500000  0.500000  0.017064  1
  Sc  Sc19  1  0.500000  0.500000  0.517064  1
  Ir  Ir20  1  0.848774  0.145010  0.238865  1
  Ir  Ir21  1  0.848774  0.854990  0.738865  1
  Ir  Ir22  1  0.151226  0.145010  0.738865  1
  Ir  Ir23  1  0.151226  0.854990  0.238865  1
  Ir  Ir24  1  0.647043  0.353458  0.758625  1
  Ir  Ir25  1  0.647043  0.646542  0.258625  1
  Ir  Ir26  1  0.352957  0.353458  0.258625  1
  Ir  Ir27  1  0.352957  0.646542  0.758625  1
  Ir  Ir28  1  0.500000  0.000000  0.119608  1
  Ir  Ir29  1  0.500000  0.000000  0.619608  1
  Ir  Ir30  1  0.000000  0.500000  0.875307  1
  Ir  Ir31  1  0.000000  0.500000  0.375307  1
