# generated using pymatgen
data_HfSc(GaPt)2
_symmetry_space_group_name_H-M   'P 1'
_cell_length_a   7.30345831
_cell_length_b   7.30694524
_cell_length_c   6.83790600
_cell_angle_alpha   90.00000000
_cell_angle_beta   90.00000000
_cell_angle_gamma   120.09351347
_symmetry_Int_Tables_number   1
_chemical_formula_structural   HfSc(GaPt)2
_chemical_formula_sum   'Hf3 Sc3 Ga6 Pt6'
_cell_volume   315.72440689
_cell_formula_units_Z   3
loop_
 _symmetry_equiv_pos_site_id
 _symmetry_equiv_pos_as_xyz
  1  'x, y, z'
loop_
 _atom_site_type_symbol
 _atom_site_label
 _atom_site_symmetry_multiplicity
 _atom_site_fract_x
 _atom_site_fract_y
 _atom_site_fract_z
 _atom_site_occupancy
  Hf  Hf0  1  0.006986  0.607436  0.750000  1
  Hf  Hf1  1  0.993057  0.603525  0.250000  1
  Hf  Hf2  1  0.610250  0.006822  0.250000  1
  Sc  Sc3  1  0.394215  0.390367  0.250000  1
  Sc  Sc4  1  0.603281  0.995160  0.750000  1
  Sc  Sc5  1  0.392133  0.397614  0.750000  1
  Ga  Ga6  1  0.274383  0.004664  0.003218  1
  Ga  Ga7  1  0.274383  0.004664  0.496782  1
  Ga  Ga8  1  0.002443  0.269502  0.502475  1
  Ga  Ga9  1  0.002443  0.269502  0.997525  1
  Ga  Ga10  1  0.722894  0.725990  0.997548  1
  Ga  Ga11  1  0.722894  0.725990  0.502452  1
  Pt  Pt12  1  0.673278  0.336327  0.505349  1
  Pt  Pt13  1  0.002074  0.993545  0.750000  1
  Pt  Pt14  1  0.673278  0.336327  0.994651  1
  Pt  Pt15  1  0.329668  0.669356  0.011533  1
  Pt  Pt16  1  0.329668  0.669356  0.488467  1
  Pt  Pt17  1  0.992673  0.993852  0.250000  1
