# generated using pymatgen
data_Ho7Er9(In3Ni)2
_symmetry_space_group_name_H-M   'P 1'
_cell_length_a   10.34223929
_cell_length_b   10.33360996
_cell_length_c   6.95531202
_cell_angle_alpha   90.00871279
_cell_angle_beta   89.99672062
_cell_angle_gamma   120.04810016
_symmetry_Int_Tables_number   1
_chemical_formula_structural   Ho7Er9(In3Ni)2
_chemical_formula_sum   'Ho7 Er9 In6 Ni2'
_cell_volume   643.43278985
_cell_formula_units_Z   1
loop_
 _symmetry_equiv_pos_site_id
 _symmetry_equiv_pos_as_xyz
  1  'x, y, z'
loop_
 _atom_site_type_symbol
 _atom_site_label
 _atom_site_symmetry_multiplicity
 _atom_site_fract_x
 _atom_site_fract_y
 _atom_site_fract_z
 _atom_site_occupancy
  Ho  Ho0  1  0.067102  0.533492  0.209902  1
  Ho  Ho1  1  0.466688  0.933093  0.209676  1
  Ho  Ho2  1  0.533259  0.466578  0.709304  1
  Ho  Ho3  1  0.932986  0.466583  0.709901  1
  Ho  Ho4  1  0.533261  0.066778  0.709638  1
  Ho  Ho5  1  0.000008  0.000139  0.227696  1
  Ho  Ho6  1  0.999959  0.999888  0.727881  1
  Er  Er7  1  0.176872  0.823083  0.505502  1
  Er  Er8  1  0.646052  0.822820  0.505286  1
  Er  Er9  1  0.177065  0.353820  0.505126  1
  Er  Er10  1  0.823164  0.176838  0.005564  1
  Er  Er11  1  0.354026  0.177296  0.005744  1
  Er  Er12  1  0.822814  0.646121  0.005546  1
  Er  Er13  1  0.333487  0.666555  0.824809  1
  Er  Er14  1  0.666516  0.333415  0.324671  1
  Er  Er15  1  0.466383  0.533834  0.209219  1
  In  In16  1  0.162995  0.836839  0.966759  1
  In  In17  1  0.673818  0.836714  0.966623  1
  In  In18  1  0.163207  0.326187  0.966812  1
  In  In19  1  0.836946  0.163143  0.466744  1
  In  In20  1  0.326078  0.163036  0.466608  1
  In  In21  1  0.837013  0.673918  0.466881  1
  Ni  Ni22  1  0.333632  0.666500  0.438989  1
  Ni  Ni23  1  0.666670  0.333328  0.939162  1
