# generated using pymatgen
data_Fe3Sb2(ClO)4
_symmetry_space_group_name_H-M   'P 1'
_cell_length_a   6.41233140
_cell_length_b   7.00142987
_cell_length_c   14.66428000
_cell_angle_alpha   90.00273436
_cell_angle_beta   90.00010018
_cell_angle_gamma   62.69949825
_symmetry_Int_Tables_number   1
_chemical_formula_structural   Fe3Sb2(ClO)4
_chemical_formula_sum   'Fe6 Sb4 Cl8 O8'
_cell_volume   585.02740960
_cell_formula_units_Z   2
loop_
 _symmetry_equiv_pos_site_id
 _symmetry_equiv_pos_as_xyz
  1  'x, y, z'
loop_
 _atom_site_type_symbol
 _atom_site_label
 _atom_site_symmetry_multiplicity
 _atom_site_fract_x
 _atom_site_fract_y
 _atom_site_fract_z
 _atom_site_occupancy
  Fe  Fe0  1  0.747231  0.005209  0.749943  1
  Fe  Fe1  1  0.752732  0.994898  0.249926  1
  Fe  Fe2  1  0.000191  0.999992  0.999994  1
  Fe  Fe3  1  0.499802  0.000073  0.499964  1
  Fe  Fe4  1  0.252946  0.994401  0.250064  1
  Fe  Fe5  1  0.247113  0.005404  0.750069  1
  Sb  Sb6  1  0.613441  0.774368  0.056205  1
  Sb  Sb7  1  0.386559  0.225624  0.943812  1
  Sb  Sb8  1  0.886611  0.225651  0.556203  1
  Sb  Sb9  1  0.113437  0.774362  0.443802  1
  Cl  Cl10  1  0.115060  0.770029  0.837631  1
  Cl  Cl11  1  0.885114  0.229979  0.162383  1
  Cl  Cl12  1  0.385072  0.229731  0.337679  1
  Cl  Cl13  1  0.614780  0.770272  0.662329  1
  Cl  Cl14  1  0.154605  0.689754  0.111652  1
  Cl  Cl15  1  0.846046  0.310236  0.888345  1
  Cl  Cl16  1  0.345289  0.310391  0.611615  1
  Cl  Cl17  1  0.653940  0.689650  0.388360  1
  O  O18  1  0.306574  0.999754  0.000050  1
  O  O19  1  0.806512  0.999772  0.499973  1
  O  O20  1  0.693520  0.000218  0.999952  1
  O  O21  1  0.193450  0.000227  0.500041  1
  O  O22  1  0.541099  0.918177  0.175962  1
  O  O23  1  0.458996  0.081827  0.824052  1
  O  O24  1  0.958943  0.081859  0.675956  1
  O  O25  1  0.040939  0.918138  0.324041  1
