# generated using pymatgen
data_PrSmI18
_symmetry_space_group_name_H-M   'P 1'
_cell_length_a   10.58012397
_cell_length_b   10.58012544
_cell_length_c   10.58012798
_cell_angle_alpha   88.49897233
_cell_angle_beta   88.49896913
_cell_angle_gamma   88.49898027
_symmetry_Int_Tables_number   1
_chemical_formula_structural   PrSmI18
_chemical_formula_sum   'Pr1 Sm1 I18'
_cell_volume   1183.13105874
_cell_formula_units_Z   1
loop_
 _symmetry_equiv_pos_site_id
 _symmetry_equiv_pos_as_xyz
  1  'x, y, z'
loop_
 _atom_site_type_symbol
 _atom_site_label
 _atom_site_symmetry_multiplicity
 _atom_site_fract_x
 _atom_site_fract_y
 _atom_site_fract_z
 _atom_site_occupancy
  Pr  Pr0  1  0.500000  0.500000  0.500000  1
  Sm  Sm1  1  0.000000  0.000000  0.000000  1
  I  I2  1  0.749916  0.127432  0.604024  1
  I  I3  1  0.993506  0.041296  0.708750  1
  I  I4  1  0.604024  0.749916  0.127432  1
  I  I5  1  0.958704  0.291250  0.006494  1
  I  I6  1  0.708750  0.993506  0.041296  1
  I  I7  1  0.041296  0.708750  0.993506  1
  I  I8  1  0.006494  0.958704  0.291250  1
  I  I9  1  0.872568  0.395976  0.250084  1
  I  I10  1  0.291250  0.006494  0.958704  1
  I  I11  1  0.250084  0.872568  0.395976  1
  I  I12  1  0.127432  0.604024  0.749916  1
  I  I13  1  0.395976  0.250084  0.872568  1
  I  I14  1  0.798420  0.525246  0.485118  1
  I  I15  1  0.525246  0.485118  0.798420  1
  I  I16  1  0.201580  0.474754  0.514882  1
  I  I17  1  0.474754  0.514882  0.201580  1
  I  I18  1  0.485118  0.798420  0.525246  1
  I  I19  1  0.514882  0.201580  0.474754  1
