# generated using pymatgen
data_SmFe7Tc5
_symmetry_space_group_name_H-M   'P 1'
_cell_length_a   4.74437339
_cell_length_b   6.58138011
_cell_length_c   6.58138030
_cell_angle_alpha   83.79139615
_cell_angle_beta   68.87282323
_cell_angle_gamma   68.87283685
_symmetry_Int_Tables_number   1
_chemical_formula_structural   SmFe7Tc5
_chemical_formula_sum   'Sm1 Fe7 Tc5'
_cell_volume   178.74662443
_cell_formula_units_Z   1
loop_
 _symmetry_equiv_pos_site_id
 _symmetry_equiv_pos_as_xyz
  1  'x, y, z'
loop_
 _atom_site_type_symbol
 _atom_site_label
 _atom_site_symmetry_multiplicity
 _atom_site_fract_x
 _atom_site_fract_y
 _atom_site_fract_z
 _atom_site_occupancy
  Sm  Sm0  1  0.992109  0.007891  0.007891  1
  Fe  Fe1  1  0.287388  0.212612  0.212612  1
  Fe  Fe2  1  0.502190  0.225933  0.769687  1
  Fe  Fe3  1  0.502190  0.769687  0.225933  1
  Fe  Fe4  1  0.003104  0.000626  0.494518  1
  Fe  Fe5  1  0.501753  0.000626  0.494518  1
  Fe  Fe6  1  0.501753  0.494518  0.000626  1
  Fe  Fe7  1  0.003104  0.494518  0.000626  1
  Tc  Tc8  1  0.005373  0.355574  0.633682  1
  Tc  Tc9  1  0.005373  0.633682  0.355574  1
  Tc  Tc10  1  0.637930  0.362070  0.362070  1
  Tc  Tc11  1  0.352159  0.647841  0.647841  1
  Tc  Tc12  1  0.705577  0.794423  0.794423  1
