# generated using pymatgen
data_BaNd(Ni9P5)2
_symmetry_space_group_name_H-M   'P 1'
_cell_length_a   6.49714700
_cell_length_b   6.49714781
_cell_length_c   10.77462000
_cell_angle_alpha   90.00000000
_cell_angle_beta   90.00000000
_cell_angle_gamma   120.00000097
_symmetry_Int_Tables_number   1
_chemical_formula_structural   BaNd(Ni9P5)2
_chemical_formula_sum   'Ba1 Nd1 Ni18 P10'
_cell_volume   393.89278857
_cell_formula_units_Z   1
loop_
 _symmetry_equiv_pos_site_id
 _symmetry_equiv_pos_as_xyz
  1  'x, y, z'
loop_
 _atom_site_type_symbol
 _atom_site_label
 _atom_site_symmetry_multiplicity
 _atom_site_fract_x
 _atom_site_fract_y
 _atom_site_fract_z
 _atom_site_occupancy
  Ba  Ba0  1  0.000000  0.000000  0.000000  1
  Nd  Nd1  1  0.000000  0.000000  0.500000  1
  Ni  Ni2  1  0.464871  0.929742  0.890755  1
  Ni  Ni3  1  0.929742  0.464871  0.109245  1
  Ni  Ni4  1  0.535129  0.070258  0.109245  1
  Ni  Ni5  1  0.072995  0.536497  0.605087  1
  Ni  Ni6  1  0.202065  0.404128  0.254777  1
  Ni  Ni7  1  0.797935  0.202065  0.745223  1
  Ni  Ni8  1  0.404128  0.202065  0.745223  1
  Ni  Ni9  1  0.595872  0.797935  0.254777  1
  Ni  Ni10  1  0.202065  0.797935  0.254777  1
  Ni  Ni11  1  0.797935  0.595872  0.745223  1
  Ni  Ni12  1  0.463503  0.927005  0.605087  1
  Ni  Ni13  1  0.536497  0.463503  0.394913  1
  Ni  Ni14  1  0.927005  0.463503  0.394913  1
  Ni  Ni15  1  0.070258  0.535129  0.890755  1
  Ni  Ni16  1  0.464871  0.535129  0.890755  1
  Ni  Ni17  1  0.536497  0.072995  0.394913  1
  Ni  Ni18  1  0.535129  0.464871  0.109245  1
  Ni  Ni19  1  0.463503  0.536497  0.605087  1
  P  P20  1  0.174898  0.349796  0.746949  1
  P  P21  1  0.825102  0.174898  0.253051  1
  P  P22  1  0.174898  0.825102  0.746949  1
  P  P23  1  0.825102  0.650204  0.253051  1
  P  P24  1  0.333333  0.666667  0.437307  1
  P  P25  1  0.666667  0.333333  0.939145  1
  P  P26  1  0.666667  0.333333  0.562693  1
  P  P27  1  0.333333  0.666667  0.060855  1
  P  P28  1  0.349796  0.174898  0.253051  1
  P  P29  1  0.650204  0.825102  0.746949  1
