# generated using pymatgen
data_SmTm3(B4Mo)4
_symmetry_space_group_name_H-M   'P 1'
_cell_length_a   3.62216000
_cell_length_b   6.02016805
_cell_length_c   11.63645000
_cell_angle_alpha   89.87767950
_cell_angle_beta   90.00000000
_cell_angle_gamma   90.00000000
_symmetry_Int_Tables_number   1
_chemical_formula_structural   SmTm3(B4Mo)4
_chemical_formula_sum   'Sm1 Tm3 B16 Mo4'
_cell_volume   253.74398872
_cell_formula_units_Z   1
loop_
 _symmetry_equiv_pos_site_id
 _symmetry_equiv_pos_as_xyz
  1  'x, y, z'
loop_
 _atom_site_type_symbol
 _atom_site_label
 _atom_site_symmetry_multiplicity
 _atom_site_fract_x
 _atom_site_fract_y
 _atom_site_fract_z
 _atom_site_occupancy
  Sm  Sm0  1  0.000000  0.372874  0.650277  1
  Tm  Tm1  1  0.000000  0.127029  0.149596  1
  Tm  Tm2  1  0.000000  0.872669  0.851052  1
  Tm  Tm3  1  0.000000  0.627324  0.349979  1
  B  B4  1  0.500000  0.021194  0.694158  1
  B  B5  1  0.500000  0.976591  0.305106  1
  B  B6  1  0.500000  0.526118  0.808292  1
  B  B7  1  0.500000  0.476937  0.194160  1
  B  B8  1  0.500000  0.111423  0.545815  1
  B  B9  1  0.500000  0.884730  0.450730  1
  B  B10  1  0.500000  0.615369  0.953134  1
  B  B11  1  0.500000  0.385703  0.048556  1
  B  B12  1  0.500000  0.287954  0.312727  1
  B  B13  1  0.500000  0.715654  0.687235  1
  B  B14  1  0.500000  0.787910  0.186347  1
  B  B15  1  0.500000  0.210792  0.815589  1
  B  B16  1  0.500000  0.366697  0.465998  1
  B  B17  1  0.500000  0.633838  0.530006  1
  B  B18  1  0.500000  0.867228  0.032314  1
  B  B19  1  0.500000  0.132130  0.969064  1
  Mo  Mo20  1  0.000000  0.129437  0.414679  1
  Mo  Mo21  1  0.000000  0.869915  0.583040  1
  Mo  Mo22  1  0.000000  0.630422  0.084487  1
  Mo  Mo23  1  0.000000  0.370065  0.917659  1
