# generated using pymatgen
data_NaPrNd5CoBr12
_symmetry_space_group_name_H-M   'P 1'
_cell_length_a   9.62588600
_cell_length_b   9.45149890
_cell_length_c   9.45430903
_cell_angle_alpha   106.81212172
_cell_angle_beta   107.06193728
_cell_angle_gamma   107.45644071
_symmetry_Int_Tables_number   1
_chemical_formula_structural   NaPrNd5CoBr12
_chemical_formula_sum   'Na1 Pr1 Nd5 Co1 Br12'
_cell_volume   714.15477513
_cell_formula_units_Z   1
loop_
 _symmetry_equiv_pos_site_id
 _symmetry_equiv_pos_as_xyz
  1  'x, y, z'
loop_
 _atom_site_type_symbol
 _atom_site_label
 _atom_site_symmetry_multiplicity
 _atom_site_fract_x
 _atom_site_fract_y
 _atom_site_fract_z
 _atom_site_occupancy
  Na  Na0  1  0.499976  0.500065  0.499897  1
  Pr  Pr1  1  0.893326  0.687824  0.970672  1
  Nd  Nd2  1  0.106293  0.310570  0.029343  1
  Nd  Nd3  1  0.324955  0.030964  0.112799  1
  Nd  Nd4  1  0.029519  0.106838  0.309908  1
  Nd  Nd5  1  0.970741  0.894053  0.690377  1
  Nd  Nd6  1  0.675032  0.968902  0.887187  1
  Co  Co7  1  0.000111  0.000115  0.000232  1
  Br  Br8  1  0.220535  0.684199  0.073914  1
  Br  Br9  1  0.450385  0.372316  0.152252  1
  Br  Br10  1  0.686505  0.073409  0.220856  1
  Br  Br11  1  0.927249  0.780959  0.318192  1
  Br  Br12  1  0.154475  0.453255  0.372822  1
  Br  Br13  1  0.370060  0.152636  0.452452  1
  Br  Br14  1  0.629966  0.847491  0.547601  1
  Br  Br15  1  0.845448  0.546674  0.624842  1
  Br  Br16  1  0.073337  0.220757  0.684355  1
  Br  Br17  1  0.313536  0.926726  0.779236  1
  Br  Br18  1  0.547104  0.627509  0.846561  1
  Br  Br19  1  0.781453  0.314741  0.926505  1
