# generated using pymatgen
data_Li12Dy12UTe7O48
_symmetry_space_group_name_H-M   'P 1'
_cell_length_a   10.74894016
_cell_length_b   10.74894104
_cell_length_c   10.84047400
_cell_angle_alpha   109.64381107
_cell_angle_beta   109.64381273
_cell_angle_gamma   109.29806887
_symmetry_Int_Tables_number   1
_chemical_formula_structural   Li12Dy12UTe7O48
_chemical_formula_sum   'Li12 Dy12 U1 Te7 O48'
_cell_volume   962.11785925
_cell_formula_units_Z   1
loop_
 _symmetry_equiv_pos_site_id
 _symmetry_equiv_pos_as_xyz
  1  'x, y, z'
loop_
 _atom_site_type_symbol
 _atom_site_label
 _atom_site_symmetry_multiplicity
 _atom_site_fract_x
 _atom_site_fract_y
 _atom_site_fract_z
 _atom_site_occupancy
  Li  Li0  1  0.250130  0.375098  0.125204  1
  Li  Li1  1  0.375031  0.750129  0.124924  1
  Li  Li2  1  0.124902  0.875030  0.250107  1
  Li  Li3  1  0.620952  0.374107  0.246105  1
  Li  Li4  1  0.125894  0.246845  0.371998  1
  Li  Li5  1  0.746847  0.120953  0.374847  1
  Li  Li6  1  0.253155  0.879049  0.625152  1
  Li  Li7  1  0.874107  0.753154  0.628003  1
  Li  Li8  1  0.875097  0.124969  0.749892  1
  Li  Li9  1  0.379047  0.625894  0.753894  1
  Li  Li10  1  0.749871  0.624902  0.874793  1
  Li  Li11  1  0.624971  0.249871  0.875077  1
  Dy  Dy12  1  0.750699  0.875619  0.125207  1
  Dy  Dy13  1  0.875652  0.249859  0.120883  1
  Dy  Dy14  1  0.874207  0.624348  0.245230  1
  Dy  Dy15  1  0.375618  0.124918  0.250412  1
  Dy  Dy16  1  0.624920  0.749302  0.374507  1
  Dy  Dy17  1  0.250143  0.625793  0.371023  1
  Dy  Dy18  1  0.749860  0.374209  0.628976  1
  Dy  Dy19  1  0.375081  0.250700  0.625495  1
  Dy  Dy20  1  0.125791  0.375651  0.754768  1
  Dy  Dy21  1  0.624382  0.875081  0.749589  1
  Dy  Dy22  1  0.249300  0.124381  0.874792  1
  Dy  Dy23  1  0.124350  0.750142  0.879119  1
  U  U24  1  0.000000  0.500000  0.500000  1
  Te  Te25  1  0.000000  0.000000  0.000000  1
  Te  Te26  1  0.499999  0.000000  0.000000  1
  Te  Te27  1  0.500000  0.500000  0.000000  1
  Te  Te28  1  0.000000  0.500001  0.000000  1
  Te  Te29  1  0.000000  0.000000  0.499998  1
  Te  Te30  1  0.500000  0.000000  0.499999  1
  Te  Te31  1  0.500002  0.500002  0.500001  1
  O  O32  1  0.699603  0.620833  0.027349  1
  O  O33  1  0.827852  0.406528  0.025559  1
  O  O34  1  0.199556  0.172387  0.079239  1
  O  O35  1  0.379950  0.907265  0.078620  1
  O  O36  1  0.471153  0.171305  0.092571  1
  O  O37  1  0.120833  0.921231  0.093485  1
  O  O38  1  0.527169  0.699556  0.120317  1
  O  O39  1  0.093472  0.421323  0.119031  1
  O  O40  1  0.699613  0.079490  0.172858  1
  O  O41  1  0.971858  0.091498  0.170475  1
  O  O42  1  0.619642  0.528143  0.198617  1
  O  O43  1  0.078678  0.672148  0.197708  1
  O  O44  1  0.821689  0.416357  0.285785  1
  O  O45  1  0.972687  0.879951  0.301330  1
  O  O46  1  0.421232  0.800397  0.327746  1
  O  O47  1  0.407265  0.527314  0.328644  1
  O  O48  1  0.799848  0.971154  0.378582  1
  O  O49  1  0.083644  0.405333  0.369428  1
  O  O50  1  0.579490  0.379880  0.406633  1
  O  O51  1  0.327613  0.027170  0.406854  1
  O  O52  1  0.328693  0.299848  0.421265  1
  O  O53  1  0.591499  0.119642  0.421024  1
  O  O54  1  0.879878  0.800386  0.473244  1
  O  O55  1  0.094668  0.678311  0.464096  1
  O  O56  1  0.120121  0.199612  0.526754  1
  O  O57  1  0.905333  0.321690  0.535904  1
  O  O58  1  0.408501  0.880359  0.578975  1
  O  O59  1  0.671306  0.700153  0.578736  1
  O  O60  1  0.672387  0.972830  0.593147  1
  O  O61  1  0.420511  0.620123  0.593369  1
  O  O62  1  0.916357  0.594668  0.630572  1
  O  O63  1  0.200151  0.028846  0.621417  1
  O  O64  1  0.592735  0.472687  0.671356  1
  O  O65  1  0.578770  0.199604  0.672254  1
  O  O66  1  0.027314  0.120051  0.698670  1
  O  O67  1  0.178312  0.583644  0.714217  1
  O  O68  1  0.921322  0.327853  0.802291  1
  O  O69  1  0.380359  0.471858  0.801382  1
  O  O70  1  0.028143  0.908501  0.829524  1
  O  O71  1  0.300388  0.920510  0.827141  1
  O  O72  1  0.906528  0.578677  0.880968  1
  O  O73  1  0.472831  0.300443  0.879684  1
  O  O74  1  0.879167  0.078770  0.906516  1
  O  O75  1  0.528846  0.828694  0.907429  1
  O  O76  1  0.800442  0.827611  0.920759  1
  O  O77  1  0.620050  0.092736  0.921379  1
  O  O78  1  0.300397  0.379167  0.972650  1
  O  O79  1  0.172148  0.593472  0.974441  1
