# generated using pymatgen
data_Li3Tm3AgSb2
_symmetry_space_group_name_H-M   'P 1'
_cell_length_a   7.28269200
_cell_length_b   7.28268989
_cell_length_c   4.23326500
_cell_angle_alpha   90.00000000
_cell_angle_beta   90.00000000
_cell_angle_gamma   119.99999141
_symmetry_Int_Tables_number   1
_chemical_formula_structural   Li3Tm3AgSb2
_chemical_formula_sum   'Li3 Tm3 Ag1 Sb2'
_cell_volume   194.44191325
_cell_formula_units_Z   1
loop_
 _symmetry_equiv_pos_site_id
 _symmetry_equiv_pos_as_xyz
  1  'x, y, z'
loop_
 _atom_site_type_symbol
 _atom_site_label
 _atom_site_symmetry_multiplicity
 _atom_site_fract_x
 _atom_site_fract_y
 _atom_site_fract_z
 _atom_site_occupancy
  Li  Li0  1  0.239126  0.000000  0.500000  1
  Li  Li1  1  0.760874  0.760874  0.500000  1
  Li  Li2  1  0.000000  0.239126  0.500000  1
  Tm  Tm3  1  0.000000  0.590517  0.000000  1
  Tm  Tm4  1  0.590517  0.000000  0.000000  1
  Tm  Tm5  1  0.409483  0.409483  0.000000  1
  Ag  Ag6  1  0.000000  0.000000  0.000000  1
  Sb  Sb7  1  0.333333  0.666667  0.500000  1
  Sb  Sb8  1  0.666667  0.333333  0.500000  1
