# generated using pymatgen
data_Lu6ReBi2
_symmetry_space_group_name_H-M   'P 1'
_cell_length_a   8.09306100
_cell_length_b   8.09306002
_cell_length_c   4.29076300
_cell_angle_alpha   90.00000000
_cell_angle_beta   90.00000000
_cell_angle_gamma   120.00000809
_symmetry_Int_Tables_number   1
_chemical_formula_structural   Lu6ReBi2
_chemical_formula_sum   'Lu6 Re1 Bi2'
_cell_volume   243.38325682
_cell_formula_units_Z   1
loop_
 _symmetry_equiv_pos_site_id
 _symmetry_equiv_pos_as_xyz
  1  'x, y, z'
loop_
 _atom_site_type_symbol
 _atom_site_label
 _atom_site_symmetry_multiplicity
 _atom_site_fract_x
 _atom_site_fract_y
 _atom_site_fract_z
 _atom_site_occupancy
  Lu  Lu0  1  0.231322  0.000000  0.500000  1
  Lu  Lu1  1  0.000000  0.231322  0.500000  1
  Lu  Lu2  1  0.768678  0.768678  0.500000  1
  Lu  Lu3  1  0.617237  0.000000  0.000000  1
  Lu  Lu4  1  0.000000  0.617237  0.000000  1
  Lu  Lu5  1  0.382763  0.382763  0.000000  1
  Re  Re6  1  0.000000  0.000000  0.000000  1
  Bi  Bi7  1  0.333333  0.666667  0.500000  1
  Bi  Bi8  1  0.666667  0.333333  0.500000  1
