# generated using pymatgen
data_CrFe(BrO3)6
_symmetry_space_group_name_H-M   'P 1'
_cell_length_a   9.10165800
_cell_length_b   9.10165760
_cell_length_c   5.64815000
_cell_angle_alpha   90.00000000
_cell_angle_beta   90.00000000
_cell_angle_gamma   119.99998985
_symmetry_Int_Tables_number   1
_chemical_formula_structural   CrFe(BrO3)6
_chemical_formula_sum   'Cr1 Fe1 Br6 O18'
_cell_volume   405.20790008
_cell_formula_units_Z   1
loop_
 _symmetry_equiv_pos_site_id
 _symmetry_equiv_pos_as_xyz
  1  'x, y, z'
loop_
 _atom_site_type_symbol
 _atom_site_label
 _atom_site_symmetry_multiplicity
 _atom_site_fract_x
 _atom_site_fract_y
 _atom_site_fract_z
 _atom_site_occupancy
  Cr  Cr0  1  0.666667  0.333333  0.692352  1
  Fe  Fe1  1  0.333333  0.666667  0.191606  1
  Br  Br2  1  0.678430  0.022450  0.361438  1
  Br  Br3  1  0.324267  0.980934  0.858996  1
  Br  Br4  1  0.019066  0.343332  0.858996  1
  Br  Br5  1  0.344020  0.321570  0.361438  1
  Br  Br6  1  0.977550  0.655980  0.361438  1
  Br  Br7  1  0.656668  0.675733  0.858996  1
  O  O8  1  0.778269  0.830205  0.038047  1
  O  O9  1  0.944305  0.778076  0.539116  1
  O  O10  1  0.833770  0.055695  0.539116  1
  O  O11  1  0.169795  0.948062  0.038047  1
  O  O12  1  0.051938  0.221731  0.038047  1
  O  O13  1  0.221924  0.166230  0.539116  1
  O  O14  1  0.717716  0.526743  0.917714  1
  O  O15  1  0.186729  0.714625  0.417999  1
  O  O16  1  0.546296  0.423152  0.486597  1
  O  O17  1  0.121374  0.545242  0.984573  1
  O  O18  1  0.423867  0.878626  0.984573  1
  O  O19  1  0.576848  0.123142  0.486597  1
  O  O20  1  0.876858  0.453704  0.486597  1
  O  O21  1  0.454758  0.576133  0.984573  1
  O  O22  1  0.285375  0.472104  0.417999  1
  O  O23  1  0.809028  0.282284  0.917714  1
  O  O24  1  0.473257  0.190972  0.917714  1
  O  O25  1  0.527896  0.813271  0.417999  1
