# generated using pymatgen
data_HoEr9Si5As
_symmetry_space_group_name_H-M   'P 1'
_cell_length_a   8.35350100
_cell_length_b   8.36896190
_cell_length_c   6.26041800
_cell_angle_alpha   90.00000000
_cell_angle_beta   90.00000000
_cell_angle_gamma   119.93891094
_symmetry_Int_Tables_number   1
_chemical_formula_structural   HoEr9Si5As
_chemical_formula_sum   'Ho1 Er9 Si5 As1'
_cell_volume   379.26353960
_cell_formula_units_Z   1
loop_
 _symmetry_equiv_pos_site_id
 _symmetry_equiv_pos_as_xyz
  1  'x, y, z'
loop_
 _atom_site_type_symbol
 _atom_site_label
 _atom_site_symmetry_multiplicity
 _atom_site_fract_x
 _atom_site_fract_y
 _atom_site_fract_z
 _atom_site_occupancy
  Ho  Ho0  1  0.242734  0.000000  0.250000  1
  Er  Er1  1  0.996560  0.753995  0.750000  1
  Er  Er2  1  0.000170  0.243721  0.250000  1
  Er  Er3  1  0.756448  0.756279  0.250000  1
  Er  Er4  1  0.758689  0.000000  0.750000  1
  Er  Er5  1  0.242565  0.246005  0.750000  1
  Er  Er6  1  0.332988  0.663911  0.498874  1
  Er  Er7  1  0.669078  0.336089  0.001126  1
  Er  Er8  1  0.669078  0.336089  0.498874  1
  Er  Er9  1  0.332988  0.663911  0.001126  1
  Si  Si10  1  0.394087  0.393161  0.250000  1
  Si  Si11  1  0.000926  0.606839  0.250000  1
  Si  Si12  1  0.999794  0.393961  0.750000  1
  Si  Si13  1  0.605833  0.606039  0.750000  1
  Si  Si14  1  0.607018  0.000000  0.250000  1
  As  As15  1  0.391042  0.000000  0.750000  1
