# generated using pymatgen
data_Ir3Pd(RuO6)2
_symmetry_space_group_name_H-M   'P 1'
_cell_length_a   4.56196408
_cell_length_b   4.56196408
_cell_length_c   9.52732700
_cell_angle_alpha   90.00000000
_cell_angle_beta   90.00000000
_cell_angle_gamma   90.20195613
_symmetry_Int_Tables_number   1
_chemical_formula_structural   Ir3Pd(RuO6)2
_chemical_formula_sum   'Ir3 Pd1 Ru2 O12'
_cell_volume   198.27688954
_cell_formula_units_Z   1
loop_
 _symmetry_equiv_pos_site_id
 _symmetry_equiv_pos_as_xyz
  1  'x, y, z'
loop_
 _atom_site_type_symbol
 _atom_site_label
 _atom_site_symmetry_multiplicity
 _atom_site_fract_x
 _atom_site_fract_y
 _atom_site_fract_z
 _atom_site_occupancy
  Ir  Ir0  1  0.000000  0.000000  0.333845  1
  Ir  Ir1  1  0.000000  0.000000  0.667190  1
  Ir  Ir2  1  0.500000  0.500000  0.832031  1
  Pd  Pd3  1  0.500000  0.500000  0.166892  1
  Ru  Ru4  1  0.000000  0.000000  0.000244  1
  Ru  Ru5  1  0.500000  0.500000  0.500034  1
  O  O6  1  0.299978  0.299978  0.992856  1
  O  O7  1  0.700022  0.700022  0.992856  1
  O  O8  1  0.813742  0.186258  0.166358  1
  O  O9  1  0.186258  0.813742  0.166358  1
  O  O10  1  0.302020  0.302020  0.340804  1
  O  O11  1  0.697980  0.697980  0.340804  1
  O  O12  1  0.806159  0.193841  0.500974  1
  O  O13  1  0.193841  0.806159  0.500974  1
  O  O14  1  0.307308  0.307308  0.665739  1
  O  O15  1  0.692692  0.692692  0.665739  1
  O  O16  1  0.806905  0.193095  0.833151  1
  O  O17  1  0.193095  0.806905  0.833151  1
