# generated using pymatgen
data_Ta24GaAs6P
_symmetry_space_group_name_H-M   'P 1'
_cell_length_a   10.35782197
_cell_length_b   10.35157269
_cell_length_c   5.18065686
_cell_angle_alpha   90.25506430
_cell_angle_beta   89.87672324
_cell_angle_gamma   90.00013908
_symmetry_Int_Tables_number   1
_chemical_formula_structural   Ta24GaAs6P
_chemical_formula_sum   'Ta24 Ga1 As6 P1'
_cell_volume   555.46192844
_cell_formula_units_Z   1
loop_
 _symmetry_equiv_pos_site_id
 _symmetry_equiv_pos_as_xyz
  1  'x, y, z'
loop_
 _atom_site_type_symbol
 _atom_site_label
 _atom_site_symmetry_multiplicity
 _atom_site_fract_x
 _atom_site_fract_y
 _atom_site_fract_z
 _atom_site_occupancy
  Ta  Ta0  1  0.905108  0.588587  0.016942  1
  Ta  Ta1  1  0.095240  0.412808  0.015669  1
  Ta  Ta2  1  0.912831  0.404549  0.514992  1
  Ta  Ta3  1  0.087886  0.594426  0.516523  1
  Ta  Ta4  1  0.599991  0.913936  0.478856  1
  Ta  Ta5  1  0.405791  0.084893  0.482561  1
  Ta  Ta6  1  0.591497  0.093163  0.989005  1
  Ta  Ta7  1  0.411451  0.907545  0.984699  1
  Ta  Ta8  1  0.849233  0.007664  0.735095  1
  Ta  Ta9  1  0.149946  0.991518  0.736487  1
  Ta  Ta10  1  0.493914  0.349645  0.237131  1
  Ta  Ta11  1  0.508747  0.649707  0.234996  1
  Ta  Ta12  1  0.649742  0.492678  0.763258  1
  Ta  Ta13  1  0.352638  0.507291  0.764511  1
  Ta  Ta14  1  0.999225  0.148055  0.265945  1
  Ta  Ta15  1  0.982104  0.854584  0.263559  1
  Ta  Ta16  1  0.291530  0.193953  0.993244  1
  Ta  Ta17  1  0.709452  0.809389  0.996453  1
  Ta  Ta18  1  0.305495  0.792372  0.493340  1
  Ta  Ta19  1  0.697546  0.204621  0.489869  1
  Ta  Ta20  1  0.208600  0.301706  0.503067  1
  Ta  Ta21  1  0.791676  0.694910  0.510294  1
  Ta  Ta22  1  0.194809  0.710252  0.009905  1
  Ta  Ta23  1  0.803341  0.290916  0.002949  1
  Ga  Ga24  1  0.200965  0.984285  0.234001  1
  As  As25  1  0.487452  0.290895  0.735779  1
  As  As26  1  0.516954  0.708999  0.733353  1
  As  As27  1  0.707131  0.485226  0.264831  1
  As  As28  1  0.294417  0.514874  0.266645  1
  As  As29  1  0.016179  0.205540  0.768377  1
  As  As30  1  0.986205  0.794420  0.765480  1
  P  P31  1  0.792903  0.016595  0.232183  1
