# generated using pymatgen
data_CaDyY2Ni13C4
_symmetry_space_group_name_H-M   'P 1'
_cell_length_a   8.40847702
_cell_length_b   8.40842025
_cell_length_c   3.87510000
_cell_angle_alpha   90.00000000
_cell_angle_beta   90.00000000
_cell_angle_gamma   90.84507340
_symmetry_Int_Tables_number   1
_chemical_formula_structural   CaDyY2Ni13C4
_chemical_formula_sum   'Ca1 Dy1 Y2 Ni13 C4'
_cell_volume   273.94755277
_cell_formula_units_Z   1
loop_
 _symmetry_equiv_pos_site_id
 _symmetry_equiv_pos_as_xyz
  1  'x, y, z'
loop_
 _atom_site_type_symbol
 _atom_site_label
 _atom_site_symmetry_multiplicity
 _atom_site_fract_x
 _atom_site_fract_y
 _atom_site_fract_z
 _atom_site_occupancy
  Ca  Ca0  1  0.649712  0.649168  0.500000  1
  Dy  Dy1  1  0.812663  0.187031  0.500000  1
  Y  Y2  1  0.187049  0.812531  0.500000  1
  Y  Y3  1  0.350476  0.350070  0.500000  1
  Ni  Ni4  1  0.496510  0.006022  0.500000  1
  Ni  Ni5  1  0.006012  0.494339  0.500000  1
  Ni  Ni6  1  0.001275  0.002840  0.000000  1
  Ni  Ni7  1  0.427367  0.782776  0.000000  1
  Ni  Ni8  1  0.569093  0.213233  0.000000  1
  Ni  Ni9  1  0.213944  0.568146  0.000000  1
  Ni  Ni10  1  0.783451  0.426264  0.000000  1
  Ni  Ni11  1  0.711122  0.930052  0.000000  1
  Ni  Ni12  1  0.292271  0.075068  0.000000  1
  Ni  Ni13  1  0.074437  0.292764  0.000000  1
  Ni  Ni14  1  0.929213  0.711797  0.000000  1
  Ni  Ni15  1  0.877024  0.878457  0.500000  1
  Ni  Ni16  1  0.124020  0.125339  0.500000  1
  C  C17  1  0.442079  0.554632  0.000000  1
  C  C18  1  0.555347  0.441441  0.000000  1
  C  C19  1  0.500573  0.996217  0.000000  1
  C  C20  1  0.996364  0.501814  0.000000  1
