# generated using pymatgen
data_YbGd(HoB8)2
_symmetry_space_group_name_H-M   'P 1'
_cell_length_a   7.10949524
_cell_length_b   7.10729532
_cell_length_c   4.02650300
_cell_angle_alpha   90.00000000
_cell_angle_beta   90.00000000
_cell_angle_gamma   89.90106176
_symmetry_Int_Tables_number   1
_chemical_formula_structural   YbGd(HoB8)2
_chemical_formula_sum   'Yb1 Gd1 Ho2 B16'
_cell_volume   203.45600322
_cell_formula_units_Z   1
loop_
 _symmetry_equiv_pos_site_id
 _symmetry_equiv_pos_as_xyz
  1  'x, y, z'
loop_
 _atom_site_type_symbol
 _atom_site_label
 _atom_site_symmetry_multiplicity
 _atom_site_fract_x
 _atom_site_fract_y
 _atom_site_fract_z
 _atom_site_occupancy
  Yb  Yb0  1  0.817802  0.317829  0.000000  1
  Gd  Gd1  1  0.683034  0.817147  0.000000  1
  Ho  Ho2  1  0.181511  0.681484  0.000000  1
  Ho  Ho3  1  0.317306  0.182700  0.000000  1
  B  B4  1  0.501113  0.498643  0.797091  1
  B  B5  1  0.999899  0.002183  0.797110  1
  B  B6  1  0.501113  0.498643  0.202909  1
  B  B7  1  0.999899  0.002183  0.202890  1
  B  B8  1  0.676152  0.537321  0.500000  1
  B  B9  1  0.323292  0.461739  0.500000  1
  B  B10  1  0.175640  0.961533  0.500000  1
  B  B11  1  0.824276  0.038923  0.500000  1
  B  B12  1  0.460315  0.674778  0.500000  1
  B  B13  1  0.537801  0.323306  0.500000  1
  B  B14  1  0.038587  0.176873  0.500000  1
  B  B15  1  0.962935  0.823912  0.500000  1
  B  B16  1  0.913686  0.587479  0.500000  1
  B  B17  1  0.087389  0.413818  0.500000  1
  B  B18  1  0.412435  0.913116  0.500000  1
  B  B19  1  0.585814  0.086389  0.500000  1
