# generated using pymatgen
data_Ba2CePr(Ge4N7)2
_symmetry_space_group_name_H-M   'P 1'
_cell_length_a   6.44202600
_cell_length_b   6.44202362
_cell_length_c   10.51518700
_cell_angle_alpha   90.00000000
_cell_angle_beta   90.00000000
_cell_angle_gamma   120.00000194
_symmetry_Int_Tables_number   1
_chemical_formula_structural   Ba2CePr(Ge4N7)2
_chemical_formula_sum   'Ba2 Ce1 Pr1 Ge8 N14'
_cell_volume   377.91350328
_cell_formula_units_Z   1
loop_
 _symmetry_equiv_pos_site_id
 _symmetry_equiv_pos_as_xyz
  1  'x, y, z'
loop_
 _atom_site_type_symbol
 _atom_site_label
 _atom_site_symmetry_multiplicity
 _atom_site_fract_x
 _atom_site_fract_y
 _atom_site_fract_z
 _atom_site_occupancy
  Ba  Ba0  1  0.333333  0.666667  0.365166  1
  Ba  Ba1  1  0.666667  0.333333  0.865874  1
  Ce  Ce2  1  0.333333  0.666667  0.735528  1
  Pr  Pr3  1  0.666667  0.333333  0.235865  1
  Ge  Ge4  1  0.827310  0.654619  0.547978  1
  Ge  Ge5  1  0.173681  0.826319  0.045656  1
  Ge  Ge6  1  0.652636  0.826319  0.045656  1
  Ge  Ge7  1  0.345381  0.172690  0.547978  1
  Ge  Ge8  1  0.827310  0.172690  0.547978  1
  Ge  Ge9  1  0.173681  0.347364  0.045656  1
  Ge  Ge10  1  0.000000  0.000000  0.812504  1
  Ge  Ge11  1  0.000000  0.000000  0.315130  1
  N  N12  1  0.000000  0.000000  0.623544  1
  N  N13  1  0.000000  0.000000  0.122434  1
  N  N14  1  0.156614  0.313230  0.869078  1
  N  N15  1  0.844474  0.155526  0.373351  1
  N  N16  1  0.311052  0.155526  0.373351  1
  N  N17  1  0.686770  0.843386  0.869078  1
  N  N18  1  0.156614  0.843386  0.869078  1
  N  N19  1  0.844474  0.688948  0.373351  1
  N  N20  1  0.983428  0.491714  0.602995  1
  N  N21  1  0.491133  0.982265  0.098196  1
  N  N22  1  0.491133  0.508867  0.098196  1
  N  N23  1  0.508286  0.491714  0.602995  1
  N  N24  1  0.017735  0.508867  0.098196  1
  N  N25  1  0.508286  0.016572  0.602995  1
