# generated using pymatgen
data_RbNi9Sb2S3
_symmetry_space_group_name_H-M   'P 1'
_cell_length_a   6.87190901
_cell_length_b   6.86685113
_cell_length_c   11.09379900
_cell_angle_alpha   89.97446791
_cell_angle_beta   89.99734862
_cell_angle_gamma   120.16934100
_symmetry_Int_Tables_number   1
_chemical_formula_structural   RbNi9Sb2S3
_chemical_formula_sum   'Rb2 Ni18 Sb4 S6'
_cell_volume   452.58721747
_cell_formula_units_Z   2
loop_
 _symmetry_equiv_pos_site_id
 _symmetry_equiv_pos_as_xyz
  1  'x, y, z'
loop_
 _atom_site_type_symbol
 _atom_site_label
 _atom_site_symmetry_multiplicity
 _atom_site_fract_x
 _atom_site_fract_y
 _atom_site_fract_z
 _atom_site_occupancy
  Rb  Rb0  1  0.000052  0.000030  0.500277  1
  Rb  Rb1  1  0.000044  0.000017  0.999722  1
  Ni  Ni2  1  0.461031  0.922021  0.878755  1
  Ni  Ni3  1  0.921853  0.460999  0.121255  1
  Ni  Ni4  1  0.539013  0.078136  0.121319  1
  Ni  Ni5  1  0.078050  0.538995  0.621215  1
  Ni  Ni6  1  0.191059  0.382039  0.250001  1
  Ni  Ni7  1  0.808727  0.191292  0.750000  1
  Ni  Ni8  1  0.382224  0.191204  0.749997  1
  Ni  Ni9  1  0.617892  0.808897  0.249996  1
  Ni  Ni10  1  0.191239  0.808681  0.249992  1
  Ni  Ni11  1  0.808842  0.617807  0.749993  1
  Ni  Ni12  1  0.460998  0.921962  0.621233  1
  Ni  Ni13  1  0.539082  0.460906  0.378772  1
  Ni  Ni14  1  0.921904  0.460977  0.378725  1
  Ni  Ni15  1  0.078074  0.538949  0.878812  1
  Ni  Ni16  1  0.460892  0.539015  0.878901  1
  Ni  Ni17  1  0.539046  0.078153  0.378731  1
  Ni  Ni18  1  0.539147  0.460956  0.121181  1
  Ni  Ni19  1  0.460948  0.539049  0.621139  1
  Sb  Sb20  1  0.333436  0.666354  0.437004  1
  Sb  Sb21  1  0.666561  0.333649  0.937071  1
  Sb  Sb22  1  0.666575  0.333636  0.562921  1
  Sb  Sb23  1  0.333436  0.666348  0.062998  1
  S  S24  1  0.171124  0.342020  0.750021  1
  S  S25  1  0.828914  0.171156  0.249994  1
  S  S26  1  0.171133  0.828711  0.750002  1
  S  S27  1  0.828933  0.658206  0.249985  1
  S  S28  1  0.341949  0.171154  0.249999  1
  S  S29  1  0.657822  0.828682  0.749989  1
