# generated using pymatgen
data_Cd2SnRh3
_symmetry_space_group_name_H-M   'P 1'
_cell_length_a   3.23628400
_cell_length_b   4.63342463
_cell_length_c   7.20176400
_cell_angle_alpha   71.37080980
_cell_angle_beta   90.00000000
_cell_angle_gamma   90.00000000
_symmetry_Int_Tables_number   1
_chemical_formula_structural   Cd2SnRh3
_chemical_formula_sum   'Cd2 Sn1 Rh3'
_cell_volume   102.33290892
_cell_formula_units_Z   1
loop_
 _symmetry_equiv_pos_site_id
 _symmetry_equiv_pos_as_xyz
  1  'x, y, z'
loop_
 _atom_site_type_symbol
 _atom_site_label
 _atom_site_symmetry_multiplicity
 _atom_site_fract_x
 _atom_site_fract_y
 _atom_site_fract_z
 _atom_site_occupancy
  Cd  Cd0  1  0.000000  0.338322  0.320547  1
  Cd  Cd1  1  0.000000  0.995013  0.012771  1
  Sn  Sn2  1  0.000000  0.666703  0.666680  1
  Rh  Rh3  1  0.500000  0.512388  0.979019  1
  Rh  Rh4  1  0.500000  0.820933  0.354316  1
  Rh  Rh5  1  0.500000  0.166642  0.666665  1
