# generated using pymatgen
data_La2Cu(PN2)7
_symmetry_space_group_name_H-M   'P 1'
_cell_length_a   7.84589849
_cell_length_b   7.50068139
_cell_length_c   5.22323700
_cell_angle_alpha   79.80967224
_cell_angle_beta   80.27531058
_cell_angle_gamma   69.71176593
_symmetry_Int_Tables_number   1
_chemical_formula_structural   La2Cu(PN2)7
_chemical_formula_sum   'La2 Cu1 P7 N14'
_cell_volume   281.83417472
_cell_formula_units_Z   1
loop_
 _symmetry_equiv_pos_site_id
 _symmetry_equiv_pos_as_xyz
  1  'x, y, z'
loop_
 _atom_site_type_symbol
 _atom_site_label
 _atom_site_symmetry_multiplicity
 _atom_site_fract_x
 _atom_site_fract_y
 _atom_site_fract_z
 _atom_site_occupancy
  La  La0  1  0.809345  0.218876  0.264903  1
  La  La1  1  0.201252  0.765186  0.761146  1
  Cu  Cu2  1  0.294626  0.483794  0.283441  1
  P  P3  1  0.555136  0.685379  0.207113  1
  P  P4  1  0.107008  0.258803  0.715635  1
  P  P5  1  0.731103  0.920701  0.789410  1
  P  P6  1  0.890730  0.761775  0.285149  1
  P  P7  1  0.273778  0.085712  0.205293  1
  P  P8  1  0.444804  0.295528  0.803116  1
  P  P9  1  0.698781  0.542425  0.709464  1
  N  N10  1  0.248422  0.383040  0.673954  1
  N  N11  1  0.640226  0.737262  0.882427  1
  N  N12  1  0.729004  0.650294  0.395085  1
  N  N13  1  0.402758  0.217275  0.109889  1
  N  N14  1  0.886404  0.380276  0.782688  1
  N  N15  1  0.599858  0.120579  0.658494  1
  N  N16  1  0.073541  0.634363  0.153773  1
  N  N17  1  0.384460  0.862350  0.301022  1
  N  N18  1  0.899218  0.851753  0.552086  1
  N  N19  1  0.149756  0.090665  0.971754  1
  N  N20  1  0.543820  0.482129  0.230608  1
  N  N21  1  0.520919  0.479262  0.741916  1
  N  N22  1  0.795080  0.941350  0.060050  1
  N  N23  1  0.119971  0.151226  0.461581  1
