# generated using pymatgen
data_NbCrB2W
_symmetry_space_group_name_H-M   'P 1'
_cell_length_a   5.89880848
_cell_length_b   5.89880848
_cell_length_c   3.20781000
_cell_angle_alpha   90.00000000
_cell_angle_beta   90.00000000
_cell_angle_gamma   90.93291573
_symmetry_Int_Tables_number   1
_chemical_formula_structural   NbCrB2W
_chemical_formula_sum   'Nb2 Cr2 B4 W2'
_cell_volume   111.60397345
_cell_formula_units_Z   2
loop_
 _symmetry_equiv_pos_site_id
 _symmetry_equiv_pos_as_xyz
  1  'x, y, z'
loop_
 _atom_site_type_symbol
 _atom_site_label
 _atom_site_symmetry_multiplicity
 _atom_site_fract_x
 _atom_site_fract_y
 _atom_site_fract_z
 _atom_site_occupancy
  Nb  Nb0  1  0.180379  0.319621  0.500000  1
  Nb  Nb1  1  0.819621  0.680379  0.500000  1
  Cr  Cr2  1  0.500000  0.500000  0.000000  1
  Cr  Cr3  1  0.000000  0.000000  0.000000  1
  B  B4  1  0.116419  0.616419  0.000000  1
  B  B5  1  0.883581  0.383581  0.000000  1
  B  B6  1  0.609901  0.890099  0.000000  1
  B  B7  1  0.390099  0.109901  0.000000  1
  W  W8  1  0.677077  0.177077  0.500000  1
  W  W9  1  0.322923  0.822923  0.500000  1
