# generated using pymatgen
data_Tm2Cr3Co7Ni2As7
_symmetry_space_group_name_H-M   'P 1'
_cell_length_a   9.43282420
_cell_length_b   9.43540525
_cell_length_c   3.74560600
_cell_angle_alpha   90.00000000
_cell_angle_beta   90.00000000
_cell_angle_gamma   119.98504807
_symmetry_Int_Tables_number   1
_chemical_formula_structural   Tm2Cr3Co7Ni2As7
_chemical_formula_sum   'Tm2 Cr3 Co7 Ni2 As7'
_cell_volume   288.74896436
_cell_formula_units_Z   1
loop_
 _symmetry_equiv_pos_site_id
 _symmetry_equiv_pos_as_xyz
  1  'x, y, z'
loop_
 _atom_site_type_symbol
 _atom_site_label
 _atom_site_symmetry_multiplicity
 _atom_site_fract_x
 _atom_site_fract_y
 _atom_site_fract_z
 _atom_site_occupancy
  Tm  Tm0  1  0.000360  0.002076  0.000000  1
  Tm  Tm1  1  0.332244  0.664972  0.500000  1
  Cr  Cr2  1  0.888178  0.439786  0.500000  1
  Cr  Cr3  1  0.562587  0.448522  0.500000  1
  Cr  Cr4  1  0.551149  0.113794  0.500000  1
  Co  Co5  1  0.826462  0.615485  0.000000  1
  Co  Co6  1  0.385305  0.211710  0.000000  1
  Co  Co7  1  0.787763  0.173681  0.000000  1
  Co  Co8  1  0.052947  0.769012  0.500000  1
  Co  Co9  1  0.230470  0.281905  0.500000  1
  Co  Co10  1  0.718465  0.948012  0.500000  1
  Co  Co11  1  0.096416  0.394195  0.000000  1
  Ni  Ni12  1  0.604361  0.702076  0.000000  1
  Ni  Ni13  1  0.296150  0.900501  0.000000  1
  As  As14  1  0.667457  0.333936  0.000000  1
  As  As15  1  0.790697  0.745153  0.500000  1
  As  As16  1  0.255264  0.044273  0.500000  1
  As  As17  1  0.956717  0.214379  0.500000  1
  As  As18  1  0.078936  0.630253  0.000000  1
  As  As19  1  0.364201  0.446008  0.000000  1
  As  As20  1  0.553873  0.920271  0.000000  1
