# generated using pymatgen
data_Tb2Er6In3Co
_symmetry_space_group_name_H-M   'P 1'
_cell_length_a   10.31582700
_cell_length_b   10.31679738
_cell_length_c   6.96407301
_cell_angle_alpha   90.00540040
_cell_angle_beta   90.00000000
_cell_angle_gamma   119.99688542
_symmetry_Int_Tables_number   1
_chemical_formula_structural   Tb2Er6In3Co
_chemical_formula_sum   'Tb4 Er12 In6 Co2'
_cell_volume   641.88396319
_cell_formula_units_Z   2
loop_
 _symmetry_equiv_pos_site_id
 _symmetry_equiv_pos_as_xyz
  1  'x, y, z'
loop_
 _atom_site_type_symbol
 _atom_site_label
 _atom_site_symmetry_multiplicity
 _atom_site_fract_x
 _atom_site_fract_y
 _atom_site_fract_z
 _atom_site_occupancy
  Tb  Tb0  1  0.534225  0.068449  0.790870  1
  Tb  Tb1  1  0.931933  0.465991  0.791118  1
  Tb  Tb2  1  0.534058  0.465991  0.791118  1
  Tb  Tb3  1  0.465497  0.930994  0.290771  1
  Er  Er4  1  0.069405  0.534619  0.291414  1
  Er  Er5  1  0.465213  0.534619  0.291414  1
  Er  Er6  1  0.821755  0.643511  0.498887  1
  Er  Er7  1  0.356206  0.178527  0.499166  1
  Er  Er8  1  0.822321  0.178527  0.499166  1
  Er  Er9  1  0.178318  0.356635  0.000307  1
  Er  Er10  1  0.643736  0.821586  0.999895  1
  Er  Er11  1  0.177850  0.821586  0.999895  1
  Er  Er12  1  0.666908  0.333815  0.183497  1
  Er  Er13  1  0.333104  0.666209  0.682437  1
  Er  Er14  1  0.999971  0.999941  0.779420  1
  Er  Er15  1  0.000036  0.000073  0.279631  1
  In  In16  1  0.837353  0.674708  0.038987  1
  In  In17  1  0.325303  0.162675  0.038803  1
  In  In18  1  0.837371  0.162675  0.038803  1
  In  In19  1  0.163059  0.326117  0.537681  1
  In  In20  1  0.674331  0.836761  0.538221  1
  In  In21  1  0.162432  0.836761  0.538221  1
  Co  Co22  1  0.666667  0.333334  0.567750  1
  Co  Co23  1  0.332947  0.665895  0.068433  1
