# generated using pymatgen
data_AcPr(Sn2Ir)2
_symmetry_space_group_name_H-M   'P 1'
_cell_length_a   4.76299109
_cell_length_b   9.76666840
_cell_length_c   10.23220653
_cell_angle_alpha   118.50602996
_cell_angle_beta   103.45876023
_cell_angle_gamma   89.99999207
_symmetry_Int_Tables_number   1
_chemical_formula_structural   AcPr(Sn2Ir)2
_chemical_formula_sum   'Ac2 Pr2 Sn8 Ir4'
_cell_volume   403.34449381
_cell_formula_units_Z   2
loop_
 _symmetry_equiv_pos_site_id
 _symmetry_equiv_pos_as_xyz
  1  'x, y, z'
loop_
 _atom_site_type_symbol
 _atom_site_label
 _atom_site_symmetry_multiplicity
 _atom_site_fract_x
 _atom_site_fract_y
 _atom_site_fract_z
 _atom_site_occupancy
  Ac  Ac0  1  0.000000  0.261940  0.000000  1
  Ac  Ac1  1  0.000000  0.738060  0.000000  1
  Pr  Pr2  1  0.791738  0.291738  0.583477  1
  Pr  Pr3  1  0.208262  0.708262  0.416523  1
  Sn  Sn4  1  0.414257  0.914257  0.828516  1
  Sn  Sn5  1  0.585743  0.085743  0.171484  1
  Sn  Sn6  1  0.416314  0.416314  0.832628  1
  Sn  Sn7  1  0.583686  0.583686  0.167372  1
  Sn  Sn8  1  0.198479  0.038486  0.396958  1
  Sn  Sn9  1  0.801521  0.961514  0.603042  1
  Sn  Sn10  1  0.198479  0.358473  0.396958  1
  Sn  Sn11  1  0.801521  0.641527  0.603042  1
  Ir  Ir12  1  0.350753  0.100963  0.701505  1
  Ir  Ir13  1  0.649247  0.899037  0.298495  1
  Ir  Ir14  1  0.350753  0.600543  0.701505  1
  Ir  Ir15  1  0.649247  0.399457  0.298495  1
