# generated using pymatgen
data_Sc12InFe3Cu
_symmetry_space_group_name_H-M   'P 1'
_cell_length_a   7.71050879
_cell_length_b   7.71050853
_cell_length_c   7.71050835
_cell_angle_alpha   106.56660544
_cell_angle_beta   110.85818181
_cell_angle_gamma   111.02738445
_symmetry_Int_Tables_number   1
_chemical_formula_structural   Sc12InFe3Cu
_chemical_formula_sum   'Sc12 In1 Fe3 Cu1'
_cell_volume   352.20351279
_cell_formula_units_Z   1
loop_
 _symmetry_equiv_pos_site_id
 _symmetry_equiv_pos_as_xyz
  1  'x, y, z'
loop_
 _atom_site_type_symbol
 _atom_site_label
 _atom_site_symmetry_multiplicity
 _atom_site_fract_x
 _atom_site_fract_y
 _atom_site_fract_z
 _atom_site_occupancy
  Sc  Sc0  1  0.308395  0.306031  0.614426  1
  Sc  Sc1  1  0.691605  0.693969  0.385574  1
  Sc  Sc2  1  0.691605  0.306031  0.997635  1
  Sc  Sc3  1  0.308395  0.693969  0.002365  1
  Sc  Sc4  1  0.189146  0.414791  0.225644  1
  Sc  Sc5  1  0.810854  0.585209  0.774356  1
  Sc  Sc6  1  0.189146  0.963501  0.774356  1
  Sc  Sc7  1  0.934852  0.192212  0.742640  1
  Sc  Sc8  1  0.810854  0.036499  0.225644  1
  Sc  Sc9  1  0.065148  0.807788  0.257360  1
  Sc  Sc10  1  0.449572  0.192212  0.257360  1
  Sc  Sc11  1  0.550428  0.807788  0.742640  1
  In  In12  1  0.000000  0.500000  0.500000  1
  Fe  Fe13  1  0.375296  0.375296  0.000000  1
  Fe  Fe14  1  0.624704  0.624704  0.000000  1
  Fe  Fe15  1  0.000000  0.000000  0.000000  1
  Cu  Cu16  1  0.500000  0.000000  0.500000  1
