# generated using pymatgen
data_Ni3Ag4RuO8
_symmetry_space_group_name_H-M   'P 1'
_cell_length_a   5.29768159
_cell_length_b   6.13589829
_cell_length_c   7.17951269
_cell_angle_alpha   64.46515977
_cell_angle_beta   104.34651235
_cell_angle_gamma   90.03008755
_symmetry_Int_Tables_number   1
_chemical_formula_structural   Ni3Ag4RuO8
_chemical_formula_sum   'Ni3 Ag4 Ru1 O8'
_cell_volume   202.50142550
_cell_formula_units_Z   1
loop_
 _symmetry_equiv_pos_site_id
 _symmetry_equiv_pos_as_xyz
  1  'x, y, z'
loop_
 _atom_site_type_symbol
 _atom_site_label
 _atom_site_symmetry_multiplicity
 _atom_site_fract_x
 _atom_site_fract_y
 _atom_site_fract_z
 _atom_site_occupancy
  Ni  Ni0  1  0.000117  0.004824  0.500014  1
  Ni  Ni1  1  0.499998  0.249804  0.499992  1
  Ni  Ni2  1  0.999871  0.495641  0.499917  1
  Ag  Ag3  1  0.997764  0.001810  0.995823  1
  Ag  Ag4  1  0.499922  0.249889  0.000030  1
  Ag  Ag5  1  0.002225  0.498321  0.004123  1
  Ag  Ag6  1  0.500109  0.749896  0.000035  1
  Ru  Ru7  1  0.499991  0.749838  0.500063  1
  O  O8  1  0.880485  0.667221  0.664590  1
  O  O9  1  0.397311  0.904654  0.666268  1
  O  O10  1  0.883138  0.168614  0.661909  1
  O  O11  1  0.397168  0.427019  0.666108  1
  O  O12  1  0.119538  0.833121  0.335388  1
  O  O13  1  0.602900  0.072581  0.333936  1
  O  O14  1  0.116877  0.331810  0.338021  1
  O  O15  1  0.602590  0.594958  0.333784  1
