# generated using pymatgen
data_Zr9Ta(Ge3N)2
_symmetry_space_group_name_H-M   'P 1'
_cell_length_a   8.00006200
_cell_length_b   8.00006207
_cell_length_c   5.63229200
_cell_angle_alpha   90.00000000
_cell_angle_beta   90.00000000
_cell_angle_gamma   119.99999973
_symmetry_Int_Tables_number   1
_chemical_formula_structural   Zr9Ta(Ge3N)2
_chemical_formula_sum   'Zr9 Ta1 Ge6 N2'
_cell_volume   312.17815116
_cell_formula_units_Z   1
loop_
 _symmetry_equiv_pos_site_id
 _symmetry_equiv_pos_as_xyz
  1  'x, y, z'
loop_
 _atom_site_type_symbol
 _atom_site_label
 _atom_site_symmetry_multiplicity
 _atom_site_fract_x
 _atom_site_fract_y
 _atom_site_fract_z
 _atom_site_occupancy
  Zr  Zr0  1  0.233353  0.999220  0.249463  1
  Zr  Zr1  1  0.765867  0.999220  0.750537  1
  Zr  Zr2  1  0.000780  0.234133  0.249463  1
  Zr  Zr3  1  0.000780  0.766647  0.750537  1
  Zr  Zr4  1  0.765867  0.766647  0.249463  1
  Zr  Zr5  1  0.233353  0.234133  0.750537  1
  Zr  Zr6  1  0.666667  0.333333  0.000000  1
  Zr  Zr7  1  0.666667  0.333333  0.500000  1
  Zr  Zr8  1  0.333333  0.666667  0.500000  1
  Ta  Ta9  1  0.333333  0.666667  0.000000  1
  Ge  Ge10  1  0.593211  0.997285  0.245138  1
  Ge  Ge11  1  0.404075  0.997285  0.754862  1
  Ge  Ge12  1  0.002715  0.595925  0.245138  1
  Ge  Ge13  1  0.002715  0.406789  0.754862  1
  Ge  Ge14  1  0.404075  0.406789  0.245138  1
  Ge  Ge15  1  0.593211  0.595925  0.754862  1
  N  N16  1  0.000000  0.000000  0.000000  1
  N  N17  1  0.000000  0.000000  0.500000  1
