# generated using pymatgen
data_La8Tl3Fe
_symmetry_space_group_name_H-M   'P 1'
_cell_length_a   10.95913300
_cell_length_b   10.95171760
_cell_length_c   7.26856000
_cell_angle_alpha   90.00000000
_cell_angle_beta   90.00000000
_cell_angle_gamma   120.05747394
_symmetry_Int_Tables_number   1
_chemical_formula_structural   La8Tl3Fe
_chemical_formula_sum   'La16 Tl6 Fe2'
_cell_volume   755.06725125
_cell_formula_units_Z   2
loop_
 _symmetry_equiv_pos_site_id
 _symmetry_equiv_pos_as_xyz
  1  'x, y, z'
loop_
 _atom_site_type_symbol
 _atom_site_label
 _atom_site_symmetry_multiplicity
 _atom_site_fract_x
 _atom_site_fract_y
 _atom_site_fract_z
 _atom_site_occupancy
  La  La0  1  0.173059  0.826836  0.990029  1
  La  La1  1  0.346262  0.173347  0.490063  1
  La  La2  1  0.826813  0.653832  0.490078  1
  La  La3  1  0.173187  0.346168  0.990078  1
  La  La4  1  0.653738  0.826653  0.990063  1
  La  La5  1  0.826941  0.173164  0.490029  1
  La  La6  1  0.333284  0.666823  0.707886  1
  La  La7  1  0.666716  0.333177  0.207886  1
  La  La8  1  0.455132  0.544819  0.285009  1
  La  La9  1  0.910290  0.455120  0.784962  1
  La  La10  1  0.544895  0.089745  0.784952  1
  La  La11  1  0.455105  0.910255  0.284952  1
  La  La12  1  0.089710  0.544880  0.284962  1
  La  La13  1  0.544868  0.455181  0.785009  1
  La  La14  1  0.000003  0.000106  0.282928  1
  La  La15  1  0.999997  0.999894  0.782928  1
  Tl  Tl16  1  0.165409  0.834565  0.535801  1
  Tl  Tl17  1  0.331010  0.165548  0.035804  1
  Tl  Tl18  1  0.834528  0.669050  0.035787  1
  Tl  Tl19  1  0.165472  0.330950  0.535787  1
  Tl  Tl20  1  0.668990  0.834452  0.535804  1
  Tl  Tl21  1  0.834591  0.165435  0.035801  1
  Fe  Fe22  1  0.333300  0.666717  0.039700  1
  Fe  Fe23  1  0.666700  0.333283  0.539700  1
