# generated using pymatgen
data_Ce4VB16W3
_symmetry_space_group_name_H-M   'P 1'
_cell_length_a   3.67808800
_cell_length_b   6.05030069
_cell_length_c   11.70322329
_cell_angle_alpha   90.03998753
_cell_angle_beta   90.00000000
_cell_angle_gamma   90.00000000
_symmetry_Int_Tables_number   1
_chemical_formula_structural   Ce4VB16W3
_chemical_formula_sum   'Ce4 V1 B16 W3'
_cell_volume   260.43806481
_cell_formula_units_Z   1
loop_
 _symmetry_equiv_pos_site_id
 _symmetry_equiv_pos_as_xyz
  1  'x, y, z'
loop_
 _atom_site_type_symbol
 _atom_site_label
 _atom_site_symmetry_multiplicity
 _atom_site_fract_x
 _atom_site_fract_y
 _atom_site_fract_z
 _atom_site_occupancy
  Ce  Ce0  1  0.000000  0.625063  0.346414  1
  Ce  Ce1  1  0.000000  0.375092  0.651820  1
  Ce  Ce2  1  0.000000  0.123353  0.149371  1
  Ce  Ce3  1  0.000000  0.875032  0.851219  1
  V  V4  1  0.000000  0.628073  0.083615  1
  B  B5  1  0.500000  0.782460  0.183145  1
  B  B6  1  0.500000  0.215045  0.815557  1
  B  B7  1  0.500000  0.285244  0.313620  1
  B  B8  1  0.500000  0.714612  0.686025  1
  B  B9  1  0.500000  0.862066  0.033238  1
  B  B10  1  0.500000  0.136732  0.968185  1
  B  B11  1  0.500000  0.364370  0.467708  1
  B  B12  1  0.500000  0.635619  0.532078  1
  B  B13  1  0.500000  0.885563  0.452983  1
  B  B14  1  0.500000  0.114047  0.546748  1
  B  B15  1  0.500000  0.388496  0.047207  1
  B  B16  1  0.500000  0.614328  0.955043  1
  B  B17  1  0.500000  0.973713  0.307516  1
  B  B18  1  0.500000  0.026036  0.692132  1
  B  B19  1  0.500000  0.476782  0.190389  1
  B  B20  1  0.500000  0.525528  0.809362  1
  W  W21  1  0.000000  0.372924  0.916702  1
  W  W22  1  0.000000  0.131217  0.414153  1
  W  W23  1  0.000000  0.868604  0.585770  1
