# generated using pymatgen
data_NaU(ReH9)2
_symmetry_space_group_name_H-M   'P 1'
_cell_length_a   5.01208813
_cell_length_b   5.01207131
_cell_length_c   8.68508800
_cell_angle_alpha   90.68494949
_cell_angle_beta   89.31315504
_cell_angle_gamma   120.82828989
_symmetry_Int_Tables_number   1
_chemical_formula_structural   NaU(ReH9)2
_chemical_formula_sum   'Na1 U1 Re2 H18'
_cell_volume   187.33287525
_cell_formula_units_Z   1
loop_
 _symmetry_equiv_pos_site_id
 _symmetry_equiv_pos_as_xyz
  1  'x, y, z'
loop_
 _atom_site_type_symbol
 _atom_site_label
 _atom_site_symmetry_multiplicity
 _atom_site_fract_x
 _atom_site_fract_y
 _atom_site_fract_z
 _atom_site_occupancy
  Na  Na0  1  0.000000  0.000000  0.000000  1
  U  U1  1  0.000000  0.000000  0.500000  1
  Re  Re2  1  0.326834  0.673116  0.733721  1
  Re  Re3  1  0.673166  0.326884  0.266279  1
  H  H4  1  0.418610  0.581371  0.558108  1
  H  H5  1  0.581390  0.418629  0.441892  1
  H  H6  1  0.415895  0.584055  0.902613  1
  H  H7  1  0.584105  0.415945  0.097387  1
  H  H8  1  0.496161  0.974638  0.858435  1
  H  H9  1  0.974691  0.496221  0.141562  1
  H  H10  1  0.508389  0.009289  0.628091  1
  H  H11  1  0.009324  0.508438  0.371907  1
  H  H12  1  0.503839  0.025362  0.141565  1
  H  H13  1  0.025309  0.503779  0.858438  1
  H  H14  1  0.491611  0.990711  0.371909  1
  H  H15  1  0.990676  0.491562  0.628093  1
  H  H16  1  0.710555  0.774081  0.739072  1
  H  H17  1  0.774109  0.710598  0.260928  1
  H  H18  1  0.289445  0.225919  0.260928  1
  H  H19  1  0.225891  0.289402  0.739072  1
  H  H20  1  0.135567  0.864368  0.754108  1
  H  H21  1  0.864433  0.135632  0.245892  1
