# generated using pymatgen
data_Mg6Ta6Ru7Rh5
_symmetry_space_group_name_H-M   'P 1'
_cell_length_a   4.45520900
_cell_length_b   6.26914812
_cell_length_c   13.28879326
_cell_angle_alpha   90.02264670
_cell_angle_beta   90.00010318
_cell_angle_gamma   90.00002199
_symmetry_Int_Tables_number   1
_chemical_formula_structural   Mg6Ta6Ru7Rh5
_chemical_formula_sum   'Mg6 Ta6 Ru7 Rh5'
_cell_volume   371.16081898
_cell_formula_units_Z   1
loop_
 _symmetry_equiv_pos_site_id
 _symmetry_equiv_pos_as_xyz
  1  'x, y, z'
loop_
 _atom_site_type_symbol
 _atom_site_label
 _atom_site_symmetry_multiplicity
 _atom_site_fract_x
 _atom_site_fract_y
 _atom_site_fract_z
 _atom_site_occupancy
  Mg  Mg0  1  0.999998  0.499712  0.999909  1
  Mg  Mg1  1  0.499992  0.001478  0.166679  1
  Mg  Mg2  1  0.999992  0.498058  0.333715  1
  Mg  Mg3  1  0.500000  0.000846  0.500324  1
  Mg  Mg4  1  0.999998  0.499936  0.666654  1
  Mg  Mg5  1  0.500007  0.999942  0.832879  1
  Ta  Ta6  1  0.000001  0.000484  0.994260  1
  Ta  Ta7  1  0.499989  0.503029  0.168849  1
  Ta  Ta8  1  0.999996  0.993768  0.338793  1
  Ta  Ta9  1  0.500000  0.502439  0.502956  1
  Ta  Ta10  1  0.000007  0.000683  0.666423  1
  Ta  Ta11  1  0.500009  0.499797  0.828491  1
  Ru  Ru12  1  0.499995  0.749990  0.331037  1
  Ru  Ru13  1  0.999999  0.249890  0.498779  1
  Ru  Ru14  1  0.000000  0.749634  0.498695  1
  Ru  Ru15  1  0.500011  0.250222  0.667060  1
  Ru  Ru16  1  0.500007  0.750187  0.667075  1
  Ru  Ru17  1  0.000013  0.249889  0.835329  1
  Ru  Ru18  1  0.000012  0.750121  0.835495  1
  Rh  Rh19  1  0.499998  0.248582  0.001555  1
  Rh  Rh20  1  0.500000  0.751554  0.001752  1
  Rh  Rh21  1  0.999988  0.251998  0.166056  1
  Rh  Rh22  1  0.999991  0.748240  0.165899  1
  Rh  Rh23  1  0.499993  0.249527  0.331337  1
