# generated using pymatgen
data_Nb6Co4ReMoC2
_symmetry_space_group_name_H-M   'P 1'
_cell_length_a   8.17245935
_cell_length_b   8.15050804
_cell_length_c   8.17186939
_cell_angle_alpha   60.11564394
_cell_angle_beta   60.21786190
_cell_angle_gamma   60.11611405
_symmetry_Int_Tables_number   1
_chemical_formula_structural   Nb6Co4ReMoC2
_chemical_formula_sum   'Nb12 Co8 Re2 Mo2 C4'
_cell_volume   386.20224180
_cell_formula_units_Z   2
loop_
 _symmetry_equiv_pos_site_id
 _symmetry_equiv_pos_as_xyz
  1  'x, y, z'
loop_
 _atom_site_type_symbol
 _atom_site_label
 _atom_site_symmetry_multiplicity
 _atom_site_fract_x
 _atom_site_fract_y
 _atom_site_fract_z
 _atom_site_occupancy
  Nb  Nb0  1  0.693616  0.306486  0.693541  1
  Nb  Nb1  1  0.941851  0.556866  0.559134  1
  Nb  Nb2  1  0.558949  0.942193  0.941850  1
  Nb  Nb3  1  0.940171  0.559578  0.940205  1
  Nb  Nb4  1  0.559126  0.556900  0.941842  1
  Nb  Nb5  1  0.941888  0.942203  0.558946  1
  Nb  Nb6  1  0.690874  0.693100  0.308158  1
  Nb  Nb7  1  0.308149  0.693134  0.690866  1
  Nb  Nb8  1  0.691051  0.307807  0.308150  1
  Nb  Nb9  1  0.308112  0.307797  0.691054  1
  Nb  Nb10  1  0.556384  0.943514  0.556459  1
  Nb  Nb11  1  0.309829  0.690422  0.309795  1
  Co  Co12  1  0.326704  0.325374  0.326700  1
  Co  Co13  1  0.230167  0.923719  0.922588  1
  Co  Co14  1  0.923327  0.228878  0.923301  1
  Co  Co15  1  0.922570  0.923733  0.230150  1
  Co  Co16  1  0.326673  0.021122  0.326699  1
  Co  Co17  1  0.327430  0.326267  0.019850  1
  Co  Co18  1  0.019833  0.326281  0.327412  1
  Co  Co19  1  0.923296  0.924626  0.923300  1
  Re  Re20  1  0.625000  0.125000  0.125000  1
  Re  Re21  1  0.125000  0.125000  0.625000  1
  Mo  Mo22  1  0.125000  0.125000  0.125000  1
  Mo  Mo23  1  0.125000  0.625000  0.125000  1
  C  C24  1  0.625000  0.625000  0.625000  1
  C  C25  1  0.125000  0.625000  0.625000  1
  C  C26  1  0.625000  0.125000  0.625000  1
  C  C27  1  0.625000  0.625000  0.125000  1
