# generated using pymatgen
data_CeNd2Sn3IrRh2
_symmetry_space_group_name_H-M   'P 1'
_cell_length_a   7.64699071
_cell_length_b   7.56034187
_cell_length_c   4.05273300
_cell_angle_alpha   90.00000000
_cell_angle_beta   90.00000000
_cell_angle_gamma   120.33049879
_symmetry_Int_Tables_number   1
_chemical_formula_structural   CeNd2Sn3IrRh2
_chemical_formula_sum   'Ce1 Nd2 Sn3 Ir1 Rh2'
_cell_volume   202.23421071
_cell_formula_units_Z   1
loop_
 _symmetry_equiv_pos_site_id
 _symmetry_equiv_pos_as_xyz
  1  'x, y, z'
loop_
 _atom_site_type_symbol
 _atom_site_label
 _atom_site_symmetry_multiplicity
 _atom_site_fract_x
 _atom_site_fract_y
 _atom_site_fract_z
 _atom_site_occupancy
  Ce  Ce0  1  0.416117  0.001364  0.000000  1
  Nd  Nd1  1  0.997293  0.409707  0.000000  1
  Nd  Nd2  1  0.589215  0.588949  0.000000  1
  Sn  Sn3  1  0.253265  0.258367  0.500000  1
  Sn  Sn4  1  0.995689  0.742043  0.500000  1
  Sn  Sn5  1  0.752534  0.999000  0.500000  1
  Ir  Ir6  1  0.648731  0.310754  0.500000  1
  Rh  Rh7  1  0.337799  0.689323  0.500000  1
  Rh  Rh8  1  0.009358  0.000492  0.000000  1
