# generated using pymatgen
data_Dy2ErIn3HgRu2
_symmetry_space_group_name_H-M   'P 1'
_cell_length_a   8.04204801
_cell_length_b   8.03742138
_cell_length_c   3.56513600
_cell_angle_alpha   90.00000000
_cell_angle_beta   90.00000000
_cell_angle_gamma   120.11902459
_symmetry_Int_Tables_number   1
_chemical_formula_structural   Dy2ErIn3HgRu2
_chemical_formula_sum   'Dy2 Er1 In3 Hg1 Ru2'
_cell_volume   199.32785924
_cell_formula_units_Z   1
loop_
 _symmetry_equiv_pos_site_id
 _symmetry_equiv_pos_as_xyz
  1  'x, y, z'
loop_
 _atom_site_type_symbol
 _atom_site_label
 _atom_site_symmetry_multiplicity
 _atom_site_fract_x
 _atom_site_fract_y
 _atom_site_fract_z
 _atom_site_occupancy
  Dy  Dy0  1  0.625656  0.033168  0.500000  1
  Dy  Dy1  1  0.408335  0.374111  0.500000  1
  Er  Er2  1  0.965523  0.593073  0.500000  1
  In  In3  1  0.731399  0.732761  0.000000  1
  In  In4  1  0.001822  0.269328  0.000000  1
  In  In5  1  0.266629  0.997787  0.000000  1
  Hg  Hg6  1  0.331713  0.665683  0.000000  1
  Ru  Ru7  1  0.668722  0.334589  0.000000  1
  Ru  Ru8  1  0.000202  0.999501  0.500000  1
