# generated using pymatgen
data_ThMn4(AlRe)4
_symmetry_space_group_name_H-M   'P 1'
_cell_length_a   4.92202117
_cell_length_b   6.77828933
_cell_length_c   6.77829054
_cell_angle_alpha   82.42513681
_cell_angle_beta   68.71098893
_cell_angle_gamma   68.71099302
_symmetry_Int_Tables_number   1
_chemical_formula_structural   ThMn4(AlRe)4
_chemical_formula_sum   'Th1 Mn4 Al4 Re4'
_cell_volume   196.33273492
_cell_formula_units_Z   1
loop_
 _symmetry_equiv_pos_site_id
 _symmetry_equiv_pos_as_xyz
  1  'x, y, z'
loop_
 _atom_site_type_symbol
 _atom_site_label
 _atom_site_symmetry_multiplicity
 _atom_site_fract_x
 _atom_site_fract_y
 _atom_site_fract_z
 _atom_site_occupancy
  Th  Th0  1  0.000000  0.000000  0.000000  1
  Mn  Mn1  1  0.000000  0.000000  0.500000  1
  Mn  Mn2  1  0.500000  0.000000  0.500000  1
  Mn  Mn3  1  0.500000  0.500000  0.000000  1
  Mn  Mn4  1  0.000000  0.500000  0.000000  1
  Al  Al5  1  0.500000  0.770045  0.229955  1
  Al  Al6  1  0.500000  0.229955  0.770045  1
  Al  Al7  1  0.729955  0.770045  0.770045  1
  Al  Al8  1  0.270045  0.229955  0.229955  1
  Re  Re9  1  0.000000  0.356810  0.643190  1
  Re  Re10  1  0.000000  0.643190  0.356810  1
  Re  Re11  1  0.643190  0.356810  0.356810  1
  Re  Re12  1  0.356810  0.643190  0.643190  1
