# generated using pymatgen
data_Y8Be4Si11Au
_symmetry_space_group_name_H-M   'P 1'
_cell_length_a   7.93655400
_cell_length_b   7.91578335
_cell_length_c   8.11940601
_cell_angle_alpha   90.00452246
_cell_angle_beta   90.00000000
_cell_angle_gamma   120.08683771
_symmetry_Int_Tables_number   1
_chemical_formula_structural   Y8Be4Si11Au
_chemical_formula_sum   'Y8 Be4 Si11 Au1'
_cell_volume   441.36722027
_cell_formula_units_Z   1
loop_
 _symmetry_equiv_pos_site_id
 _symmetry_equiv_pos_as_xyz
  1  'x, y, z'
loop_
 _atom_site_type_symbol
 _atom_site_label
 _atom_site_symmetry_multiplicity
 _atom_site_fract_x
 _atom_site_fract_y
 _atom_site_fract_z
 _atom_site_occupancy
  Y  Y0  1  0.998251  0.996501  0.253547  1
  Y  Y1  1  0.998253  0.996507  0.746449  1
  Y  Y2  1  0.998356  0.502005  0.252449  1
  Y  Y3  1  0.503650  0.502005  0.252449  1
  Y  Y4  1  0.500322  0.000645  0.750032  1
  Y  Y5  1  0.500422  0.000842  0.249955  1
  Y  Y6  1  0.503559  0.502170  0.747550  1
  Y  Y7  1  0.998611  0.502170  0.747550  1
  Be  Be8  1  0.335853  0.671707  0.999372  1
  Be  Be9  1  0.333624  0.667250  0.500637  1
  Be  Be10  1  0.664773  0.329545  0.000564  1
  Be  Be11  1  0.666368  0.332734  0.499393  1
  Si  Si12  1  0.653234  0.828758  0.000044  1
  Si  Si13  1  0.172319  0.344638  0.499944  1
  Si  Si14  1  0.346039  0.170140  0.999987  1
  Si  Si15  1  0.175524  0.828758  0.000044  1
  Si  Si16  1  0.654703  0.827835  0.499939  1
  Si  Si17  1  0.827936  0.655872  0.999967  1
  Si  Si18  1  0.345514  0.172773  0.500050  1
  Si  Si19  1  0.173133  0.827835  0.499939  1
  Si  Si20  1  0.827232  0.654463  0.500056  1
  Si  Si21  1  0.824102  0.170140  0.999987  1
  Si  Si22  1  0.827259  0.172773  0.500050  1
  Au  Au23  1  0.170966  0.341932  0.000044  1
