# generated using pymatgen
data_TaHg4Sb3O14
_symmetry_space_group_name_H-M   'P 1'
_cell_length_a   7.44589096
_cell_length_b   7.44589124
_cell_length_c   7.49074996
_cell_angle_alpha   60.19790822
_cell_angle_beta   60.19791047
_cell_angle_gamma   60.00000153
_symmetry_Int_Tables_number   1
_chemical_formula_structural   TaHg4Sb3O14
_chemical_formula_sum   'Ta1 Hg4 Sb3 O14'
_cell_volume   294.53462673
_cell_formula_units_Z   1
loop_
 _symmetry_equiv_pos_site_id
 _symmetry_equiv_pos_as_xyz
  1  'x, y, z'
loop_
 _atom_site_type_symbol
 _atom_site_label
 _atom_site_symmetry_multiplicity
 _atom_site_fract_x
 _atom_site_fract_y
 _atom_site_fract_z
 _atom_site_occupancy
  Ta  Ta0  1  0.125000  0.125000  0.625000  1
  Hg  Hg1  1  0.625000  0.625000  0.625000  1
  Hg  Hg2  1  0.625000  0.125000  0.625000  1
  Hg  Hg3  1  0.625000  0.625000  0.125000  1
  Hg  Hg4  1  0.125000  0.625000  0.625000  1
  Sb  Sb5  1  0.125000  0.625000  0.125000  1
  Sb  Sb6  1  0.125000  0.125000  0.125000  1
  Sb  Sb7  1  0.625000  0.125000  0.125000  1
  O  O8  1  0.802494  0.802494  0.197730  1
  O  O9  1  0.809859  0.189342  0.811457  1
  O  O10  1  0.060658  0.060658  0.438543  1
  O  O11  1  0.802494  0.197282  0.197730  1
  O  O12  1  0.447506  0.447506  0.052270  1
  O  O13  1  0.052718  0.447506  0.052270  1
  O  O14  1  0.189342  0.809859  0.811457  1
  O  O15  1  0.440141  0.060658  0.438543  1
  O  O16  1  0.497889  0.497889  0.506332  1
  O  O17  1  0.197282  0.802494  0.197730  1
  O  O18  1  0.189342  0.189342  0.811457  1
  O  O19  1  0.752111  0.752111  0.743668  1
  O  O20  1  0.447506  0.052718  0.052270  1
  O  O21  1  0.060658  0.440141  0.438543  1
