# generated using pymatgen
data_CrGa3F12
_symmetry_space_group_name_H-M   'P 1'
_cell_length_a   7.22082981
_cell_length_b   7.22082863
_cell_length_c   7.25180501
_cell_angle_alpha   60.14119013
_cell_angle_beta   60.14119896
_cell_angle_gamma   59.99998607
_symmetry_Int_Tables_number   1
_chemical_formula_structural   CrGa3F12
_chemical_formula_sum   'Cr1 Ga3 F12'
_cell_volume   267.93458989
_cell_formula_units_Z   1
loop_
 _symmetry_equiv_pos_site_id
 _symmetry_equiv_pos_as_xyz
  1  'x, y, z'
loop_
 _atom_site_type_symbol
 _atom_site_label
 _atom_site_symmetry_multiplicity
 _atom_site_fract_x
 _atom_site_fract_y
 _atom_site_fract_z
 _atom_site_occupancy
  Cr  Cr0  1  0.000000  0.000000  0.499999  1
  Ga  Ga1  1  0.000000  0.000000  0.000000  1
  Ga  Ga2  1  0.499999  0.000000  0.000000  1
  Ga  Ga3  1  0.000000  0.499999  0.000000  1
  F  F4  1  0.686021  0.064203  0.063757  1
  F  F5  1  0.064203  0.686021  0.063757  1
  F  F6  1  0.686021  0.686021  0.063757  1
  F  F7  1  0.934961  0.317824  0.312254  1
  F  F8  1  0.317824  0.934961  0.312254  1
  F  F9  1  0.934962  0.934962  0.312254  1
  F  F10  1  0.682176  0.065039  0.687747  1
  F  F11  1  0.065039  0.682176  0.687747  1
  F  F12  1  0.065039  0.065039  0.687747  1
  F  F13  1  0.313979  0.313979  0.936243  1
  F  F14  1  0.935797  0.313980  0.936244  1
  F  F15  1  0.313980  0.935797  0.936244  1
