# generated using pymatgen
data_Rb2Na2Zr6NiBr18
_symmetry_space_group_name_H-M   'P 1'
_cell_length_a   10.53101237
_cell_length_b   10.58936149
_cell_length_c   10.64628005
_cell_angle_alpha   119.37902815
_cell_angle_beta   101.60695878
_cell_angle_gamma   100.84847194
_symmetry_Int_Tables_number   1
_chemical_formula_structural   Rb2Na2Zr6NiBr18
_chemical_formula_sum   'Rb2 Na2 Zr6 Ni1 Br18'
_cell_volume   954.42992695
_cell_formula_units_Z   1
loop_
 _symmetry_equiv_pos_site_id
 _symmetry_equiv_pos_as_xyz
  1  'x, y, z'
loop_
 _atom_site_type_symbol
 _atom_site_label
 _atom_site_symmetry_multiplicity
 _atom_site_fract_x
 _atom_site_fract_y
 _atom_site_fract_z
 _atom_site_occupancy
  Rb  Rb0  1  0.683718  0.227971  0.551115  1
  Rb  Rb1  1  0.316282  0.772029  0.448885  1
  Na  Na2  1  0.615791  0.528274  0.202052  1
  Na  Na3  1  0.384209  0.471726  0.797948  1
  Zr  Zr4  1  0.153397  0.070137  0.253991  1
  Zr  Zr5  1  0.846603  0.929863  0.746009  1
  Zr  Zr6  1  0.857948  0.151654  0.133312  1
  Zr  Zr7  1  0.142052  0.848346  0.866688  1
  Zr  Zr8  1  0.148091  0.235169  0.029354  1
  Zr  Zr9  1  0.851909  0.764831  0.970646  1
  Ni  Ni10  1  0.000000  0.000000  0.000000  1
  Br  Br11  1  0.010360  0.420126  0.178666  1
  Br  Br12  1  0.989640  0.579874  0.821334  1
  Br  Br13  1  0.327355  0.333142  0.308767  1
  Br  Br14  1  0.672645  0.666858  0.691233  1
  Br  Br15  1  0.328411  0.501107  0.071056  1
  Br  Br16  1  0.671589  0.498893  0.928944  1
  Br  Br17  1  0.007837  0.818968  0.241469  1
  Br  Br18  1  0.992163  0.181032  0.758531  1
  Br  Br19  1  0.702273  0.321198  0.278577  1
  Br  Br20  1  0.297727  0.678802  0.721423  1
  Br  Br21  1  0.315025  0.092875  0.891825  1
  Br  Br22  1  0.684975  0.907125  0.108175  1
  Br  Br23  1  0.012661  0.237530  0.418966  1
  Br  Br24  1  0.987339  0.762470  0.581034  1
  Br  Br25  1  0.323481  0.919785  0.133608  1
  Br  Br26  1  0.676519  0.080215  0.866392  1
  Br  Br27  1  0.334544  0.154249  0.538315  1
  Br  Br28  1  0.665456  0.845751  0.461685  1
