# generated using pymatgen
data_Ho2Al3Pt4
_symmetry_space_group_name_H-M   'P 1'
_cell_length_a   8.11232544
_cell_length_b   8.11232559
_cell_length_c   7.64394400
_cell_angle_alpha   90.00000000
_cell_angle_beta   90.00000000
_cell_angle_gamma   139.93720599
_symmetry_Int_Tables_number   1
_chemical_formula_structural   Ho2Al3Pt4
_chemical_formula_sum   'Ho4 Al6 Pt8'
_cell_volume   323.77427529
_cell_formula_units_Z   2
loop_
 _symmetry_equiv_pos_site_id
 _symmetry_equiv_pos_as_xyz
  1  'x, y, z'
loop_
 _atom_site_type_symbol
 _atom_site_label
 _atom_site_symmetry_multiplicity
 _atom_site_fract_x
 _atom_site_fract_y
 _atom_site_fract_z
 _atom_site_occupancy
  Ho  Ho0  1  0.107064  0.892936  0.408234  1
  Ho  Ho1  1  0.892936  0.107064  0.591766  1
  Ho  Ho2  1  0.392936  0.607064  0.908234  1
  Ho  Ho3  1  0.607064  0.392936  0.091766  1
  Al  Al4  1  0.000000  0.000000  0.000000  1
  Al  Al5  1  0.500000  0.500000  0.500000  1
  Al  Al6  1  0.023653  0.476347  0.250000  1
  Al  Al7  1  0.476347  0.023653  0.750000  1
  Al  Al8  1  0.976347  0.523653  0.750000  1
  Al  Al9  1  0.523653  0.976347  0.250000  1
  Pt  Pt10  1  0.192176  0.307824  0.250000  1
  Pt  Pt11  1  0.307824  0.192176  0.750000  1
  Pt  Pt12  1  0.807824  0.692176  0.750000  1
  Pt  Pt13  1  0.692176  0.807824  0.250000  1
  Pt  Pt14  1  0.184892  0.815108  0.029022  1
  Pt  Pt15  1  0.815108  0.184892  0.970978  1
  Pt  Pt16  1  0.315108  0.684892  0.529022  1
  Pt  Pt17  1  0.684892  0.315108  0.470978  1
