# generated using pymatgen
data_Hf4Nb2Si3P
_symmetry_space_group_name_H-M   'P 1'
_cell_length_a   6.79714314
_cell_length_b   6.79714292
_cell_length_c   3.71320300
_cell_angle_alpha   90.00000000
_cell_angle_beta   90.00000000
_cell_angle_gamma   89.35447269
_symmetry_Int_Tables_number   1
_chemical_formula_structural   Hf4Nb2Si3P
_chemical_formula_sum   'Hf4 Nb2 Si3 P1'
_cell_volume   171.54337331
_cell_formula_units_Z   1
loop_
 _symmetry_equiv_pos_site_id
 _symmetry_equiv_pos_as_xyz
  1  'x, y, z'
loop_
 _atom_site_type_symbol
 _atom_site_label
 _atom_site_symmetry_multiplicity
 _atom_site_fract_x
 _atom_site_fract_y
 _atom_site_fract_z
 _atom_site_occupancy
  Hf  Hf0  1  0.829214  0.673290  0.500000  1
  Hf  Hf1  1  0.323617  0.823617  0.500000  1
  Hf  Hf2  1  0.173290  0.329214  0.500000  1
  Hf  Hf3  1  0.673967  0.173967  0.500000  1
  Nb  Nb4  1  0.499116  0.501862  0.000000  1
  Nb  Nb5  1  0.001862  0.999116  0.000000  1
  Si  Si6  1  0.626083  0.874468  0.000000  1
  Si  Si7  1  0.374468  0.126083  0.000000  1
  Si  Si8  1  0.871608  0.371608  0.000000  1
  P  P9  1  0.126774  0.626774  0.000000  1
