# generated using pymatgen
data_NpAl6Cu7
_symmetry_space_group_name_H-M   'P 1'
_cell_length_a   8.35805754
_cell_length_b   8.35805720
_cell_length_c   8.35805719
_cell_angle_alpha   122.32162482
_cell_angle_beta   118.05014358
_cell_angle_gamma   89.71836598
_symmetry_Int_Tables_number   1
_chemical_formula_structural   NpAl6Cu7
_chemical_formula_sum   'Np2 Al12 Cu14'
_cell_volume   410.97328076
_cell_formula_units_Z   2
loop_
 _symmetry_equiv_pos_site_id
 _symmetry_equiv_pos_as_xyz
  1  'x, y, z'
loop_
 _atom_site_type_symbol
 _atom_site_label
 _atom_site_symmetry_multiplicity
 _atom_site_fract_x
 _atom_site_fract_y
 _atom_site_fract_z
 _atom_site_occupancy
  Np  Np0  1  0.250000  0.750000  0.500000  1
  Np  Np1  1  0.750000  0.250000  0.500000  1
  Al  Al2  1  0.555205  0.545820  0.359782  1
  Al  Al3  1  0.444795  0.454180  0.640218  1
  Al  Al4  1  0.186038  0.195423  0.640218  1
  Al  Al5  1  0.313962  0.954180  0.009384  1
  Al  Al6  1  0.813962  0.804577  0.359782  1
  Al  Al7  1  0.686038  0.045820  0.990616  1
  Al  Al8  1  0.944795  0.304577  0.990616  1
  Al  Al9  1  0.055205  0.695423  0.009384  1
  Al  Al10  1  0.050033  0.314698  0.364732  1
  Al  Al11  1  0.949967  0.685302  0.635268  1
  Al  Al12  1  0.550033  0.185302  0.735334  1
  Al  Al13  1  0.449967  0.814698  0.264666  1
  Cu  Cu14  1  0.283741  0.299308  0.232232  1
  Cu  Cu15  1  0.716259  0.700692  0.767768  1
  Cu  Cu16  1  0.067075  0.051509  0.767768  1
  Cu  Cu17  1  0.432925  0.200692  0.984433  1
  Cu  Cu18  1  0.932925  0.948491  0.232232  1
  Cu  Cu19  1  0.567075  0.799308  0.015567  1
  Cu  Cu20  1  0.216259  0.448491  0.015567  1
  Cu  Cu21  1  0.783741  0.551509  0.984433  1
  Cu  Cu22  1  0.000000  0.000000  0.000000  1
  Cu  Cu23  1  0.500000  0.500000  0.000000  1
  Cu  Cu24  1  0.284356  0.066039  0.350396  1
  Cu  Cu25  1  0.715644  0.933961  0.649604  1
  Cu  Cu26  1  0.784356  0.433961  0.218317  1
  Cu  Cu27  1  0.215644  0.566039  0.781683  1
