# generated using pymatgen
data_Pr3Sm(CI)2
_symmetry_space_group_name_H-M   'P 1'
_cell_length_a   3.89337900
_cell_length_b   3.89337915
_cell_length_c   15.64604700
_cell_angle_alpha   90.00000000
_cell_angle_beta   90.00000000
_cell_angle_gamma   120.00000726
_symmetry_Int_Tables_number   1
_chemical_formula_structural   Pr3Sm(CI)2
_chemical_formula_sum   'Pr3 Sm1 C2 I2'
_cell_volume   205.39440580
_cell_formula_units_Z   1
loop_
 _symmetry_equiv_pos_site_id
 _symmetry_equiv_pos_as_xyz
  1  'x, y, z'
loop_
 _atom_site_type_symbol
 _atom_site_label
 _atom_site_symmetry_multiplicity
 _atom_site_fract_x
 _atom_site_fract_y
 _atom_site_fract_z
 _atom_site_occupancy
  Pr  Pr0  1  0.333333  0.666667  0.589470  1
  Pr  Pr1  1  0.666667  0.333333  0.413292  1
  Pr  Pr2  1  0.666667  0.333333  0.084672  1
  Sm  Sm3  1  0.333333  0.666667  0.912973  1
  C  C4  1  0.000000  0.000000  0.994331  1
  C  C5  1  0.000000  0.000000  0.501542  1
  I  I6  1  0.333333  0.666667  0.248069  1
  I  I7  1  0.666667  0.333333  0.755650  1
