# generated using pymatgen
data_Ta4Ti2VH16
_symmetry_space_group_name_H-M   'P 1'
_cell_length_a   6.25275725
_cell_length_b   6.25275722
_cell_length_c   6.20137000
_cell_angle_alpha   60.27148982
_cell_angle_beta   60.27148996
_cell_angle_gamma   59.45702757
_symmetry_Int_Tables_number   1
_chemical_formula_structural   Ta4Ti2VH16
_chemical_formula_sum   'Ta4 Ti2 V1 H16'
_cell_volume   171.41846985
_cell_formula_units_Z   1
loop_
 _symmetry_equiv_pos_site_id
 _symmetry_equiv_pos_as_xyz
  1  'x, y, z'
loop_
 _atom_site_type_symbol
 _atom_site_label
 _atom_site_symmetry_multiplicity
 _atom_site_fract_x
 _atom_site_fract_y
 _atom_site_fract_z
 _atom_site_occupancy
  Ta  Ta0  1  0.500000  0.000000  0.500000  1
  Ta  Ta1  1  0.000000  0.500000  0.500000  1
  Ta  Ta2  1  0.000000  0.500000  0.000000  1
  Ta  Ta3  1  0.500000  0.000000  0.000000  1
  Ti  Ti4  1  0.000000  0.000000  0.500000  1
  Ti  Ti5  1  0.500000  0.500000  0.000000  1
  V  V6  1  0.000000  0.000000  0.000000  1
  H  H7  1  0.882061  0.882061  0.362277  1
  H  H8  1  0.873600  0.362277  0.882061  1
  H  H9  1  0.362277  0.873600  0.882061  1
  H  H10  1  0.882061  0.882061  0.873600  1
  H  H11  1  0.117939  0.117939  0.637723  1
  H  H12  1  0.126400  0.637723  0.117939  1
  H  H13  1  0.637723  0.126400  0.117939  1
  H  H14  1  0.117939  0.117939  0.126400  1
  H  H15  1  0.618704  0.618704  0.142303  1
  H  H16  1  0.620288  0.142303  0.618704  1
  H  H17  1  0.142303  0.620288  0.618704  1
  H  H18  1  0.618704  0.618704  0.620288  1
  H  H19  1  0.381296  0.381296  0.857697  1
  H  H20  1  0.379712  0.857697  0.381296  1
  H  H21  1  0.857697  0.379712  0.381296  1
  H  H22  1  0.381296  0.381296  0.379712  1
