# generated using pymatgen
data_Tb5Ce3(ReB6)4
_symmetry_space_group_name_H-M   'P 1'
_cell_length_a   3.73301400
_cell_length_b   9.22986036
_cell_length_c   11.61105698
_cell_angle_alpha   90.08202375
_cell_angle_beta   90.00000000
_cell_angle_gamma   90.00000000
_symmetry_Int_Tables_number   1
_chemical_formula_structural   Tb5Ce3(ReB6)4
_chemical_formula_sum   'Tb5 Ce3 Re4 B24'
_cell_volume   400.06085662
_cell_formula_units_Z   1
loop_
 _symmetry_equiv_pos_site_id
 _symmetry_equiv_pos_as_xyz
  1  'x, y, z'
loop_
 _atom_site_type_symbol
 _atom_site_label
 _atom_site_symmetry_multiplicity
 _atom_site_fract_x
 _atom_site_fract_y
 _atom_site_fract_z
 _atom_site_occupancy
  Tb  Tb0  1  0.000000  0.176766  0.913716  1
  Tb  Tb1  1  0.000000  0.944472  0.372670  1
  Tb  Tb2  1  0.000000  0.056165  0.628146  1
  Tb  Tb3  1  0.000000  0.443005  0.127875  1
  Tb  Tb4  1  0.000000  0.556085  0.871718  1
  Ce  Ce5  1  0.000000  0.322355  0.414228  1
  Ce  Ce6  1  0.000000  0.677319  0.586427  1
  Ce  Ce7  1  0.000000  0.824154  0.085849  1
  Re  Re8  1  0.000000  0.638438  0.321204  1
  Re  Re9  1  0.000000  0.362711  0.677773  1
  Re  Re10  1  0.000000  0.138357  0.179290  1
  Re  Re11  1  0.000000  0.861028  0.821299  1
  B  B12  1  0.500000  0.554359  0.431618  1
  B  B13  1  0.500000  0.445697  0.568282  1
  B  B14  1  0.500000  0.053947  0.067650  1
  B  B15  1  0.500000  0.945985  0.932343  1
  B  B16  1  0.500000  0.747974  0.418477  1
  B  B17  1  0.500000  0.251691  0.581825  1
  B  B18  1  0.500000  0.247896  0.080946  1
  B  B19  1  0.500000  0.752368  0.918420  1
  B  B20  1  0.500000  0.791209  0.266207  1
  B  B21  1  0.500000  0.208254  0.733980  1
  B  B22  1  0.500000  0.290967  0.233244  1
  B  B23  1  0.500000  0.708946  0.766381  1
  B  B24  1  0.500000  0.631920  0.186159  1
  B  B25  1  0.500000  0.367833  0.814073  1
  B  B26  1  0.500000  0.132237  0.313629  1
  B  B27  1  0.500000  0.868193  0.686662  1
  B  B28  1  0.500000  0.984457  0.212185  1
  B  B29  1  0.500000  0.016651  0.787581  1
  B  B30  1  0.500000  0.484168  0.287269  1
  B  B31  1  0.500000  0.515618  0.712807  1
  B  B32  1  0.500000  0.604870  0.029238  1
  B  B33  1  0.500000  0.393831  0.970158  1
  B  B34  1  0.500000  0.108341  0.470179  1
  B  B35  1  0.500000  0.891732  0.530494  1
