# generated using pymatgen
data_Ho4Sc4Ti11Si16Pt
_symmetry_space_group_name_H-M   'P 1'
_cell_length_a   6.95040402
_cell_length_b   6.96064109
_cell_length_c   12.69227546
_cell_angle_alpha   90.12859815
_cell_angle_beta   89.82955681
_cell_angle_gamma   89.64743946
_symmetry_Int_Tables_number   1
_chemical_formula_structural   Ho4Sc4Ti11Si16Pt
_chemical_formula_sum   'Ho4 Sc4 Ti11 Si16 Pt1'
_cell_volume   614.02707950
_cell_formula_units_Z   1
loop_
 _symmetry_equiv_pos_site_id
 _symmetry_equiv_pos_as_xyz
  1  'x, y, z'
loop_
 _atom_site_type_symbol
 _atom_site_label
 _atom_site_symmetry_multiplicity
 _atom_site_fract_x
 _atom_site_fract_y
 _atom_site_fract_z
 _atom_site_occupancy
  Ho  Ho0  1  0.159153  0.501591  0.784826  1
  Ho  Ho1  1  0.657267  0.998973  0.969979  1
  Ho  Ho2  1  0.005801  0.339814  0.531567  1
  Ho  Ho3  1  0.998289  0.655915  0.032405  1
  Sc  Sc4  1  0.344273  0.000511  0.465202  1
  Sc  Sc5  1  0.500124  0.844509  0.716205  1
  Sc  Sc6  1  0.500640  0.155509  0.217085  1
  Sc  Sc7  1  0.843755  0.499160  0.283349  1
  Ti  Ti8  1  0.176225  0.826854  0.249140  1
  Ti  Ti9  1  0.825292  0.174061  0.750330  1
  Ti  Ti10  1  0.672475  0.674250  0.498675  1
  Ti  Ti11  1  0.148615  0.002594  0.874506  1
  Ti  Ti12  1  0.493209  0.653533  0.125118  1
  Ti  Ti13  1  0.503714  0.351074  0.624183  1
  Ti  Ti14  1  0.651239  0.494049  0.876926  1
  Ti  Ti15  1  0.354106  0.507988  0.372834  1
  Ti  Ti16  1  0.851440  0.995622  0.373831  1
  Ti  Ti17  1  0.000221  0.149346  0.127677  1
  Ti  Ti18  1  0.991883  0.851519  0.623379  1
  Si  Si19  1  0.208008  0.128922  0.681760  1
  Si  Si20  1  0.372835  0.716643  0.928775  1
  Si  Si21  1  0.632636  0.292137  0.427763  1
  Si  Si22  1  0.706273  0.369020  0.074772  1
  Si  Si23  1  0.297801  0.641383  0.567873  1
  Si  Si24  1  0.793266  0.864857  0.184602  1
  Si  Si25  1  0.140508  0.201284  0.317887  1
  Si  Si26  1  0.861525  0.797473  0.815117  1
  Si  Si27  1  0.287659  0.951887  0.065959  1
  Si  Si28  1  0.546800  0.797191  0.315767  1
  Si  Si29  1  0.452301  0.203553  0.812943  1
  Si  Si30  1  0.788570  0.549045  0.684527  1
  Si  Si31  1  0.207961  0.447118  0.187190  1
  Si  Si32  1  0.700311  0.046218  0.564315  1
  Si  Si33  1  0.944817  0.285846  0.936531  1
  Si  Si34  1  0.049286  0.708228  0.433031  1
  Pt  Pt35  1  0.331723  0.322322  0.003968  1
