# generated using pymatgen
data_Tb8Ti10NbSi16Ru
_symmetry_space_group_name_H-M   'P 1'
_cell_length_a   7.05975614
_cell_length_b   7.05571851
_cell_length_c   12.95881210
_cell_angle_alpha   90.11264781
_cell_angle_beta   89.92858849
_cell_angle_gamma   89.84640219
_symmetry_Int_Tables_number   1
_chemical_formula_structural   Tb8Ti10NbSi16Ru
_chemical_formula_sum   'Tb8 Ti10 Nb1 Si16 Ru1'
_cell_volume   645.49576705
_cell_formula_units_Z   1
loop_
 _symmetry_equiv_pos_site_id
 _symmetry_equiv_pos_as_xyz
  1  'x, y, z'
loop_
 _atom_site_type_symbol
 _atom_site_label
 _atom_site_symmetry_multiplicity
 _atom_site_fract_x
 _atom_site_fract_y
 _atom_site_fract_z
 _atom_site_occupancy
  Tb  Tb0  1  0.340425  0.003934  0.467349  1
  Tb  Tb1  1  0.496805  0.840762  0.718018  1
  Tb  Tb2  1  0.500548  0.159121  0.215239  1
  Tb  Tb3  1  0.841430  0.497217  0.281940  1
  Tb  Tb4  1  0.159494  0.500790  0.784805  1
  Tb  Tb5  1  0.658502  0.998645  0.968269  1
  Tb  Tb6  1  0.004198  0.339867  0.532760  1
  Tb  Tb7  1  0.998529  0.658535  0.031631  1
  Ti  Ti8  1  0.827262  0.174651  0.751583  1
  Ti  Ti9  1  0.673760  0.674003  0.500110  1
  Ti  Ti10  1  0.151140  0.004453  0.875938  1
  Ti  Ti11  1  0.491480  0.657305  0.126087  1
  Ti  Ti12  1  0.507717  0.347940  0.628110  1
  Ti  Ti13  1  0.656711  0.492179  0.874343  1
  Ti  Ti14  1  0.347183  0.508844  0.371339  1
  Ti  Ti15  1  0.848116  0.992787  0.374798  1
  Ti  Ti16  1  0.004174  0.149777  0.124509  1
  Ti  Ti17  1  0.993427  0.847617  0.624686  1
  Nb  Nb18  1  0.174769  0.827154  0.248445  1
  Si  Si19  1  0.201959  0.130499  0.685990  1
  Si  Si20  1  0.373990  0.698953  0.934524  1
  Si  Si21  1  0.630135  0.297241  0.435191  1
  Si  Si22  1  0.698854  0.373878  0.064930  1
  Si  Si23  1  0.297217  0.629645  0.565049  1
  Si  Si24  1  0.796382  0.869841  0.184483  1
  Si  Si25  1  0.130767  0.203059  0.314546  1
  Si  Si26  1  0.869805  0.797033  0.815365  1
  Si  Si27  1  0.287592  0.954613  0.062647  1
  Si  Si28  1  0.548040  0.791738  0.315996  1
  Si  Si29  1  0.449978  0.209850  0.818329  1
  Si  Si30  1  0.791656  0.547255  0.684393  1
  Si  Si31  1  0.209700  0.449017  0.181835  1
  Si  Si32  1  0.709164  0.047838  0.565834  1
  Si  Si33  1  0.953088  0.286636  0.935494  1
  Si  Si34  1  0.047169  0.708221  0.435409  1
  Ru  Ru35  1  0.328834  0.329102  0.000026  1
