# generated using pymatgen
data_Zr6Al6SiNi16
_symmetry_space_group_name_H-M   'P 1'
_cell_length_a   8.24668440
_cell_length_b   8.24668364
_cell_length_c   8.26183500
_cell_angle_alpha   59.93920105
_cell_angle_beta   59.93920409
_cell_angle_gamma   60.17470665
_symmetry_Int_Tables_number   1
_chemical_formula_structural   Zr6Al6SiNi16
_chemical_formula_sum   'Zr6 Al6 Si1 Ni16'
_cell_volume   397.45649617
_cell_formula_units_Z   1
loop_
 _symmetry_equiv_pos_site_id
 _symmetry_equiv_pos_as_xyz
  1  'x, y, z'
loop_
 _atom_site_type_symbol
 _atom_site_label
 _atom_site_symmetry_multiplicity
 _atom_site_fract_x
 _atom_site_fract_y
 _atom_site_fract_z
 _atom_site_occupancy
  Zr  Zr0  1  0.792774  0.207226  0.794473  1
  Zr  Zr1  1  0.792899  0.792899  0.207101  1
  Zr  Zr2  1  0.207226  0.792774  0.794473  1
  Zr  Zr3  1  0.207101  0.207101  0.792899  1
  Zr  Zr4  1  0.792774  0.207226  0.205527  1
  Zr  Zr5  1  0.207226  0.792774  0.205527  1
  Al  Al6  1  0.000000  0.500000  0.000000  1
  Al  Al7  1  0.500000  0.500000  0.500000  1
  Al  Al8  1  0.500000  0.000000  0.500000  1
  Al  Al9  1  0.000000  0.500000  0.500000  1
  Al  Al10  1  0.000000  0.000000  0.500000  1
  Al  Al11  1  0.500000  0.000000  0.000000  1
  Si  Si12  1  0.500000  0.500000  0.000000  1
  Ni  Ni13  1  0.169183  0.169183  0.168755  1
  Ni  Ni14  1  0.618957  0.618957  0.138784  1
  Ni  Ni15  1  0.381043  0.381043  0.376700  1
  Ni  Ni16  1  0.175482  0.492349  0.166084  1
  Ni  Ni17  1  0.169183  0.169183  0.492879  1
  Ni  Ni18  1  0.137734  0.620270  0.620997  1
  Ni  Ni19  1  0.620270  0.137734  0.620997  1
  Ni  Ni20  1  0.830817  0.830817  0.831245  1
  Ni  Ni21  1  0.862266  0.379730  0.379003  1
  Ni  Ni22  1  0.381043  0.381043  0.861216  1
  Ni  Ni23  1  0.379730  0.862266  0.379003  1
  Ni  Ni24  1  0.507651  0.824518  0.833916  1
  Ni  Ni25  1  0.618957  0.618957  0.623300  1
  Ni  Ni26  1  0.830817  0.830817  0.507121  1
  Ni  Ni27  1  0.492349  0.175482  0.166084  1
  Ni  Ni28  1  0.824518  0.507651  0.833916  1
