# generated using pymatgen
data_Y3Hf3Sc2(Ni4As3)4
_symmetry_space_group_name_H-M   'P 1'
_cell_length_a   12.71385426
_cell_length_b   12.70070733
_cell_length_c   3.87354900
_cell_angle_alpha   90.00000000
_cell_angle_beta   90.00000000
_cell_angle_gamma   119.96580144
_symmetry_Int_Tables_number   1
_chemical_formula_structural   Y3Hf3Sc2(Ni4As3)4
_chemical_formula_sum   'Y3 Hf3 Sc2 Ni16 As12'
_cell_volume   541.86909374
_cell_formula_units_Z   1
loop_
 _symmetry_equiv_pos_site_id
 _symmetry_equiv_pos_as_xyz
  1  'x, y, z'
loop_
 _atom_site_type_symbol
 _atom_site_label
 _atom_site_symmetry_multiplicity
 _atom_site_fract_x
 _atom_site_fract_y
 _atom_site_fract_z
 _atom_site_occupancy
  Y  Y0  1  0.000000  0.817195  0.500000  1
  Y  Y1  1  0.332589  0.666265  0.000000  1
  Y  Y2  1  0.667411  0.333675  0.000000  1
  Hf  Hf3  1  0.562409  0.562710  0.000000  1
  Hf  Hf4  1  0.437591  0.000300  0.000000  1
  Hf  Hf5  1  0.000000  0.434899  0.000000  1
  Sc  Sc6  1  0.185044  0.185190  0.500000  1
  Sc  Sc7  1  0.814956  0.000146  0.500000  1
  Ni  Ni8  1  0.722677  0.724615  0.500000  1
  Ni  Ni9  1  0.277323  0.001938  0.500000  1
  Ni  Ni10  1  0.000000  0.273601  0.500000  1
  Ni  Ni11  1  0.179933  0.371517  0.000000  1
  Ni  Ni12  1  0.626060  0.807937  0.000000  1
  Ni  Ni13  1  0.193611  0.819955  0.000000  1
  Ni  Ni14  1  0.806389  0.626343  0.000000  1
  Ni  Ni15  1  0.820067  0.191584  0.000000  1
  Ni  Ni16  1  0.373940  0.181877  0.000000  1
  Ni  Ni17  1  0.362818  0.481823  0.500000  1
  Ni  Ni18  1  0.517649  0.880805  0.500000  1
  Ni  Ni19  1  0.120221  0.636355  0.500000  1
  Ni  Ni20  1  0.879779  0.516132  0.500000  1
  Ni  Ni21  1  0.637182  0.119004  0.500000  1
  Ni  Ni22  1  0.482351  0.363154  0.500000  1
  Ni  Ni23  1  0.000000  0.001369  0.000000  1
  As  As24  1  0.822027  0.826426  0.000000  1
  As  As25  1  0.177973  0.004399  0.000000  1
  As  As26  1  0.000000  0.175328  0.000000  1
  As  As27  1  0.171883  0.477686  0.500000  1
  As  As28  1  0.520050  0.692825  0.500000  1
  As  As29  1  0.306532  0.828336  0.500000  1
  As  As30  1  0.693468  0.521803  0.500000  1
  As  As31  1  0.828117  0.305802  0.500000  1
  As  As32  1  0.479950  0.172774  0.500000  1
  As  As33  1  0.351872  0.352201  0.000000  1
  As  As34  1  0.648128  0.000330  0.000000  1
  As  As35  1  0.000000  0.643702  0.000000  1
