# generated using pymatgen
data_Th5HgBiPb2
_symmetry_space_group_name_H-M   'P 1'
_cell_length_a   9.74693965
_cell_length_b   9.68882028
_cell_length_c   6.70251900
_cell_angle_alpha   90.00000000
_cell_angle_beta   90.00000000
_cell_angle_gamma   119.80295192
_symmetry_Int_Tables_number   1
_chemical_formula_structural   Th5HgBiPb2
_chemical_formula_sum   'Th10 Hg2 Bi2 Pb4'
_cell_volume   549.24583475
_cell_formula_units_Z   2
loop_
 _symmetry_equiv_pos_site_id
 _symmetry_equiv_pos_as_xyz
  1  'x, y, z'
loop_
 _atom_site_type_symbol
 _atom_site_label
 _atom_site_symmetry_multiplicity
 _atom_site_fract_x
 _atom_site_fract_y
 _atom_site_fract_z
 _atom_site_occupancy
  Th  Th0  1  0.667552  0.334653  0.501630  1
  Th  Th1  1  0.332448  0.667102  0.501630  1
  Th  Th2  1  0.332448  0.667102  0.998370  1
  Th  Th3  1  0.667552  0.334653  0.998370  1
  Th  Th4  1  0.724100  0.724949  0.250000  1
  Th  Th5  1  0.275900  0.000849  0.250000  1
  Th  Th6  1  0.000000  0.275366  0.250000  1
  Th  Th7  1  0.278287  0.275841  0.750000  1
  Th  Th8  1  0.721713  0.997554  0.750000  1
  Th  Th9  1  0.000000  0.722550  0.750000  1
  Hg  Hg10  1  0.000000  0.999839  0.501779  1
  Hg  Hg11  1  0.000000  0.999839  0.998221  1
  Bi  Bi12  1  0.381261  0.381724  0.250000  1
  Bi  Bi13  1  0.618739  0.000463  0.250000  1
  Pb  Pb14  1  0.000000  0.621675  0.250000  1
  Pb  Pb15  1  0.620579  0.619610  0.750000  1
  Pb  Pb16  1  0.379421  0.999031  0.750000  1
  Pb  Pb17  1  0.000000  0.377202  0.750000  1
