# generated using pymatgen
data_TbHo2Er5(CdPt)2
_symmetry_space_group_name_H-M   'P 1'
_cell_length_a   9.63351959
_cell_length_b   9.63351965
_cell_length_c   9.62981600
_cell_angle_alpha   60.01271684
_cell_angle_beta   60.01271662
_cell_angle_gamma   59.97455843
_symmetry_Int_Tables_number   1
_chemical_formula_structural   TbHo2Er5(CdPt)2
_chemical_formula_sum   'Tb2 Ho4 Er10 Cd4 Pt4'
_cell_volume   631.93558037
_cell_formula_units_Z   2
loop_
 _symmetry_equiv_pos_site_id
 _symmetry_equiv_pos_as_xyz
  1  'x, y, z'
loop_
 _atom_site_type_symbol
 _atom_site_label
 _atom_site_symmetry_multiplicity
 _atom_site_fract_x
 _atom_site_fract_y
 _atom_site_fract_z
 _atom_site_occupancy
  Tb  Tb0  1  0.564725  0.564725  0.935275  1
  Tb  Tb1  1  0.935275  0.935275  0.564725  1
  Ho  Ho2  1  0.935852  0.564148  0.564148  1
  Ho  Ho3  1  0.564148  0.935852  0.935852  1
  Ho  Ho4  1  0.564148  0.935852  0.564148  1
  Ho  Ho5  1  0.935852  0.564148  0.935852  1
  Er  Er6  1  0.351904  0.351904  0.352221  1
  Er  Er7  1  0.351904  0.351904  0.943971  1
  Er  Er8  1  0.352221  0.943971  0.351904  1
  Er  Er9  1  0.943971  0.352221  0.351904  1
  Er  Er10  1  0.810669  0.189331  0.189331  1
  Er  Er11  1  0.189331  0.810669  0.810669  1
  Er  Er12  1  0.189331  0.810669  0.189331  1
  Er  Er13  1  0.810669  0.189331  0.810669  1
  Er  Er14  1  0.189345  0.189345  0.810655  1
  Er  Er15  1  0.810655  0.810655  0.189345  1
  Cd  Cd16  1  0.581581  0.581581  0.581415  1
  Cd  Cd17  1  0.581581  0.581581  0.255422  1
  Cd  Cd18  1  0.581415  0.255422  0.581581  1
  Cd  Cd19  1  0.255422  0.581415  0.581581  1
  Pt  Pt20  1  0.143354  0.143354  0.142903  1
  Pt  Pt21  1  0.143354  0.143354  0.570388  1
  Pt  Pt22  1  0.142903  0.570388  0.143354  1
  Pt  Pt23  1  0.570388  0.142903  0.143354  1
