# generated using pymatgen
data_Ba2DyHoF10
_symmetry_space_group_name_H-M   'P 1'
_cell_length_a   8.44972398
_cell_length_b   8.44972288
_cell_length_c   5.94477300
_cell_angle_alpha   89.28678741
_cell_angle_beta   89.28677953
_cell_angle_gamma   149.38320598
_symmetry_Int_Tables_number   1
_chemical_formula_structural   Ba2DyHoF10
_chemical_formula_sum   'Ba2 Dy1 Ho1 F10'
_cell_volume   215.92619057
_cell_formula_units_Z   1
loop_
 _symmetry_equiv_pos_site_id
 _symmetry_equiv_pos_as_xyz
  1  'x, y, z'
loop_
 _atom_site_type_symbol
 _atom_site_label
 _atom_site_symmetry_multiplicity
 _atom_site_fract_x
 _atom_site_fract_y
 _atom_site_fract_z
 _atom_site_occupancy
  Ba  Ba0  1  0.327465  0.672535  0.750000  1
  Ba  Ba1  1  0.672584  0.327416  0.250000  1
  Dy  Dy2  1  0.073399  0.926601  0.750000  1
  Ho  Ho3  1  0.926579  0.073421  0.250000  1
  F  F4  1  0.739194  0.808180  0.591296  1
  F  F5  1  0.807852  0.739919  0.092962  1
  F  F6  1  0.804834  0.170922  0.012561  1
  F  F7  1  0.617499  0.382501  0.750000  1
  F  F8  1  0.829078  0.195166  0.487439  1
  F  F9  1  0.171328  0.804455  0.511683  1
  F  F10  1  0.382741  0.617259  0.250000  1
  F  F11  1  0.195545  0.828672  0.988317  1
  F  F12  1  0.191820  0.260806  0.908704  1
  F  F13  1  0.260081  0.192148  0.407038  1
