# generated using pymatgen
data_Li2Cr(NiP)3
_symmetry_space_group_name_H-M   'P 1'
_cell_length_a   6.00213400
_cell_length_b   5.82620763
_cell_length_c   3.54597700
_cell_angle_alpha   90.00000000
_cell_angle_beta   90.00000000
_cell_angle_gamma   121.00409856
_symmetry_Int_Tables_number   1
_chemical_formula_structural   Li2Cr(NiP)3
_chemical_formula_sum   'Li2 Cr1 Ni3 P3'
_cell_volume   106.28561398
_cell_formula_units_Z   1
loop_
 _symmetry_equiv_pos_site_id
 _symmetry_equiv_pos_as_xyz
  1  'x, y, z'
loop_
 _atom_site_type_symbol
 _atom_site_label
 _atom_site_symmetry_multiplicity
 _atom_site_fract_x
 _atom_site_fract_y
 _atom_site_fract_z
 _atom_site_occupancy
  Li  Li0  1  0.996421  0.415472  0.500000  1
  Li  Li1  1  0.580946  0.584526  0.500000  1
  Cr  Cr2  1  0.409597  0.999993  0.500000  1
  Ni  Ni3  1  0.994801  0.742836  0.000000  1
  Ni  Ni4  1  0.251968  0.257168  0.000000  1
  Ni  Ni5  1  0.761309  0.999999  0.000000  1
  P  P6  1  0.336719  0.683520  0.000000  1
  P  P7  1  0.653200  0.316484  0.000000  1
  P  P8  1  0.015039  0.000003  0.500000  1
