# generated using pymatgen
data_Er4Sc6Si20Ir3Pt5
_symmetry_space_group_name_H-M   'P 1'
_cell_length_a   12.50213045
_cell_length_b   12.48025479
_cell_length_c   4.17907800
_cell_angle_alpha   90.00000000
_cell_angle_beta   90.00000000
_cell_angle_gamma   89.96054450
_symmetry_Int_Tables_number   1
_chemical_formula_structural   Er4Sc6Si20Ir3Pt5
_chemical_formula_sum   'Er4 Sc6 Si20 Ir3 Pt5'
_cell_volume   652.06043891
_cell_formula_units_Z   1
loop_
 _symmetry_equiv_pos_site_id
 _symmetry_equiv_pos_as_xyz
  1  'x, y, z'
loop_
 _atom_site_type_symbol
 _atom_site_label
 _atom_site_symmetry_multiplicity
 _atom_site_fract_x
 _atom_site_fract_y
 _atom_site_fract_z
 _atom_site_occupancy
  Er  Er0  1  0.886903  0.385846  0.500000  1
  Er  Er1  1  0.112546  0.614545  0.500000  1
  Er  Er2  1  0.387186  0.114288  0.500000  1
  Er  Er3  1  0.614043  0.886474  0.500000  1
  Sc  Sc4  1  0.500245  0.495317  0.000000  1
  Sc  Sc5  1  0.000015  0.000909  0.000000  1
  Sc  Sc6  1  0.674249  0.175505  0.500000  1
  Sc  Sc7  1  0.325468  0.824612  0.500000  1
  Sc  Sc8  1  0.173555  0.325195  0.500000  1
  Sc  Sc9  1  0.826170  0.675550  0.500000  1
  Si  Si10  1  0.565491  0.068308  0.000000  1
  Si  Si11  1  0.435238  0.933966  0.000000  1
  Si  Si12  1  0.064576  0.432023  0.000000  1
  Si  Si13  1  0.935188  0.568344  0.000000  1
  Si  Si14  1  0.666884  0.704341  0.000000  1
  Si  Si15  1  0.335613  0.295852  0.000000  1
  Si  Si16  1  0.162853  0.798057  0.000000  1
  Si  Si17  1  0.836254  0.204129  0.000000  1
  Si  Si18  1  0.296105  0.666835  0.000000  1
  Si  Si19  1  0.700092  0.333279  0.000000  1
  Si  Si20  1  0.199730  0.166528  0.000000  1
  Si  Si21  1  0.800826  0.835143  0.000000  1
  Si  Si22  1  0.647849  0.507468  0.500000  1
  Si  Si23  1  0.352060  0.491830  0.500000  1
  Si  Si24  1  0.148191  0.991180  0.500000  1
  Si  Si25  1  0.852290  0.008406  0.500000  1
  Si  Si26  1  0.492324  0.646077  0.500000  1
  Si  Si27  1  0.507912  0.348124  0.500000  1
  Si  Si28  1  0.008061  0.151081  0.500000  1
  Si  Si29  1  0.991906  0.849671  0.500000  1
  Ir  Ir30  1  0.521824  0.257201  0.000000  1
  Ir  Ir31  1  0.022063  0.242952  0.000000  1
  Ir  Ir32  1  0.977671  0.757706  0.000000  1
  Pt  Pt33  1  0.742808  0.522171  0.000000  1
  Pt  Pt34  1  0.257007  0.478379  0.000000  1
  Pt  Pt35  1  0.243708  0.978230  0.000000  1
  Pt  Pt36  1  0.757040  0.022500  0.000000  1
  Pt  Pt37  1  0.478053  0.741981  0.000000  1
