# generated using pymatgen
data_Tb4Al4PdRh3
_symmetry_space_group_name_H-M   'P 1'
_cell_length_a   4.29049400
_cell_length_b   6.91727298
_cell_length_c   7.93524405
_cell_angle_alpha   89.94003780
_cell_angle_beta   90.00000000
_cell_angle_gamma   90.00000000
_symmetry_Int_Tables_number   1
_chemical_formula_structural   Tb4Al4PdRh3
_chemical_formula_sum   'Tb4 Al4 Pd1 Rh3'
_cell_volume   235.50615610
_cell_formula_units_Z   1
loop_
 _symmetry_equiv_pos_site_id
 _symmetry_equiv_pos_as_xyz
  1  'x, y, z'
loop_
 _atom_site_type_symbol
 _atom_site_label
 _atom_site_symmetry_multiplicity
 _atom_site_fract_x
 _atom_site_fract_y
 _atom_site_fract_z
 _atom_site_occupancy
  Tb  Tb0  1  0.250000  0.530591  0.815535  1
  Tb  Tb1  1  0.750000  0.460650  0.181547  1
  Tb  Tb2  1  0.250000  0.033237  0.680594  1
  Tb  Tb3  1  0.750000  0.969474  0.322535  1
  Al  Al4  1  0.250000  0.636287  0.439115  1
  Al  Al5  1  0.750000  0.361793  0.562970  1
  Al  Al6  1  0.250000  0.143104  0.062769  1
  Al  Al7  1  0.750000  0.863009  0.934428  1
  Pd  Pd8  1  0.250000  0.770663  0.117835  1
  Rh  Rh9  1  0.750000  0.732398  0.616300  1
  Rh  Rh10  1  0.250000  0.266240  0.382419  1
  Rh  Rh11  1  0.750000  0.232555  0.883953  1
