# generated using pymatgen
data_Dy20Bi11Sb
_symmetry_space_group_name_H-M   'P 1'
_cell_length_a   8.24525735
_cell_length_b   9.52915100
_cell_length_c   12.04680751
_cell_angle_alpha   90.00000000
_cell_angle_beta   90.03324368
_cell_angle_gamma   90.00000000
_symmetry_Int_Tables_number   1
_chemical_formula_structural   Dy20Bi11Sb
_chemical_formula_sum   'Dy20 Bi11 Sb1'
_cell_volume   946.52114817
_cell_formula_units_Z   1
loop_
 _symmetry_equiv_pos_site_id
 _symmetry_equiv_pos_as_xyz
  1  'x, y, z'
loop_
 _atom_site_type_symbol
 _atom_site_label
 _atom_site_symmetry_multiplicity
 _atom_site_fract_x
 _atom_site_fract_y
 _atom_site_fract_z
 _atom_site_occupancy
  Dy  Dy0  1  0.353088  0.750000  0.212692  1
  Dy  Dy1  1  0.852494  0.750000  0.284366  1
  Dy  Dy2  1  0.647635  0.250000  0.784454  1
  Dy  Dy3  1  0.147616  0.250000  0.715602  1
  Dy  Dy4  1  0.690134  0.565739  0.057419  1
  Dy  Dy5  1  0.192656  0.936190  0.441426  1
  Dy  Dy6  1  0.308500  0.060245  0.941603  1
  Dy  Dy7  1  0.807353  0.436371  0.558496  1
  Dy  Dy8  1  0.308500  0.439755  0.941603  1
  Dy  Dy9  1  0.807353  0.063629  0.558496  1
  Dy  Dy10  1  0.690134  0.934261  0.057419  1
  Dy  Dy11  1  0.192656  0.563810  0.441426  1
  Dy  Dy12  1  0.475016  0.250000  0.487979  1
  Dy  Dy13  1  0.975395  0.250000  0.011832  1
  Dy  Dy14  1  0.525107  0.750000  0.512086  1
  Dy  Dy15  1  0.028295  0.750000  0.987808  1
  Dy  Dy16  1  0.312841  0.250000  0.218843  1
  Dy  Dy17  1  0.812699  0.250000  0.281223  1
  Dy  Dy18  1  0.683500  0.750000  0.783474  1
  Dy  Dy19  1  0.188593  0.750000  0.720259  1
  Bi  Bi20  1  0.907632  0.750000  0.543343  1
  Bi  Bi21  1  0.592834  0.250000  0.043064  1
  Bi  Bi22  1  0.092690  0.250000  0.457025  1
  Bi  Bi23  1  0.565202  0.995428  0.325345  1
  Bi  Bi24  1  0.065170  0.504370  0.174498  1
  Bi  Bi25  1  0.434745  0.495440  0.674557  1
  Bi  Bi26  1  0.934571  0.004284  0.825451  1
  Bi  Bi27  1  0.434745  0.004560  0.674557  1
  Bi  Bi28  1  0.934571  0.495716  0.825451  1
  Bi  Bi29  1  0.565202  0.504572  0.325345  1
  Bi  Bi30  1  0.065170  0.995630  0.174498  1
  Sb  Sb31  1  0.407906  0.750000  0.958359  1
