# generated using pymatgen
data_Nd5P12Ru18Rh
_symmetry_space_group_name_H-M   'P 1'
_cell_length_a   12.65381405
_cell_length_b   12.60445332
_cell_length_c   4.02088000
_cell_angle_alpha   90.00000000
_cell_angle_beta   90.00000000
_cell_angle_gamma   119.87105104
_symmetry_Int_Tables_number   1
_chemical_formula_structural   Nd5P12Ru18Rh
_chemical_formula_sum   'Nd5 P12 Ru18 Rh1'
_cell_volume   556.10916472
_cell_formula_units_Z   1
loop_
 _symmetry_equiv_pos_site_id
 _symmetry_equiv_pos_as_xyz
  1  'x, y, z'
loop_
 _atom_site_type_symbol
 _atom_site_label
 _atom_site_symmetry_multiplicity
 _atom_site_fract_x
 _atom_site_fract_y
 _atom_site_fract_z
 _atom_site_occupancy
  Nd  Nd0  1  0.000000  0.183304  0.500000  1
  Nd  Nd1  1  0.815582  0.815804  0.500000  1
  Nd  Nd2  1  0.184418  0.000222  0.500000  1
  Nd  Nd3  1  0.665377  0.332474  0.000000  1
  Nd  Nd4  1  0.334623  0.667098  0.000000  1
  P  P5  1  0.000000  0.811863  0.000000  1
  P  P6  1  0.187123  0.187235  0.000000  1
  P  P7  1  0.812877  0.000112  0.000000  1
  P  P8  1  0.694347  0.171506  0.500000  1
  P  P9  1  0.825091  0.523241  0.500000  1
  P  P10  1  0.475466  0.304695  0.500000  1
  P  P11  1  0.174909  0.698150  0.500000  1
  P  P12  1  0.524534  0.829229  0.500000  1
  P  P13  1  0.305653  0.477159  0.500000  1
  P  P14  1  0.000000  0.371708  0.000000  1
  P  P15  1  0.625436  0.625468  0.000000  1
  P  P16  1  0.374564  0.000033  0.000000  1
  Ru  Ru17  1  0.445302  0.445675  0.000000  1
  Ru  Ru18  1  0.554698  0.000373  0.000000  1
  Ru  Ru19  1  0.000000  0.713077  0.500000  1
  Ru  Ru20  1  0.284828  0.285336  0.500000  1
  Ru  Ru21  1  0.715172  0.000508  0.500000  1
  Ru  Ru22  1  0.806050  0.185158  0.000000  1
  Ru  Ru23  1  0.815359  0.621717  0.000000  1
  Ru  Ru24  1  0.377892  0.193722  0.000000  1
  Ru  Ru25  1  0.184641  0.806358  0.000000  1
  Ru  Ru26  1  0.622108  0.815831  0.000000  1
  Ru  Ru27  1  0.193950  0.379107  0.000000  1
  Ru  Ru28  1  0.875716  0.367343  0.500000  1
  Ru  Ru29  1  0.632072  0.508492  0.500000  1
  Ru  Ru30  1  0.491411  0.124400  0.500000  1
  Ru  Ru31  1  0.367928  0.876420  0.500000  1
  Ru  Ru32  1  0.508589  0.632990  0.500000  1
  Ru  Ru33  1  0.124284  0.491627  0.500000  1
  Ru  Ru34  1  0.000000  0.999551  0.000000  1
  Rh  Rh35  1  0.000000  0.553013  0.000000  1
