# generated using pymatgen
data_CaYbSi4RuPt3
_symmetry_space_group_name_H-M   'P 1'
_cell_length_a   4.17442800
_cell_length_b   4.17895100
_cell_length_c   9.98990800
_cell_angle_alpha   90.00000000
_cell_angle_beta   90.00000000
_cell_angle_gamma   90.00000000
_symmetry_Int_Tables_number   1
_chemical_formula_structural   CaYbSi4RuPt3
_chemical_formula_sum   'Ca1 Yb1 Si4 Ru1 Pt3'
_cell_volume   174.27124843
_cell_formula_units_Z   1
loop_
 _symmetry_equiv_pos_site_id
 _symmetry_equiv_pos_as_xyz
  1  'x, y, z'
loop_
 _atom_site_type_symbol
 _atom_site_label
 _atom_site_symmetry_multiplicity
 _atom_site_fract_x
 _atom_site_fract_y
 _atom_site_fract_z
 _atom_site_occupancy
  Ca  Ca0  1  0.500000  0.000000  0.253455  1
  Yb  Yb1  1  0.000000  0.500000  0.748761  1
  Si  Si2  1  0.000000  0.500000  0.125952  1
  Si  Si3  1  0.500000  0.500000  0.501070  1
  Si  Si4  1  0.500000  0.000000  0.872302  1
  Si  Si5  1  0.000000  0.000000  0.500763  1
  Ru  Ru6  1  0.000000  0.000000  0.998302  1
  Pt  Pt7  1  0.500000  0.000000  0.629563  1
  Pt  Pt8  1  0.500000  0.500000  0.998430  1
  Pt  Pt9  1  0.000000  0.500000  0.371404  1
