# generated using pymatgen
data_LaGa2NiIrRh
_symmetry_space_group_name_H-M   'P 1'
_cell_length_a   5.74344402
_cell_length_b   5.45582930
_cell_length_c   3.88271200
_cell_angle_alpha   90.00000000
_cell_angle_beta   90.00000000
_cell_angle_gamma   121.74975320
_symmetry_Int_Tables_number   1
_chemical_formula_structural   LaGa2NiIrRh
_chemical_formula_sum   'La1 Ga2 Ni1 Ir1 Rh1'
_cell_volume   103.45901851
_cell_formula_units_Z   1
loop_
 _symmetry_equiv_pos_site_id
 _symmetry_equiv_pos_as_xyz
  1  'x, y, z'
loop_
 _atom_site_type_symbol
 _atom_site_label
 _atom_site_symmetry_multiplicity
 _atom_site_fract_x
 _atom_site_fract_y
 _atom_site_fract_z
 _atom_site_occupancy
  La  La0  1  0.000000  0.000000  0.000000  1
  Ga  Ga1  1  0.342229  0.683135  0.000000  1
  Ga  Ga2  1  0.657771  0.316865  0.000000  1
  Ni  Ni3  1  0.500000  0.000000  0.500000  1
  Ir  Ir4  1  0.000000  0.500000  0.500000  1
  Rh  Rh5  1  0.500000  0.500000  0.500000  1
