# generated using pymatgen
data_Pa2Ni2Bi
_symmetry_space_group_name_H-M   'P 1'
_cell_length_a   7.33578895
_cell_length_b   7.33578841
_cell_length_c   3.39006300
_cell_angle_alpha   90.00000000
_cell_angle_beta   90.00000000
_cell_angle_gamma   145.55472455
_symmetry_Int_Tables_number   1
_chemical_formula_structural   Pa2Ni2Bi
_chemical_formula_sum   'Pa2 Ni2 Bi1'
_cell_volume   103.18706452
_cell_formula_units_Z   1
loop_
 _symmetry_equiv_pos_site_id
 _symmetry_equiv_pos_as_xyz
  1  'x, y, z'
loop_
 _atom_site_type_symbol
 _atom_site_label
 _atom_site_symmetry_multiplicity
 _atom_site_fract_x
 _atom_site_fract_y
 _atom_site_fract_z
 _atom_site_occupancy
  Pa  Pa0  1  0.640351  0.359649  0.500000  1
  Pa  Pa1  1  0.359649  0.640351  0.500000  1
  Ni  Ni2  1  0.796166  0.203834  0.000000  1
  Ni  Ni3  1  0.203834  0.796166  0.000000  1
  Bi  Bi4  1  0.000000  0.000000  0.000000  1
