# generated using pymatgen
data_TbPr2Y(SiO5)2
_symmetry_space_group_name_H-M   'P 1'
_cell_length_a   8.16663293
_cell_length_b   8.16663202
_cell_length_c   10.85939508
_cell_angle_alpha   61.07660802
_cell_angle_beta   61.07661263
_cell_angle_gamma   50.27147647
_symmetry_Int_Tables_number   1
_chemical_formula_structural   TbPr2Y(SiO5)2
_chemical_formula_sum   'Tb2 Pr4 Y2 Si4 O20'
_cell_volume   470.86378843
_cell_formula_units_Z   2
loop_
 _symmetry_equiv_pos_site_id
 _symmetry_equiv_pos_as_xyz
  1  'x, y, z'
loop_
 _atom_site_type_symbol
 _atom_site_label
 _atom_site_symmetry_multiplicity
 _atom_site_fract_x
 _atom_site_fract_y
 _atom_site_fract_z
 _atom_site_occupancy
  Tb  Tb0  1  0.235437  0.478762  0.336589  1
  Tb  Tb1  1  0.521238  0.764563  0.163411  1
  Pr  Pr2  1  0.783248  0.290894  0.035701  1
  Pr  Pr3  1  0.709106  0.216752  0.464299  1
  Pr  Pr4  1  0.217022  0.707935  0.964520  1
  Pr  Pr5  1  0.292065  0.782978  0.535480  1
  Y  Y6  1  0.763321  0.521666  0.664114  1
  Y  Y7  1  0.478334  0.236679  0.835886  1
  Si  Si8  1  0.728437  0.903155  0.308332  1
  Si  Si9  1  0.096845  0.271563  0.191668  1
  Si  Si10  1  0.270929  0.096713  0.693348  1
  Si  Si11  1  0.903287  0.729071  0.806652  1
  O  O12  1  0.422062  0.611383  0.109083  1
  O  O13  1  0.388617  0.577938  0.390917  1
  O  O14  1  0.578346  0.387903  0.891075  1
  O  O15  1  0.612097  0.421654  0.608925  1
  O  O16  1  0.865450  0.725467  0.434714  1
  O  O17  1  0.274533  0.134550  0.065286  1
  O  O18  1  0.132732  0.274440  0.567565  1
  O  O19  1  0.725560  0.867268  0.932435  1
  O  O20  1  0.566293  0.842773  0.318047  1
  O  O21  1  0.157227  0.433707  0.181953  1
  O  O22  1  0.433161  0.157767  0.682772  1
  O  O23  1  0.842233  0.566839  0.817228  1
  O  O24  1  0.158743  0.588526  0.822003  1
  O  O25  1  0.411474  0.841257  0.677997  1
  O  O26  1  0.841172  0.411944  0.176932  1
  O  O27  1  0.588056  0.158828  0.323068  1
  O  O28  1  0.908153  0.907461  0.646091  1
  O  O29  1  0.092539  0.091847  0.853909  1
  O  O30  1  0.093797  0.091515  0.351537  1
  O  O31  1  0.908485  0.906203  0.148463  1
