# generated using pymatgen
data_CsFe(PtO3)2
_symmetry_space_group_name_H-M   'P 1'
_cell_length_a   5.38724982
_cell_length_b   5.48591432
_cell_length_c   7.17926500
_cell_angle_alpha   75.16777943
_cell_angle_beta   97.36799788
_cell_angle_gamma   120.57651274
_symmetry_Int_Tables_number   1
_chemical_formula_structural   CsFe(PtO3)2
_chemical_formula_sum   'Cs1 Fe1 Pt2 O6'
_cell_volume   176.58576328
_cell_formula_units_Z   1
loop_
 _symmetry_equiv_pos_site_id
 _symmetry_equiv_pos_as_xyz
  1  'x, y, z'
loop_
 _atom_site_type_symbol
 _atom_site_label
 _atom_site_symmetry_multiplicity
 _atom_site_fract_x
 _atom_site_fract_y
 _atom_site_fract_z
 _atom_site_occupancy
  Cs  Cs0  1  0.343246  0.171425  0.500210  1
  Fe  Fe1  1  0.997024  0.998580  0.000182  1
  Pt  Pt2  1  0.665728  0.332865  0.999919  1
  Pt  Pt3  1  0.332403  0.666244  0.999944  1
  O  O4  1  0.332655  0.948876  0.142328  1
  O  O5  1  0.998610  0.285540  0.144041  1
  O  O6  1  0.664965  0.614999  0.142480  1
  O  O7  1  0.665825  0.050427  0.857344  1
  O  O8  1  0.333463  0.384189  0.857590  1
  O  O9  1  0.999417  0.713522  0.855958  1
