# generated using pymatgen
data_Tb9Y7Cd4(IrPt)2
_symmetry_space_group_name_H-M   'P 1'
_cell_length_a   9.70235610
_cell_length_b   9.70235541
_cell_length_c   9.67428700
_cell_angle_alpha   60.09565530
_cell_angle_beta   60.09565766
_cell_angle_gamma   60.31925932
_symmetry_Int_Tables_number   1
_chemical_formula_structural   Tb9Y7Cd4(IrPt)2
_chemical_formula_sum   'Tb9 Y7 Cd4 Ir2 Pt2'
_cell_volume   646.43480397
_cell_formula_units_Z   1
loop_
 _symmetry_equiv_pos_site_id
 _symmetry_equiv_pos_as_xyz
  1  'x, y, z'
loop_
 _atom_site_type_symbol
 _atom_site_label
 _atom_site_symmetry_multiplicity
 _atom_site_fract_x
 _atom_site_fract_y
 _atom_site_fract_z
 _atom_site_occupancy
  Tb  Tb0  1  0.350544  0.350544  0.346403  1
  Tb  Tb1  1  0.350544  0.350544  0.952509  1
  Tb  Tb2  1  0.355915  0.944590  0.349747  1
  Tb  Tb3  1  0.944590  0.355915  0.349747  1
  Tb  Tb4  1  0.806218  0.190454  0.190578  1
  Tb  Tb5  1  0.190454  0.806218  0.812750  1
  Tb  Tb6  1  0.190454  0.806218  0.190578  1
  Tb  Tb7  1  0.806218  0.190454  0.812750  1
  Tb  Tb8  1  0.191556  0.191556  0.808444  1
  Y  Y9  1  0.810604  0.810604  0.189396  1
  Y  Y10  1  0.937660  0.564847  0.561635  1
  Y  Y11  1  0.564847  0.937660  0.935858  1
  Y  Y12  1  0.564847  0.937660  0.561635  1
  Y  Y13  1  0.937660  0.564847  0.935858  1
  Y  Y14  1  0.563679  0.563679  0.936321  1
  Y  Y15  1  0.937094  0.937094  0.562906  1
  Cd  Cd16  1  0.581272  0.581272  0.581923  1
  Cd  Cd17  1  0.581272  0.581272  0.255534  1
  Cd  Cd18  1  0.580468  0.255823  0.581855  1
  Cd  Cd19  1  0.255823  0.580468  0.581855  1
  Ir  Ir20  1  0.141708  0.572967  0.142662  1
  Ir  Ir21  1  0.572967  0.141708  0.142662  1
  Pt  Pt22  1  0.141804  0.141804  0.145006  1
  Pt  Pt23  1  0.141804  0.141804  0.571387  1
