# generated using pymatgen
data_Li12Ca6ZnAg3N
_symmetry_space_group_name_H-M   'P 1'
_cell_length_a   8.72945805
_cell_length_b   8.64562709
_cell_length_c   8.64562610
_cell_angle_alpha   109.27396330
_cell_angle_beta   109.66776273
_cell_angle_gamma   109.66776666
_symmetry_Int_Tables_number   1
_chemical_formula_structural   Li12Ca6ZnAg3N
_chemical_formula_sum   'Li12 Ca6 Zn1 Ag3 N1'
_cell_volume   501.07086966
_cell_formula_units_Z   1
loop_
 _symmetry_equiv_pos_site_id
 _symmetry_equiv_pos_as_xyz
  1  'x, y, z'
loop_
 _atom_site_type_symbol
 _atom_site_label
 _atom_site_symmetry_multiplicity
 _atom_site_fract_x
 _atom_site_fract_y
 _atom_site_fract_z
 _atom_site_occupancy
  Li  Li0  1  0.678399  0.339525  0.339525  1
  Li  Li1  1  0.338875  0.000000  0.660475  1
  Li  Li2  1  0.338018  0.676035  0.338018  1
  Li  Li3  1  0.338018  0.338018  0.676035  1
  Li  Li4  1  0.338875  0.660475  0.000000  1
  Li  Li5  1  0.000000  0.338018  0.661982  1
  Li  Li6  1  0.000000  0.661982  0.338018  1
  Li  Li7  1  0.661982  0.661982  0.323965  1
  Li  Li8  1  0.661125  0.000000  0.339525  1
  Li  Li9  1  0.661125  0.339525  0.000000  1
  Li  Li10  1  0.661982  0.323965  0.661982  1
  Li  Li11  1  0.321601  0.660475  0.660475  1
  Ca  Ca12  1  0.999242  0.243817  0.243817  1
  Ca  Ca13  1  0.244574  0.000000  0.243817  1
  Ca  Ca14  1  0.755426  0.000000  0.756183  1
  Ca  Ca15  1  0.755426  0.756183  0.000000  1
  Ca  Ca16  1  0.244574  0.243817  0.000000  1
  Ca  Ca17  1  0.000758  0.756183  0.756183  1
  Zn  Zn18  1  0.500000  0.000000  0.000000  1
  Ag  Ag19  1  0.500000  0.500000  0.500000  1
  Ag  Ag20  1  0.000000  0.500000  0.000000  1
  Ag  Ag21  1  0.000000  0.000000  0.500000  1
  N  N22  1  0.000000  0.000000  0.000000  1
