# generated using pymatgen
data_Hf9Ta3CuRe
_symmetry_space_group_name_H-M   'P 1'
_cell_length_a   8.51376900
_cell_length_b   8.83852716
_cell_length_c   8.83852603
_cell_angle_alpha   119.99094428
_cell_angle_beta   90.00000000
_cell_angle_gamma   90.00000000
_symmetry_Int_Tables_number   1
_chemical_formula_structural   Hf9Ta3CuRe
_chemical_formula_sum   'Hf18 Ta6 Cu2 Re2'
_cell_volume   576.03896684
_cell_formula_units_Z   2
loop_
 _symmetry_equiv_pos_site_id
 _symmetry_equiv_pos_as_xyz
  1  'x, y, z'
loop_
 _atom_site_type_symbol
 _atom_site_label
 _atom_site_symmetry_multiplicity
 _atom_site_fract_x
 _atom_site_fract_y
 _atom_site_fract_z
 _atom_site_occupancy
  Hf  Hf0  1  0.556405  0.802080  0.604120  1
  Hf  Hf1  1  0.556416  0.802079  0.197921  1
  Hf  Hf2  1  0.556405  0.395880  0.197920  1
  Hf  Hf3  1  0.443595  0.197920  0.395880  1
  Hf  Hf4  1  0.443584  0.197921  0.802079  1
  Hf  Hf5  1  0.443595  0.604120  0.802080  1
  Hf  Hf6  1  0.056405  0.197920  0.395880  1
  Hf  Hf7  1  0.056416  0.197921  0.802079  1
  Hf  Hf8  1  0.056405  0.604120  0.802080  1
  Hf  Hf9  1  0.943595  0.802080  0.604120  1
  Hf  Hf10  1  0.943584  0.802079  0.197921  1
  Hf  Hf11  1  0.943595  0.395880  0.197920  1
  Hf  Hf12  1  0.750000  0.459221  0.918384  1
  Hf  Hf13  1  0.750000  0.459185  0.540815  1
  Hf  Hf14  1  0.750000  0.081616  0.540779  1
  Hf  Hf15  1  0.250000  0.540779  0.081616  1
  Hf  Hf16  1  0.250000  0.540815  0.459185  1
  Hf  Hf17  1  0.250000  0.918384  0.459221  1
  Ta  Ta18  1  0.750000  0.111777  0.223564  1
  Ta  Ta19  1  0.750000  0.111771  0.888229  1
  Ta  Ta20  1  0.750000  0.776436  0.888223  1
  Ta  Ta21  1  0.250000  0.888223  0.776436  1
  Ta  Ta22  1  0.250000  0.888229  0.111771  1
  Ta  Ta23  1  0.250000  0.223564  0.111777  1
  Cu  Cu24  1  0.750000  0.666676  0.333324  1
  Cu  Cu25  1  0.250000  0.333324  0.666676  1
  Re  Re26  1  0.500000  0.000000  0.000000  1
  Re  Re27  1  0.000000  0.000000  0.000000  1
