# generated using pymatgen
data_LaHo(Cu3Ni2)2
_symmetry_space_group_name_H-M   'P 1'
_cell_length_a   4.06230300
_cell_length_b   4.96085900
_cell_length_c   8.63031200
_cell_angle_alpha   90.00000000
_cell_angle_beta   90.00000000
_cell_angle_gamma   90.00000000
_symmetry_Int_Tables_number   1
_chemical_formula_structural   LaHo(Cu3Ni2)2
_chemical_formula_sum   'La1 Ho1 Cu6 Ni4'
_cell_volume   173.92246958
_cell_formula_units_Z   1
loop_
 _symmetry_equiv_pos_site_id
 _symmetry_equiv_pos_as_xyz
  1  'x, y, z'
loop_
 _atom_site_type_symbol
 _atom_site_label
 _atom_site_symmetry_multiplicity
 _atom_site_fract_x
 _atom_site_fract_y
 _atom_site_fract_z
 _atom_site_occupancy
  La  La0  1  0.000000  0.500000  0.507483  1
  Ho  Ho1  1  0.000000  0.000000  0.994069  1
  Cu  Cu2  1  0.000000  0.000000  0.325322  1
  Cu  Cu3  1  0.500000  0.000000  0.500510  1
  Cu  Cu4  1  0.500000  0.248837  0.242310  1
  Cu  Cu5  1  0.500000  0.752867  0.757879  1
  Cu  Cu6  1  0.500000  0.751163  0.242310  1
  Cu  Cu7  1  0.500000  0.247133  0.757879  1
  Ni  Ni8  1  0.000000  0.500000  0.842116  1
  Ni  Ni9  1  0.000000  0.500000  0.160336  1
  Ni  Ni10  1  0.000000  0.000000  0.669530  1
  Ni  Ni11  1  0.500000  0.500000  0.000254  1
