# generated using pymatgen
data_ErLu9Si5Ge
_symmetry_space_group_name_H-M   'P 1'
_cell_length_a   8.26953480
_cell_length_b   8.27097793
_cell_length_c   6.18670600
_cell_angle_alpha   90.00000000
_cell_angle_beta   90.00000000
_cell_angle_gamma   120.04475612
_symmetry_Int_Tables_number   1
_chemical_formula_structural   ErLu9Si5Ge
_chemical_formula_sum   'Er1 Lu9 Si5 Ge1'
_cell_volume   366.29586067
_cell_formula_units_Z   1
loop_
 _symmetry_equiv_pos_site_id
 _symmetry_equiv_pos_as_xyz
  1  'x, y, z'
loop_
 _atom_site_type_symbol
 _atom_site_label
 _atom_site_symmetry_multiplicity
 _atom_site_fract_x
 _atom_site_fract_y
 _atom_site_fract_z
 _atom_site_occupancy
  Er  Er0  1  0.241838  0.243186  0.750000  1
  Lu  Lu1  1  0.998452  0.756286  0.750000  1
  Lu  Lu2  1  0.999590  0.242322  0.250000  1
  Lu  Lu3  1  0.757848  0.757998  0.250000  1
  Lu  Lu4  1  0.758477  0.999871  0.750000  1
  Lu  Lu5  1  0.241941  0.999717  0.250000  1
  Lu  Lu6  1  0.333183  0.665723  0.499180  1
  Lu  Lu7  1  0.667879  0.334556  0.000824  1
  Lu  Lu8  1  0.667879  0.334556  0.499176  1
  Lu  Lu9  1  0.333183  0.665723  0.000820  1
  Si  Si10  1  0.394318  0.394207  0.250000  1
  Si  Si11  1  0.000074  0.605704  0.250000  1
  Si  Si12  1  0.999373  0.394700  0.750000  1
  Si  Si13  1  0.605984  0.606057  0.750000  1
  Si  Si14  1  0.605798  0.999975  0.250000  1
  Ge  Ge15  1  0.394183  0.999419  0.750000  1
