# generated using pymatgen
data_Ac4MgCdSi3Ge
_symmetry_space_group_name_H-M   'P 1'
_cell_length_a   7.76889253
_cell_length_b   7.76589972
_cell_length_c   4.65999100
_cell_angle_alpha   90.00000000
_cell_angle_beta   90.00000000
_cell_angle_gamma   89.80601985
_symmetry_Int_Tables_number   1
_chemical_formula_structural   Ac4MgCdSi3Ge
_chemical_formula_sum   'Ac4 Mg1 Cd1 Si3 Ge1'
_cell_volume   281.14701752
_cell_formula_units_Z   1
loop_
 _symmetry_equiv_pos_site_id
 _symmetry_equiv_pos_as_xyz
  1  'x, y, z'
loop_
 _atom_site_type_symbol
 _atom_site_label
 _atom_site_symmetry_multiplicity
 _atom_site_fract_x
 _atom_site_fract_y
 _atom_site_fract_z
 _atom_site_occupancy
  Ac  Ac0  1  0.681913  0.178254  0.500000  1
  Ac  Ac1  1  0.318813  0.822690  0.500000  1
  Ac  Ac2  1  0.178602  0.315555  0.500000  1
  Ac  Ac3  1  0.819702  0.682125  0.500000  1
  Mg  Mg4  1  0.502446  0.498489  0.000000  1
  Cd  Cd5  1  0.997819  0.003404  0.000000  1
  Si  Si6  1  0.882067  0.389664  0.000000  1
  Si  Si7  1  0.607509  0.885610  0.000000  1
  Si  Si8  1  0.393131  0.114605  0.000000  1
  Ge  Ge9  1  0.118000  0.609604  0.000000  1
