# generated using pymatgen
data_Dy3Y2Lu5(In2Ni)4
_symmetry_space_group_name_H-M   'P 1'
_cell_length_a   3.56447000
_cell_length_b   7.94639401
_cell_length_c   17.76660301
_cell_angle_alpha   90.00407738
_cell_angle_beta   90.00000000
_cell_angle_gamma   90.00000000
_symmetry_Int_Tables_number   1
_chemical_formula_structural   Dy3Y2Lu5(In2Ni)4
_chemical_formula_sum   'Dy3 Y2 Lu5 In8 Ni4'
_cell_volume   503.23339771
_cell_formula_units_Z   1
loop_
 _symmetry_equiv_pos_site_id
 _symmetry_equiv_pos_as_xyz
  1  'x, y, z'
loop_
 _atom_site_type_symbol
 _atom_site_label
 _atom_site_symmetry_multiplicity
 _atom_site_fract_x
 _atom_site_fract_y
 _atom_site_fract_z
 _atom_site_occupancy
  Dy  Dy0  1  0.500000  0.746669  0.219957  1
  Dy  Dy1  1  0.500000  0.246023  0.278564  1
  Dy  Dy2  1  0.500000  0.617035  0.413366  1
  Y  Y3  1  0.500000  0.500964  0.998813  1
  Y  Y4  1  0.500000  0.999481  0.501450  1
  Lu  Lu5  1  0.500000  0.382577  0.591268  1
  Lu  Lu6  1  0.500000  0.882782  0.908791  1
  Lu  Lu7  1  0.500000  0.117726  0.087790  1
  Lu  Lu8  1  0.500000  0.753971  0.721616  1
  Lu  Lu9  1  0.500000  0.253930  0.778919  1
  In  In10  1  0.000000  0.800230  0.065584  1
  In  In11  1  0.000000  0.926917  0.347984  1
  In  In12  1  0.000000  0.074234  0.653879  1
  In  In13  1  0.000000  0.573871  0.846636  1
  In  In14  1  0.000000  0.701903  0.571095  1
  In  In15  1  0.000000  0.200696  0.931063  1
  In  In16  1  0.000000  0.294243  0.433252  1
  In  In17  1  0.000000  0.424589  0.151128  1
  Ni  Ni18  1  0.000000  0.975062  0.803549  1
  Ni  Ni19  1  0.000000  0.524687  0.304555  1
  Ni  Ni20  1  0.000000  0.474868  0.696821  1
  Ni  Ni21  1  0.000000  0.027545  0.193922  1
