# generated using pymatgen
data_HoTm4GaBi2
_symmetry_space_group_name_H-M   'P 1'
_cell_length_a   8.01843700
_cell_length_b   9.23256200
_cell_length_c   11.89322000
_cell_angle_alpha   90.00000000
_cell_angle_beta   90.00000000
_cell_angle_gamma   90.00000000
_symmetry_Int_Tables_number   1
_chemical_formula_structural   HoTm4GaBi2
_chemical_formula_sum   'Ho4 Tm16 Ga4 Bi8'
_cell_volume   880.46360101
_cell_formula_units_Z   4
loop_
 _symmetry_equiv_pos_site_id
 _symmetry_equiv_pos_as_xyz
  1  'x, y, z'
loop_
 _atom_site_type_symbol
 _atom_site_label
 _atom_site_symmetry_multiplicity
 _atom_site_fract_x
 _atom_site_fract_y
 _atom_site_fract_z
 _atom_site_occupancy
  Ho  Ho0  1  0.644866  0.750000  0.294862  1
  Ho  Ho1  1  0.855134  0.750000  0.794862  1
  Ho  Ho2  1  0.355134  0.250000  0.705138  1
  Ho  Ho3  1  0.144866  0.250000  0.205138  1
  Tm  Tm4  1  0.819751  0.554099  0.062320  1
  Tm  Tm5  1  0.680249  0.945901  0.562320  1
  Tm  Tm6  1  0.180249  0.054099  0.937680  1
  Tm  Tm7  1  0.319751  0.445901  0.437680  1
  Tm  Tm8  1  0.180249  0.445901  0.937680  1
  Tm  Tm9  1  0.319751  0.054099  0.437680  1
  Tm  Tm10  1  0.819751  0.945901  0.062320  1
  Tm  Tm11  1  0.680249  0.554099  0.562320  1
  Tm  Tm12  1  0.174265  0.750000  0.217888  1
  Tm  Tm13  1  0.325735  0.750000  0.717888  1
  Tm  Tm14  1  0.825735  0.250000  0.782112  1
  Tm  Tm15  1  0.674265  0.250000  0.282112  1
  Tm  Tm16  1  0.462999  0.750000  0.003635  1
  Tm  Tm17  1  0.037001  0.750000  0.503635  1
  Tm  Tm18  1  0.537001  0.250000  0.996365  1
  Tm  Tm19  1  0.962999  0.250000  0.496365  1
  Ga  Ga20  1  0.404497  0.750000  0.476195  1
  Ga  Ga21  1  0.095503  0.750000  0.976195  1
  Ga  Ga22  1  0.595503  0.250000  0.523805  1
  Ga  Ga23  1  0.904497  0.250000  0.023805  1
  Bi  Bi24  1  0.937567  0.509669  0.324639  1
  Bi  Bi25  1  0.562433  0.990331  0.824639  1
  Bi  Bi26  1  0.062433  0.009669  0.675361  1
  Bi  Bi27  1  0.437567  0.490331  0.175361  1
  Bi  Bi28  1  0.062433  0.490331  0.675361  1
  Bi  Bi29  1  0.437567  0.009669  0.175361  1
  Bi  Bi30  1  0.937567  0.990331  0.324639  1
  Bi  Bi31  1  0.562433  0.509669  0.824639  1
