# generated using pymatgen
data_Lu6AlCuTc
_symmetry_space_group_name_H-M   'P 1'
_cell_length_a   8.33509730
_cell_length_b   8.33509704
_cell_length_c   8.33509800
_cell_angle_alpha   113.12848396
_cell_angle_beta   111.24393515
_cell_angle_gamma   104.17393505
_symmetry_Int_Tables_number   1
_chemical_formula_structural   Lu6AlCuTc
_chemical_formula_sum   'Lu12 Al2 Cu2 Tc2'
_cell_volume   442.81432072
_cell_formula_units_Z   2
loop_
 _symmetry_equiv_pos_site_id
 _symmetry_equiv_pos_as_xyz
  1  'x, y, z'
loop_
 _atom_site_type_symbol
 _atom_site_label
 _atom_site_symmetry_multiplicity
 _atom_site_fract_x
 _atom_site_fract_y
 _atom_site_fract_z
 _atom_site_occupancy
  Lu  Lu0  1  0.050486  0.742496  0.307990  1
  Lu  Lu1  1  0.949514  0.257504  0.692010  1
  Lu  Lu2  1  0.565493  0.257504  0.307990  1
  Lu  Lu3  1  0.434507  0.742496  0.692010  1
  Lu  Lu4  1  0.663603  0.850216  0.186613  1
  Lu  Lu5  1  0.336397  0.523010  0.186613  1
  Lu  Lu6  1  0.336397  0.149784  0.813387  1
  Lu  Lu7  1  0.663603  0.476990  0.813387  1
  Lu  Lu8  1  0.183543  0.222880  0.406424  1
  Lu  Lu9  1  0.816457  0.222880  0.039337  1
  Lu  Lu10  1  0.183543  0.777120  0.960663  1
  Lu  Lu11  1  0.816457  0.777120  0.593576  1
  Al  Al12  1  0.000000  0.500000  0.500000  1
  Al  Al13  1  0.500000  0.000000  0.500000  1
  Cu  Cu14  1  0.880478  0.880478  0.000000  1
  Cu  Cu15  1  0.119522  0.119522  0.000000  1
  Tc  Tc16  1  0.680358  0.500000  0.180358  1
  Tc  Tc17  1  0.319642  0.500000  0.819642  1
