# generated using pymatgen
data_Tb5Dy11(In3Ir)2
_symmetry_space_group_name_H-M   'P 1'
_cell_length_a   10.44344914
_cell_length_b   10.44344621
_cell_length_c   7.09994208
_cell_angle_alpha   89.99564502
_cell_angle_beta   90.00434949
_cell_angle_gamma   119.99663270
_symmetry_Int_Tables_number   1
_chemical_formula_structural   Tb5Dy11(In3Ir)2
_chemical_formula_sum   'Tb5 Dy11 In6 Ir2'
_cell_volume   670.63769583
_cell_formula_units_Z   1
loop_
 _symmetry_equiv_pos_site_id
 _symmetry_equiv_pos_as_xyz
  1  'x, y, z'
loop_
 _atom_site_type_symbol
 _atom_site_label
 _atom_site_symmetry_multiplicity
 _atom_site_fract_x
 _atom_site_fract_y
 _atom_site_fract_z
 _atom_site_occupancy
  Tb  Tb0  1  0.533698  0.067723  0.513657  1
  Tb  Tb1  1  0.932277  0.466302  0.513657  1
  Tb  Tb2  1  0.533848  0.466152  0.513830  1
  Tb  Tb3  1  0.466181  0.932155  0.013671  1
  Tb  Tb4  1  0.067845  0.533819  0.013671  1
  Dy  Dy5  1  0.465908  0.534092  0.013898  1
  Dy  Dy6  1  0.176318  0.352341  0.720549  1
  Dy  Dy7  1  0.647659  0.823683  0.720549  1
  Dy  Dy8  1  0.176181  0.823820  0.720705  1
  Dy  Dy9  1  0.823631  0.647640  0.220155  1
  Dy  Dy10  1  0.352360  0.176369  0.220155  1
  Dy  Dy11  1  0.823831  0.176169  0.220569  1
  Dy  Dy12  1  0.666579  0.333420  0.896603  1
  Dy  Dy13  1  0.333480  0.666520  0.396503  1
  Dy  Dy14  1  0.000072  0.999928  0.500329  1
  Dy  Dy15  1  0.999900  0.000099  0.000417  1
  In  In16  1  0.837099  0.674160  0.761352  1
  In  In17  1  0.325839  0.162901  0.761352  1
  In  In18  1  0.837012  0.162989  0.760977  1
  In  In19  1  0.163067  0.325997  0.260878  1
  In  In20  1  0.674004  0.836934  0.260878  1
  In  In21  1  0.162935  0.837065  0.261359  1
  Ir  Ir22  1  0.666649  0.333350  0.289113  1
  Ir  Ir23  1  0.333629  0.666372  0.789373  1
