# generated using pymatgen
data_Pr2Sm2SiI5
_symmetry_space_group_name_H-M   'P 1'
_cell_length_a   10.03266316
_cell_length_b   10.03266233
_cell_length_c   9.09407901
_cell_angle_alpha   77.75020816
_cell_angle_beta   77.75021014
_cell_angle_gamma   24.95112981
_symmetry_Int_Tables_number   1
_chemical_formula_structural   Pr2Sm2SiI5
_chemical_formula_sum   'Pr2 Sm2 Si1 I5'
_cell_volume   376.91212708
_cell_formula_units_Z   1
loop_
 _symmetry_equiv_pos_site_id
 _symmetry_equiv_pos_as_xyz
  1  'x, y, z'
loop_
 _atom_site_type_symbol
 _atom_site_label
 _atom_site_symmetry_multiplicity
 _atom_site_fract_x
 _atom_site_fract_y
 _atom_site_fract_z
 _atom_site_occupancy
  Pr  Pr0  1  0.500973  0.500973  0.214412  1
  Pr  Pr1  1  0.499027  0.499027  0.785588  1
  Sm  Sm2  1  0.854968  0.854968  0.074377  1
  Sm  Sm3  1  0.145032  0.145032  0.925623  1
  Si  Si4  1  0.000000  0.000000  0.000000  1
  I  I5  1  0.673826  0.673826  0.164006  1
  I  I6  1  0.326174  0.326174  0.835994  1
  I  I7  1  0.667882  0.667882  0.667676  1
  I  I8  1  0.332118  0.332118  0.332324  1
  I  I9  1  0.000000  0.000000  0.500000  1
