# generated using pymatgen
data_Pr12Sn4Ge4Ir5Rh3
_symmetry_space_group_name_H-M   'P 1'
_cell_length_a   5.81752822
_cell_length_b   8.44334268
_cell_length_c   13.75095058
_cell_angle_alpha   89.96973660
_cell_angle_beta   90.01463103
_cell_angle_gamma   90.24468460
_symmetry_Int_Tables_number   1
_chemical_formula_structural   Pr12Sn4Ge4Ir5Rh3
_chemical_formula_sum   'Pr12 Sn4 Ge4 Ir5 Rh3'
_cell_volume   675.43195105
_cell_formula_units_Z   1
loop_
 _symmetry_equiv_pos_site_id
 _symmetry_equiv_pos_as_xyz
  1  'x, y, z'
loop_
 _atom_site_type_symbol
 _atom_site_label
 _atom_site_symmetry_multiplicity
 _atom_site_fract_x
 _atom_site_fract_y
 _atom_site_fract_z
 _atom_site_occupancy
  Pr  Pr0  1  0.643285  0.250563  0.250741  1
  Pr  Pr1  1  0.356453  0.750511  0.750130  1
  Pr  Pr2  1  0.357436  0.751811  0.250810  1
  Pr  Pr3  1  0.643077  0.247195  0.750036  1
  Pr  Pr4  1  0.159518  0.393668  0.101051  1
  Pr  Pr5  1  0.840979  0.606002  0.898509  1
  Pr  Pr6  1  0.840260  0.605716  0.601303  1
  Pr  Pr7  1  0.841503  0.894641  0.399539  1
  Pr  Pr8  1  0.157699  0.394091  0.398660  1
  Pr  Pr9  1  0.157318  0.104313  0.600681  1
  Pr  Pr10  1  0.157263  0.104020  0.899398  1
  Pr  Pr11  1  0.841998  0.896051  0.100621  1
  Sn  Sn12  1  0.655381  0.250613  0.000023  1
  Sn  Sn13  1  0.344414  0.749318  0.000117  1
  Sn  Sn14  1  0.344477  0.749517  0.500193  1
  Sn  Sn15  1  0.654455  0.250645  0.500094  1
  Ge  Ge16  1  0.143976  0.103880  0.249987  1
  Ge  Ge17  1  0.856621  0.895929  0.750040  1
  Ge  Ge18  1  0.856684  0.603856  0.249235  1
  Ge  Ge19  1  0.144206  0.395440  0.749952  1
  Ir  Ir20  1  0.370476  0.038647  0.096943  1
  Ir  Ir21  1  0.629373  0.961646  0.902848  1
  Ir  Ir22  1  0.629702  0.960968  0.597283  1
  Ir  Ir23  1  0.629921  0.539767  0.402446  1
  Ir  Ir24  1  0.369521  0.038734  0.403016  1
  Rh  Rh25  1  0.373715  0.462105  0.596513  1
  Rh  Rh26  1  0.372901  0.461745  0.903248  1
  Rh  Rh27  1  0.627387  0.538607  0.096583  1
