# generated using pymatgen
data_Y3TmMoRu7
_symmetry_space_group_name_H-M   'P 1'
_cell_length_a   5.46799833
_cell_length_b   5.19323110
_cell_length_c   9.02474030
_cell_angle_alpha   89.97462590
_cell_angle_beta   90.00043367
_cell_angle_gamma   121.95333742
_symmetry_Int_Tables_number   1
_chemical_formula_structural   Y3TmMoRu7
_chemical_formula_sum   'Y3 Tm1 Mo1 Ru7'
_cell_volume   217.44126953
_cell_formula_units_Z   1
loop_
 _symmetry_equiv_pos_site_id
 _symmetry_equiv_pos_as_xyz
  1  'x, y, z'
loop_
 _atom_site_type_symbol
 _atom_site_label
 _atom_site_symmetry_multiplicity
 _atom_site_fract_x
 _atom_site_fract_y
 _atom_site_fract_z
 _atom_site_occupancy
  Y  Y0  1  0.672293  0.345513  0.563985  1
  Y  Y1  1  0.334740  0.669772  0.431917  1
  Y  Y2  1  0.335144  0.670622  0.067240  1
  Tm  Tm3  1  0.673360  0.347742  0.936032  1
  Mo  Mo4  1  0.159463  0.320038  0.750873  1
  Ru  Ru5  1  0.008555  0.017648  0.498194  1
  Ru  Ru6  1  0.008367  0.017121  0.001614  1
  Ru  Ru7  1  0.171876  0.821131  0.751539  1
  Ru  Ru8  1  0.650420  0.821458  0.751500  1
  Ru  Ru9  1  0.821583  0.642759  0.248755  1
  Ru  Ru10  1  0.832348  0.162592  0.249224  1
  Ru  Ru11  1  0.331852  0.163603  0.249127  1
