# generated using pymatgen
data_Np2Al6(GaIr)3
_symmetry_space_group_name_H-M   'P 1'
_cell_length_a   7.57966808
_cell_length_b   7.57966726
_cell_length_c   9.55829800
_cell_angle_alpha   90.00000000
_cell_angle_beta   90.00000000
_cell_angle_gamma   119.67437707
_symmetry_Int_Tables_number   1
_chemical_formula_structural   Np2Al6(GaIr)3
_chemical_formula_sum   'Np4 Al12 Ga6 Ir6'
_cell_volume   477.11953694
_cell_formula_units_Z   2
loop_
 _symmetry_equiv_pos_site_id
 _symmetry_equiv_pos_as_xyz
  1  'x, y, z'
loop_
 _atom_site_type_symbol
 _atom_site_label
 _atom_site_symmetry_multiplicity
 _atom_site_fract_x
 _atom_site_fract_y
 _atom_site_fract_z
 _atom_site_occupancy
  Np  Np0  1  0.996843  0.669690  0.250000  1
  Np  Np1  1  0.003157  0.330310  0.750000  1
  Np  Np2  1  0.669690  0.996843  0.250000  1
  Np  Np3  1  0.330310  0.003157  0.750000  1
  Al  Al4  1  0.001261  0.334728  0.073378  1
  Al  Al5  1  0.998739  0.665272  0.926622  1
  Al  Al6  1  0.998739  0.665272  0.573378  1
  Al  Al7  1  0.334728  0.001261  0.426622  1
  Al  Al8  1  0.001261  0.334728  0.426622  1
  Al  Al9  1  0.665272  0.998739  0.573378  1
  Al  Al10  1  0.665272  0.998739  0.926622  1
  Al  Al11  1  0.334728  0.001261  0.073378  1
  Al  Al12  1  0.333869  0.333869  0.556373  1
  Al  Al13  1  0.666131  0.666131  0.443627  1
  Al  Al14  1  0.666131  0.666131  0.056373  1
  Al  Al15  1  0.333869  0.333869  0.943627  1
  Ga  Ga16  1  0.128786  0.128786  0.250000  1
  Ga  Ga17  1  0.871214  0.871214  0.750000  1
  Ga  Ga18  1  0.339239  0.546580  0.250000  1
  Ga  Ga19  1  0.660761  0.453420  0.750000  1
  Ga  Ga20  1  0.546580  0.339239  0.250000  1
  Ga  Ga21  1  0.453420  0.660761  0.750000  1
  Ir  Ir22  1  0.671016  0.328984  0.000000  1
  Ir  Ir23  1  0.328984  0.671016  0.000000  1
  Ir  Ir24  1  0.328984  0.671016  0.500000  1
  Ir  Ir25  1  0.671016  0.328984  0.500000  1
  Ir  Ir26  1  0.000000  0.000000  0.000000  1
  Ir  Ir27  1  0.000000  0.000000  0.500000  1
