# generated using pymatgen
data_Pr4ThSi12Ir19
_symmetry_space_group_name_H-M   'P 1'
_cell_length_a   12.95213000
_cell_length_b   12.93411558
_cell_length_c   4.02672000
_cell_angle_alpha   90.00000000
_cell_angle_beta   90.00000000
_cell_angle_gamma   119.95400128
_symmetry_Int_Tables_number   1
_chemical_formula_structural   Pr4ThSi12Ir19
_chemical_formula_sum   'Pr4 Th1 Si12 Ir19'
_cell_volume   584.46850111
_cell_formula_units_Z   1
loop_
 _symmetry_equiv_pos_site_id
 _symmetry_equiv_pos_as_xyz
  1  'x, y, z'
loop_
 _atom_site_type_symbol
 _atom_site_label
 _atom_site_symmetry_multiplicity
 _atom_site_fract_x
 _atom_site_fract_y
 _atom_site_fract_z
 _atom_site_occupancy
  Pr  Pr0  1  0.187174  0.187971  0.500000  1
  Pr  Pr1  1  0.812826  0.000797  0.500000  1
  Pr  Pr2  1  0.332976  0.666569  0.000000  1
  Pr  Pr3  1  0.667024  0.333592  0.000000  1
  Th  Th4  1  0.000000  0.815396  0.500000  1
  Si  Si5  1  0.000000  0.183144  0.000000  1
  Si  Si6  1  0.814259  0.816706  0.000000  1
  Si  Si7  1  0.185741  0.002447  0.000000  1
  Si  Si8  1  0.520314  0.688534  0.500000  1
  Si  Si9  1  0.311767  0.831893  0.500000  1
  Si  Si10  1  0.168387  0.479207  0.500000  1
  Si  Si11  1  0.479686  0.168220  0.500000  1
  Si  Si12  1  0.688233  0.520125  0.500000  1
  Si  Si13  1  0.831613  0.310819  0.500000  1
  Si  Si14  1  0.000000  0.628099  0.000000  1
  Si  Si15  1  0.370914  0.370909  0.000000  1
  Si  Si16  1  0.629086  0.999995  0.000000  1
  Ir  Ir17  1  0.000000  0.284162  0.500000  1
  Ir  Ir18  1  0.715959  0.715322  0.500000  1
  Ir  Ir19  1  0.284041  0.999363  0.500000  1
  Ir  Ir20  1  0.621288  0.803951  0.000000  1
  Ir  Ir21  1  0.193096  0.817772  0.000000  1
  Ir  Ir22  1  0.182485  0.377987  0.000000  1
  Ir  Ir23  1  0.378712  0.182663  0.000000  1
  Ir  Ir24  1  0.806904  0.624675  0.000000  1
  Ir  Ir25  1  0.817515  0.195502  0.000000  1
  Ir  Ir26  1  0.512560  0.874646  0.500000  1
  Ir  Ir27  1  0.125017  0.638029  0.500000  1
  Ir  Ir28  1  0.362738  0.487310  0.500000  1
  Ir  Ir29  1  0.487440  0.362085  0.500000  1
  Ir  Ir30  1  0.874983  0.513011  0.500000  1
  Ir  Ir31  1  0.637262  0.124571  0.500000  1
  Ir  Ir32  1  0.000000  0.996834  0.000000  1
  Ir  Ir33  1  0.000000  0.446257  0.000000  1
  Ir  Ir34  1  0.554313  0.552875  0.000000  1
  Ir  Ir35  1  0.445687  0.998561  0.000000  1
