# generated using pymatgen
data_Pa2CoCu3Si4
_symmetry_space_group_name_H-M   'P 1'
_cell_length_a   4.12044000
_cell_length_b   4.12044000
_cell_length_c   9.35486700
_cell_angle_alpha   90.00000000
_cell_angle_beta   90.00000000
_cell_angle_gamma   90.00000000
_symmetry_Int_Tables_number   1
_chemical_formula_structural   Pa2CoCu3Si4
_chemical_formula_sum   'Pa2 Co1 Cu3 Si4'
_cell_volume   158.82717322
_cell_formula_units_Z   1
loop_
 _symmetry_equiv_pos_site_id
 _symmetry_equiv_pos_as_xyz
  1  'x, y, z'
loop_
 _atom_site_type_symbol
 _atom_site_label
 _atom_site_symmetry_multiplicity
 _atom_site_fract_x
 _atom_site_fract_y
 _atom_site_fract_z
 _atom_site_occupancy
  Pa  Pa0  1  0.750000  0.750000  0.249833  1
  Pa  Pa1  1  0.250000  0.250000  0.742689  1
  Co  Co2  1  0.250000  0.250000  0.385488  1
  Cu  Cu3  1  0.750000  0.250000  0.000056  1
  Cu  Cu4  1  0.250000  0.750000  0.000056  1
  Cu  Cu5  1  0.750000  0.750000  0.623553  1
  Si  Si6  1  0.750000  0.250000  0.494538  1
  Si  Si7  1  0.250000  0.750000  0.494538  1
  Si  Si8  1  0.750000  0.750000  0.866965  1
  Si  Si9  1  0.250000  0.250000  0.142284  1
