# generated using pymatgen
data_Lu4Mn3Co2Os3
_symmetry_space_group_name_H-M   'P 1'
_cell_length_a   5.21325800
_cell_length_b   5.11854013
_cell_length_c   8.56644000
_cell_angle_alpha   90.00000000
_cell_angle_beta   90.00000000
_cell_angle_gamma   120.93698417
_symmetry_Int_Tables_number   1
_chemical_formula_structural   Lu4Mn3Co2Os3
_chemical_formula_sum   'Lu4 Mn3 Co2 Os3'
_cell_volume   196.06855497
_cell_formula_units_Z   1
loop_
 _symmetry_equiv_pos_site_id
 _symmetry_equiv_pos_as_xyz
  1  'x, y, z'
loop_
 _atom_site_type_symbol
 _atom_site_label
 _atom_site_symmetry_multiplicity
 _atom_site_fract_x
 _atom_site_fract_y
 _atom_site_fract_z
 _atom_site_occupancy
  Lu  Lu0  1  0.667832  0.333744  0.567435  1
  Lu  Lu1  1  0.332619  0.664214  0.439813  1
  Lu  Lu2  1  0.332619  0.664214  0.060187  1
  Lu  Lu3  1  0.667832  0.333744  0.932565  1
  Mn  Mn4  1  0.172403  0.342094  0.750000  1
  Mn  Mn5  1  0.824014  0.663579  0.250000  1
  Mn  Mn6  1  0.823493  0.164295  0.250000  1
  Co  Co7  1  0.170607  0.835501  0.750000  1
  Co  Co8  1  0.662905  0.830374  0.750000  1
  Os  Os9  1  0.998413  0.996396  0.503254  1
  Os  Os10  1  0.998413  0.996396  0.996746  1
  Os  Os11  1  0.348848  0.175448  0.250000  1
