# generated using pymatgen
data_YEr5TiCo17P12
_symmetry_space_group_name_H-M   'P 1'
_cell_length_a   3.68952000
_cell_length_b   10.55214000
_cell_length_c   12.20675300
_cell_angle_alpha   90.00000000
_cell_angle_beta   90.00000000
_cell_angle_gamma   90.00000000
_symmetry_Int_Tables_number   1
_chemical_formula_structural   YEr5TiCo17P12
_chemical_formula_sum   'Y1 Er5 Ti1 Co17 P12'
_cell_volume   475.23735522
_cell_formula_units_Z   1
loop_
 _symmetry_equiv_pos_site_id
 _symmetry_equiv_pos_as_xyz
  1  'x, y, z'
loop_
 _atom_site_type_symbol
 _atom_site_label
 _atom_site_symmetry_multiplicity
 _atom_site_fract_x
 _atom_site_fract_y
 _atom_site_fract_z
 _atom_site_occupancy
  Y  Y0  1  0.750000  0.250000  0.477062  1
  Er  Er1  1  0.250000  0.750000  0.524912  1
  Er  Er2  1  0.250000  0.931745  0.796426  1
  Er  Er3  1  0.250000  0.568255  0.796426  1
  Er  Er4  1  0.750000  0.069809  0.206498  1
  Er  Er5  1  0.750000  0.430191  0.206498  1
  Ti  Ti6  1  0.750000  0.750000  0.152084  1
  Co  Co7  1  0.250000  0.250000  0.839444  1
  Co  Co8  1  0.250000  0.250000  0.295782  1
  Co  Co9  1  0.750000  0.750000  0.702892  1
  Co  Co10  1  0.750000  0.250000  0.013573  1
  Co  Co11  1  0.250000  0.750000  0.986251  1
  Co  Co12  1  0.250000  0.414540  0.004142  1
  Co  Co13  1  0.250000  0.085460  0.004142  1
  Co  Co14  1  0.750000  0.580096  0.991886  1
  Co  Co15  1  0.750000  0.919904  0.991886  1
  Co  Co16  1  0.250000  0.453941  0.570042  1
  Co  Co17  1  0.250000  0.046059  0.570042  1
  Co  Co18  1  0.750000  0.546772  0.432314  1
  Co  Co19  1  0.750000  0.953228  0.432314  1
  Co  Co20  1  0.250000  0.871806  0.292388  1
  Co  Co21  1  0.250000  0.628194  0.292388  1
  Co  Co22  1  0.750000  0.129061  0.708612  1
  Co  Co23  1  0.750000  0.370939  0.708612  1
  P  P24  1  0.250000  0.250000  0.116907  1
  P  P25  1  0.750000  0.750000  0.882259  1
  P  P26  1  0.250000  0.250000  0.656271  1
  P  P27  1  0.750000  0.750000  0.353476  1
  P  P28  1  0.250000  0.439661  0.384553  1
  P  P29  1  0.250000  0.060339  0.384553  1
  P  P30  1  0.750000  0.561016  0.617405  1
  P  P31  1  0.750000  0.938984  0.617405  1
  P  P32  1  0.250000  0.909182  0.105050  1
  P  P33  1  0.250000  0.590818  0.105050  1
  P  P34  1  0.750000  0.099638  0.890231  1
  P  P35  1  0.750000  0.400362  0.890231  1
