# generated using pymatgen
data_Ca16Bi11
_symmetry_space_group_name_H-M   'P 1'
_cell_length_a   11.62317900
_cell_length_b   12.61924100
_cell_length_c   12.62569900
_cell_angle_alpha   90.00000000
_cell_angle_beta   90.00000000
_cell_angle_gamma   90.00000000
_symmetry_Int_Tables_number   1
_chemical_formula_structural   Ca16Bi11
_chemical_formula_sum   'Ca32 Bi22'
_cell_volume   1851.88320077
_cell_formula_units_Z   2
loop_
 _symmetry_equiv_pos_site_id
 _symmetry_equiv_pos_as_xyz
  1  'x, y, z'
loop_
 _atom_site_type_symbol
 _atom_site_label
 _atom_site_symmetry_multiplicity
 _atom_site_fract_x
 _atom_site_fract_y
 _atom_site_fract_z
 _atom_site_occupancy
  Ca  Ca0  1  0.861082  0.500000  0.000000  1
  Ca  Ca1  1  0.138918  0.000000  0.500000  1
  Ca  Ca2  1  0.498755  0.631263  0.131232  1
  Ca  Ca3  1  0.501245  0.131263  0.368768  1
  Ca  Ca4  1  0.498755  0.368737  0.868768  1
  Ca  Ca5  1  0.501245  0.868737  0.631232  1
  Ca  Ca6  1  0.000442  0.792088  0.087302  1
  Ca  Ca7  1  0.999558  0.292088  0.412698  1
  Ca  Ca8  1  0.000442  0.207912  0.912698  1
  Ca  Ca9  1  0.999558  0.707912  0.587302  1
  Ca  Ca10  1  0.998604  0.087706  0.207565  1
  Ca  Ca11  1  0.001396  0.587706  0.292435  1
  Ca  Ca12  1  0.998604  0.912294  0.792435  1
  Ca  Ca13  1  0.001396  0.412294  0.707565  1
  Ca  Ca14  1  0.214274  0.500000  0.000000  1
  Ca  Ca15  1  0.785726  0.000000  0.500000  1
  Ca  Ca16  1  0.710309  0.924402  0.210726  1
  Ca  Ca17  1  0.289691  0.424402  0.289274  1
  Ca  Ca18  1  0.710309  0.075598  0.789274  1
  Ca  Ca19  1  0.289691  0.575598  0.710726  1
  Ca  Ca20  1  0.289747  0.209394  0.075265  1
  Ca  Ca21  1  0.710253  0.709394  0.424735  1
  Ca  Ca22  1  0.289747  0.790606  0.924735  1
  Ca  Ca23  1  0.710253  0.290606  0.575265  1
  Ca  Ca24  1  0.687710  0.570421  0.705696  1
  Ca  Ca25  1  0.312290  0.070421  0.794304  1
  Ca  Ca26  1  0.687710  0.429579  0.294304  1
  Ca  Ca27  1  0.312290  0.929579  0.205696  1
  Ca  Ca28  1  0.317909  0.701586  0.430592  1
  Ca  Ca29  1  0.682091  0.201586  0.069408  1
  Ca  Ca30  1  0.317909  0.298414  0.569408  1
  Ca  Ca31  1  0.682091  0.798414  0.930592  1
  Bi  Bi32  1  0.847634  0.500000  0.500000  1
  Bi  Bi33  1  0.152366  0.000000  0.000000  1
  Bi  Bi34  1  0.154880  0.500000  0.500000  1
  Bi  Bi35  1  0.845120  0.000000  0.000000  1
  Bi  Bi36  1  0.967534  0.854581  0.354273  1
  Bi  Bi37  1  0.032466  0.354581  0.145727  1
  Bi  Bi38  1  0.967534  0.145419  0.645727  1
  Bi  Bi39  1  0.032466  0.645419  0.854273  1
  Bi  Bi40  1  0.513027  0.873673  0.373896  1
  Bi  Bi41  1  0.486973  0.373673  0.126104  1
  Bi  Bi42  1  0.513027  0.126327  0.626104  1
  Bi  Bi43  1  0.486973  0.626327  0.873896  1
  Bi  Bi44  1  0.763697  0.664771  0.164205  1
  Bi  Bi45  1  0.236303  0.164771  0.335795  1
  Bi  Bi46  1  0.763697  0.335229  0.835795  1
  Bi  Bi47  1  0.236303  0.835229  0.664205  1
  Bi  Bi48  1  0.237465  0.680243  0.181296  1
  Bi  Bi49  1  0.762535  0.180243  0.318704  1
  Bi  Bi50  1  0.237465  0.319757  0.818704  1
  Bi  Bi51  1  0.762535  0.819757  0.681296  1
  Bi  Bi52  1  0.505255  0.500000  0.500000  1
  Bi  Bi53  1  0.494745  0.000000  0.000000  1
