# generated using pymatgen
data_Nd8Se3BrO24
_symmetry_space_group_name_H-M   'P 1'
_cell_length_a   10.28029057
_cell_length_b   10.02700924
_cell_length_c   5.69297338
_cell_angle_alpha   74.87238446
_cell_angle_beta   74.51268468
_cell_angle_gamma   70.30093545
_symmetry_Int_Tables_number   1
_chemical_formula_structural   Nd8Se3BrO24
_chemical_formula_sum   'Nd8 Se3 Br1 O24'
_cell_volume   522.89221257
_cell_formula_units_Z   1
loop_
 _symmetry_equiv_pos_site_id
 _symmetry_equiv_pos_as_xyz
  1  'x, y, z'
loop_
 _atom_site_type_symbol
 _atom_site_label
 _atom_site_symmetry_multiplicity
 _atom_site_fract_x
 _atom_site_fract_y
 _atom_site_fract_z
 _atom_site_occupancy
  Nd  Nd0  1  0.108590  0.889205  0.759908  1
  Nd  Nd1  1  0.885199  0.111577  0.264205  1
  Nd  Nd2  1  0.051979  0.286691  0.616429  1
  Nd  Nd3  1  0.723475  0.935831  0.859794  1
  Nd  Nd4  1  0.933478  0.713267  0.361409  1
  Nd  Nd5  1  0.279454  0.040914  0.113985  1
  Nd  Nd6  1  0.633608  0.376397  0.738774  1
  Nd  Nd7  1  0.373279  0.637788  0.252013  1
  Se  Se8  1  0.219121  0.463611  0.939072  1
  Se  Se9  1  0.468213  0.207367  0.443399  1
  Se  Se10  1  0.799805  0.504617  0.032340  1
  Br  Br11  1  0.510956  0.811347  0.521944  1
  O  O12  1  0.602438  0.171786  0.203493  1
  O  O13  1  0.828705  0.396781  0.321682  1
  O  O14  1  0.337805  0.832459  0.931714  1
  O  O15  1  0.183715  0.598472  0.698885  1
  O  O16  1  0.482966  0.083641  0.707969  1
  O  O17  1  0.919068  0.529116  0.748714  1
  O  O18  1  0.534337  0.903759  0.216536  1
  O  O19  1  0.100322  0.476873  0.207863  1
  O  O20  1  0.318889  0.206398  0.375594  1
  O  O21  1  0.797275  0.664683  0.099628  1
  O  O22  1  0.674484  0.799208  0.578677  1
  O  O23  1  0.217921  0.311285  0.868206  1
  O  O24  1  0.882356  0.924783  0.078519  1
  O  O25  1  0.076991  0.108556  0.417015  1
  O  O26  1  0.094111  0.089388  0.918771  1
  O  O27  1  0.927898  0.880409  0.571230  1
  O  O28  1  0.158511  0.724660  0.142313  1
  O  O29  1  0.305654  0.838689  0.438744  1
  O  O30  1  0.829976  0.321962  0.924805  1
  O  O31  1  0.734524  0.161129  0.646081  1
  O  O32  1  0.378507  0.450667  0.988938  1
  O  O33  1  0.543496  0.632051  0.507981  1
  O  O34  1  0.625649  0.544497  0.009644  1
  O  O35  1  0.457245  0.370136  0.493726  1
