# generated using pymatgen
data_YLu3(Si5Os3)2
_symmetry_space_group_name_H-M   'P 1'
_cell_length_a   8.11507803
_cell_length_b   8.09852359
_cell_length_c   5.75766312
_cell_angle_alpha   70.62638433
_cell_angle_beta   70.69719566
_cell_angle_gamma   94.29207796
_symmetry_Int_Tables_number   1
_chemical_formula_structural   YLu3(Si5Os3)2
_chemical_formula_sum   'Y1 Lu3 Si10 Os6'
_cell_volume   329.58843013
_cell_formula_units_Z   1
loop_
 _symmetry_equiv_pos_site_id
 _symmetry_equiv_pos_as_xyz
  1  'x, y, z'
loop_
 _atom_site_type_symbol
 _atom_site_label
 _atom_site_symmetry_multiplicity
 _atom_site_fract_x
 _atom_site_fract_y
 _atom_site_fract_z
 _atom_site_occupancy
  Y  Y0  1  0.867569  0.600278  0.754226  1
  Lu  Lu1  1  0.399951  0.131010  0.746372  1
  Lu  Lu2  1  0.131031  0.400742  0.245828  1
  Lu  Lu3  1  0.600563  0.868023  0.253929  1
  Si  Si4  1  0.070927  0.262780  0.831453  1
  Si  Si5  1  0.738454  0.932436  0.666584  1
  Si  Si6  1  0.930514  0.737569  0.167196  1
  Si  Si7  1  0.260399  0.069799  0.332850  1
  Si  Si8  1  0.206233  0.794385  0.752321  1
  Si  Si9  1  0.795346  0.207014  0.245767  1
  Si  Si10  1  0.510625  0.485692  0.752332  1
  Si  Si11  1  0.487211  0.511941  0.249798  1
  Si  Si12  1  0.775686  0.223384  0.751777  1
  Si  Si13  1  0.224867  0.775651  0.248045  1
  Os  Os14  1  0.256629  0.545504  0.629317  1
  Os  Os15  1  0.456936  0.746054  0.868167  1
  Os  Os16  1  0.744121  0.453578  0.372145  1
  Os  Os17  1  0.542701  0.252535  0.132785  1
  Os  Os18  1  0.003190  0.998421  0.749457  1
  Os  Os19  1  0.997046  0.003206  0.249650  1
