# generated using pymatgen
data_Gd3(Zn2Si)2
_symmetry_space_group_name_H-M   'P 1'
_cell_length_a   6.90140700
_cell_length_b   6.90140607
_cell_length_c   4.21023700
_cell_angle_alpha   90.00000000
_cell_angle_beta   90.00000000
_cell_angle_gamma   119.99999966
_symmetry_Int_Tables_number   1
_chemical_formula_structural   Gd3(Zn2Si)2
_chemical_formula_sum   'Gd3 Zn4 Si2'
_cell_volume   173.66503905
_cell_formula_units_Z   1
loop_
 _symmetry_equiv_pos_site_id
 _symmetry_equiv_pos_as_xyz
  1  'x, y, z'
loop_
 _atom_site_type_symbol
 _atom_site_label
 _atom_site_symmetry_multiplicity
 _atom_site_fract_x
 _atom_site_fract_y
 _atom_site_fract_z
 _atom_site_occupancy
  Gd  Gd0  1  0.421983  0.421983  0.500000  1
  Gd  Gd1  1  0.578017  0.000000  0.500000  1
  Gd  Gd2  1  0.000000  0.578017  0.500000  1
  Zn  Zn3  1  0.000000  0.000000  0.500000  1
  Zn  Zn4  1  0.759428  0.759428  0.000000  1
  Zn  Zn5  1  0.240572  0.000000  0.000000  1
  Zn  Zn6  1  0.000000  0.240572  0.000000  1
  Si  Si7  1  0.666667  0.333333  0.000000  1
  Si  Si8  1  0.333333  0.666667  0.000000  1
