# generated using pymatgen
data_KNb6BiS12
_symmetry_space_group_name_H-M   'P 1'
_cell_length_a   5.86229200
_cell_length_b   5.86229131
_cell_length_c   14.92331200
_cell_angle_alpha   90.00000000
_cell_angle_beta   90.00000000
_cell_angle_gamma   120.00000389
_symmetry_Int_Tables_number   1
_chemical_formula_structural   KNb6BiS12
_chemical_formula_sum   'K1 Nb6 Bi1 S12'
_cell_volume   444.15103245
_cell_formula_units_Z   1
loop_
 _symmetry_equiv_pos_site_id
 _symmetry_equiv_pos_as_xyz
  1  'x, y, z'
loop_
 _atom_site_type_symbol
 _atom_site_label
 _atom_site_symmetry_multiplicity
 _atom_site_fract_x
 _atom_site_fract_y
 _atom_site_fract_z
 _atom_site_occupancy
  K  K0  1  0.000000  0.000000  0.500000  1
  Nb  Nb1  1  0.000000  0.000000  0.764743  1
  Nb  Nb2  1  0.000000  0.000000  0.235257  1
  Nb  Nb3  1  0.333333  0.666667  0.234335  1
  Nb  Nb4  1  0.666667  0.333333  0.765665  1
  Nb  Nb5  1  0.666667  0.333333  0.234335  1
  Nb  Nb6  1  0.333333  0.666667  0.765665  1
  Bi  Bi7  1  0.000000  0.000000  0.000000  1
  S  S8  1  0.338454  0.000000  0.130392  1
  S  S9  1  0.000000  0.338454  0.130392  1
  S  S10  1  0.661546  0.661546  0.130392  1
  S  S11  1  0.336653  0.336653  0.662068  1
  S  S12  1  0.663347  0.663347  0.337932  1
  S  S13  1  0.663347  0.000000  0.662068  1
  S  S14  1  0.000000  0.663347  0.662068  1
  S  S15  1  0.000000  0.661546  0.869608  1
  S  S16  1  0.338454  0.338454  0.869608  1
  S  S17  1  0.000000  0.336653  0.337932  1
  S  S18  1  0.336653  0.000000  0.337932  1
  S  S19  1  0.661546  0.000000  0.869608  1
