# generated using pymatgen
data_Ho2MnC2
_symmetry_space_group_name_H-M   'P 1'
_cell_length_a   5.01107600
_cell_length_b   6.30991800
_cell_length_c   9.64390700
_cell_angle_alpha   90.00000000
_cell_angle_beta   90.00000000
_cell_angle_gamma   90.00000000
_symmetry_Int_Tables_number   1
_chemical_formula_structural   Ho2MnC2
_chemical_formula_sum   'Ho8 Mn4 C8'
_cell_volume   304.93531151
_cell_formula_units_Z   4
loop_
 _symmetry_equiv_pos_site_id
 _symmetry_equiv_pos_as_xyz
  1  'x, y, z'
loop_
 _atom_site_type_symbol
 _atom_site_label
 _atom_site_symmetry_multiplicity
 _atom_site_fract_x
 _atom_site_fract_y
 _atom_site_fract_z
 _atom_site_occupancy
  Ho  Ho0  1  0.250000  0.474424  0.785302  1
  Ho  Ho1  1  0.750000  0.025576  0.285302  1
  Ho  Ho2  1  0.250000  0.974424  0.714698  1
  Ho  Ho3  1  0.750000  0.525576  0.214698  1
  Ho  Ho4  1  0.250000  0.817339  0.054713  1
  Ho  Ho5  1  0.750000  0.682661  0.554713  1
  Ho  Ho6  1  0.250000  0.317339  0.445287  1
  Ho  Ho7  1  0.750000  0.182661  0.945287  1
  Mn  Mn8  1  0.250000  0.272854  0.143047  1
  Mn  Mn9  1  0.750000  0.227146  0.643047  1
  Mn  Mn10  1  0.250000  0.772854  0.356953  1
  Mn  Mn11  1  0.750000  0.727146  0.856953  1
  C  C12  1  0.250000  0.191312  0.964584  1
  C  C13  1  0.750000  0.808688  0.035416  1
  C  C14  1  0.250000  0.691312  0.535416  1
  C  C15  1  0.750000  0.308688  0.464584  1
  C  C16  1  0.250000  0.038045  0.260064  1
  C  C17  1  0.750000  0.461955  0.760064  1
  C  C18  1  0.250000  0.538045  0.239936  1
  C  C19  1  0.750000  0.961955  0.739936  1
