# generated using pymatgen
data_Tm8B24Mo2RuRh
_symmetry_space_group_name_H-M   'P 1'
_cell_length_a   3.62502400
_cell_length_b   9.13005503
_cell_length_c   11.51390709
_cell_angle_alpha   90.29786323
_cell_angle_beta   90.00000000
_cell_angle_gamma   90.00000000
_symmetry_Int_Tables_number   1
_chemical_formula_structural   Tm8B24Mo2RuRh
_chemical_formula_sum   'Tm8 B24 Mo2 Ru1 Rh1'
_cell_volume   381.06681776
_cell_formula_units_Z   1
loop_
 _symmetry_equiv_pos_site_id
 _symmetry_equiv_pos_as_xyz
  1  'x, y, z'
loop_
 _atom_site_type_symbol
 _atom_site_label
 _atom_site_symmetry_multiplicity
 _atom_site_fract_x
 _atom_site_fract_y
 _atom_site_fract_z
 _atom_site_occupancy
  Tm  Tm0  1  0.500000  0.318245  0.414711  1
  Tm  Tm1  1  0.500000  0.678578  0.589399  1
  Tm  Tm2  1  0.500000  0.177487  0.914166  1
  Tm  Tm3  1  0.500000  0.824524  0.082675  1
  Tm  Tm4  1  0.500000  0.443033  0.127384  1
  Tm  Tm5  1  0.500000  0.554982  0.871677  1
  Tm  Tm6  1  0.500000  0.057023  0.628128  1
  Tm  Tm7  1  0.500000  0.944161  0.372030  1
  B  B8  1  0.000000  0.104040  0.472172  1
  B  B9  1  0.000000  0.894569  0.527926  1
  B  B10  1  0.000000  0.395733  0.970598  1
  B  B11  1  0.000000  0.604835  0.029741  1
  B  B12  1  0.000000  0.132322  0.318276  1
  B  B13  1  0.000000  0.867868  0.682108  1
  B  B14  1  0.000000  0.369163  0.813877  1
  B  B15  1  0.000000  0.631614  0.184045  1
  B  B16  1  0.000000  0.051799  0.065398  1
  B  B17  1  0.000000  0.948342  0.934251  1
  B  B18  1  0.000000  0.446288  0.566278  1
  B  B19  1  0.000000  0.554032  0.434404  1
  B  B20  1  0.000000  0.483213  0.288025  1
  B  B21  1  0.000000  0.516778  0.711762  1
  B  B22  1  0.000000  0.021288  0.786474  1
  B  B23  1  0.000000  0.978518  0.213214  1
  B  B24  1  0.000000  0.251191  0.078790  1
  B  B25  1  0.000000  0.749315  0.921203  1
  B  B26  1  0.000000  0.250861  0.580641  1
  B  B27  1  0.000000  0.749933  0.420892  1
  B  B28  1  0.000000  0.296097  0.236815  1
  B  B29  1  0.000000  0.704260  0.763762  1
  B  B30  1  0.000000  0.208996  0.733907  1
  B  B31  1  0.000000  0.791662  0.265466  1
  Mo  Mo32  1  0.500000  0.139129  0.181433  1
  Mo  Mo33  1  0.500000  0.860405  0.818663  1
  Ru  Ru34  1  0.500000  0.361784  0.677544  1
  Rh  Rh35  1  0.500000  0.637931  0.322166  1
