# generated using pymatgen
data_Ac3Mg3GaSn2
_symmetry_space_group_name_H-M   'P 1'
_cell_length_a   8.03403197
_cell_length_b   8.03403167
_cell_length_c   4.84249600
_cell_angle_alpha   90.00000000
_cell_angle_beta   90.00000000
_cell_angle_gamma   119.98729510
_symmetry_Int_Tables_number   1
_chemical_formula_structural   Ac3Mg3GaSn2
_chemical_formula_sum   'Ac3 Mg3 Ga1 Sn2'
_cell_volume   270.72139715
_cell_formula_units_Z   1
loop_
 _symmetry_equiv_pos_site_id
 _symmetry_equiv_pos_as_xyz
  1  'x, y, z'
loop_
 _atom_site_type_symbol
 _atom_site_label
 _atom_site_symmetry_multiplicity
 _atom_site_fract_x
 _atom_site_fract_y
 _atom_site_fract_z
 _atom_site_occupancy
  Ac  Ac0  1  0.999941  0.597147  0.000000  1
  Ac  Ac1  1  0.402693  0.402693  0.000000  1
  Ac  Ac2  1  0.597147  0.999941  0.000000  1
  Mg  Mg3  1  0.999656  0.233702  0.500000  1
  Mg  Mg4  1  0.766658  0.766658  0.500000  1
  Mg  Mg5  1  0.233702  0.999656  0.500000  1
  Ga  Ga6  1  0.000112  0.000112  0.000000  1
  Sn  Sn7  1  0.333544  0.666548  0.500000  1
  Sn  Sn8  1  0.666548  0.333544  0.500000  1
