# generated using pymatgen
data_Dy4Ta2Ir5Ru
_symmetry_space_group_name_H-M   'P 1'
_cell_length_a   5.65632799
_cell_length_b   5.65871412
_cell_length_c   8.21585800
_cell_angle_alpha   90.00000000
_cell_angle_beta   90.00000000
_cell_angle_gamma   120.01424262
_symmetry_Int_Tables_number   1
_chemical_formula_structural   Dy4Ta2Ir5Ru
_chemical_formula_sum   'Dy4 Ta2 Ir5 Ru1'
_cell_volume   227.70551405
_cell_formula_units_Z   1
loop_
 _symmetry_equiv_pos_site_id
 _symmetry_equiv_pos_as_xyz
  1  'x, y, z'
loop_
 _atom_site_type_symbol
 _atom_site_label
 _atom_site_symmetry_multiplicity
 _atom_site_fract_x
 _atom_site_fract_y
 _atom_site_fract_z
 _atom_site_occupancy
  Dy  Dy0  1  0.665647  0.332821  0.561633  1
  Dy  Dy1  1  0.333777  0.666889  0.438981  1
  Dy  Dy2  1  0.333777  0.666889  0.061019  1
  Dy  Dy3  1  0.665647  0.332821  0.938367  1
  Ta  Ta4  1  0.002287  0.001145  0.497060  1
  Ta  Ta5  1  0.002287  0.001145  0.002940  1
  Ir  Ir6  1  0.171669  0.343750  0.750000  1
  Ir  Ir7  1  0.171670  0.827907  0.750000  1
  Ir  Ir8  1  0.656564  0.828279  0.750000  1
  Ir  Ir9  1  0.826282  0.654332  0.250000  1
  Ir  Ir10  1  0.826286  0.171960  0.250000  1
  Ru  Ru11  1  0.344106  0.172063  0.250000  1
