# generated using pymatgen
data_Sr3Nd(Al3Pd)6
_symmetry_space_group_name_H-M   'P 1'
_cell_length_a   7.74080462
_cell_length_b   7.74238889
_cell_length_c   9.71102300
_cell_angle_alpha   90.00000000
_cell_angle_beta   90.00000000
_cell_angle_gamma   119.41957059
_symmetry_Int_Tables_number   1
_chemical_formula_structural   Sr3Nd(Al3Pd)6
_chemical_formula_sum   'Sr3 Nd1 Al18 Pd6'
_cell_volume   506.95242184
_cell_formula_units_Z   1
loop_
 _symmetry_equiv_pos_site_id
 _symmetry_equiv_pos_as_xyz
  1  'x, y, z'
loop_
 _atom_site_type_symbol
 _atom_site_label
 _atom_site_symmetry_multiplicity
 _atom_site_fract_x
 _atom_site_fract_y
 _atom_site_fract_z
 _atom_site_occupancy
  Sr  Sr0  1  0.994072  0.669874  0.250000  1
  Sr  Sr1  1  0.002979  0.330432  0.750000  1
  Sr  Sr2  1  0.671404  0.995289  0.250000  1
  Nd  Nd3  1  0.330365  0.003113  0.750000  1
  Al  Al4  1  0.138306  0.136526  0.250000  1
  Al  Al5  1  0.868415  0.866181  0.750000  1
  Al  Al6  1  0.006307  0.335177  0.072020  1
  Al  Al7  1  0.996884  0.665513  0.923181  1
  Al  Al8  1  0.996884  0.665513  0.576819  1
  Al  Al9  1  0.334875  0.004499  0.429739  1
  Al  Al10  1  0.006307  0.335177  0.427980  1
  Al  Al11  1  0.664780  0.996983  0.576535  1
  Al  Al12  1  0.664780  0.996983  0.923465  1
  Al  Al13  1  0.334875  0.004499  0.070261  1
  Al  Al14  1  0.334282  0.333457  0.556251  1
  Al  Al15  1  0.662985  0.663070  0.456239  1
  Al  Al16  1  0.662985  0.663070  0.043761  1
  Al  Al17  1  0.334282  0.333457  0.943749  1
  Al  Al18  1  0.341650  0.542816  0.250000  1
  Al  Al19  1  0.654235  0.454426  0.750000  1
  Al  Al20  1  0.541094  0.340034  0.250000  1
  Al  Al21  1  0.458055  0.664668  0.750000  1
  Pd  Pd22  1  0.670588  0.328913  0.998544  1
  Pd  Pd23  1  0.328777  0.670479  0.998255  1
  Pd  Pd24  1  0.328777  0.670479  0.501745  1
  Pd  Pd25  1  0.670588  0.328913  0.501456  1
  Pd  Pd26  1  0.000234  0.000231  0.998239  1
  Pd  Pd27  1  0.000234  0.000231  0.501761  1
