# generated using pymatgen
data_Sr2LiRe2H17
_symmetry_space_group_name_H-M   'P 1'
_cell_length_a   5.01595380
_cell_length_b   5.01595442
_cell_length_c   9.28632067
_cell_angle_alpha   90.03240118
_cell_angle_beta   89.96759770
_cell_angle_gamma   119.37215075
_symmetry_Int_Tables_number   1
_chemical_formula_structural   Sr2LiRe2H17
_chemical_formula_sum   'Sr2 Li1 Re2 H17'
_cell_volume   203.60775767
_cell_formula_units_Z   1
loop_
 _symmetry_equiv_pos_site_id
 _symmetry_equiv_pos_as_xyz
  1  'x, y, z'
loop_
 _atom_site_type_symbol
 _atom_site_label
 _atom_site_symmetry_multiplicity
 _atom_site_fract_x
 _atom_site_fract_y
 _atom_site_fract_z
 _atom_site_occupancy
  Sr  Sr0  1  0.993006  0.006994  0.990690  1
  Sr  Sr1  1  0.995013  0.004987  0.490913  1
  Li  Li2  1  0.663560  0.336440  0.238757  1
  Re  Re3  1  0.322915  0.677085  0.253296  1
  Re  Re4  1  0.644481  0.355519  0.749449  1
  H  H5  1  0.512809  0.487191  0.887321  1
  H  H6  1  0.446414  0.553586  0.397137  1
  H  H7  1  0.510284  0.489716  0.615212  1
  H  H8  1  0.507244  0.986563  0.368615  1
  H  H9  1  0.926270  0.496607  0.622224  1
  H  H10  1  0.483980  0.939018  0.115357  1
  H  H11  1  0.934086  0.495760  0.874136  1
  H  H12  1  0.503393  0.073730  0.622224  1
  H  H13  1  0.013437  0.492756  0.368615  1
  H  H14  1  0.504240  0.065914  0.874136  1
  H  H15  1  0.060982  0.516020  0.115357  1
  H  H16  1  0.683714  0.744041  0.217837  1
  H  H17  1  0.812133  0.738556  0.747034  1
  H  H18  1  0.261444  0.187867  0.747034  1
  H  H19  1  0.255959  0.316286  0.217837  1
  H  H20  1  0.127661  0.872339  0.242134  1
  H  H21  1  0.836974  0.163026  0.744689  1
