# generated using pymatgen
data_DyZrB6Ru
_symmetry_space_group_name_H-M   'P 1'
_cell_length_a   3.56271900
_cell_length_b   9.04759700
_cell_length_c   11.41444800
_cell_angle_alpha   90.00000000
_cell_angle_beta   90.00000000
_cell_angle_gamma   90.00000000
_symmetry_Int_Tables_number   1
_chemical_formula_structural   DyZrB6Ru
_chemical_formula_sum   'Dy4 Zr4 B24 Ru4'
_cell_volume   367.93383889
_cell_formula_units_Z   4
loop_
 _symmetry_equiv_pos_site_id
 _symmetry_equiv_pos_as_xyz
  1  'x, y, z'
loop_
 _atom_site_type_symbol
 _atom_site_label
 _atom_site_symmetry_multiplicity
 _atom_site_fract_x
 _atom_site_fract_y
 _atom_site_fract_z
 _atom_site_occupancy
  Dy  Dy0  1  0.000000  0.322166  0.413437  1
  Dy  Dy1  1  0.000000  0.677834  0.586563  1
  Dy  Dy2  1  0.000000  0.822166  0.086563  1
  Dy  Dy3  1  0.000000  0.177834  0.913437  1
  Zr  Zr4  1  0.000000  0.944717  0.374045  1
  Zr  Zr5  1  0.000000  0.055283  0.625955  1
  Zr  Zr6  1  0.000000  0.444717  0.125955  1
  Zr  Zr7  1  0.000000  0.555283  0.874045  1
  B  B8  1  0.500000  0.554276  0.433768  1
  B  B9  1  0.500000  0.445724  0.566232  1
  B  B10  1  0.500000  0.054276  0.066232  1
  B  B11  1  0.500000  0.945724  0.933768  1
  B  B12  1  0.500000  0.751473  0.419015  1
  B  B13  1  0.500000  0.248527  0.580985  1
  B  B14  1  0.500000  0.251473  0.080985  1
  B  B15  1  0.500000  0.748527  0.919015  1
  B  B16  1  0.500000  0.794856  0.264075  1
  B  B17  1  0.500000  0.205144  0.735925  1
  B  B18  1  0.500000  0.294856  0.235925  1
  B  B19  1  0.500000  0.705144  0.764075  1
  B  B20  1  0.500000  0.630475  0.183161  1
  B  B21  1  0.500000  0.369525  0.816839  1
  B  B22  1  0.500000  0.130475  0.316839  1
  B  B23  1  0.500000  0.869525  0.683161  1
  B  B24  1  0.500000  0.982037  0.212988  1
  B  B25  1  0.500000  0.017963  0.787012  1
  B  B26  1  0.500000  0.482037  0.287012  1
  B  B27  1  0.500000  0.517963  0.712988  1
  B  B28  1  0.500000  0.602306  0.027787  1
  B  B29  1  0.500000  0.397694  0.972213  1
  B  B30  1  0.500000  0.102306  0.472213  1
  B  B31  1  0.500000  0.897694  0.527787  1
  Ru  Ru32  1  0.000000  0.641804  0.319277  1
  Ru  Ru33  1  0.000000  0.358196  0.680723  1
  Ru  Ru34  1  0.000000  0.141804  0.180723  1
  Ru  Ru35  1  0.000000  0.858196  0.819277  1
