# generated using pymatgen
data_Nd2Dy(Ga2Ni3)3
_symmetry_space_group_name_H-M   'P 1'
_cell_length_a   4.11958400
_cell_length_b   8.81751697
_cell_length_c   8.81751601
_cell_angle_alpha   60.06436336
_cell_angle_beta   90.00000000
_cell_angle_gamma   90.00000000
_symmetry_Int_Tables_number   1
_chemical_formula_structural   Nd2Dy(Ga2Ni3)3
_chemical_formula_sum   'Nd2 Dy1 Ga6 Ni9'
_cell_volume   277.56062702
_cell_formula_units_Z   1
loop_
 _symmetry_equiv_pos_site_id
 _symmetry_equiv_pos_as_xyz
  1  'x, y, z'
loop_
 _atom_site_type_symbol
 _atom_site_label
 _atom_site_symmetry_multiplicity
 _atom_site_fract_x
 _atom_site_fract_y
 _atom_site_fract_z
 _atom_site_occupancy
  Nd  Nd0  1  0.500000  0.333382  0.333422  1
  Nd  Nd1  1  0.500000  0.666578  0.666618  1
  Dy  Dy2  1  0.000000  0.999867  0.000133  1
  Ga  Ga3  1  0.500000  0.731665  0.268335  1
  Ga  Ga4  1  0.500000  0.268279  0.999975  1
  Ga  Ga5  1  0.500000  0.000025  0.731721  1
  Ga  Ga6  1  0.000000  0.480460  0.519540  1
  Ga  Ga7  1  0.000000  0.519553  0.999932  1
  Ga  Ga8  1  0.000000  0.000068  0.480447  1
  Ni  Ni9  1  0.000000  0.196431  0.171837  1
  Ni  Ni10  1  0.000000  0.171755  0.632053  1
  Ni  Ni11  1  0.000000  0.631790  0.196351  1
  Ni  Ni12  1  0.000000  0.828162  0.803569  1
  Ni  Ni13  1  0.000000  0.367947  0.828245  1
  Ni  Ni14  1  0.000000  0.803649  0.368210  1
  Ni  Ni15  1  0.500000  0.290844  0.709156  1
  Ni  Ni16  1  0.500000  0.709364  0.999918  1
  Ni  Ni17  1  0.500000  0.000082  0.290636  1
