# generated using pymatgen
data_Yb12Ag11Ge12Os
_symmetry_space_group_name_H-M   'P 1'
_cell_length_a   4.52551500
_cell_length_b   7.83345513
_cell_length_c   21.43708144
_cell_angle_alpha   90.14401557
_cell_angle_beta   90.00000000
_cell_angle_gamma   90.00000000
_symmetry_Int_Tables_number   1
_chemical_formula_structural   Yb12Ag11Ge12Os
_chemical_formula_sum   'Yb12 Ag11 Ge12 Os1'
_cell_volume   759.95111178
_cell_formula_units_Z   1
loop_
 _symmetry_equiv_pos_site_id
 _symmetry_equiv_pos_as_xyz
  1  'x, y, z'
loop_
 _atom_site_type_symbol
 _atom_site_label
 _atom_site_symmetry_multiplicity
 _atom_site_fract_x
 _atom_site_fract_y
 _atom_site_fract_z
 _atom_site_occupancy
  Yb  Yb0  1  0.250000  0.789016  0.166208  1
  Yb  Yb1  1  0.250000  0.781774  0.500377  1
  Yb  Yb2  1  0.250000  0.711696  0.332878  1
  Yb  Yb3  1  0.750000  0.219854  0.500970  1
  Yb  Yb4  1  0.750000  0.308415  0.671748  1
  Yb  Yb5  1  0.750000  0.282448  0.000324  1
  Yb  Yb6  1  0.250000  0.785820  0.831033  1
  Yb  Yb7  1  0.250000  0.718536  0.999003  1
  Yb  Yb8  1  0.750000  0.212140  0.167213  1
  Yb  Yb9  1  0.750000  0.289129  0.333467  1
  Yb  Yb10  1  0.250000  0.702002  0.666542  1
  Yb  Yb11  1  0.750000  0.214934  0.832774  1
  Ag  Ag12  1  0.750000  0.582303  0.900961  1
  Ag  Ag13  1  0.250000  0.416437  0.435022  1
  Ag  Ag14  1  0.750000  0.584329  0.563434  1
  Ag  Ag15  1  0.750000  0.917895  0.406397  1
  Ag  Ag16  1  0.250000  0.417689  0.093163  1
  Ag  Ag17  1  0.250000  0.413393  0.237801  1
  Ag  Ag18  1  0.750000  0.913355  0.262020  1
  Ag  Ag19  1  0.250000  0.085871  0.735934  1
  Ag  Ag20  1  0.250000  0.081824  0.935305  1
  Ag  Ag21  1  0.750000  0.915960  0.065762  1
  Ag  Ag22  1  0.250000  0.084321  0.595559  1
  Ge  Ge23  1  0.250000  0.411098  0.901707  1
  Ge  Ge24  1  0.750000  0.886388  0.730973  1
  Ge  Ge25  1  0.750000  0.583930  0.228583  1
  Ge  Ge26  1  0.250000  0.087290  0.072368  1
  Ge  Ge27  1  0.750000  0.911290  0.928529  1
  Ge  Ge28  1  0.750000  0.914635  0.602616  1
  Ge  Ge29  1  0.250000  0.410944  0.570307  1
  Ge  Ge30  1  0.250000  0.087837  0.396794  1
  Ge  Ge31  1  0.250000  0.083568  0.271067  1
  Ge  Ge32  1  0.750000  0.588483  0.425553  1
  Ge  Ge33  1  0.250000  0.435617  0.770929  1
  Ge  Ge34  1  0.750000  0.587185  0.103373  1
  Os  Os35  1  0.750000  0.582591  0.763308  1
