# generated using pymatgen
data_Er3ThHgRu
_symmetry_space_group_name_H-M   'P 1'
_cell_length_a   9.62560845
_cell_length_b   9.62560910
_cell_length_c   9.62560900
_cell_angle_alpha   59.99999691
_cell_angle_beta   59.99999468
_cell_angle_gamma   60.00000265
_symmetry_Int_Tables_number   1
_chemical_formula_structural   Er3ThHgRu
_chemical_formula_sum   'Er12 Th4 Hg4 Ru4'
_cell_volume   630.62271807
_cell_formula_units_Z   4
loop_
 _symmetry_equiv_pos_site_id
 _symmetry_equiv_pos_as_xyz
  1  'x, y, z'
loop_
 _atom_site_type_symbol
 _atom_site_label
 _atom_site_symmetry_multiplicity
 _atom_site_fract_x
 _atom_site_fract_y
 _atom_site_fract_z
 _atom_site_occupancy
  Er  Er0  1  0.062354  0.437646  0.437646  1
  Er  Er1  1  0.437646  0.062354  0.062354  1
  Er  Er2  1  0.437646  0.062354  0.437646  1
  Er  Er3  1  0.062354  0.437646  0.062354  1
  Er  Er4  1  0.437646  0.437646  0.062354  1
  Er  Er5  1  0.062354  0.062354  0.437646  1
  Er  Er6  1  0.185656  0.814344  0.814344  1
  Er  Er7  1  0.814344  0.185656  0.185656  1
  Er  Er8  1  0.814344  0.185656  0.814344  1
  Er  Er9  1  0.185656  0.814344  0.185656  1
  Er  Er10  1  0.814344  0.814344  0.185656  1
  Er  Er11  1  0.185656  0.185656  0.814344  1
  Th  Th12  1  0.599215  0.599215  0.599215  1
  Th  Th13  1  0.599215  0.599215  0.202354  1
  Th  Th14  1  0.599215  0.202354  0.599215  1
  Th  Th15  1  0.202354  0.599215  0.599215  1
  Hg  Hg16  1  0.834501  0.834501  0.834501  1
  Hg  Hg17  1  0.834501  0.834501  0.496498  1
  Hg  Hg18  1  0.834501  0.496498  0.834501  1
  Hg  Hg19  1  0.496498  0.834501  0.834501  1
  Ru  Ru20  1  0.393027  0.393027  0.393027  1
  Ru  Ru21  1  0.393027  0.393027  0.820917  1
  Ru  Ru22  1  0.393027  0.820917  0.393027  1
  Ru  Ru23  1  0.820917  0.393027  0.393027  1
