# generated using pymatgen
data_Li2Fe3PbO8
_symmetry_space_group_name_H-M   'P 1'
_cell_length_a   6.03789100
_cell_length_b   6.03775507
_cell_length_c   10.05965900
_cell_angle_alpha   90.00000000
_cell_angle_beta   90.00000000
_cell_angle_gamma   119.99926494
_symmetry_Int_Tables_number   1
_chemical_formula_structural   Li2Fe3PbO8
_chemical_formula_sum   'Li4 Fe6 Pb2 O16'
_cell_volume   317.59807938
_cell_formula_units_Z   2
loop_
 _symmetry_equiv_pos_site_id
 _symmetry_equiv_pos_as_xyz
  1  'x, y, z'
loop_
 _atom_site_type_symbol
 _atom_site_label
 _atom_site_symmetry_multiplicity
 _atom_site_fract_x
 _atom_site_fract_y
 _atom_site_fract_z
 _atom_site_occupancy
  Li  Li0  1  0.333334  0.666669  0.897886  1
  Li  Li1  1  0.000004  0.999996  0.993443  1
  Li  Li2  1  0.999996  0.000004  0.493443  1
  Li  Li3  1  0.666666  0.333331  0.397886  1
  Fe  Fe4  1  0.169063  0.830933  0.215143  1
  Fe  Fe5  1  0.169066  0.338134  0.215145  1
  Fe  Fe6  1  0.661879  0.830936  0.215163  1
  Fe  Fe7  1  0.338121  0.169064  0.715163  1
  Fe  Fe8  1  0.830934  0.661866  0.715145  1
  Fe  Fe9  1  0.830937  0.169067  0.715143  1
  Pb  Pb10  1  0.333331  0.666670  0.491450  1
  Pb  Pb11  1  0.666669  0.333330  0.991450  1
  O  O12  1  0.155020  0.844986  0.602947  1
  O  O13  1  0.026560  0.513283  0.332475  1
  O  O14  1  0.333331  0.666670  0.108740  1
  O  O15  1  0.999992  0.999997  0.310422  1
  O  O16  1  0.000008  0.000003  0.810422  1
  O  O17  1  0.155030  0.310052  0.602941  1
  O  O18  1  0.486675  0.973387  0.332489  1
  O  O19  1  0.486671  0.513296  0.332491  1
  O  O20  1  0.310085  0.155045  0.102927  1
  O  O21  1  0.689915  0.844955  0.602927  1
  O  O22  1  0.513329  0.486704  0.832491  1
  O  O23  1  0.513325  0.026613  0.832489  1
  O  O24  1  0.666669  0.333330  0.608740  1
  O  O25  1  0.844970  0.689948  0.102941  1
  O  O26  1  0.973440  0.486717  0.832475  1
  O  O27  1  0.844980  0.155014  0.102947  1
