# generated using pymatgen
data_Er3Tm17(GaBi3)3
_symmetry_space_group_name_H-M   'P 1'
_cell_length_a   8.07177662
_cell_length_b   9.26615100
_cell_length_c   11.90905507
_cell_angle_alpha   90.00000000
_cell_angle_beta   90.02870766
_cell_angle_gamma   90.00000000
_symmetry_Int_Tables_number   1
_chemical_formula_structural   Er3Tm17(GaBi3)3
_chemical_formula_sum   'Er3 Tm17 Ga3 Bi9'
_cell_volume   890.72933804
_cell_formula_units_Z   1
loop_
 _symmetry_equiv_pos_site_id
 _symmetry_equiv_pos_as_xyz
  1  'x, y, z'
loop_
 _atom_site_type_symbol
 _atom_site_label
 _atom_site_symmetry_multiplicity
 _atom_site_fract_x
 _atom_site_fract_y
 _atom_site_fract_z
 _atom_site_occupancy
  Er  Er0  1  0.329331  0.750000  0.283633  1
  Er  Er1  1  0.686480  0.250000  0.730773  1
  Er  Er2  1  0.830702  0.250000  0.212758  1
  Tm  Tm3  1  0.682855  0.930279  0.435963  1
  Tm  Tm4  1  0.819963  0.556708  0.938326  1
  Tm  Tm5  1  0.310818  0.453229  0.566459  1
  Tm  Tm6  1  0.177961  0.055535  0.059863  1
  Tm  Tm7  1  0.310818  0.046771  0.566459  1
  Tm  Tm8  1  0.177961  0.444465  0.059863  1
  Tm  Tm9  1  0.682855  0.569721  0.435963  1
  Tm  Tm10  1  0.819963  0.943292  0.938326  1
  Tm  Tm11  1  0.174288  0.750000  0.784945  1
  Tm  Tm12  1  0.037792  0.750000  0.496411  1
  Tm  Tm13  1  0.464086  0.750000  0.996822  1
  Tm  Tm14  1  0.979006  0.250000  0.504516  1
  Tm  Tm15  1  0.533271  0.250000  0.004872  1
  Tm  Tm16  1  0.857740  0.750000  0.205035  1
  Tm  Tm17  1  0.641840  0.750000  0.707111  1
  Tm  Tm18  1  0.143034  0.250000  0.792300  1
  Tm  Tm19  1  0.341778  0.250000  0.285082  1
  Ga  Ga20  1  0.094560  0.750000  0.023569  1
  Ga  Ga21  1  0.407405  0.750000  0.525037  1
  Ga  Ga22  1  0.903167  0.250000  0.972061  1
  Bi  Bi23  1  0.596250  0.250000  0.474475  1
  Bi  Bi24  1  0.563970  0.990102  0.175459  1
  Bi  Bi25  1  0.934234  0.512548  0.674324  1
  Bi  Bi26  1  0.436265  0.488131  0.825314  1
  Bi  Bi27  1  0.063568  0.009200  0.324591  1
  Bi  Bi28  1  0.436265  0.011869  0.825314  1
  Bi  Bi29  1  0.063568  0.490800  0.324591  1
  Bi  Bi30  1  0.563970  0.509898  0.175459  1
  Bi  Bi31  1  0.934234  0.987452  0.674324  1
