# generated using pymatgen
data_Sr9Tb(PN5)2
_symmetry_space_group_name_H-M   'P 1'
_cell_length_a   7.49815164
_cell_length_b   7.49815104
_cell_length_c   8.58279585
_cell_angle_alpha   76.51717461
_cell_angle_beta   76.51717191
_cell_angle_gamma   95.43000538
_symmetry_Int_Tables_number   1
_chemical_formula_structural   Sr9Tb(PN5)2
_chemical_formula_sum   'Sr9 Tb1 P2 N10'
_cell_volume   450.61356318
_cell_formula_units_Z   1
loop_
 _symmetry_equiv_pos_site_id
 _symmetry_equiv_pos_as_xyz
  1  'x, y, z'
loop_
 _atom_site_type_symbol
 _atom_site_label
 _atom_site_symmetry_multiplicity
 _atom_site_fract_x
 _atom_site_fract_y
 _atom_site_fract_z
 _atom_site_occupancy
  Sr  Sr0  1  0.599540  0.599540  0.629271  1
  Sr  Sr1  1  0.677829  0.677829  0.998153  1
  Sr  Sr2  1  0.327346  0.327346  0.996739  1
  Sr  Sr3  1  0.925051  0.925051  0.199753  1
  Sr  Sr4  1  0.073116  0.073116  0.796618  1
  Sr  Sr5  1  0.551832  0.087750  0.758681  1
  Sr  Sr6  1  0.915090  0.443907  0.244155  1
  Sr  Sr7  1  0.443907  0.915090  0.244155  1
  Sr  Sr8  1  0.087750  0.551832  0.758681  1
  Tb  Tb9  1  0.420854  0.420854  0.358835  1
  P  P10  1  0.756590  0.241905  0.003487  1
  P  P11  1  0.241905  0.756590  0.003487  1
  N  N12  1  0.648027  0.648027  0.322219  1
  N  N13  1  0.341698  0.341698  0.647343  1
  N  N14  1  0.719910  0.023344  0.990605  1
  N  N15  1  0.975620  0.275605  0.018296  1
  N  N16  1  0.275605  0.975620  0.018296  1
  N  N17  1  0.023344  0.719910  0.990605  1
  N  N18  1  0.391585  0.726705  0.836352  1
  N  N19  1  0.274065  0.602631  0.173957  1
  N  N20  1  0.602631  0.274065  0.173957  1
  N  N21  1  0.726705  0.391585  0.836352  1
