# generated using pymatgen
data_Cs2NaV6F21
_symmetry_space_group_name_H-M   'P 1'
_cell_length_a   7.63553662
_cell_length_b   7.63553677
_cell_length_c   10.90433162
_cell_angle_alpha   69.65269459
_cell_angle_beta   69.65269492
_cell_angle_gamma   60.04554984
_symmetry_Int_Tables_number   1
_chemical_formula_structural   Cs2NaV6F21
_chemical_formula_sum   'Cs2 Na1 V6 F21'
_cell_volume   504.44900434
_cell_formula_units_Z   1
loop_
 _symmetry_equiv_pos_site_id
 _symmetry_equiv_pos_as_xyz
  1  'x, y, z'
loop_
 _atom_site_type_symbol
 _atom_site_label
 _atom_site_symmetry_multiplicity
 _atom_site_fract_x
 _atom_site_fract_y
 _atom_site_fract_z
 _atom_site_occupancy
  Cs  Cs0  1  0.132184  0.135506  0.601453  1
  Cs  Cs1  1  0.864494  0.867816  0.398547  1
  Na  Na2  1  0.517452  0.482548  0.500000  1
  V  V3  1  0.455900  0.911381  0.198272  1
  V  V4  1  0.088619  0.544100  0.801728  1
  V  V5  1  0.956297  0.413499  0.194995  1
  V  V6  1  0.456919  0.412744  0.196039  1
  V  V7  1  0.587256  0.543081  0.803961  1
  V  V8  1  0.586501  0.043703  0.805005  1
  F  F9  1  0.675644  0.567656  0.615295  1
  F  F10  1  0.432344  0.324356  0.384705  1
  F  F11  1  0.153687  0.488239  0.216998  1
  F  F12  1  0.511761  0.846313  0.783002  1
  F  F13  1  0.868453  0.456477  0.819120  1
  F  F14  1  0.516414  0.954665  0.001538  1
  F  F15  1  0.759970  0.338766  0.172283  1
  F  F16  1  0.151336  0.589485  0.611587  1
  F  F17  1  0.886611  0.832475  0.800099  1
  F  F18  1  0.747031  0.712162  0.191993  1
  F  F19  1  0.661234  0.240030  0.827717  1
  F  F20  1  0.486699  0.513301  0.000000  1
  F  F21  1  0.865474  0.348306  0.383189  1
  F  F22  1  0.305706  0.633918  0.786389  1
  F  F23  1  0.410515  0.848664  0.388413  1
  F  F24  1  0.287838  0.252969  0.808007  1
  F  F25  1  0.543523  0.131547  0.180880  1
  F  F26  1  0.366082  0.694294  0.213611  1
  F  F27  1  0.167525  0.113389  0.199901  1
  F  F28  1  0.045335  0.483586  0.998462  1
  F  F29  1  0.651694  0.134526  0.616811  1
