# generated using pymatgen
data_Er4GeAs5Ir5Rh2
_symmetry_space_group_name_H-M   'P 1'
_cell_length_a   7.27669069
_cell_length_b   7.27669183
_cell_length_c   7.27669108
_cell_angle_alpha   109.23419680
_cell_angle_beta   109.51507626
_cell_angle_gamma   109.66467901
_symmetry_Int_Tables_number   1
_chemical_formula_structural   Er4GeAs5Ir5Rh2
_chemical_formula_sum   'Er4 Ge1 As5 Ir5 Rh2'
_cell_volume   296.60171150
_cell_formula_units_Z   1
loop_
 _symmetry_equiv_pos_site_id
 _symmetry_equiv_pos_as_xyz
  1  'x, y, z'
loop_
 _atom_site_type_symbol
 _atom_site_label
 _atom_site_symmetry_multiplicity
 _atom_site_fract_x
 _atom_site_fract_y
 _atom_site_fract_z
 _atom_site_occupancy
  Er  Er0  1  0.000267  0.000281  0.500060  1
  Er  Er1  1  0.999733  0.499793  0.000014  1
  Er  Er2  1  0.500221  0.000281  0.000014  1
  Er  Er3  1  0.499779  0.499793  0.500060  1
  Ge  Ge4  1  0.000000  0.682166  0.682166  1
  As  As5  1  0.681335  0.681012  0.999678  1
  As  As6  1  0.318990  0.998111  0.317101  1
  As  As7  1  0.000000  0.323490  0.323490  1
  As  As8  1  0.318665  0.318343  0.999678  1
  As  As9  1  0.681010  0.998111  0.679120  1
  Ir  Ir10  1  0.748651  0.250475  0.501824  1
  Ir  Ir11  1  0.748606  0.501276  0.249883  1
  Ir  Ir12  1  0.500000  0.249736  0.749736  1
  Ir  Ir13  1  0.251394  0.501276  0.752670  1
  Ir  Ir14  1  0.251349  0.753173  0.501824  1
  Rh  Rh15  1  0.500000  0.749198  0.249198  1
  Rh  Rh16  1  0.000000  0.993484  0.993484  1
