# generated using pymatgen
data_HoEr7In3Au
_symmetry_space_group_name_H-M   'P 1'
_cell_length_a   10.54107604
_cell_length_b   10.54107573
_cell_length_c   6.83965401
_cell_angle_alpha   90.00619854
_cell_angle_beta   89.99379697
_cell_angle_gamma   119.99266043
_symmetry_Int_Tables_number   1
_chemical_formula_structural   HoEr7In3Au
_chemical_formula_sum   'Ho2 Er14 In6 Au2'
_cell_volume   658.21345577
_cell_formula_units_Z   2
loop_
 _symmetry_equiv_pos_site_id
 _symmetry_equiv_pos_as_xyz
  1  'x, y, z'
loop_
 _atom_site_type_symbol
 _atom_site_label
 _atom_site_symmetry_multiplicity
 _atom_site_fract_x
 _atom_site_fract_y
 _atom_site_fract_z
 _atom_site_occupancy
  Ho  Ho0  1  0.523522  0.046969  0.796339  1
  Ho  Ho1  1  0.953031  0.476478  0.796339  1
  Er  Er2  1  0.523503  0.476497  0.796439  1
  Er  Er3  1  0.476492  0.953017  0.296306  1
  Er  Er4  1  0.046983  0.523508  0.296306  1
  Er  Er5  1  0.476536  0.523464  0.296348  1
  Er  Er6  1  0.827215  0.654474  0.512065  1
  Er  Er7  1  0.345526  0.172785  0.512065  1
  Er  Er8  1  0.827247  0.172753  0.511980  1
  Er  Er9  1  0.172846  0.345577  0.012227  1
  Er  Er10  1  0.654423  0.827154  0.012227  1
  Er  Er11  1  0.172768  0.827232  0.012265  1
  Er  Er12  1  0.666609  0.333391  0.153148  1
  Er  Er13  1  0.333376  0.666624  0.652809  1
  Er  Er14  1  0.000023  0.999977  0.777201  1
  Er  Er15  1  0.000013  0.999987  0.277205  1
  In  In16  1  0.836022  0.672170  0.032079  1
  In  In17  1  0.327830  0.163978  0.032079  1
  In  In18  1  0.836122  0.163878  0.032178  1
  In  In19  1  0.163953  0.327870  0.532036  1
  In  In20  1  0.672130  0.836047  0.532036  1
  In  In21  1  0.163937  0.836063  0.532008  1
  Au  Au22  1  0.666564  0.333436  0.565956  1
  Au  Au23  1  0.333327  0.666673  0.066269  1
