# generated using pymatgen
data_Pr8Ho11TmPb16
_symmetry_space_group_name_H-M   'P 1'
_cell_length_a   8.29198109
_cell_length_b   8.38815809
_cell_length_c   15.82957800
_cell_angle_alpha   90.00000000
_cell_angle_beta   90.00000000
_cell_angle_gamma   89.98316864
_symmetry_Int_Tables_number   1
_chemical_formula_structural   Pr8Ho11TmPb16
_chemical_formula_sum   'Pr8 Ho11 Tm1 Pb16'
_cell_volume   1101.01751650
_cell_formula_units_Z   1
loop_
 _symmetry_equiv_pos_site_id
 _symmetry_equiv_pos_as_xyz
  1  'x, y, z'
loop_
 _atom_site_type_symbol
 _atom_site_label
 _atom_site_symmetry_multiplicity
 _atom_site_fract_x
 _atom_site_fract_y
 _atom_site_fract_z
 _atom_site_occupancy
  Pr  Pr0  1  0.476083  0.677601  0.597325  1
  Pr  Pr1  1  0.975886  0.822197  0.902712  1
  Pr  Pr2  1  0.524028  0.322316  0.097260  1
  Pr  Pr3  1  0.024075  0.177684  0.402711  1
  Pr  Pr4  1  0.524028  0.322316  0.402740  1
  Pr  Pr5  1  0.024075  0.177684  0.097289  1
  Pr  Pr6  1  0.476083  0.677601  0.902675  1
  Pr  Pr7  1  0.975886  0.822197  0.597288  1
  Ho  Ho8  1  0.633118  0.158335  0.622318  1
  Ho  Ho9  1  0.132806  0.341862  0.877679  1
  Ho  Ho10  1  0.366997  0.841789  0.122308  1
  Ho  Ho11  1  0.867019  0.658272  0.377723  1
  Ho  Ho12  1  0.366997  0.841789  0.377692  1
  Ho  Ho13  1  0.867019  0.658272  0.122277  1
  Ho  Ho14  1  0.633118  0.158335  0.877682  1
  Ho  Ho15  1  0.132806  0.341862  0.622321  1
  Ho  Ho16  1  0.298695  0.005251  0.750000  1
  Ho  Ho17  1  0.201305  0.505318  0.250000  1
  Ho  Ho18  1  0.701335  0.994667  0.250000  1
  Tm  Tm19  1  0.798533  0.494484  0.750000  1
  Pb  Pb20  1  0.705754  0.959234  0.456476  1
  Pb  Pb21  1  0.205724  0.540812  0.043528  1
  Pb  Pb22  1  0.294262  0.040780  0.956443  1
  Pb  Pb23  1  0.794226  0.459228  0.543727  1
  Pb  Pb24  1  0.294262  0.040780  0.543557  1
  Pb  Pb25  1  0.794226  0.459228  0.956273  1
  Pb  Pb26  1  0.705754  0.959234  0.043524  1
  Pb  Pb27  1  0.205724  0.540812  0.456472  1
  Pb  Pb28  1  0.437082  0.370801  0.750000  1
  Pb  Pb29  1  0.936515  0.129682  0.750000  1
  Pb  Pb30  1  0.563373  0.629358  0.250000  1
  Pb  Pb31  1  0.063386  0.870588  0.250000  1
  Pb  Pb32  1  0.663185  0.850296  0.750000  1
  Pb  Pb33  1  0.163142  0.649268  0.750000  1
  Pb  Pb34  1  0.336760  0.149302  0.250000  1
  Pb  Pb35  1  0.836735  0.350769  0.250000  1
