# generated using pymatgen
data_Ca2Lu3Th5(Si3C)2
_symmetry_space_group_name_H-M   'P 1'
_cell_length_a   8.64583815
_cell_length_b   8.67658081
_cell_length_c   6.40203304
_cell_angle_alpha   89.42297326
_cell_angle_beta   90.28953499
_cell_angle_gamma   120.11769037
_symmetry_Int_Tables_number   1
_chemical_formula_structural   Ca2Lu3Th5(Si3C)2
_chemical_formula_sum   'Ca2 Lu3 Th5 Si6 C2'
_cell_volume   415.39950237
_cell_formula_units_Z   1
loop_
 _symmetry_equiv_pos_site_id
 _symmetry_equiv_pos_as_xyz
  1  'x, y, z'
loop_
 _atom_site_type_symbol
 _atom_site_label
 _atom_site_symmetry_multiplicity
 _atom_site_fract_x
 _atom_site_fract_y
 _atom_site_fract_z
 _atom_site_occupancy
  Ca  Ca0  1  0.671214  0.337753  0.499987  1
  Ca  Ca1  1  0.328786  0.666540  0.499987  1
  Lu  Lu2  1  0.331733  0.666769  0.997089  1
  Lu  Lu3  1  0.668267  0.335035  0.997089  1
  Lu  Lu4  1  0.000000  0.775577  0.759889  1
  Th  Th5  1  0.765585  0.762720  0.252187  1
  Th  Th6  1  0.234415  0.997136  0.252187  1
  Th  Th7  1  0.000000  0.233330  0.248593  1
  Th  Th8  1  0.234658  0.233421  0.749691  1
  Th  Th9  1  0.765342  0.998763  0.749691  1
  Si  Si10  1  0.402421  0.399416  0.225804  1
  Si  Si11  1  0.597579  0.996995  0.225804  1
  Si  Si12  1  0.000000  0.596476  0.218058  1
  Si  Si13  1  0.603440  0.598950  0.773107  1
  Si  Si14  1  0.396560  0.995511  0.773107  1
  Si  Si15  1  0.000000  0.406871  0.771651  1
  C  C16  1  0.000000  0.997506  0.502965  1
  C  C17  1  0.000000  0.001230  0.003117  1
