# generated using pymatgen
data_Ho4CuTc2Ru5
_symmetry_space_group_name_H-M   'P 1'
_cell_length_a   5.30787735
_cell_length_b   5.30787719
_cell_length_c   8.97474100
_cell_angle_alpha   90.00000000
_cell_angle_beta   90.00000000
_cell_angle_gamma   122.31238642
_symmetry_Int_Tables_number   1
_chemical_formula_structural   Ho4CuTc2Ru5
_chemical_formula_sum   'Ho4 Cu1 Tc2 Ru5'
_cell_volume   213.69559080
_cell_formula_units_Z   1
loop_
 _symmetry_equiv_pos_site_id
 _symmetry_equiv_pos_as_xyz
  1  'x, y, z'
loop_
 _atom_site_type_symbol
 _atom_site_label
 _atom_site_symmetry_multiplicity
 _atom_site_fract_x
 _atom_site_fract_y
 _atom_site_fract_z
 _atom_site_occupancy
  Ho  Ho0  1  0.335044  0.664956  0.433869  1
  Ho  Ho1  1  0.664731  0.335269  0.562576  1
  Ho  Ho2  1  0.664731  0.335269  0.937424  1
  Ho  Ho3  1  0.335044  0.664956  0.066131  1
  Cu  Cu4  1  0.831027  0.168973  0.250000  1
  Tc  Tc5  1  0.173013  0.338553  0.750000  1
  Tc  Tc6  1  0.661447  0.826987  0.750000  1
  Ru  Ru7  1  0.000120  0.999880  0.498046  1
  Ru  Ru8  1  0.000120  0.999880  0.001954  1
  Ru  Ru9  1  0.822369  0.661840  0.250000  1
  Ru  Ru10  1  0.338160  0.177631  0.250000  1
  Ru  Ru11  1  0.174196  0.825804  0.750000  1
