# generated using pymatgen
data_Ce3ZrSn2Ir3
_symmetry_space_group_name_H-M   'P 1'
_cell_length_a   7.56005144
_cell_length_b   7.33936515
_cell_length_c   4.17947400
_cell_angle_alpha   90.00000000
_cell_angle_beta   90.00000000
_cell_angle_gamma   119.03896359
_symmetry_Int_Tables_number   1
_chemical_formula_structural   Ce3ZrSn2Ir3
_chemical_formula_sum   'Ce3 Zr1 Sn2 Ir3'
_cell_volume   202.74973368
_cell_formula_units_Z   1
loop_
 _symmetry_equiv_pos_site_id
 _symmetry_equiv_pos_as_xyz
  1  'x, y, z'
loop_
 _atom_site_type_symbol
 _atom_site_label
 _atom_site_symmetry_multiplicity
 _atom_site_fract_x
 _atom_site_fract_y
 _atom_site_fract_z
 _atom_site_occupancy
  Ce  Ce0  1  0.420425  0.418597  0.000000  1
  Ce  Ce1  1  0.579575  0.998172  0.000000  1
  Ce  Ce2  1  0.000000  0.595490  0.000000  1
  Zr  Zr3  1  0.000000  0.247053  0.500000  1
  Sn  Sn4  1  0.746995  0.751751  0.500000  1
  Sn  Sn5  1  0.253005  0.004756  0.500000  1
  Ir  Ir6  1  0.000000  0.019023  0.000000  1
  Ir  Ir7  1  0.681055  0.323105  0.500000  1
  Ir  Ir8  1  0.318945  0.642051  0.500000  1
