# generated using pymatgen
data_Nd8Tl2GaOs
_symmetry_space_group_name_H-M   'P 1'
_cell_length_a   10.49046600
_cell_length_b   10.49632402
_cell_length_c   7.39411500
_cell_angle_alpha   89.84540533
_cell_angle_beta   90.00000000
_cell_angle_gamma   119.98154614
_symmetry_Int_Tables_number   1
_chemical_formula_structural   Nd8Tl2GaOs
_chemical_formula_sum   'Nd16 Tl4 Ga2 Os2'
_cell_volume   705.22461672
_cell_formula_units_Z   2
loop_
 _symmetry_equiv_pos_site_id
 _symmetry_equiv_pos_as_xyz
  1  'x, y, z'
loop_
 _atom_site_type_symbol
 _atom_site_label
 _atom_site_symmetry_multiplicity
 _atom_site_fract_x
 _atom_site_fract_y
 _atom_site_fract_z
 _atom_site_occupancy
  Nd  Nd0  1  0.829620  0.659239  0.493022  1
  Nd  Nd1  1  0.342913  0.164461  0.492299  1
  Nd  Nd2  1  0.821548  0.164461  0.492299  1
  Nd  Nd3  1  0.174358  0.348718  0.987939  1
  Nd  Nd4  1  0.652652  0.827411  0.978809  1
  Nd  Nd5  1  0.174758  0.827411  0.978809  1
  Nd  Nd6  1  0.666352  0.332703  0.171754  1
  Nd  Nd7  1  0.338056  0.676115  0.665335  1
  Nd  Nd8  1  0.537647  0.075294  0.790251  1
  Nd  Nd9  1  0.926781  0.464106  0.785861  1
  Nd  Nd10  1  0.537327  0.464106  0.785861  1
  Nd  Nd11  1  0.459865  0.919733  0.295234  1
  Nd  Nd12  1  0.077151  0.544373  0.292695  1
  Nd  Nd13  1  0.467220  0.544373  0.292695  1
  Nd  Nd14  1  0.996145  0.992290  0.767444  1
  Nd  Nd15  1  0.997180  0.994360  0.274178  1
  Tl  Tl16  1  0.834404  0.668806  0.046021  1
  Tl  Tl17  1  0.330372  0.165327  0.046560  1
  Tl  Tl18  1  0.834956  0.165327  0.046560  1
  Tl  Tl19  1  0.165791  0.331584  0.545667  1
  Ga  Ga20  1  0.671419  0.833502  0.547973  1
  Ga  Ga21  1  0.162081  0.833502  0.547973  1
  Os  Os22  1  0.667009  0.334017  0.551751  1
  Os  Os23  1  0.334391  0.668782  0.049252  1
