# generated using pymatgen
data_Er7Sn22BiOs6
_symmetry_space_group_name_H-M   'P 1'
_cell_length_a   9.84782800
_cell_length_b   9.84782781
_cell_length_c   10.10363000
_cell_angle_alpha   90.00000000
_cell_angle_beta   90.00000000
_cell_angle_gamma   120.00000064
_symmetry_Int_Tables_number   1
_chemical_formula_structural   Er7Sn22BiOs6
_chemical_formula_sum   'Er7 Sn22 Bi1 Os6'
_cell_volume   848.57252017
_cell_formula_units_Z   1
loop_
 _symmetry_equiv_pos_site_id
 _symmetry_equiv_pos_as_xyz
  1  'x, y, z'
loop_
 _atom_site_type_symbol
 _atom_site_label
 _atom_site_symmetry_multiplicity
 _atom_site_fract_x
 _atom_site_fract_y
 _atom_site_fract_z
 _atom_site_occupancy
  Er  Er0  1  0.486730  0.513270  0.301003  1
  Er  Er1  1  0.513270  0.486730  0.698997  1
  Er  Er2  1  0.486730  0.973461  0.301003  1
  Er  Er3  1  0.513270  0.026539  0.698997  1
  Er  Er4  1  0.026539  0.513270  0.301003  1
  Er  Er5  1  0.973461  0.486730  0.698997  1
  Er  Er6  1  0.000000  0.000000  0.000000  1
  Sn  Sn7  1  0.118761  0.881239  0.275958  1
  Sn  Sn8  1  0.881239  0.118761  0.724042  1
  Sn  Sn9  1  0.118761  0.237522  0.275958  1
  Sn  Sn10  1  0.881239  0.762478  0.724042  1
  Sn  Sn11  1  0.762478  0.881239  0.275958  1
  Sn  Sn12  1  0.237522  0.118761  0.724042  1
  Sn  Sn13  1  0.778518  0.221482  0.463984  1
  Sn  Sn14  1  0.221482  0.778518  0.536016  1
  Sn  Sn15  1  0.778518  0.557035  0.463984  1
  Sn  Sn16  1  0.221482  0.442965  0.536016  1
  Sn  Sn17  1  0.442965  0.221482  0.463984  1
  Sn  Sn18  1  0.557035  0.778518  0.536016  1
  Sn  Sn19  1  0.350051  0.000000  0.000000  1
  Sn  Sn20  1  0.649949  0.000000  0.000000  1
  Sn  Sn21  1  0.000000  0.350051  0.000000  1
  Sn  Sn22  1  0.000000  0.649949  0.000000  1
  Sn  Sn23  1  0.649949  0.649949  0.000000  1
  Sn  Sn24  1  0.350051  0.350051  0.000000  1
  Sn  Sn25  1  0.333333  0.666667  0.134219  1
  Sn  Sn26  1  0.666667  0.333333  0.865781  1
  Sn  Sn27  1  0.333333  0.666667  0.827585  1
  Sn  Sn28  1  0.666667  0.333333  0.172415  1
  Bi  Bi29  1  0.000000  0.000000  0.500000  1
  Os  Os30  1  0.829743  0.170257  0.202584  1
  Os  Os31  1  0.170257  0.829743  0.797416  1
  Os  Os32  1  0.829743  0.659488  0.202584  1
  Os  Os33  1  0.170257  0.340512  0.797416  1
  Os  Os34  1  0.340512  0.170257  0.202584  1
  Os  Os35  1  0.659488  0.829743  0.797416  1
