# generated using pymatgen
data_Dy3Lu7Al3Ru
_symmetry_space_group_name_H-M   'P 1'
_cell_length_a   9.40774200
_cell_length_b   9.40774324
_cell_length_c   9.48029100
_cell_angle_alpha   90.00000000
_cell_angle_beta   90.00000000
_cell_angle_gamma   119.99999563
_symmetry_Int_Tables_number   1
_chemical_formula_structural   Dy3Lu7Al3Ru
_chemical_formula_sum   'Dy6 Lu14 Al6 Ru2'
_cell_volume   726.64647979
_cell_formula_units_Z   2
loop_
 _symmetry_equiv_pos_site_id
 _symmetry_equiv_pos_as_xyz
  1  'x, y, z'
loop_
 _atom_site_type_symbol
 _atom_site_label
 _atom_site_symmetry_multiplicity
 _atom_site_fract_x
 _atom_site_fract_y
 _atom_site_fract_z
 _atom_site_occupancy
  Dy  Dy0  1  0.539212  0.460788  0.250000  1
  Dy  Dy1  1  0.539212  0.078424  0.250000  1
  Dy  Dy2  1  0.921576  0.460788  0.250000  1
  Dy  Dy3  1  0.460788  0.539212  0.750000  1
  Dy  Dy4  1  0.460788  0.921576  0.750000  1
  Dy  Dy5  1  0.078424  0.539212  0.750000  1
  Lu  Lu6  1  0.000000  0.000000  0.500000  1
  Lu  Lu7  1  0.000000  0.000000  0.000000  1
  Lu  Lu8  1  0.207116  0.792884  0.439075  1
  Lu  Lu9  1  0.207116  0.414235  0.439075  1
  Lu  Lu10  1  0.585765  0.792884  0.439075  1
  Lu  Lu11  1  0.792884  0.207116  0.560925  1
  Lu  Lu12  1  0.792884  0.585765  0.560925  1
  Lu  Lu13  1  0.414235  0.207116  0.560925  1
  Lu  Lu14  1  0.792884  0.207116  0.939075  1
  Lu  Lu15  1  0.792884  0.585765  0.939075  1
  Lu  Lu16  1  0.414235  0.207116  0.939075  1
  Lu  Lu17  1  0.207116  0.792884  0.060925  1
  Lu  Lu18  1  0.207116  0.414235  0.060925  1
  Lu  Lu19  1  0.585765  0.792884  0.060925  1
  Al  Al20  1  0.890281  0.109719  0.250000  1
  Al  Al21  1  0.890281  0.780562  0.250000  1
  Al  Al22  1  0.219438  0.109719  0.250000  1
  Al  Al23  1  0.109719  0.890281  0.750000  1
  Al  Al24  1  0.109719  0.219438  0.750000  1
  Al  Al25  1  0.780562  0.890281  0.750000  1
  Ru  Ru26  1  0.333333  0.666667  0.250000  1
  Ru  Ru27  1  0.666667  0.333333  0.750000  1
