# generated using pymatgen
data_Zr7Se12
_symmetry_space_group_name_H-M   'P 1'
_cell_length_a   7.57130995
_cell_length_b   9.97746874
_cell_length_c   13.06775858
_cell_angle_alpha   99.55333499
_cell_angle_beta   89.87126396
_cell_angle_gamma   101.04695452
_symmetry_Int_Tables_number   1
_chemical_formula_structural   Zr7Se12
_chemical_formula_sum   'Zr14 Se24'
_cell_volume   954.99703787
_cell_formula_units_Z   2
loop_
 _symmetry_equiv_pos_site_id
 _symmetry_equiv_pos_as_xyz
  1  'x, y, z'
loop_
 _atom_site_type_symbol
 _atom_site_label
 _atom_site_symmetry_multiplicity
 _atom_site_fract_x
 _atom_site_fract_y
 _atom_site_fract_z
 _atom_site_occupancy
  Zr  Zr0  1  0.165180  0.668976  0.497649  1
  Zr  Zr1  1  0.181047  0.725314  0.767578  1
  Zr  Zr2  1  0.246124  0.998854  0.994203  1
  Zr  Zr3  1  0.500000  0.000000  0.500000  1
  Zr  Zr4  1  0.580415  0.334057  0.000556  1
  Zr  Zr5  1  0.331015  0.324704  0.500604  1
  Zr  Zr6  1  0.834820  0.331024  0.502351  1
  Zr  Zr7  1  0.920056  0.661769  0.995514  1
  Zr  Zr8  1  0.419585  0.665943  0.999444  1
  Zr  Zr9  1  0.668985  0.675296  0.499396  1
  Zr  Zr10  1  0.753876  0.001146  0.005797  1
  Zr  Zr11  1  0.000000  0.000000  0.500000  1
  Zr  Zr12  1  0.079944  0.338231  0.004486  1
  Zr  Zr13  1  0.818953  0.274686  0.232422  1
  Se  Se14  1  0.202351  0.804639  0.118978  1
  Se  Se15  1  0.228740  0.918919  0.630004  1
  Se  Se16  1  0.523245  0.135202  0.130252  1
  Se  Se17  1  0.269802  0.080833  0.374410  1
  Se  Se18  1  0.562105  0.249105  0.625595  1
  Se  Se19  1  0.298624  0.197146  0.876525  1
  Se  Se20  1  0.369291  0.474450  0.126284  1
  Se  Se21  1  0.868753  0.486710  0.133535  1
  Se  Se22  1  0.605662  0.417627  0.374213  1
  Se  Se23  1  0.394338  0.582373  0.625787  1
  Se  Se24  1  0.895764  0.585306  0.628995  1
  Se  Se25  1  0.630709  0.525550  0.873716  1
  Se  Se26  1  0.701376  0.802854  0.123475  1
  Se  Se27  1  0.936499  0.749662  0.373740  1
  Se  Se28  1  0.437895  0.750895  0.374405  1
  Se  Se29  1  0.730198  0.919167  0.625590  1
  Se  Se30  1  0.953778  0.863377  0.868427  1
  Se  Se31  1  0.476755  0.864798  0.869748  1
  Se  Se32  1  0.046222  0.136623  0.131573  1
  Se  Se33  1  0.771260  0.081081  0.369996  1
  Se  Se34  1  0.063501  0.250338  0.626260  1
  Se  Se35  1  0.797649  0.195361  0.881022  1
  Se  Se36  1  0.104236  0.414694  0.371005  1
  Se  Se37  1  0.131247  0.513290  0.866465  1
