# generated using pymatgen
data_Ba2Sr4TaCo4O15
_symmetry_space_group_name_H-M   'P 1'
_cell_length_a   7.03094040
_cell_length_b   7.03094119
_cell_length_c   7.09798569
_cell_angle_alpha   88.02158975
_cell_angle_beta   88.02159002
_cell_angle_gamma   88.68812644
_symmetry_Int_Tables_number   1
_chemical_formula_structural   Ba2Sr4TaCo4O15
_chemical_formula_sum   'Ba2 Sr4 Ta1 Co4 O15'
_cell_volume   350.38180142
_cell_formula_units_Z   1
loop_
 _symmetry_equiv_pos_site_id
 _symmetry_equiv_pos_as_xyz
  1  'x, y, z'
loop_
 _atom_site_type_symbol
 _atom_site_label
 _atom_site_symmetry_multiplicity
 _atom_site_fract_x
 _atom_site_fract_y
 _atom_site_fract_z
 _atom_site_occupancy
  Ba  Ba0  1  0.999568  0.674038  0.326693  1
  Ba  Ba1  1  0.325962  0.000432  0.673307  1
  Sr  Sr2  1  0.500580  0.865406  0.135240  1
  Sr  Sr3  1  0.134594  0.499420  0.864760  1
  Sr  Sr4  1  0.864437  0.135563  0.500000  1
  Sr  Sr5  1  0.678041  0.321959  0.000000  1
  Ta  Ta6  1  0.500584  0.499416  0.500000  1
  Co  Co7  1  0.708288  0.706987  0.713156  1
  Co  Co8  1  0.293013  0.291712  0.286844  1
  Co  Co9  1  0.905819  0.907263  0.909130  1
  Co  Co10  1  0.092737  0.094181  0.090870  1
  O  O11  1  0.387610  0.550573  0.244414  1
  O  O12  1  0.243590  0.383610  0.546064  1
  O  O13  1  0.553167  0.247593  0.377744  1
  O  O14  1  0.616390  0.756410  0.453936  1
  O  O15  1  0.449427  0.612390  0.755586  1
  O  O16  1  0.752407  0.446833  0.622256  1
  O  O17  1  0.197632  0.035554  0.331377  1
  O  O18  1  0.341955  0.201690  0.033778  1
  O  O19  1  0.036571  0.335318  0.195093  1
  O  O20  1  0.798310  0.658045  0.966222  1
  O  O21  1  0.964446  0.802368  0.668623  1
  O  O22  1  0.153287  0.846713  0.000000  1
  O  O23  1  0.842297  0.005393  0.151606  1
  O  O24  1  0.994607  0.157703  0.848394  1
  O  O25  1  0.664682  0.963429  0.804907  1
