# generated using pymatgen
data_Ca5Rh2Pb
_symmetry_space_group_name_H-M   'P 1'
_cell_length_a   9.20607894
_cell_length_b   9.20607910
_cell_length_c   9.20607823
_cell_angle_alpha   129.98622170
_cell_angle_beta   129.98621256
_cell_angle_gamma   73.42880525
_symmetry_Int_Tables_number   1
_chemical_formula_structural   Ca5Rh2Pb
_chemical_formula_sum   'Ca10 Rh4 Pb2'
_cell_volume   447.07052685
_cell_formula_units_Z   2
loop_
 _symmetry_equiv_pos_site_id
 _symmetry_equiv_pos_as_xyz
  1  'x, y, z'
loop_
 _atom_site_type_symbol
 _atom_site_label
 _atom_site_symmetry_multiplicity
 _atom_site_fract_x
 _atom_site_fract_y
 _atom_site_fract_z
 _atom_site_occupancy
  Ca  Ca0  1  0.457926  0.957926  0.156224  1
  Ca  Ca1  1  0.198299  0.698299  0.156224  1
  Ca  Ca2  1  0.542074  0.042074  0.843776  1
  Ca  Ca3  1  0.042074  0.198299  0.500000  1
  Ca  Ca4  1  0.698299  0.542074  0.500000  1
  Ca  Ca5  1  0.957926  0.801701  0.500000  1
  Ca  Ca6  1  0.000000  0.000000  0.000000  1
  Ca  Ca7  1  0.500000  0.500000  0.000000  1
  Ca  Ca8  1  0.801701  0.301701  0.843776  1
  Ca  Ca9  1  0.301701  0.457926  0.500000  1
  Rh  Rh10  1  0.123280  0.623280  0.746560  1
  Rh  Rh11  1  0.623280  0.876720  0.500000  1
  Rh  Rh12  1  0.376720  0.123280  0.500000  1
  Rh  Rh13  1  0.876720  0.376720  0.253440  1
  Pb  Pb14  1  0.750000  0.750000  0.000000  1
  Pb  Pb15  1  0.250000  0.250000  0.000000  1
