# generated using pymatgen
data_Cs3Ca(NO3)8
_symmetry_space_group_name_H-M   'P 1'
_cell_length_a   8.57187986
_cell_length_b   8.57187967
_cell_length_c   8.57187900
_cell_angle_alpha   89.90470395
_cell_angle_beta   89.90470395
_cell_angle_gamma   89.90470600
_symmetry_Int_Tables_number   1
_chemical_formula_structural   Cs3Ca(NO3)8
_chemical_formula_sum   'Cs3 Ca1 N8 O24'
_cell_volume   629.83439446
_cell_formula_units_Z   1
loop_
 _symmetry_equiv_pos_site_id
 _symmetry_equiv_pos_as_xyz
  1  'x, y, z'
loop_
 _atom_site_type_symbol
 _atom_site_label
 _atom_site_symmetry_multiplicity
 _atom_site_fract_x
 _atom_site_fract_y
 _atom_site_fract_z
 _atom_site_occupancy
  Cs  Cs0  1  0.500000  0.000000  0.000000  1
  Cs  Cs1  1  0.000000  0.000000  0.500000  1
  Cs  Cs2  1  0.000000  0.500000  0.000000  1
  Ca  Ca3  1  0.500000  0.500000  0.500000  1
  N  N4  1  0.620773  0.818322  0.371652  1
  N  N5  1  0.379227  0.181678  0.628348  1
  N  N6  1  0.134834  0.134834  0.134834  1
  N  N7  1  0.818322  0.371652  0.620773  1
  N  N8  1  0.371652  0.620773  0.818322  1
  N  N9  1  0.865166  0.865166  0.865166  1
  N  N10  1  0.181678  0.628348  0.379227  1
  N  N11  1  0.628348  0.379227  0.181678  1
  O  O12  1  0.014677  0.194593  0.194935  1
  O  O13  1  0.743312  0.483705  0.682100  1
  O  O14  1  0.327266  0.678170  0.945542  1
  O  O15  1  0.985323  0.805407  0.805065  1
  O  O16  1  0.256688  0.516295  0.317900  1
  O  O17  1  0.672734  0.321830  0.054458  1
  O  O18  1  0.194935  0.014677  0.194593  1
  O  O19  1  0.762223  0.306125  0.501689  1
  O  O20  1  0.483705  0.682100  0.743312  1
  O  O21  1  0.805065  0.985323  0.805407  1
  O  O22  1  0.237777  0.693875  0.498311  1
  O  O23  1  0.516295  0.317900  0.256688  1
  O  O24  1  0.194593  0.194935  0.014677  1
  O  O25  1  0.945542  0.327266  0.678170  1
  O  O26  1  0.306125  0.501689  0.762223  1
  O  O27  1  0.805407  0.805065  0.985323  1
  O  O28  1  0.054458  0.672734  0.321830  1
  O  O29  1  0.693875  0.498311  0.237777  1
  O  O30  1  0.678170  0.945542  0.327266  1
  O  O31  1  0.682100  0.743312  0.483705  1
  O  O32  1  0.501689  0.762223  0.306125  1
  O  O33  1  0.321830  0.054458  0.672734  1
  O  O34  1  0.317900  0.256688  0.516295  1
  O  O35  1  0.498311  0.237777  0.693875  1
