# generated using pymatgen
data_PaNbReB6
_symmetry_space_group_name_H-M   'P 1'
_cell_length_a   3.56952400
_cell_length_b   9.02528700
_cell_length_c   11.37007900
_cell_angle_alpha   90.00000000
_cell_angle_beta   90.00000000
_cell_angle_gamma   90.00000000
_symmetry_Int_Tables_number   1
_chemical_formula_structural   PaNbReB6
_chemical_formula_sum   'Pa4 Nb4 Re4 B24'
_cell_volume   366.29822121
_cell_formula_units_Z   4
loop_
 _symmetry_equiv_pos_site_id
 _symmetry_equiv_pos_as_xyz
  1  'x, y, z'
loop_
 _atom_site_type_symbol
 _atom_site_label
 _atom_site_symmetry_multiplicity
 _atom_site_fract_x
 _atom_site_fract_y
 _atom_site_fract_z
 _atom_site_occupancy
  Pa  Pa0  1  0.000000  0.322454  0.412987  1
  Pa  Pa1  1  0.000000  0.677546  0.587013  1
  Pa  Pa2  1  0.000000  0.822454  0.087013  1
  Pa  Pa3  1  0.000000  0.177546  0.912987  1
  Nb  Nb4  1  0.000000  0.945448  0.375938  1
  Nb  Nb5  1  0.000000  0.054552  0.624062  1
  Nb  Nb6  1  0.000000  0.445448  0.124062  1
  Nb  Nb7  1  0.000000  0.554552  0.875938  1
  Re  Re8  1  0.000000  0.641755  0.318045  1
  Re  Re9  1  0.000000  0.358245  0.681955  1
  Re  Re10  1  0.000000  0.141755  0.181955  1
  Re  Re11  1  0.000000  0.858245  0.818045  1
  B  B12  1  0.500000  0.553463  0.434501  1
  B  B13  1  0.500000  0.446537  0.565499  1
  B  B14  1  0.500000  0.053463  0.065499  1
  B  B15  1  0.500000  0.946537  0.934501  1
  B  B16  1  0.500000  0.753987  0.420125  1
  B  B17  1  0.500000  0.246013  0.579875  1
  B  B18  1  0.500000  0.253987  0.079875  1
  B  B19  1  0.500000  0.746013  0.920125  1
  B  B20  1  0.500000  0.797499  0.264931  1
  B  B21  1  0.500000  0.202501  0.735069  1
  B  B22  1  0.500000  0.297499  0.235069  1
  B  B23  1  0.500000  0.702501  0.764931  1
  B  B24  1  0.500000  0.630154  0.181238  1
  B  B25  1  0.500000  0.369846  0.818762  1
  B  B26  1  0.500000  0.130154  0.318762  1
  B  B27  1  0.500000  0.869846  0.681238  1
  B  B28  1  0.500000  0.980345  0.214989  1
  B  B29  1  0.500000  0.019655  0.785011  1
  B  B30  1  0.500000  0.480345  0.285011  1
  B  B31  1  0.500000  0.519655  0.714989  1
  B  B32  1  0.500000  0.601305  0.027307  1
  B  B33  1  0.500000  0.398695  0.972693  1
  B  B34  1  0.500000  0.101305  0.472693  1
  B  B35  1  0.500000  0.898695  0.527307  1
