# generated using pymatgen
data_Mn4Al4Si3GeO20
_symmetry_space_group_name_H-M   'P 1'
_cell_length_a   5.75408400
_cell_length_b   8.14601040
_cell_length_c   8.24420106
_cell_angle_alpha   90.41495796
_cell_angle_beta   90.00000000
_cell_angle_gamma   90.00000000
_symmetry_Int_Tables_number   1
_chemical_formula_structural   Mn4Al4Si3GeO20
_chemical_formula_sum   'Mn4 Al4 Si3 Ge1 O20'
_cell_volume   386.41888482
_cell_formula_units_Z   1
loop_
 _symmetry_equiv_pos_site_id
 _symmetry_equiv_pos_as_xyz
  1  'x, y, z'
loop_
 _atom_site_type_symbol
 _atom_site_label
 _atom_site_symmetry_multiplicity
 _atom_site_fract_x
 _atom_site_fract_y
 _atom_site_fract_z
 _atom_site_occupancy
  Mn  Mn0  1  0.256335  0.998916  0.998577  1
  Mn  Mn1  1  0.743665  0.998916  0.998577  1
  Mn  Mn2  1  0.245699  0.500324  0.500686  1
  Mn  Mn3  1  0.754301  0.500324  0.500686  1
  Al  Al4  1  0.000000  0.626312  0.134423  1
  Al  Al5  1  0.000000  0.378254  0.858607  1
  Al  Al6  1  0.500000  0.875787  0.637234  1
  Al  Al7  1  0.500000  0.118877  0.366138  1
  Si  Si8  1  0.000000  0.751859  0.753130  1
  Si  Si9  1  0.500000  0.251158  0.743633  1
  Si  Si10  1  0.500000  0.748325  0.256054  1
  Ge  Ge11  1  0.000000  0.254807  0.247825  1
  O  O12  1  0.000000  0.402322  0.089796  1
  O  O13  1  0.000000  0.608679  0.896023  1
  O  O14  1  0.500000  0.102166  0.603515  1
  O  O15  1  0.500000  0.893798  0.399702  1
  O  O16  1  0.000000  0.564030  0.357026  1
  O  O17  1  0.000000  0.429184  0.638141  1
  O  O18  1  0.500000  0.923896  0.861082  1
  O  O19  1  0.500000  0.071881  0.140396  1
  O  O20  1  0.251280  0.253632  0.367625  1
  O  O21  1  0.762498  0.750205  0.642845  1
  O  O22  1  0.237502  0.750205  0.642845  1
  O  O23  1  0.261630  0.250176  0.852690  1
  O  O24  1  0.748720  0.253632  0.367625  1
  O  O25  1  0.737267  0.749260  0.146282  1
  O  O26  1  0.262733  0.749260  0.146282  1
  O  O27  1  0.738370  0.250176  0.852690  1
  O  O28  1  0.000000  0.064921  0.137873  1
  O  O29  1  0.000000  0.926365  0.858836  1
  O  O30  1  0.500000  0.425882  0.639906  1
  O  O31  1  0.500000  0.576471  0.363249  1
