# generated using pymatgen
data_Rb8Ac3NdI20
_symmetry_space_group_name_H-M   'P 1'
_cell_length_a   9.63262097
_cell_length_b   10.25624000
_cell_length_c   15.28168180
_cell_angle_alpha   90.00000000
_cell_angle_beta   89.72041763
_cell_angle_gamma   90.00000000
_symmetry_Int_Tables_number   1
_chemical_formula_structural   Rb8Ac3NdI20
_chemical_formula_sum   'Rb8 Ac3 Nd1 I20'
_cell_volume   1509.72771925
_cell_formula_units_Z   1
loop_
 _symmetry_equiv_pos_site_id
 _symmetry_equiv_pos_as_xyz
  1  'x, y, z'
loop_
 _atom_site_type_symbol
 _atom_site_label
 _atom_site_symmetry_multiplicity
 _atom_site_fract_x
 _atom_site_fract_y
 _atom_site_fract_z
 _atom_site_occupancy
  Rb  Rb0  1  0.943104  0.002435  0.827114  1
  Rb  Rb1  1  0.056163  0.996643  0.172956  1
  Rb  Rb2  1  0.443950  0.996804  0.674033  1
  Rb  Rb3  1  0.056163  0.503357  0.172956  1
  Rb  Rb4  1  0.556201  0.002541  0.326000  1
  Rb  Rb5  1  0.943104  0.497565  0.827114  1
  Rb  Rb6  1  0.556201  0.497459  0.326000  1
  Rb  Rb7  1  0.443950  0.503196  0.674033  1
  Ac  Ac8  1  0.922798  0.750000  0.505272  1
  Ac  Ac9  1  0.077414  0.250000  0.494577  1
  Ac  Ac10  1  0.423746  0.250000  0.994592  1
  Nd  Nd11  1  0.577423  0.750000  0.004489  1
  I  I12  1  0.126055  0.750000  0.680145  1
  I  I13  1  0.873540  0.250000  0.319705  1
  I  I14  1  0.626982  0.250000  0.819254  1
  I  I15  1  0.381013  0.750000  0.173761  1
  I  I16  1  0.831559  0.046694  0.576944  1
  I  I17  1  0.168675  0.953220  0.422912  1
  I  I18  1  0.337354  0.948749  0.926102  1
  I  I19  1  0.168675  0.546780  0.422912  1
  I  I20  1  0.664918  0.038575  0.074171  1
  I  I21  1  0.831559  0.453306  0.576944  1
  I  I22  1  0.664918  0.461425  0.074171  1
  I  I23  1  0.337354  0.551251  0.926102  1
  I  I24  1  0.574500  0.750000  0.509825  1
  I  I25  1  0.425466  0.250000  0.490705  1
  I  I26  1  0.075835  0.250000  0.990240  1
  I  I27  1  0.914121  0.750000  0.009787  1
  I  I28  1  0.657702  0.750000  0.801406  1
  I  I29  1  0.339184  0.250000  0.205329  1
  I  I30  1  0.160893  0.250000  0.705179  1
  I  I31  1  0.839480  0.750000  0.295265  1
