# generated using pymatgen
data_Cs14RbNb2(TlAs2)5
_symmetry_space_group_name_H-M   'P 1'
_cell_length_a   9.08921577
_cell_length_b   9.89234793
_cell_length_c   15.28093214
_cell_angle_alpha   85.64098032
_cell_angle_beta   84.17828624
_cell_angle_gamma   86.55352244
_symmetry_Int_Tables_number   1
_chemical_formula_structural   Cs14RbNb2(TlAs2)5
_chemical_formula_sum   'Cs14 Rb1 Nb2 Tl5 As10'
_cell_volume   1361.02122192
_cell_formula_units_Z   1
loop_
 _symmetry_equiv_pos_site_id
 _symmetry_equiv_pos_as_xyz
  1  'x, y, z'
loop_
 _atom_site_type_symbol
 _atom_site_label
 _atom_site_symmetry_multiplicity
 _atom_site_fract_x
 _atom_site_fract_y
 _atom_site_fract_z
 _atom_site_occupancy
  Cs  Cs0  1  0.836256  0.363019  0.651294  1
  Cs  Cs1  1  0.838785  0.803064  0.125097  1
  Cs  Cs2  1  0.225954  0.016905  0.477784  1
  Cs  Cs3  1  0.262654  0.262649  0.252153  1
  Cs  Cs4  1  0.735030  0.504742  0.973383  1
  Cs  Cs5  1  0.272150  0.496984  0.026115  1
  Cs  Cs6  1  0.678485  0.086707  0.889502  1
  Cs  Cs7  1  0.767718  0.994530  0.534132  1
  Cs  Cs8  1  0.730912  0.748252  0.747810  1
  Cs  Cs9  1  0.328642  0.344215  0.600393  1
  Cs  Cs10  1  0.166671  0.639913  0.349661  1
  Cs  Cs11  1  0.180703  0.191805  0.865712  1
  Cs  Cs12  1  0.308738  0.919741  0.105510  1
  Cs  Cs13  1  0.683398  0.633855  0.408812  1
  Rb  Rb14  1  0.622475  0.003468  0.299098  1
  Nb  Nb15  1  0.352841  0.608271  0.771291  1
  Nb  Nb16  1  0.643261  0.396948  0.227684  1
  Tl  Tl17  1  0.057286  0.816903  0.868674  1
  Tl  Tl18  1  0.935944  0.183348  0.130490  1
  Tl  Tl19  1  0.366857  0.957324  0.703510  1
  Tl  Tl20  1  0.094518  0.720662  0.621935  1
  Tl  Tl21  1  0.899268  0.273237  0.376714  1
  As  As22  1  0.912229  0.450434  0.211620  1
  As  As23  1  0.613314  0.218012  0.119492  1
  As  As24  1  0.085281  0.548435  0.788603  1
  As  As25  1  0.575200  0.303760  0.387032  1
  As  As26  1  0.417812  0.703824  0.612684  1
  As  As27  1  0.028121  0.006296  0.700000  1
  As  As28  1  0.508613  0.405734  0.806320  1
  As  As29  1  0.500489  0.612818  0.194591  1
  As  As30  1  0.378932  0.795578  0.873935  1
  As  As31  1  0.991466  0.988567  0.298973  1
