# generated using pymatgen
data_Zr7TaNb2(GaSn3)2
_symmetry_space_group_name_H-M   'P 1'
_cell_length_a   8.62376300
_cell_length_b   8.62376339
_cell_length_c   5.79462100
_cell_angle_alpha   90.00000000
_cell_angle_beta   90.00000000
_cell_angle_gamma   120.00000233
_symmetry_Int_Tables_number   1
_chemical_formula_structural   Zr7TaNb2(GaSn3)2
_chemical_formula_sum   'Zr7 Ta1 Nb2 Ga2 Sn6'
_cell_volume   373.20658895
_cell_formula_units_Z   1
loop_
 _symmetry_equiv_pos_site_id
 _symmetry_equiv_pos_as_xyz
  1  'x, y, z'
loop_
 _atom_site_type_symbol
 _atom_site_label
 _atom_site_symmetry_multiplicity
 _atom_site_fract_x
 _atom_site_fract_y
 _atom_site_fract_z
 _atom_site_occupancy
  Zr  Zr0  1  0.999033  0.268024  0.250648  1
  Zr  Zr1  1  0.731976  0.000967  0.749352  1
  Zr  Zr2  1  0.731976  0.731008  0.250648  1
  Zr  Zr3  1  0.999033  0.731008  0.749352  1
  Zr  Zr4  1  0.268992  0.268024  0.749352  1
  Zr  Zr5  1  0.333333  0.666667  0.500000  1
  Zr  Zr6  1  0.268992  0.000967  0.250648  1
  Ta  Ta7  1  0.666667  0.333333  0.500000  1
  Nb  Nb8  1  0.333333  0.666667  0.000000  1
  Nb  Nb9  1  0.666667  0.333333  0.000000  1
  Ga  Ga10  1  0.000000  0.000000  0.000000  1
  Ga  Ga11  1  0.000000  0.000000  0.500000  1
  Sn  Sn12  1  0.610881  0.002294  0.247379  1
  Sn  Sn13  1  0.391413  0.002294  0.752621  1
  Sn  Sn14  1  0.391413  0.389119  0.247379  1
  Sn  Sn15  1  0.997706  0.608587  0.247379  1
  Sn  Sn16  1  0.997706  0.389119  0.752621  1
  Sn  Sn17  1  0.610881  0.608587  0.752621  1
