# generated using pymatgen
data_Rb(NpSe3)2
_symmetry_space_group_name_H-M   'P 1'
_cell_length_a   11.72875395
_cell_length_b   11.72875396
_cell_length_c   11.72875330
_cell_angle_alpha   159.51757505
_cell_angle_beta   152.17223383
_cell_angle_gamma   34.80148422
_symmetry_Int_Tables_number   1
_chemical_formula_structural   Rb(NpSe3)2
_chemical_formula_sum   'Rb1 Np2 Se6'
_cell_volume   263.28979861
_cell_formula_units_Z   1
loop_
 _symmetry_equiv_pos_site_id
 _symmetry_equiv_pos_as_xyz
  1  'x, y, z'
loop_
 _atom_site_type_symbol
 _atom_site_label
 _atom_site_symmetry_multiplicity
 _atom_site_fract_x
 _atom_site_fract_y
 _atom_site_fract_z
 _atom_site_occupancy
  Rb  Rb0  1  0.000000  0.000000  0.000000  1
  Np  Np1  1  0.311175  0.811175  0.500000  1
  Np  Np2  1  0.688825  0.188825  0.500000  1
  Se  Se3  1  0.175414  0.389449  0.785966  1
  Se  Se4  1  0.222029  0.222029  0.000000  1
  Se  Se5  1  0.396516  0.610551  0.785966  1
  Se  Se6  1  0.603484  0.389449  0.214034  1
  Se  Se7  1  0.824586  0.610551  0.214034  1
  Se  Se8  1  0.777971  0.777971  0.000000  1
