# generated using pymatgen
data_DyHoReC2
_symmetry_space_group_name_H-M   'P 1'
_cell_length_a   5.10695700
_cell_length_b   6.56708200
_cell_length_c   9.83571200
_cell_angle_alpha   90.00000000
_cell_angle_beta   90.00000000
_cell_angle_gamma   90.00000000
_symmetry_Int_Tables_number   1
_chemical_formula_structural   DyHoReC2
_chemical_formula_sum   'Dy4 Ho4 Re4 C8'
_cell_volume   329.86819492
_cell_formula_units_Z   4
loop_
 _symmetry_equiv_pos_site_id
 _symmetry_equiv_pos_as_xyz
  1  'x, y, z'
loop_
 _atom_site_type_symbol
 _atom_site_label
 _atom_site_symmetry_multiplicity
 _atom_site_fract_x
 _atom_site_fract_y
 _atom_site_fract_z
 _atom_site_occupancy
  Dy  Dy0  1  0.250000  0.467287  0.783861  1
  Dy  Dy1  1  0.750000  0.032713  0.283861  1
  Dy  Dy2  1  0.250000  0.967287  0.716139  1
  Dy  Dy3  1  0.750000  0.532713  0.216139  1
  Ho  Ho4  1  0.250000  0.821106  0.056799  1
  Ho  Ho5  1  0.750000  0.678894  0.556799  1
  Ho  Ho6  1  0.250000  0.321106  0.443201  1
  Ho  Ho7  1  0.750000  0.178894  0.943201  1
  Re  Re8  1  0.250000  0.279679  0.133105  1
  Re  Re9  1  0.750000  0.220321  0.633105  1
  Re  Re10  1  0.250000  0.779679  0.366895  1
  Re  Re11  1  0.750000  0.720321  0.866895  1
  C  C12  1  0.250000  0.175769  0.949696  1
  C  C13  1  0.750000  0.824231  0.050304  1
  C  C14  1  0.250000  0.675769  0.550304  1
  C  C15  1  0.750000  0.324231  0.449696  1
  C  C16  1  0.250000  0.047025  0.258886  1
  C  C17  1  0.750000  0.452975  0.758886  1
  C  C18  1  0.250000  0.547025  0.241114  1
  C  C19  1  0.750000  0.952975  0.741114  1
