# generated using pymatgen
data_HoEr5IrO12
_symmetry_space_group_name_H-M   'P 1'
_cell_length_a   6.42587626
_cell_length_b   6.42663219
_cell_length_c   6.42979300
_cell_angle_alpha   98.59106765
_cell_angle_beta   98.65528669
_cell_angle_gamma   98.63968925
_symmetry_Int_Tables_number   1
_chemical_formula_structural   HoEr5IrO12
_chemical_formula_sum   'Ho1 Er5 Ir1 O12'
_cell_volume   255.47721606
_cell_formula_units_Z   1
loop_
 _symmetry_equiv_pos_site_id
 _symmetry_equiv_pos_as_xyz
  1  'x, y, z'
loop_
 _atom_site_type_symbol
 _atom_site_label
 _atom_site_symmetry_multiplicity
 _atom_site_fract_x
 _atom_site_fract_y
 _atom_site_fract_z
 _atom_site_occupancy
  Ho  Ho0  1  0.684522  0.388397  0.856164  1
  Er  Er1  1  0.316043  0.611607  0.144334  1
  Er  Er2  1  0.611184  0.144193  0.316222  1
  Er  Er3  1  0.855757  0.683956  0.388843  1
  Er  Er4  1  0.144401  0.316411  0.610993  1
  Er  Er5  1  0.388421  0.855590  0.683392  1
  Ir  Ir6  1  0.000375  0.000075  0.000170  1
  O  O7  1  0.926005  0.700614  0.037818  1
  O  O8  1  0.299996  0.963706  0.075159  1
  O  O9  1  0.590352  0.432346  0.178543  1
  O  O10  1  0.963358  0.075395  0.299449  1
  O  O11  1  0.568130  0.822613  0.409180  1
  O  O12  1  0.177624  0.591241  0.431889  1
  O  O13  1  0.822844  0.408738  0.566978  1
  O  O14  1  0.431381  0.177142  0.590018  1
  O  O15  1  0.036631  0.924688  0.700496  1
  O  O16  1  0.407900  0.568109  0.822488  1
  O  O17  1  0.700070  0.035485  0.924879  1
  O  O18  1  0.075008  0.299698  0.962986  1
