# generated using pymatgen
data_Dy3Y12Er(CdNi)4
_symmetry_space_group_name_H-M   'P 1'
_cell_length_a   9.58361343
_cell_length_b   9.58436348
_cell_length_c   9.58436300
_cell_angle_alpha   59.99999820
_cell_angle_beta   59.99740922
_cell_angle_gamma   59.99741322
_symmetry_Int_Tables_number   1
_chemical_formula_structural   Dy3Y12Er(CdNi)4
_chemical_formula_sum   'Dy3 Y12 Er1 Cd4 Ni4'
_cell_volume   622.47772974
_cell_formula_units_Z   1
loop_
 _symmetry_equiv_pos_site_id
 _symmetry_equiv_pos_as_xyz
  1  'x, y, z'
loop_
 _atom_site_type_symbol
 _atom_site_label
 _atom_site_symmetry_multiplicity
 _atom_site_fract_x
 _atom_site_fract_y
 _atom_site_fract_z
 _atom_site_occupancy
  Dy  Dy0  1  0.598112  0.598280  0.598280  1
  Dy  Dy1  1  0.598112  0.598280  0.205329  1
  Dy  Dy2  1  0.598112  0.205329  0.598280  1
  Y  Y3  1  0.060441  0.439632  0.439632  1
  Y  Y4  1  0.439624  0.060438  0.060438  1
  Y  Y5  1  0.439624  0.060438  0.439499  1
  Y  Y6  1  0.060441  0.439632  0.060296  1
  Y  Y7  1  0.439624  0.439499  0.060438  1
  Y  Y8  1  0.060441  0.060296  0.439632  1
  Y  Y9  1  0.187002  0.812997  0.812997  1
  Y  Y10  1  0.812990  0.186989  0.186989  1
  Y  Y11  1  0.812990  0.186989  0.813032  1
  Y  Y12  1  0.187002  0.812997  0.187004  1
  Y  Y13  1  0.812990  0.813032  0.186989  1
  Y  Y14  1  0.187002  0.187004  0.812997  1
  Er  Er15  1  0.205519  0.598161  0.598161  1
  Cd  Cd16  1  0.831002  0.830792  0.830792  1
  Cd  Cd17  1  0.831002  0.830792  0.507412  1
  Cd  Cd18  1  0.831002  0.507412  0.830792  1
  Cd  Cd19  1  0.507385  0.830871  0.830871  1
  Ni  Ni20  1  0.393427  0.393741  0.393741  1
  Ni  Ni21  1  0.393427  0.393741  0.819093  1
  Ni  Ni22  1  0.393427  0.819093  0.393741  1
  Ni  Ni23  1  0.819302  0.393566  0.393566  1
