# generated using pymatgen
data_AcY5(Si3Pt2)4
_symmetry_space_group_name_H-M   'P 1'
_cell_length_a   4.26223900
_cell_length_b   8.59059275
_cell_length_c   12.92308400
_cell_angle_alpha   80.09984348
_cell_angle_beta   90.00000000
_cell_angle_gamma   90.00000000
_symmetry_Int_Tables_number   1
_chemical_formula_structural   AcY5(Si3Pt2)4
_chemical_formula_sum   'Ac1 Y5 Si12 Pt8'
_cell_volume   466.13457832
_cell_formula_units_Z   1
loop_
 _symmetry_equiv_pos_site_id
 _symmetry_equiv_pos_as_xyz
  1  'x, y, z'
loop_
 _atom_site_type_symbol
 _atom_site_label
 _atom_site_symmetry_multiplicity
 _atom_site_fract_x
 _atom_site_fract_y
 _atom_site_fract_z
 _atom_site_occupancy
  Ac  Ac0  1  0.250000  0.076423  0.187189  1
  Y  Y1  1  0.250000  0.764083  0.440818  1
  Y  Y2  1  0.250000  0.582465  0.185759  1
  Y  Y3  1  0.750000  0.235096  0.561203  1
  Y  Y4  1  0.750000  0.415360  0.814209  1
  Y  Y5  1  0.750000  0.928994  0.816396  1
  Si  Si6  1  0.750000  0.587112  0.572750  1
  Si  Si7  1  0.750000  0.128208  0.000150  1
  Si  Si8  1  0.750000  0.870048  0.577705  1
  Si  Si9  1  0.250000  0.696888  0.711677  1
  Si  Si10  1  0.750000  0.308707  0.286929  1
  Si  Si11  1  0.750000  0.798944  0.277608  1
  Si  Si12  1  0.250000  0.872849  0.991578  1
  Si  Si13  1  0.250000  0.194133  0.722087  1
  Si  Si14  1  0.250000  0.381878  0.997329  1
  Si  Si15  1  0.250000  0.122726  0.433571  1
  Si  Si16  1  0.750000  0.624258  0.994688  1
  Si  Si17  1  0.250000  0.408226  0.426377  1
  Pt  Pt18  1  0.750000  0.359115  0.094873  1
  Pt  Pt19  1  0.250000  0.970166  0.626338  1
  Pt  Pt20  1  0.750000  0.846528  0.085432  1
  Pt  Pt21  1  0.750000  0.027322  0.383481  1
  Pt  Pt22  1  0.250000  0.649359  0.897581  1
  Pt  Pt23  1  0.250000  0.152060  0.908644  1
  Pt  Pt24  1  0.750000  0.531863  0.379912  1
  Pt  Pt25  1  0.250000  0.467188  0.625712  1
