# generated using pymatgen
data_UPa3Co8
_symmetry_space_group_name_H-M   'P 1'
_cell_length_a   8.59897585
_cell_length_b   8.59897595
_cell_length_c   8.59897598
_cell_angle_alpha   33.49302233
_cell_angle_beta   33.49302980
_cell_angle_gamma   33.49302177
_symmetry_Int_Tables_number   1
_chemical_formula_structural   UPa3Co8
_chemical_formula_sum   'U1 Pa3 Co8'
_cell_volume   172.44732801
_cell_formula_units_Z   1
loop_
 _symmetry_equiv_pos_site_id
 _symmetry_equiv_pos_as_xyz
  1  'x, y, z'
loop_
 _atom_site_type_symbol
 _atom_site_label
 _atom_site_symmetry_multiplicity
 _atom_site_fract_x
 _atom_site_fract_y
 _atom_site_fract_z
 _atom_site_occupancy
  U  U0  1  0.126185  0.126185  0.126185  1
  Pa  Pa1  1  0.623911  0.623911  0.623911  1
  Pa  Pa2  1  0.002662  0.002662  0.002662  1
  Pa  Pa3  1  0.497756  0.497756  0.497756  1
  Co  Co4  1  0.563452  0.061155  0.563452  1
  Co  Co5  1  0.062308  0.562251  0.062308  1
  Co  Co6  1  0.061155  0.563452  0.563452  1
  Co  Co7  1  0.562251  0.062308  0.062308  1
  Co  Co8  1  0.812143  0.812143  0.812143  1
  Co  Co9  1  0.312416  0.312416  0.312416  1
  Co  Co10  1  0.563452  0.563452  0.061155  1
  Co  Co11  1  0.062308  0.062308  0.562251  1
