# generated using pymatgen
data_AcAl4Cu2Si
_symmetry_space_group_name_H-M   'P 1'
_cell_length_a   5.98649200
_cell_length_b   5.98649200
_cell_length_c   7.95126100
_cell_angle_alpha   90.00000000
_cell_angle_beta   90.00000000
_cell_angle_gamma   90.00000000
_symmetry_Int_Tables_number   1
_chemical_formula_structural   AcAl4Cu2Si
_chemical_formula_sum   'Ac2 Al8 Cu4 Si2'
_cell_volume   284.95797923
_cell_formula_units_Z   2
loop_
 _symmetry_equiv_pos_site_id
 _symmetry_equiv_pos_as_xyz
  1  'x, y, z'
loop_
 _atom_site_type_symbol
 _atom_site_label
 _atom_site_symmetry_multiplicity
 _atom_site_fract_x
 _atom_site_fract_y
 _atom_site_fract_z
 _atom_site_occupancy
  Ac  Ac0  1  0.750000  0.250000  0.500000  1
  Ac  Ac1  1  0.250000  0.750000  0.500000  1
  Al  Al2  1  0.493320  0.493320  0.169881  1
  Al  Al3  1  0.006680  0.493320  0.169881  1
  Al  Al4  1  0.493320  0.006680  0.169881  1
  Al  Al5  1  0.006680  0.006680  0.169881  1
  Al  Al6  1  0.993320  0.993320  0.830118  1
  Al  Al7  1  0.506680  0.993320  0.830118  1
  Al  Al8  1  0.993320  0.506680  0.830118  1
  Al  Al9  1  0.506680  0.506680  0.830118  1
  Cu  Cu10  1  0.750000  0.250000  0.000000  1
  Cu  Cu11  1  0.250000  0.750000  0.000000  1
  Cu  Cu12  1  0.250000  0.250000  0.348408  1
  Cu  Cu13  1  0.750000  0.750000  0.651593  1
  Si  Si14  1  0.750000  0.750000  0.350623  1
  Si  Si15  1  0.250000  0.250000  0.649378  1
