# generated using pymatgen
data_Ho16Cd4Ru3Rh
_symmetry_space_group_name_H-M   'P 1'
_cell_length_a   9.60716225
_cell_length_b   9.60716182
_cell_length_c   9.60716239
_cell_angle_alpha   59.69383794
_cell_angle_beta   59.69383971
_cell_angle_gamma   59.69384411
_symmetry_Int_Tables_number   1
_chemical_formula_structural   Ho16Cd4Ru3Rh
_chemical_formula_sum   'Ho16 Cd4 Ru3 Rh1'
_cell_volume   622.64348805
_cell_formula_units_Z   1
loop_
 _symmetry_equiv_pos_site_id
 _symmetry_equiv_pos_as_xyz
  1  'x, y, z'
loop_
 _atom_site_type_symbol
 _atom_site_label
 _atom_site_symmetry_multiplicity
 _atom_site_fract_x
 _atom_site_fract_y
 _atom_site_fract_z
 _atom_site_occupancy
  Ho  Ho0  1  0.938304  0.938304  0.561126  1
  Ho  Ho1  1  0.562021  0.562021  0.935944  1
  Ho  Ho2  1  0.688794  0.688794  0.311852  1
  Ho  Ho3  1  0.151485  0.543923  0.151485  1
  Ho  Ho4  1  0.688794  0.311852  0.688794  1
  Ho  Ho5  1  0.152217  0.152217  0.152217  1
  Ho  Ho6  1  0.543923  0.151485  0.151485  1
  Ho  Ho7  1  0.691249  0.311107  0.311107  1
  Ho  Ho8  1  0.151485  0.151485  0.543923  1
  Ho  Ho9  1  0.311107  0.691249  0.311107  1
  Ho  Ho10  1  0.311852  0.688794  0.688794  1
  Ho  Ho11  1  0.935944  0.562021  0.562021  1
  Ho  Ho12  1  0.938304  0.561126  0.938304  1
  Ho  Ho13  1  0.562021  0.935944  0.562021  1
  Ho  Ho14  1  0.561126  0.938304  0.938304  1
  Ho  Ho15  1  0.311107  0.311107  0.691249  1
  Cd  Cd16  1  0.919559  0.919559  0.241742  1
  Cd  Cd17  1  0.241742  0.919559  0.919559  1
  Cd  Cd18  1  0.919300  0.919300  0.919300  1
  Cd  Cd19  1  0.919559  0.241742  0.919559  1
  Ru  Ru20  1  0.359108  0.359108  0.922302  1
  Ru  Ru21  1  0.359108  0.922302  0.359108  1
  Ru  Ru22  1  0.922302  0.359108  0.359108  1
  Rh  Rh23  1  0.359586  0.359586  0.359586  1
