# generated using pymatgen
data_Nd3Ag2Hg3Ru
_symmetry_space_group_name_H-M   'P 1'
_cell_length_a   8.00501900
_cell_length_b   8.00501941
_cell_length_c   3.95600200
_cell_angle_alpha   90.00000000
_cell_angle_beta   90.00000000
_cell_angle_gamma   120.00000243
_symmetry_Int_Tables_number   1
_chemical_formula_structural   Nd3Ag2Hg3Ru
_chemical_formula_sum   'Nd3 Ag2 Hg3 Ru1'
_cell_volume   219.53910031
_cell_formula_units_Z   1
loop_
 _symmetry_equiv_pos_site_id
 _symmetry_equiv_pos_as_xyz
  1  'x, y, z'
loop_
 _atom_site_type_symbol
 _atom_site_label
 _atom_site_symmetry_multiplicity
 _atom_site_fract_x
 _atom_site_fract_y
 _atom_site_fract_z
 _atom_site_occupancy
  Nd  Nd0  1  0.576596  0.966835  0.000000  1
  Nd  Nd1  1  0.033165  0.609761  0.000000  1
  Nd  Nd2  1  0.390239  0.423404  0.000000  1
  Ag  Ag3  1  0.666667  0.333333  0.500000  1
  Ag  Ag4  1  0.000000  0.000000  0.000000  1
  Hg  Hg5  1  0.269690  0.000356  0.500000  1
  Hg  Hg6  1  0.999644  0.269334  0.500000  1
  Hg  Hg7  1  0.730666  0.730310  0.500000  1
  Ru  Ru8  1  0.333333  0.666667  0.500000  1
