# generated using pymatgen
data_Tm20Co3NiBi8
_symmetry_space_group_name_H-M   'P 1'
_cell_length_a   7.86895281
_cell_length_b   8.84905200
_cell_length_c   12.25478927
_cell_angle_alpha   90.00000000
_cell_angle_beta   89.93673636
_cell_angle_gamma   90.00000000
_symmetry_Int_Tables_number   1
_chemical_formula_structural   Tm20Co3NiBi8
_chemical_formula_sum   'Tm20 Co3 Ni1 Bi8'
_cell_volume   853.33443436
_cell_formula_units_Z   1
loop_
 _symmetry_equiv_pos_site_id
 _symmetry_equiv_pos_as_xyz
  1  'x, y, z'
loop_
 _atom_site_type_symbol
 _atom_site_label
 _atom_site_symmetry_multiplicity
 _atom_site_fract_x
 _atom_site_fract_y
 _atom_site_fract_z
 _atom_site_occupancy
  Tm  Tm0  1  0.652429  0.750000  0.699180  1
  Tm  Tm1  1  0.347124  0.250000  0.299963  1
  Tm  Tm2  1  0.155479  0.250000  0.798022  1
  Tm  Tm3  1  0.842185  0.750000  0.205065  1
  Tm  Tm4  1  0.118431  0.750000  0.810808  1
  Tm  Tm5  1  0.884387  0.250000  0.187378  1
  Tm  Tm6  1  0.615320  0.250000  0.688443  1
  Tm  Tm7  1  0.383727  0.750000  0.310931  1
  Tm  Tm8  1  0.552926  0.750000  0.998444  1
  Tm  Tm9  1  0.444252  0.250000  0.001296  1
  Tm  Tm10  1  0.057538  0.250000  0.502739  1
  Tm  Tm11  1  0.944135  0.750000  0.498429  1
  Tm  Tm12  1  0.825850  0.456208  0.935759  1
  Tm  Tm13  1  0.174070  0.536250  0.064828  1
  Tm  Tm14  1  0.326914  0.539168  0.562980  1
  Tm  Tm15  1  0.174070  0.963750  0.064828  1
  Tm  Tm16  1  0.673906  0.461868  0.436557  1
  Tm  Tm17  1  0.825850  0.043792  0.935759  1
  Tm  Tm18  1  0.673906  0.038132  0.436557  1
  Tm  Tm19  1  0.326914  0.960832  0.562980  1
  Co  Co20  1  0.067544  0.250000  0.007140  1
  Co  Co21  1  0.433468  0.250000  0.508055  1
  Co  Co22  1  0.567486  0.750000  0.490803  1
  Ni  Ni23  1  0.931134  0.750000  0.992724  1
  Bi  Bi24  1  0.930716  0.008889  0.673397  1
  Bi  Bi25  1  0.069124  0.991112  0.327146  1
  Bi  Bi26  1  0.430487  0.990011  0.827272  1
  Bi  Bi27  1  0.069124  0.508888  0.327146  1
  Bi  Bi28  1  0.570151  0.010052  0.172352  1
  Bi  Bi29  1  0.930716  0.491111  0.673397  1
  Bi  Bi30  1  0.570151  0.489948  0.172352  1
  Bi  Bi31  1  0.430487  0.509989  0.827272  1
