# generated using pymatgen
data_YHoNp8O20
_symmetry_space_group_name_H-M   'P 1'
_cell_length_a   6.57925092
_cell_length_b   7.61442492
_cell_length_c   8.50147304
_cell_angle_alpha   102.83812049
_cell_angle_beta   97.41804208
_cell_angle_gamma   106.87101263
_symmetry_Int_Tables_number   1
_chemical_formula_structural   YHoNp8O20
_chemical_formula_sum   'Y1 Ho1 Np8 O20'
_cell_volume   388.73313809
_cell_formula_units_Z   1
loop_
 _symmetry_equiv_pos_site_id
 _symmetry_equiv_pos_as_xyz
  1  'x, y, z'
loop_
 _atom_site_type_symbol
 _atom_site_label
 _atom_site_symmetry_multiplicity
 _atom_site_fract_x
 _atom_site_fract_y
 _atom_site_fract_z
 _atom_site_occupancy
  Y  Y0  1  0.999062  0.998244  0.997974  1
  Ho  Ho1  1  0.800593  0.601397  0.601536  1
  Np  Np2  1  0.600423  0.200567  0.200694  1
  Np  Np3  1  0.000509  0.500526  0.998573  1
  Np  Np4  1  0.799280  0.099686  0.601156  1
  Np  Np5  1  0.200022  0.400152  0.399758  1
  Np  Np6  1  0.602085  0.700134  0.200891  1
  Np  Np7  1  0.400214  0.300367  0.800041  1
  Np  Np8  1  0.197890  0.899323  0.399301  1
  Np  Np9  1  0.399807  0.799637  0.799923  1
  O  O10  1  0.850550  0.319672  0.449874  1
  O  O11  1  0.644294  0.923731  0.054918  1
  O  O12  1  0.443046  0.521551  0.651302  1
  O  O13  1  0.949199  0.768527  0.152057  1
  O  O14  1  0.851613  0.830457  0.448524  1
  O  O15  1  0.745855  0.369651  0.752376  1
  O  O16  1  0.253469  0.126412  0.255224  1
  O  O17  1  0.650104  0.426586  0.049918  1
  O  O18  1  0.949305  0.281740  0.151079  1
  O  O19  1  0.445784  0.026138  0.647851  1
  O  O20  1  0.548580  0.973513  0.352229  1
  O  O21  1  0.057273  0.720834  0.850392  1
  O  O22  1  0.741360  0.876896  0.747373  1
  O  O23  1  0.252486  0.626512  0.248305  1
  O  O24  1  0.354089  0.573848  0.951993  1
  O  O25  1  0.052853  0.231372  0.846867  1
  O  O26  1  0.548203  0.474587  0.346207  1
  O  O27  1  0.149440  0.173477  0.550050  1
  O  O28  1  0.357996  0.078642  0.948099  1
  O  O29  1  0.154616  0.675820  0.545515  1
