# generated using pymatgen
data_La6BiO11F
_symmetry_space_group_name_H-M   'P 1'
_cell_length_a   6.93932067
_cell_length_b   6.91227751
_cell_length_c   6.95779654
_cell_angle_alpha   98.94813560
_cell_angle_beta   98.83743183
_cell_angle_gamma   98.66788601
_symmetry_Int_Tables_number   1
_chemical_formula_structural   La6BiO11F
_chemical_formula_sum   'La6 Bi1 O11 F1'
_cell_volume   320.51140236
_cell_formula_units_Z   1
loop_
 _symmetry_equiv_pos_site_id
 _symmetry_equiv_pos_as_xyz
  1  'x, y, z'
loop_
 _atom_site_type_symbol
 _atom_site_label
 _atom_site_symmetry_multiplicity
 _atom_site_fract_x
 _atom_site_fract_y
 _atom_site_fract_z
 _atom_site_occupancy
  La  La0  1  0.305832  0.604266  0.146007  1
  La  La1  1  0.612572  0.136746  0.286957  1
  La  La2  1  0.393873  0.843707  0.697454  1
  La  La3  1  0.705042  0.405211  0.869044  1
  La  La4  1  0.856721  0.696756  0.398040  1
  La  La5  1  0.126143  0.308614  0.605638  1
  Bi  Bi6  1  0.002765  0.001192  0.998308  1
  O  O7  1  0.930366  0.697501  0.047264  1
  O  O8  1  0.175162  0.588549  0.439212  1
  O  O9  1  0.816832  0.404217  0.564528  1
  O  O10  1  0.562224  0.829034  0.413521  1
  O  O11  1  0.593023  0.437812  0.178455  1
  O  O12  1  0.408275  0.556968  0.819789  1
  O  O13  1  0.957282  0.072029  0.302431  1
  O  O14  1  0.051327  0.931676  0.696190  1
  O  O15  1  0.695346  0.048582  0.930286  1
  O  O16  1  0.067292  0.306300  0.953103  1
  O  O17  1  0.305443  0.952566  0.069154  1
  F  F18  1  0.434478  0.178275  0.584618  1
