# generated using pymatgen
data_Y2Ho3Cd2(InPd)2
_symmetry_space_group_name_H-M   'P 1'
_cell_length_a   3.61340200
_cell_length_b   8.08703433
_cell_length_c   18.34739464
_cell_angle_alpha   89.89572779
_cell_angle_beta   90.00000000
_cell_angle_gamma   90.00000000
_symmetry_Int_Tables_number   1
_chemical_formula_structural   Y2Ho3Cd2(InPd)2
_chemical_formula_sum   'Y4 Ho6 Cd4 In4 Pd4'
_cell_volume   536.14128450
_cell_formula_units_Z   2
loop_
 _symmetry_equiv_pos_site_id
 _symmetry_equiv_pos_as_xyz
  1  'x, y, z'
loop_
 _atom_site_type_symbol
 _atom_site_label
 _atom_site_symmetry_multiplicity
 _atom_site_fract_x
 _atom_site_fract_y
 _atom_site_fract_z
 _atom_site_occupancy
  Y  Y0  1  0.000000  0.500000  0.500000  1
  Y  Y1  1  0.000000  0.000000  0.000000  1
  Y  Y2  1  0.000000  0.742090  0.281606  1
  Y  Y3  1  0.000000  0.257910  0.718394  1
  Ho  Ho4  1  0.000000  0.757471  0.781206  1
  Ho  Ho5  1  0.000000  0.242529  0.218794  1
  Ho  Ho6  1  0.000000  0.612212  0.083970  1
  Ho  Ho7  1  0.000000  0.387788  0.916030  1
  Ho  Ho8  1  0.000000  0.887302  0.583923  1
  Ho  Ho9  1  0.000000  0.112698  0.416077  1
  Cd  Cd10  1  0.500000  0.710738  0.931591  1
  Cd  Cd11  1  0.500000  0.289262  0.068409  1
  Cd  Cd12  1  0.500000  0.790119  0.431893  1
  Cd  Cd13  1  0.500000  0.209881  0.568107  1
  In  In14  1  0.500000  0.577058  0.647917  1
  In  In15  1  0.500000  0.422942  0.352083  1
  In  In16  1  0.500000  0.923729  0.147955  1
  In  In17  1  0.500000  0.076271  0.852045  1
  Pd  Pd18  1  0.500000  0.523225  0.196131  1
  Pd  Pd19  1  0.500000  0.476775  0.803869  1
  Pd  Pd20  1  0.500000  0.971842  0.696635  1
  Pd  Pd21  1  0.500000  0.028158  0.303365  1
