# generated using pymatgen
data_Tb5IrAu2
_symmetry_space_group_name_H-M   'P 1'
_cell_length_a   11.40860200
_cell_length_b   11.40860200
_cell_length_c   6.29350900
_cell_angle_alpha   90.00000000
_cell_angle_beta   90.00000000
_cell_angle_gamma   90.00000000
_symmetry_Int_Tables_number   1
_chemical_formula_structural   Tb5IrAu2
_chemical_formula_sum   'Tb20 Ir4 Au8'
_cell_volume   819.13921355
_cell_formula_units_Z   4
loop_
 _symmetry_equiv_pos_site_id
 _symmetry_equiv_pos_as_xyz
  1  'x, y, z'
loop_
 _atom_site_type_symbol
 _atom_site_label
 _atom_site_symmetry_multiplicity
 _atom_site_fract_x
 _atom_site_fract_y
 _atom_site_fract_z
 _atom_site_occupancy
  Tb  Tb0  1  0.298030  0.082704  0.349162  1
  Tb  Tb1  1  0.298030  0.917296  0.849162  1
  Tb  Tb2  1  0.701970  0.082704  0.849162  1
  Tb  Tb3  1  0.701970  0.917296  0.349162  1
  Tb  Tb4  1  0.582704  0.798030  0.849162  1
  Tb  Tb5  1  0.582704  0.201970  0.349162  1
  Tb  Tb6  1  0.417296  0.798030  0.349162  1
  Tb  Tb7  1  0.417296  0.201970  0.849162  1
  Tb  Tb8  1  0.201970  0.417296  0.650838  1
  Tb  Tb9  1  0.201970  0.582704  0.150838  1
  Tb  Tb10  1  0.798030  0.417296  0.150838  1
  Tb  Tb11  1  0.798030  0.582704  0.650838  1
  Tb  Tb12  1  0.917296  0.701970  0.150838  1
  Tb  Tb13  1  0.917296  0.298030  0.650838  1
  Tb  Tb14  1  0.082704  0.701970  0.650838  1
  Tb  Tb15  1  0.082704  0.298030  0.150838  1
  Tb  Tb16  1  0.000000  0.000000  0.500000  1
  Tb  Tb17  1  0.000000  0.000000  0.000000  1
  Tb  Tb18  1  0.500000  0.500000  0.000000  1
  Tb  Tb19  1  0.500000  0.500000  0.500000  1
  Ir  Ir20  1  0.500000  0.000000  0.098014  1
  Ir  Ir21  1  0.500000  0.000000  0.598014  1
  Ir  Ir22  1  0.000000  0.500000  0.901986  1
  Ir  Ir23  1  0.000000  0.500000  0.401986  1
  Au  Au24  1  0.843295  0.156705  0.250000  1
  Au  Au25  1  0.843295  0.843295  0.750000  1
  Au  Au26  1  0.156705  0.156705  0.750000  1
  Au  Au27  1  0.156705  0.843295  0.250000  1
  Au  Au28  1  0.656705  0.343295  0.750000  1
  Au  Au29  1  0.656705  0.656705  0.250000  1
  Au  Au30  1  0.343295  0.343295  0.250000  1
  Au  Au31  1  0.343295  0.656705  0.750000  1
