# generated using pymatgen
data_Tb2Er2Ga17SiIr6
_symmetry_space_group_name_H-M   'P 1'
_cell_length_a   7.59002031
_cell_length_b   7.56764063
_cell_length_c   9.49260710
_cell_angle_alpha   90.06231085
_cell_angle_beta   89.81300514
_cell_angle_gamma   119.91164445
_symmetry_Int_Tables_number   1
_chemical_formula_structural   Tb2Er2Ga17SiIr6
_chemical_formula_sum   'Tb2 Er2 Ga17 Si1 Ir6'
_cell_volume   472.61027027
_cell_formula_units_Z   1
loop_
 _symmetry_equiv_pos_site_id
 _symmetry_equiv_pos_as_xyz
  1  'x, y, z'
loop_
 _atom_site_type_symbol
 _atom_site_label
 _atom_site_symmetry_multiplicity
 _atom_site_fract_x
 _atom_site_fract_y
 _atom_site_fract_z
 _atom_site_occupancy
  Tb  Tb0  1  0.673649  0.002145  0.248280  1
  Tb  Tb1  1  0.330639  0.002537  0.749838  1
  Er  Er2  1  0.997229  0.664749  0.248140  1
  Er  Er3  1  0.002552  0.331066  0.751456  1
  Ga  Ga4  1  0.129363  0.128363  0.250836  1
  Ga  Ga5  1  0.873075  0.874653  0.750726  1
  Ga  Ga6  1  0.999025  0.669877  0.917903  1
  Ga  Ga7  1  0.000509  0.665298  0.580029  1
  Ga  Ga8  1  0.333188  0.997656  0.419311  1
  Ga  Ga9  1  0.999562  0.335220  0.420802  1
  Ga  Ga10  1  0.665992  0.000732  0.580537  1
  Ga  Ga11  1  0.659824  0.995457  0.917561  1
  Ga  Ga12  1  0.332961  0.997488  0.081716  1
  Ga  Ga13  1  0.331764  0.331728  0.564674  1
  Ga  Ga14  1  0.669091  0.668931  0.434750  1
  Ga  Ga15  1  0.668627  0.669032  0.067386  1
  Ga  Ga16  1  0.337340  0.332621  0.933819  1
  Ga  Ga17  1  0.340683  0.546272  0.251498  1
  Ga  Ga18  1  0.661519  0.452432  0.750992  1
  Ga  Ga19  1  0.547822  0.340068  0.250545  1
  Ga  Ga20  1  0.451382  0.658857  0.750374  1
  Si  Si21  1  0.999700  0.334984  0.072543  1
  Ir  Ir22  1  0.684024  0.329742  0.003207  1
  Ir  Ir23  1  0.313271  0.656486  0.001682  1
  Ir  Ir24  1  0.327718  0.670779  0.500312  1
  Ir  Ir25  1  0.671721  0.328763  0.500109  1
  Ir  Ir26  1  0.998372  0.013930  0.001261  1
  Ir  Ir27  1  0.999395  0.000132  0.499709  1
