# generated using pymatgen
data_Ho3Tm5(CdIr)2
_symmetry_space_group_name_H-M   'P 1'
_cell_length_a   9.52645405
_cell_length_b   9.52568729
_cell_length_c   9.52465803
_cell_angle_alpha   59.99873029
_cell_angle_beta   59.99793987
_cell_angle_gamma   60.00153366
_symmetry_Int_Tables_number   1
_chemical_formula_structural   Ho3Tm5(CdIr)2
_chemical_formula_sum   'Ho6 Tm10 Cd4 Ir4'
_cell_volume   611.16165046
_cell_formula_units_Z   2
loop_
 _symmetry_equiv_pos_site_id
 _symmetry_equiv_pos_as_xyz
  1  'x, y, z'
loop_
 _atom_site_type_symbol
 _atom_site_label
 _atom_site_symmetry_multiplicity
 _atom_site_fract_x
 _atom_site_fract_y
 _atom_site_fract_z
 _atom_site_occupancy
  Ho  Ho0  1  0.187851  0.812115  0.812209  1
  Ho  Ho1  1  0.812135  0.187829  0.187873  1
  Ho  Ho2  1  0.812068  0.187856  0.812208  1
  Ho  Ho3  1  0.187860  0.812148  0.187867  1
  Ho  Ho4  1  0.812118  0.812154  0.187877  1
  Ho  Ho5  1  0.187868  0.187829  0.812204  1
  Tm  Tm6  1  0.599565  0.599527  0.599570  1
  Tm  Tm7  1  0.599501  0.599545  0.201410  1
  Tm  Tm8  1  0.599564  0.201352  0.599565  1
  Tm  Tm9  1  0.201307  0.599586  0.599532  1
  Tm  Tm10  1  0.060934  0.439127  0.439007  1
  Tm  Tm11  1  0.439094  0.060944  0.060891  1
  Tm  Tm12  1  0.439155  0.060918  0.439005  1
  Tm  Tm13  1  0.060950  0.439076  0.060892  1
  Tm  Tm14  1  0.439102  0.439068  0.060884  1
  Tm  Tm15  1  0.060932  0.060934  0.439006  1
  Cd  Cd16  1  0.831080  0.831053  0.831037  1
  Cd  Cd17  1  0.831050  0.831053  0.506841  1
  Cd  Cd18  1  0.831064  0.506839  0.831039  1
  Cd  Cd19  1  0.506807  0.831069  0.831039  1
  Ir  Ir20  1  0.392023  0.392020  0.392028  1
  Ir  Ir21  1  0.392030  0.392006  0.823951  1
  Ir  Ir22  1  0.392029  0.823926  0.392028  1
  Ir  Ir23  1  0.823913  0.392025  0.392039  1
