# generated using pymatgen
data_Nd4ErIr2Ru
_symmetry_space_group_name_H-M   'P 1'
_cell_length_a   11.13175700
_cell_length_b   11.13175700
_cell_length_c   6.54940700
_cell_angle_alpha   90.00000000
_cell_angle_beta   90.00000000
_cell_angle_gamma   90.00000000
_symmetry_Int_Tables_number   1
_chemical_formula_structural   Nd4ErIr2Ru
_chemical_formula_sum   'Nd16 Er4 Ir8 Ru4'
_cell_volume   811.57640889
_cell_formula_units_Z   4
loop_
 _symmetry_equiv_pos_site_id
 _symmetry_equiv_pos_as_xyz
  1  'x, y, z'
loop_
 _atom_site_type_symbol
 _atom_site_label
 _atom_site_symmetry_multiplicity
 _atom_site_fract_x
 _atom_site_fract_y
 _atom_site_fract_z
 _atom_site_occupancy
  Nd  Nd0  1  0.291090  0.086388  0.379866  1
  Nd  Nd1  1  0.291090  0.913612  0.879866  1
  Nd  Nd2  1  0.708910  0.086388  0.879866  1
  Nd  Nd3  1  0.708910  0.913612  0.379866  1
  Nd  Nd4  1  0.586388  0.791090  0.879866  1
  Nd  Nd5  1  0.586388  0.208910  0.379866  1
  Nd  Nd6  1  0.413612  0.791090  0.379866  1
  Nd  Nd7  1  0.413612  0.208910  0.879866  1
  Nd  Nd8  1  0.208910  0.413612  0.620134  1
  Nd  Nd9  1  0.208910  0.586388  0.120134  1
  Nd  Nd10  1  0.791090  0.413612  0.120134  1
  Nd  Nd11  1  0.791090  0.586388  0.620134  1
  Nd  Nd12  1  0.913612  0.708910  0.120134  1
  Nd  Nd13  1  0.913612  0.291090  0.620134  1
  Nd  Nd14  1  0.086388  0.708910  0.620134  1
  Nd  Nd15  1  0.086388  0.291090  0.120134  1
  Er  Er16  1  0.000000  0.000000  0.500000  1
  Er  Er17  1  0.000000  0.000000  0.000000  1
  Er  Er18  1  0.500000  0.500000  0.000000  1
  Er  Er19  1  0.500000  0.500000  0.500000  1
  Ir  Ir20  1  0.852549  0.147451  0.250000  1
  Ir  Ir21  1  0.852549  0.852549  0.750000  1
  Ir  Ir22  1  0.147451  0.147451  0.750000  1
  Ir  Ir23  1  0.147451  0.852549  0.250000  1
  Ir  Ir24  1  0.647451  0.352549  0.750000  1
  Ir  Ir25  1  0.647451  0.647451  0.250000  1
  Ir  Ir26  1  0.352549  0.352549  0.250000  1
  Ir  Ir27  1  0.352549  0.647451  0.750000  1
  Ru  Ru28  1  0.500000  0.000000  0.117994  1
  Ru  Ru29  1  0.500000  0.000000  0.617994  1
  Ru  Ru30  1  0.000000  0.500000  0.882006  1
  Ru  Ru31  1  0.000000  0.500000  0.382006  1
