# generated using pymatgen
data_NaPa2(SnRh)3
_symmetry_space_group_name_H-M   'P 1'
_cell_length_a   7.57466068
_cell_length_b   7.47534270
_cell_length_c   3.87601900
_cell_angle_alpha   90.00000000
_cell_angle_beta   90.00000000
_cell_angle_gamma   119.56719456
_symmetry_Int_Tables_number   1
_chemical_formula_structural   NaPa2(SnRh)3
_chemical_formula_sum   'Na1 Pa2 Sn3 Rh3'
_cell_volume   190.89229786
_cell_formula_units_Z   1
loop_
 _symmetry_equiv_pos_site_id
 _symmetry_equiv_pos_as_xyz
  1  'x, y, z'
loop_
 _atom_site_type_symbol
 _atom_site_label
 _atom_site_symmetry_multiplicity
 _atom_site_fract_x
 _atom_site_fract_y
 _atom_site_fract_z
 _atom_site_occupancy
  Na  Na0  1  0.000000  0.597138  0.500000  1
  Pa  Pa1  1  0.410846  0.409123  0.500000  1
  Pa  Pa2  1  0.589154  0.998277  0.500000  1
  Sn  Sn3  1  0.760679  0.738667  0.000000  1
  Sn  Sn4  1  0.239321  0.977989  0.000000  1
  Sn  Sn5  1  0.000000  0.280498  0.000000  1
  Rh  Rh6  1  0.629817  0.303506  0.000000  1
  Rh  Rh7  1  0.370183  0.673691  0.000000  1
  Rh  Rh8  1  0.000000  0.021111  0.500000  1
