# generated using pymatgen
data_Sb12OsPdRh2
_symmetry_space_group_name_H-M   'P 1'
_cell_length_a   8.13550922
_cell_length_b   8.13652161
_cell_length_c   8.14620282
_cell_angle_alpha   109.46413946
_cell_angle_beta   109.47268270
_cell_angle_gamma   109.38612669
_symmetry_Int_Tables_number   1
_chemical_formula_structural   Sb12OsPdRh2
_chemical_formula_sum   'Sb12 Os1 Pd1 Rh2'
_cell_volume   415.56778798
_cell_formula_units_Z   1
loop_
 _symmetry_equiv_pos_site_id
 _symmetry_equiv_pos_as_xyz
  1  'x, y, z'
loop_
 _atom_site_type_symbol
 _atom_site_label
 _atom_site_symmetry_multiplicity
 _atom_site_fract_x
 _atom_site_fract_y
 _atom_site_fract_z
 _atom_site_occupancy
  Sb  Sb0  1  0.156284  0.818252  0.663658  1
  Sb  Sb1  1  0.843716  0.181748  0.336342  1
  Sb  Sb2  1  0.843536  0.503199  0.653727  1
  Sb  Sb3  1  0.156464  0.496801  0.346273  1
  Sb  Sb4  1  0.810456  0.660089  0.157066  1
  Sb  Sb5  1  0.189544  0.339911  0.842934  1
  Sb  Sb6  1  0.507009  0.663393  0.845129  1
  Sb  Sb7  1  0.492991  0.336607  0.154871  1
  Sb  Sb8  1  0.655075  0.149775  0.812516  1
  Sb  Sb9  1  0.344925  0.850225  0.187484  1
  Sb  Sb10  1  0.660107  0.844238  0.504697  1
  Sb  Sb11  1  0.339893  0.155762  0.495303  1
  Os  Os12  1  0.500000  0.000000  0.000000  1
  Pd  Pd13  1  0.000000  0.500000  0.000000  1
  Rh  Rh14  1  0.000000  0.000000  0.500000  1
  Rh  Rh15  1  0.500000  0.500000  0.500000  1
