# generated using pymatgen
data_Ho8Ti12Si15Pt
_symmetry_space_group_name_H-M   'P 1'
_cell_length_a   7.07933042
_cell_length_b   7.02864151
_cell_length_c   12.96246221
_cell_angle_alpha   89.90983337
_cell_angle_beta   89.90358557
_cell_angle_gamma   90.01204495
_symmetry_Int_Tables_number   1
_chemical_formula_structural   Ho8Ti12Si15Pt
_chemical_formula_sum   'Ho8 Ti12 Si15 Pt1'
_cell_volume   644.98544817
_cell_formula_units_Z   1
loop_
 _symmetry_equiv_pos_site_id
 _symmetry_equiv_pos_as_xyz
  1  'x, y, z'
loop_
 _atom_site_type_symbol
 _atom_site_label
 _atom_site_symmetry_multiplicity
 _atom_site_fract_x
 _atom_site_fract_y
 _atom_site_fract_z
 _atom_site_occupancy
  Ho  Ho0  1  0.340345  0.002227  0.465794  1
  Ho  Ho1  1  0.501189  0.838709  0.717746  1
  Ho  Ho2  1  0.500851  0.159919  0.216798  1
  Ho  Ho3  1  0.841855  0.497025  0.283135  1
  Ho  Ho4  1  0.157201  0.502278  0.783122  1
  Ho  Ho5  1  0.659611  0.997197  0.967799  1
  Ho  Ho6  1  0.001499  0.339522  0.534427  1
  Ho  Ho7  1  0.998858  0.659531  0.033371  1
  Ti  Ti8  1  0.326132  0.326169  0.001253  1
  Ti  Ti9  1  0.174058  0.826317  0.249773  1
  Ti  Ti10  1  0.823385  0.172574  0.749797  1
  Ti  Ti11  1  0.673707  0.672529  0.499432  1
  Ti  Ti12  1  0.154595  0.011075  0.876722  1
  Ti  Ti13  1  0.491560  0.651880  0.126380  1
  Ti  Ti14  1  0.503256  0.345637  0.626579  1
  Ti  Ti15  1  0.654369  0.495424  0.875195  1
  Ti  Ti16  1  0.348225  0.507394  0.373123  1
  Ti  Ti17  1  0.846972  0.992073  0.375244  1
  Ti  Ti18  1  0.008464  0.151865  0.124958  1
  Ti  Ti19  1  0.988070  0.849121  0.619146  1
  Si  Si20  1  0.369188  0.702425  0.934724  1
  Si  Si21  1  0.631245  0.297514  0.433729  1
  Si  Si22  1  0.702969  0.369352  0.066774  1
  Si  Si23  1  0.301204  0.631697  0.563973  1
  Si  Si24  1  0.796106  0.869173  0.182928  1
  Si  Si25  1  0.130558  0.202706  0.315773  1
  Si  Si26  1  0.868642  0.798590  0.816267  1
  Si  Si27  1  0.291945  0.953259  0.065680  1
  Si  Si28  1  0.547388  0.790806  0.314813  1
  Si  Si29  1  0.456866  0.213197  0.818191  1
  Si  Si30  1  0.789846  0.547797  0.685752  1
  Si  Si31  1  0.208004  0.453271  0.184988  1
  Si  Si32  1  0.706526  0.047218  0.563265  1
  Si  Si33  1  0.951742  0.291252  0.936782  1
  Si  Si34  1  0.048335  0.708574  0.433155  1
  Pt  Pt35  1  0.205232  0.124703  0.683415  1
