# generated using pymatgen
data_Rb2Np(SO)2
_symmetry_space_group_name_H-M   'P 1'
_cell_length_a   7.24888130
_cell_length_b   7.24888213
_cell_length_c   8.31660279
_cell_angle_alpha   73.11896060
_cell_angle_beta   73.11895870
_cell_angle_gamma   62.47468591
_symmetry_Int_Tables_number   1
_chemical_formula_structural   Rb2Np(SO)2
_chemical_formula_sum   'Rb4 Np2 S4 O4'
_cell_volume   364.50580620
_cell_formula_units_Z   2
loop_
 _symmetry_equiv_pos_site_id
 _symmetry_equiv_pos_as_xyz
  1  'x, y, z'
loop_
 _atom_site_type_symbol
 _atom_site_label
 _atom_site_symmetry_multiplicity
 _atom_site_fract_x
 _atom_site_fract_y
 _atom_site_fract_z
 _atom_site_occupancy
  Rb  Rb0  1  0.683330  0.673706  0.663091  1
  Rb  Rb1  1  0.326294  0.316670  0.836909  1
  Rb  Rb2  1  0.316670  0.326294  0.336909  1
  Rb  Rb3  1  0.673706  0.683330  0.163091  1
  Np  Np4  1  0.998832  0.001168  0.750000  1
  Np  Np5  1  0.001168  0.998832  0.250000  1
  S  S6  1  0.232352  0.766666  0.998733  1
  S  S7  1  0.233334  0.767648  0.501267  1
  S  S8  1  0.767648  0.233334  0.001267  1
  S  S9  1  0.766666  0.232352  0.498733  1
  O  O10  1  0.154924  0.160692  0.669874  1
  O  O11  1  0.839308  0.845076  0.830126  1
  O  O12  1  0.845076  0.839308  0.330126  1
  O  O13  1  0.160692  0.154924  0.169874  1
