# generated using pymatgen
data_Dy6Al24Os5Pt3
_symmetry_space_group_name_H-M   'P 1'
_cell_length_a   8.81775629
_cell_length_b   8.83886469
_cell_length_c   9.54906349
_cell_angle_alpha   90.14556855
_cell_angle_beta   89.70892737
_cell_angle_gamma   119.53277177
_symmetry_Int_Tables_number   1
_chemical_formula_structural   Dy6Al24Os5Pt3
_chemical_formula_sum   'Dy6 Al24 Os5 Pt3'
_cell_volume   647.53894613
_cell_formula_units_Z   1
loop_
 _symmetry_equiv_pos_site_id
 _symmetry_equiv_pos_as_xyz
  1  'x, y, z'
loop_
 _atom_site_type_symbol
 _atom_site_label
 _atom_site_symmetry_multiplicity
 _atom_site_fract_x
 _atom_site_fract_y
 _atom_site_fract_z
 _atom_site_occupancy
  Dy  Dy0  1  0.188406  0.383826  0.250744  1
  Dy  Dy1  1  0.811594  0.616174  0.749256  1
  Dy  Dy2  1  0.613157  0.813279  0.252356  1
  Dy  Dy3  1  0.386843  0.186721  0.747644  1
  Dy  Dy4  1  0.195046  0.808442  0.251738  1
  Dy  Dy5  1  0.804954  0.191558  0.748262  1
  Al  Al6  1  0.335251  0.671458  0.028732  1
  Al  Al7  1  0.664749  0.328542  0.971268  1
  Al  Al8  1  0.669244  0.331481  0.527490  1
  Al  Al9  1  0.330756  0.668519  0.472510  1
  Al  Al10  1  0.158031  0.325717  0.574823  1
  Al  Al11  1  0.841969  0.674283  0.425177  1
  Al  Al12  1  0.673468  0.840820  0.575432  1
  Al  Al13  1  0.836684  0.676099  0.077796  1
  Al  Al14  1  0.326532  0.159180  0.424568  1
  Al  Al15  1  0.163316  0.323901  0.922204  1
  Al  Al16  1  0.163663  0.834995  0.576297  1
  Al  Al17  1  0.325463  0.158614  0.076508  1
  Al  Al18  1  0.836337  0.165005  0.423703  1
  Al  Al19  1  0.674537  0.841386  0.923492  1
  Al  Al20  1  0.831476  0.158980  0.078085  1
  Al  Al21  1  0.168524  0.841020  0.921915  1
  Al  Al22  1  0.560835  0.124942  0.250007  1
  Al  Al23  1  0.439165  0.875058  0.749993  1
  Al  Al24  1  0.874039  0.437565  0.252709  1
  Al  Al25  1  0.125961  0.562435  0.747291  1
  Al  Al26  1  0.562373  0.436384  0.249864  1
  Al  Al27  1  0.437627  0.563616  0.750136  1
  Al  Al28  1  0.998734  0.002719  0.250254  1
  Al  Al29  1  0.001266  0.997281  0.749746  1
  Os  Os30  1  0.500000  0.000000  0.000000  1
  Os  Os31  1  0.500000  0.000000  0.500000  1
  Os  Os32  1  0.000000  0.500000  0.500000  1
  Os  Os33  1  0.000000  0.000000  0.000000  1
  Os  Os34  1  0.000000  0.000000  0.500000  1
  Pt  Pt35  1  0.000000  0.500000  0.000000  1
  Pt  Pt36  1  0.500000  0.500000  0.000000  1
  Pt  Pt37  1  0.500000  0.500000  0.500000  1
