# generated using pymatgen
data_Pr16Ag3SnRh4
_symmetry_space_group_name_H-M   'P 1'
_cell_length_a   9.93278837
_cell_length_b   9.93278899
_cell_length_c   9.93278858
_cell_angle_alpha   60.31287322
_cell_angle_beta   60.31287397
_cell_angle_gamma   60.31287103
_symmetry_Int_Tables_number   1
_chemical_formula_structural   Pr16Ag3SnRh4
_chemical_formula_sum   'Pr16 Ag3 Sn1 Rh4'
_cell_volume   697.85040101
_cell_formula_units_Z   1
loop_
 _symmetry_equiv_pos_site_id
 _symmetry_equiv_pos_as_xyz
  1  'x, y, z'
loop_
 _atom_site_type_symbol
 _atom_site_label
 _atom_site_symmetry_multiplicity
 _atom_site_fract_x
 _atom_site_fract_y
 _atom_site_fract_z
 _atom_site_occupancy
  Pr  Pr0  1  0.350481  0.350481  0.350481  1
  Pr  Pr1  1  0.350295  0.350295  0.946741  1
  Pr  Pr2  1  0.350295  0.946741  0.350295  1
  Pr  Pr3  1  0.946741  0.350295  0.350295  1
  Pr  Pr4  1  0.809517  0.189038  0.189038  1
  Pr  Pr5  1  0.194629  0.806445  0.806444  1
  Pr  Pr6  1  0.189038  0.809517  0.189037  1
  Pr  Pr7  1  0.806444  0.194629  0.806444  1
  Pr  Pr8  1  0.189038  0.189038  0.809517  1
  Pr  Pr9  1  0.806445  0.806445  0.194628  1
  Pr  Pr10  1  0.944218  0.562564  0.562564  1
  Pr  Pr11  1  0.562580  0.938568  0.938568  1
  Pr  Pr12  1  0.562564  0.944218  0.562564  1
  Pr  Pr13  1  0.938568  0.562580  0.938568  1
  Pr  Pr14  1  0.562564  0.562564  0.944218  1
  Pr  Pr15  1  0.938568  0.938568  0.562580  1
  Ag  Ag16  1  0.581529  0.581529  0.255318  1
  Ag  Ag17  1  0.581529  0.255318  0.581529  1
  Ag  Ag18  1  0.255318  0.581529  0.581529  1
  Sn  Sn19  1  0.578314  0.578314  0.578314  1
  Rh  Rh20  1  0.141929  0.141929  0.141929  1
  Rh  Rh21  1  0.143597  0.143597  0.572204  1
  Rh  Rh22  1  0.143597  0.572204  0.143597  1
  Rh  Rh23  1  0.572204  0.143597  0.143597  1
