# generated using pymatgen
data_Eu2Al20IrRu3
_symmetry_space_group_name_H-M   'P 1'
_cell_length_a   6.92298593
_cell_length_b   6.92489582
_cell_length_c   9.21112388
_cell_angle_alpha   90.00525514
_cell_angle_beta   90.06976989
_cell_angle_gamma   96.73540829
_symmetry_Int_Tables_number   1
_chemical_formula_structural   Eu2Al20IrRu3
_chemical_formula_sum   'Eu2 Al20 Ir1 Ru3'
_cell_volume   438.54205403
_cell_formula_units_Z   1
loop_
 _symmetry_equiv_pos_site_id
 _symmetry_equiv_pos_as_xyz
  1  'x, y, z'
loop_
 _atom_site_type_symbol
 _atom_site_label
 _atom_site_symmetry_multiplicity
 _atom_site_fract_x
 _atom_site_fract_y
 _atom_site_fract_z
 _atom_site_occupancy
  Eu  Eu0  1  0.878929  0.121716  0.750446  1
  Eu  Eu1  1  0.121071  0.878284  0.249554  1
  Al  Al2  1  0.411481  0.140011  0.748411  1
  Al  Al3  1  0.139600  0.412713  0.250336  1
  Al  Al4  1  0.588519  0.859989  0.251589  1
  Al  Al5  1  0.860400  0.587287  0.749664  1
  Al  Al6  1  0.520165  0.778947  0.747495  1
  Al  Al7  1  0.779406  0.519738  0.249754  1
  Al  Al8  1  0.479835  0.221053  0.252505  1
  Al  Al9  1  0.220594  0.480262  0.750246  1
  Al  Al10  1  0.839940  0.159469  0.400457  1
  Al  Al11  1  0.160060  0.840531  0.599543  1
  Al  Al12  1  0.841543  0.160981  0.101135  1
  Al  Al13  1  0.158457  0.839019  0.898865  1
  Al  Al14  1  0.623550  0.376878  0.549791  1
  Al  Al15  1  0.376450  0.623122  0.450209  1
  Al  Al16  1  0.623722  0.379153  0.949242  1
  Al  Al17  1  0.376278  0.620847  0.050758  1
  Al  Al18  1  0.777015  0.774151  0.001346  1
  Al  Al19  1  0.775151  0.774563  0.500579  1
  Al  Al20  1  0.222985  0.225849  0.998654  1
  Al  Al21  1  0.224849  0.225437  0.499421  1
  Ir  Ir22  1  0.500000  0.000000  0.000000  1
  Ru  Ru23  1  0.000000  0.500000  0.000000  1
  Ru  Ru24  1  0.500000  0.000000  0.500000  1
  Ru  Ru25  1  0.000000  0.500000  0.500000  1
