# generated using pymatgen
data_Sm2Fe10P7Ru2
_symmetry_space_group_name_H-M   'P 1'
_cell_length_a   9.03632025
_cell_length_b   9.00741688
_cell_length_c   3.72075400
_cell_angle_alpha   90.00000000
_cell_angle_beta   90.00000000
_cell_angle_gamma   119.75489793
_symmetry_Int_Tables_number   1
_chemical_formula_structural   Sm2Fe10P7Ru2
_chemical_formula_sum   'Sm2 Fe10 P7 Ru2'
_cell_volume   262.91829169
_cell_formula_units_Z   1
loop_
 _symmetry_equiv_pos_site_id
 _symmetry_equiv_pos_as_xyz
  1  'x, y, z'
loop_
 _atom_site_type_symbol
 _atom_site_label
 _atom_site_symmetry_multiplicity
 _atom_site_fract_x
 _atom_site_fract_y
 _atom_site_fract_z
 _atom_site_occupancy
  Sm  Sm0  1  0.669460  0.335919  0.000000  1
  Sm  Sm1  1  0.332608  0.666640  0.500000  1
  Fe  Fe2  1  0.422541  0.056038  0.500000  1
  Fe  Fe3  1  0.944191  0.368467  0.500000  1
  Fe  Fe4  1  0.631010  0.574868  0.500000  1
  Fe  Fe5  1  0.155431  0.272391  0.500000  1
  Fe  Fe6  1  0.724425  0.879001  0.500000  1
  Fe  Fe7  1  0.122566  0.848289  0.500000  1
  Fe  Fe8  1  0.383396  0.431733  0.000000  1
  Fe  Fe9  1  0.563404  0.949782  0.000000  1
  Fe  Fe10  1  0.051887  0.615990  0.000000  1
  Fe  Fe11  1  0.215950  0.098098  0.000000  1
  P  P12  1  0.113612  0.402325  0.000000  1
  P  P13  1  0.594962  0.707353  0.000000  1
  P  P14  1  0.288750  0.889731  0.000000  1
  P  P15  1  0.000786  0.000645  0.500000  1
  P  P16  1  0.411581  0.303939  0.500000  1
  P  P17  1  0.694798  0.107180  0.500000  1
  P  P18  1  0.894694  0.589608  0.500000  1
  Ru  Ru19  1  0.901842  0.116619  0.000000  1
  Ru  Ru20  1  0.882107  0.785382  0.000000  1
