# generated using pymatgen
data_Ca12Nd7HoSn16
_symmetry_space_group_name_H-M   'P 1'
_cell_length_a   7.99595324
_cell_length_b   8.52911189
_cell_length_c   16.16622368
_cell_angle_alpha   89.87008216
_cell_angle_beta   90.06458400
_cell_angle_gamma   89.86655925
_symmetry_Int_Tables_number   1
_chemical_formula_structural   Ca12Nd7HoSn16
_chemical_formula_sum   'Ca12 Nd7 Ho1 Sn16'
_cell_volume   1102.50373113
_cell_formula_units_Z   1
loop_
 _symmetry_equiv_pos_site_id
 _symmetry_equiv_pos_as_xyz
  1  'x, y, z'
loop_
 _atom_site_type_symbol
 _atom_site_label
 _atom_site_symmetry_multiplicity
 _atom_site_fract_x
 _atom_site_fract_y
 _atom_site_fract_z
 _atom_site_occupancy
  Ca  Ca0  1  0.991294  0.185482  0.407565  1
  Ca  Ca1  1  0.326439  0.827824  0.122057  1
  Ca  Ca2  1  0.173470  0.331341  0.624152  1
  Ca  Ca3  1  0.507151  0.683146  0.905459  1
  Ca  Ca4  1  0.828374  0.670727  0.122329  1
  Ca  Ca5  1  0.172248  0.330906  0.876189  1
  Ca  Ca6  1  0.155839  0.495620  0.249253  1
  Ca  Ca7  1  0.658333  0.002167  0.248817  1
  Ca  Ca8  1  0.509408  0.685116  0.595429  1
  Ca  Ca9  1  0.343968  0.996512  0.749103  1
  Ca  Ca10  1  0.673923  0.171363  0.622615  1
  Ca  Ca11  1  0.840434  0.502969  0.749300  1
  Nd  Nd12  1  0.988034  0.185825  0.093290  1
  Nd  Nd13  1  0.012774  0.811090  0.903138  1
  Nd  Nd14  1  0.669582  0.171405  0.875245  1
  Nd  Nd15  1  0.486433  0.313255  0.096144  1
  Nd  Nd16  1  0.329506  0.826747  0.376221  1
  Nd  Nd17  1  0.013430  0.812195  0.597982  1
  Nd  Nd18  1  0.490810  0.312427  0.404293  1
  Ho  Ho19  1  0.828771  0.671473  0.377833  1
  Sn  Sn20  1  0.832815  0.472446  0.539402  1
  Sn  Sn21  1  0.670091  0.967898  0.457443  1
  Sn  Sn22  1  0.719206  0.862080  0.750916  1
  Sn  Sn23  1  0.167022  0.536846  0.460123  1
  Sn  Sn24  1  0.329901  0.038087  0.961963  1
  Sn  Sn25  1  0.782792  0.361006  0.251410  1
  Sn  Sn26  1  0.831732  0.464178  0.961206  1
  Sn  Sn27  1  0.529020  0.603947  0.251175  1
  Sn  Sn28  1  0.166001  0.531499  0.040276  1
  Sn  Sn29  1  0.471432  0.394762  0.750740  1
  Sn  Sn30  1  0.214591  0.639072  0.750270  1
  Sn  Sn31  1  0.974252  0.102943  0.750593  1
  Sn  Sn32  1  0.331724  0.037139  0.537424  1
  Sn  Sn33  1  0.668981  0.969481  0.040720  1
  Sn  Sn34  1  0.283658  0.136928  0.248831  1
  Sn  Sn35  1  0.026567  0.894096  0.251094  1
