# generated using pymatgen
data_Ba5PtAu5
_symmetry_space_group_name_H-M   'P 1'
_cell_length_a   17.12691984
_cell_length_b   17.12691877
_cell_length_c   4.56195200
_cell_angle_alpha   90.00000000
_cell_angle_beta   90.00000000
_cell_angle_gamma   164.34279785
_symmetry_Int_Tables_number   1
_chemical_formula_structural   Ba5PtAu5
_chemical_formula_sum   'Ba5 Pt1 Au5'
_cell_volume   361.14530041
_cell_formula_units_Z   1
loop_
 _symmetry_equiv_pos_site_id
 _symmetry_equiv_pos_as_xyz
  1  'x, y, z'
loop_
 _atom_site_type_symbol
 _atom_site_label
 _atom_site_symmetry_multiplicity
 _atom_site_fract_x
 _atom_site_fract_y
 _atom_site_fract_z
 _atom_site_occupancy
  Ba  Ba0  1  0.000606  0.999394  0.000000  1
  Ba  Ba1  1  0.618713  0.381287  0.000000  1
  Ba  Ba2  1  0.384282  0.615718  0.000000  1
  Ba  Ba3  1  0.796988  0.203011  0.500000  1
  Ba  Ba4  1  0.200203  0.799796  0.500000  1
  Pt  Pt5  1  0.721504  0.278496  0.000000  1
  Au  Au6  1  0.277611  0.722389  0.000000  1
  Au  Au7  1  0.904503  0.095497  0.500000  1
  Au  Au8  1  0.542215  0.457784  0.500000  1
  Au  Au9  1  0.458812  0.541187  0.500000  1
  Au  Au10  1  0.094562  0.905438  0.500000  1
