# generated using pymatgen
data_Cs6YErI12
_symmetry_space_group_name_H-M   'P 1'
_cell_length_a   10.63025404
_cell_length_b   10.63529410
_cell_length_c   8.78155400
_cell_angle_alpha   90.00000000
_cell_angle_beta   90.00000000
_cell_angle_gamma   89.88378570
_symmetry_Int_Tables_number   1
_chemical_formula_structural   Cs6YErI12
_chemical_formula_sum   'Cs6 Y1 Er1 I12'
_cell_volume   992.80425541
_cell_formula_units_Z   1
loop_
 _symmetry_equiv_pos_site_id
 _symmetry_equiv_pos_as_xyz
  1  'x, y, z'
loop_
 _atom_site_type_symbol
 _atom_site_label
 _atom_site_symmetry_multiplicity
 _atom_site_fract_x
 _atom_site_fract_y
 _atom_site_fract_z
 _atom_site_occupancy
  Cs  Cs0  1  0.000000  0.000000  0.500000  1
  Cs  Cs1  1  0.000000  0.000000  0.000000  1
  Cs  Cs2  1  0.234067  0.586644  0.500000  1
  Cs  Cs3  1  0.765933  0.413356  0.500000  1
  Cs  Cs4  1  0.412970  0.232337  0.000000  1
  Cs  Cs5  1  0.587030  0.767663  0.000000  1
  Y  Y6  1  0.500000  0.000000  0.500000  1
  Er  Er7  1  0.000000  0.500000  0.000000  1
  I  I8  1  0.695231  0.059120  0.744843  1
  I  I9  1  0.304769  0.940880  0.744843  1
  I  I10  1  0.941067  0.693719  0.242841  1
  I  I11  1  0.058933  0.306281  0.242841  1
  I  I12  1  0.304769  0.940880  0.255157  1
  I  I13  1  0.695231  0.059120  0.255157  1
  I  I14  1  0.058933  0.306281  0.757159  1
  I  I15  1  0.941067  0.693719  0.757159  1
  I  I16  1  0.571077  0.724087  0.500000  1
  I  I17  1  0.428923  0.275913  0.500000  1
  I  I18  1  0.274331  0.569687  0.000000  1
  I  I19  1  0.725669  0.430313  0.000000  1
