# generated using pymatgen
data_Tc4Te8MoW
_symmetry_space_group_name_H-M   'P 1'
_cell_length_a   7.15469103
_cell_length_b   7.13813306
_cell_length_c   7.10819446
_cell_angle_alpha   93.93761379
_cell_angle_beta   94.10023321
_cell_angle_gamma   93.55318113
_symmetry_Int_Tables_number   1
_chemical_formula_structural   Tc4Te8MoW
_chemical_formula_sum   'Tc4 Te8 Mo1 W1'
_cell_volume   360.42270741
_cell_formula_units_Z   1
loop_
 _symmetry_equiv_pos_site_id
 _symmetry_equiv_pos_as_xyz
  1  'x, y, z'
loop_
 _atom_site_type_symbol
 _atom_site_label
 _atom_site_symmetry_multiplicity
 _atom_site_fract_x
 _atom_site_fract_y
 _atom_site_fract_z
 _atom_site_occupancy
  Tc  Tc0  1  0.745015  0.912848  0.046341  1
  Tc  Tc1  1  0.046705  0.748125  0.913827  1
  Tc  Tc2  1  0.087091  0.956358  0.254016  1
  Tc  Tc3  1  0.250799  0.087268  0.952829  1
  Te  Te4  1  0.709606  0.704347  0.712887  1
  Te  Te5  1  0.292995  0.287115  0.290223  1
  Te  Te6  1  0.774093  0.121011  0.380399  1
  Te  Te7  1  0.380178  0.776610  0.122135  1
  Te  Te8  1  0.122892  0.382839  0.765157  1
  Te  Te9  1  0.233272  0.874667  0.619312  1
  Te  Te10  1  0.612481  0.226437  0.879368  1
  Te  Te11  1  0.879984  0.624912  0.226182  1
  Mo  Mo12  1  0.953138  0.253415  0.086284  1
  W  W13  1  0.911750  0.044048  0.751039  1
