# generated using pymatgen
data_Th2URu3
_symmetry_space_group_name_H-M   'P 1'
_cell_length_a   5.33330972
_cell_length_b   5.33330972
_cell_length_c   5.33331075
_cell_angle_alpha   67.29038810
_cell_angle_beta   67.29038846
_cell_angle_gamma   67.29040131
_symmetry_Int_Tables_number   1
_chemical_formula_structural   Th2URu3
_chemical_formula_sum   'Th2 U1 Ru3'
_cell_volume   123.98314710
_cell_formula_units_Z   1
loop_
 _symmetry_equiv_pos_site_id
 _symmetry_equiv_pos_as_xyz
  1  'x, y, z'
loop_
 _atom_site_type_symbol
 _atom_site_label
 _atom_site_symmetry_multiplicity
 _atom_site_fract_x
 _atom_site_fract_y
 _atom_site_fract_z
 _atom_site_occupancy
  Th  Th0  1  0.126468  0.126468  0.126468  1
  Th  Th1  1  0.873532  0.873532  0.873532  1
  U  U2  1  0.500000  0.500000  0.500000  1
  Ru  Ru3  1  0.500000  0.000000  0.500000  1
  Ru  Ru4  1  0.000000  0.500000  0.500000  1
  Ru  Ru5  1  0.500000  0.500000  0.000000  1
