# generated using pymatgen
data_Dy3Mg(P3Rh4)2
_symmetry_space_group_name_H-M   'P 1'
_cell_length_a   3.93733000
_cell_length_b   11.26645600
_cell_length_c   12.83531200
_cell_angle_alpha   90.00000000
_cell_angle_beta   90.00000000
_cell_angle_gamma   90.00000000
_symmetry_Int_Tables_number   1
_chemical_formula_structural   Dy3Mg(P3Rh4)2
_chemical_formula_sum   'Dy6 Mg2 P12 Rh16'
_cell_volume   569.37129827
_cell_formula_units_Z   2
loop_
 _symmetry_equiv_pos_site_id
 _symmetry_equiv_pos_as_xyz
  1  'x, y, z'
loop_
 _atom_site_type_symbol
 _atom_site_label
 _atom_site_symmetry_multiplicity
 _atom_site_fract_x
 _atom_site_fract_y
 _atom_site_fract_z
 _atom_site_occupancy
  Dy  Dy0  1  0.000000  0.500000  0.520217  1
  Dy  Dy1  1  0.500000  0.000000  0.479783  1
  Dy  Dy2  1  0.500000  0.820428  0.205042  1
  Dy  Dy3  1  0.500000  0.179572  0.205042  1
  Dy  Dy4  1  0.000000  0.679572  0.794958  1
  Dy  Dy5  1  0.000000  0.320428  0.794958  1
  Mg  Mg6  1  0.500000  0.500000  0.160067  1
  Mg  Mg7  1  0.000000  0.000000  0.839933  1
  P  P8  1  0.500000  0.500000  0.880904  1
  P  P9  1  0.000000  0.000000  0.119096  1
  P  P10  1  0.500000  0.500000  0.355983  1
  P  P11  1  0.000000  0.000000  0.644017  1
  P  P12  1  0.500000  0.313499  0.617407  1
  P  P13  1  0.500000  0.686501  0.617407  1
  P  P14  1  0.000000  0.186501  0.382593  1
  P  P15  1  0.000000  0.813499  0.382593  1
  P  P16  1  0.500000  0.839343  0.890526  1
  P  P17  1  0.500000  0.160657  0.890526  1
  P  P18  1  0.000000  0.660657  0.109474  1
  P  P19  1  0.000000  0.339343  0.109474  1
  Rh  Rh20  1  0.500000  0.500000  0.702586  1
  Rh  Rh21  1  0.000000  0.000000  0.297414  1
  Rh  Rh22  1  0.000000  0.500000  0.984744  1
  Rh  Rh23  1  0.500000  0.000000  0.015256  1
  Rh  Rh24  1  0.500000  0.333187  0.997329  1
  Rh  Rh25  1  0.500000  0.666813  0.997329  1
  Rh  Rh26  1  0.000000  0.166813  0.002671  1
  Rh  Rh27  1  0.000000  0.833187  0.002671  1
  Rh  Rh28  1  0.500000  0.292076  0.431530  1
  Rh  Rh29  1  0.500000  0.707924  0.431530  1
  Rh  Rh30  1  0.000000  0.207924  0.568470  1
  Rh  Rh31  1  0.000000  0.792076  0.568470  1
  Rh  Rh32  1  0.500000  0.873774  0.709898  1
  Rh  Rh33  1  0.500000  0.126226  0.709898  1
  Rh  Rh34  1  0.000000  0.626226  0.290102  1
  Rh  Rh35  1  0.000000  0.373774  0.290102  1
