# generated using pymatgen
data_Tm20Ir7PtAu4
_symmetry_space_group_name_H-M   'P 1'
_cell_length_a   10.98571949
_cell_length_b   10.96984555
_cell_length_c   6.29304705
_cell_angle_alpha   89.79887714
_cell_angle_beta   89.89555878
_cell_angle_gamma   89.19600465
_symmetry_Int_Tables_number   1
_chemical_formula_structural   Tm20Ir7PtAu4
_chemical_formula_sum   'Tm20 Ir7 Pt1 Au4'
_cell_volume   758.30492882
_cell_formula_units_Z   1
loop_
 _symmetry_equiv_pos_site_id
 _symmetry_equiv_pos_as_xyz
  1  'x, y, z'
loop_
 _atom_site_type_symbol
 _atom_site_label
 _atom_site_symmetry_multiplicity
 _atom_site_fract_x
 _atom_site_fract_y
 _atom_site_fract_z
 _atom_site_occupancy
  Tm  Tm0  1  0.298652  0.089491  0.364540  1
  Tm  Tm1  1  0.301488  0.907471  0.864030  1
  Tm  Tm2  1  0.700404  0.075712  0.859213  1
  Tm  Tm3  1  0.700851  0.904914  0.368561  1
  Tm  Tm4  1  0.585078  0.787796  0.875956  1
  Tm  Tm5  1  0.575758  0.205030  0.361798  1
  Tm  Tm6  1  0.419455  0.789843  0.374602  1
  Tm  Tm7  1  0.412239  0.205956  0.877885  1
  Tm  Tm8  1  0.212735  0.420721  0.624612  1
  Tm  Tm9  1  0.209908  0.581905  0.125546  1
  Tm  Tm10  1  0.794704  0.425714  0.138270  1
  Tm  Tm11  1  0.794614  0.593801  0.621986  1
  Tm  Tm12  1  0.907955  0.703683  0.128842  1
  Tm  Tm13  1  0.919717  0.302962  0.638853  1
  Tm  Tm14  1  0.088467  0.701283  0.638491  1
  Tm  Tm15  1  0.093348  0.301357  0.138384  1
  Tm  Tm16  1  0.994609  0.996663  0.500484  1
  Tm  Tm17  1  0.996400  0.998131  0.998945  1
  Tm  Tm18  1  0.496078  0.502339  0.001558  1
  Tm  Tm19  1  0.498585  0.503495  0.498864  1
  Ir  Ir20  1  0.653234  0.651710  0.250028  1
  Ir  Ir21  1  0.348413  0.346604  0.249945  1
  Ir  Ir22  1  0.345023  0.654356  0.749138  1
  Ir  Ir23  1  0.499301  0.998994  0.113026  1
  Ir  Ir24  1  0.498800  0.999775  0.613332  1
  Ir  Ir25  1  0.000264  0.500871  0.886498  1
  Ir  Ir26  1  0.000947  0.501354  0.386588  1
  Pt  Pt27  1  0.845146  0.847154  0.750676  1
  Au  Au28  1  0.841237  0.158633  0.249578  1
  Au  Au29  1  0.153798  0.155537  0.749191  1
  Au  Au30  1  0.156363  0.843593  0.249952  1
  Au  Au31  1  0.656427  0.343154  0.750626  1
