# generated using pymatgen
data_SmHoCo9Mo3As7
_symmetry_space_group_name_H-M   'P 1'
_cell_length_a   3.86020000
_cell_length_b   9.41970353
_cell_length_c   9.41970400
_cell_angle_alpha   119.99999461
_cell_angle_beta   90.00000000
_cell_angle_gamma   90.00000000
_symmetry_Int_Tables_number   1
_chemical_formula_structural   SmHoCo9Mo3As7
_chemical_formula_sum   'Sm1 Ho1 Co9 Mo3 As7'
_cell_volume   296.62991829
_cell_formula_units_Z   1
loop_
 _symmetry_equiv_pos_site_id
 _symmetry_equiv_pos_as_xyz
  1  'x, y, z'
loop_
 _atom_site_type_symbol
 _atom_site_label
 _atom_site_symmetry_multiplicity
 _atom_site_fract_x
 _atom_site_fract_y
 _atom_site_fract_z
 _atom_site_occupancy
  Sm  Sm0  1  0.500000  0.333333  0.666667  1
  Ho  Ho1  1  0.000000  0.666667  0.333333  1
  Co  Co2  1  0.000000  0.571235  0.941700  1
  Co  Co3  1  0.000000  0.370465  0.428765  1
  Co  Co4  1  0.000000  0.058300  0.629535  1
  Co  Co5  1  0.000000  0.876069  0.157862  1
  Co  Co6  1  0.000000  0.281793  0.123931  1
  Co  Co7  1  0.000000  0.842138  0.718207  1
  Co  Co8  1  0.500000  0.948415  0.382222  1
  Co  Co9  1  0.500000  0.433806  0.051585  1
  Co  Co10  1  0.500000  0.617778  0.566194  1
  Mo  Mo11  1  0.500000  0.781594  0.902696  1
  Mo  Mo12  1  0.500000  0.121102  0.218406  1
  Mo  Mo13  1  0.500000  0.097304  0.878898  1
  As  As14  1  0.000000  0.000000  0.000000  1
  As  As15  1  0.500000  0.707397  0.120040  1
  As  As16  1  0.500000  0.412644  0.292603  1
  As  As17  1  0.500000  0.879960  0.587356  1
  As  As18  1  0.000000  0.587428  0.699241  1
  As  As19  1  0.000000  0.111814  0.412572  1
  As  As20  1  0.000000  0.300759  0.888186  1
