# generated using pymatgen
data_Lu9Mg(RuPb3)2
_symmetry_space_group_name_H-M   'P 1'
_cell_length_a   9.19791100
_cell_length_b   9.19791197
_cell_length_c   6.36698900
_cell_angle_alpha   90.00000000
_cell_angle_beta   90.00000000
_cell_angle_gamma   119.99999290
_symmetry_Int_Tables_number   1
_chemical_formula_structural   Lu9Mg(RuPb3)2
_chemical_formula_sum   'Lu9 Mg1 Ru2 Pb6'
_cell_volume   466.49094078
_cell_formula_units_Z   1
loop_
 _symmetry_equiv_pos_site_id
 _symmetry_equiv_pos_as_xyz
  1  'x, y, z'
loop_
 _atom_site_type_symbol
 _atom_site_label
 _atom_site_symmetry_multiplicity
 _atom_site_fract_x
 _atom_site_fract_y
 _atom_site_fract_z
 _atom_site_occupancy
  Lu  Lu0  1  0.764625  0.762944  0.749939  1
  Lu  Lu1  1  0.237056  0.001681  0.749939  1
  Lu  Lu2  1  0.998319  0.235375  0.749939  1
  Lu  Lu3  1  0.237056  0.235375  0.250061  1
  Lu  Lu4  1  0.764625  0.001681  0.250061  1
  Lu  Lu5  1  0.998319  0.762944  0.250061  1
  Lu  Lu6  1  0.333333  0.666667  0.000000  1
  Lu  Lu7  1  0.333333  0.666667  0.500000  1
  Lu  Lu8  1  0.666667  0.333333  0.500000  1
  Mg  Mg9  1  0.666667  0.333333  0.000000  1
  Ru  Ru10  1  0.000000  0.000000  0.000000  1
  Ru  Ru11  1  0.000000  0.000000  0.500000  1
  Pb  Pb12  1  0.403480  0.402933  0.749978  1
  Pb  Pb13  1  0.597067  0.000547  0.749978  1
  Pb  Pb14  1  0.999453  0.596520  0.749978  1
  Pb  Pb15  1  0.597067  0.596520  0.250022  1
  Pb  Pb16  1  0.403480  0.000547  0.250022  1
  Pb  Pb17  1  0.999453  0.402933  0.250022  1
