# generated using pymatgen
data_In11TcAgIr3
_symmetry_space_group_name_H-M   'P 1'
_cell_length_a   7.17451321
_cell_length_b   7.11740298
_cell_length_c   7.28130700
_cell_angle_alpha   90.00000000
_cell_angle_beta   90.00000000
_cell_angle_gamma   88.85165645
_symmetry_Int_Tables_number   1
_chemical_formula_structural   In11TcAgIr3
_chemical_formula_sum   'In11 Tc1 Ag1 Ir3'
_cell_volume   371.73726925
_cell_formula_units_Z   1
loop_
 _symmetry_equiv_pos_site_id
 _symmetry_equiv_pos_as_xyz
  1  'x, y, z'
loop_
 _atom_site_type_symbol
 _atom_site_label
 _atom_site_symmetry_multiplicity
 _atom_site_fract_x
 _atom_site_fract_y
 _atom_site_fract_z
 _atom_site_occupancy
  In  In0  1  0.327446  0.350496  0.267184  1
  In  In1  1  0.155932  0.839050  0.759589  1
  In  In2  1  0.155932  0.839050  0.240411  1
  In  In3  1  0.002617  0.498637  0.000000  1
  In  In4  1  0.850037  0.166283  0.241149  1
  In  In5  1  0.850037  0.166283  0.758851  1
  In  In6  1  0.498910  0.001605  0.000000  1
  In  In7  1  0.670640  0.646373  0.269658  1
  In  In8  1  0.670640  0.646373  0.730342  1
  In  In9  1  0.327446  0.350496  0.732816  1
  In  In10  1  0.501438  0.999418  0.500000  1
  Tc  Tc11  1  0.150032  0.148614  0.000000  1
  Ag  Ag12  1  0.997916  0.508857  0.500000  1
  Ir  Ir13  1  0.642255  0.337854  0.500000  1
  Ir  Ir14  1  0.357910  0.659326  0.500000  1
  Ir  Ir15  1  0.840813  0.841284  0.000000  1
