# generated using pymatgen
data_Pu3PaC6
_symmetry_space_group_name_H-M   'P 1'
_cell_length_a   7.11104704
_cell_length_b   7.10581120
_cell_length_c   7.09107530
_cell_angle_alpha   109.45284336
_cell_angle_beta   109.48844526
_cell_angle_gamma   109.55985502
_symmetry_Int_Tables_number   1
_chemical_formula_structural   Pu3PaC6
_chemical_formula_sum   'Pu6 Pa2 C12'
_cell_volume   275.52902648
_cell_formula_units_Z   2
loop_
 _symmetry_equiv_pos_site_id
 _symmetry_equiv_pos_as_xyz
  1  'x, y, z'
loop_
 _atom_site_type_symbol
 _atom_site_label
 _atom_site_symmetry_multiplicity
 _atom_site_fract_x
 _atom_site_fract_y
 _atom_site_fract_z
 _atom_site_occupancy
  Pu  Pu0  1  0.598452  0.596173  0.594318  1
  Pu  Pu1  1  0.504150  0.001807  0.405635  1
  Pu  Pu2  1  0.005512  0.404264  0.506694  1
  Pu  Pu3  1  0.399398  0.500197  0.996683  1
  Pu  Pu4  1  0.998833  0.897627  0.493340  1
  Pu  Pu5  1  0.902704  0.503432  0.003237  1
  Pa  Pa6  1  0.500558  0.000943  0.895925  1
  Pa  Pa7  1  0.104696  0.105181  0.104134  1
  C  C8  1  0.790741  0.070797  0.775077  1
  C  C9  1  0.965795  0.205041  0.751581  1
  C  C10  1  0.227172  0.518781  0.290303  1
  C  C11  1  0.297392  0.232069  0.520818  1
  C  C12  1  0.759715  0.971054  0.210476  1
  C  C13  1  0.208783  0.754187  0.965134  1
  C  C14  1  0.714179  0.453392  0.248421  1
  C  C15  1  0.436891  0.228521  0.709744  1
  C  C16  1  0.515640  0.295702  0.224910  1
  C  C17  1  0.276559  0.711226  0.479192  1
  C  C18  1  0.743581  0.789062  0.034853  1
  C  C19  1  0.049248  0.760544  0.789528  1
