# generated using pymatgen
data_Ca9Pr8Y3Si16
_symmetry_space_group_name_H-M   'P 1'
_cell_length_a   7.50902288
_cell_length_b   7.94797024
_cell_length_c   15.15964747
_cell_angle_alpha   89.98346559
_cell_angle_beta   90.14966001
_cell_angle_gamma   90.02339747
_symmetry_Int_Tables_number   1
_chemical_formula_structural   Ca9Pr8Y3Si16
_chemical_formula_sum   'Ca9 Pr8 Y3 Si16'
_cell_volume   904.74715546
_cell_formula_units_Z   1
loop_
 _symmetry_equiv_pos_site_id
 _symmetry_equiv_pos_as_xyz
  1  'x, y, z'
loop_
 _atom_site_type_symbol
 _atom_site_label
 _atom_site_symmetry_multiplicity
 _atom_site_fract_x
 _atom_site_fract_y
 _atom_site_fract_z
 _atom_site_occupancy
  Ca  Ca0  1  0.320942  0.181212  0.622497  1
  Ca  Ca1  1  0.680817  0.819959  0.377303  1
  Ca  Ca2  1  0.651931  0.996629  0.748933  1
  Ca  Ca3  1  0.180039  0.680320  0.377500  1
  Ca  Ca4  1  0.821250  0.318203  0.879546  1
  Ca  Ca5  1  0.819764  0.319117  0.622569  1
  Ca  Ca6  1  0.848892  0.493627  0.252067  1
  Ca  Ca7  1  0.349515  0.006628  0.251996  1
  Ca  Ca8  1  0.147414  0.504747  0.748747  1
  Pr  Pr9  1  0.025597  0.184846  0.401680  1
  Pr  Pr10  1  0.525708  0.315233  0.400793  1
  Pr  Pr11  1  0.472535  0.684833  0.901217  1
  Pr  Pr12  1  0.474383  0.685321  0.598610  1
  Pr  Pr13  1  0.973686  0.814326  0.599169  1
  Pr  Pr14  1  0.973282  0.814918  0.902182  1
  Pr  Pr15  1  0.526559  0.314971  0.097887  1
  Pr  Pr16  1  0.026757  0.185892  0.097569  1
  Y  Y17  1  0.323137  0.182134  0.877240  1
  Y  Y18  1  0.177410  0.683371  0.122936  1
  Y  Y19  1  0.678015  0.817437  0.122108  1
  Si  Si20  1  0.262170  0.877966  0.753383  1
  Si  Si21  1  0.467887  0.598844  0.243806  1
  Si  Si22  1  0.036492  0.094824  0.753964  1
  Si  Si23  1  0.528950  0.403755  0.753519  1
  Si  Si24  1  0.143569  0.473005  0.537175  1
  Si  Si25  1  0.967827  0.901279  0.243735  1
  Si  Si26  1  0.740094  0.120027  0.246065  1
  Si  Si27  1  0.858243  0.533843  0.039060  1
  Si  Si28  1  0.352178  0.967390  0.036378  1
  Si  Si29  1  0.151279  0.469010  0.966243  1
  Si  Si30  1  0.644250  0.026595  0.537038  1
  Si  Si31  1  0.356368  0.973669  0.462432  1
  Si  Si32  1  0.855646  0.526009  0.462565  1
  Si  Si33  1  0.756975  0.623637  0.751091  1
  Si  Si34  1  0.240027  0.380721  0.246387  1
  Si  Si35  1  0.640414  0.025703  0.964609  1
