# generated using pymatgen
data_Zr2Zn3InRh6
_symmetry_space_group_name_H-M   'P 1'
_cell_length_a   4.50438000
_cell_length_b   6.24689300
_cell_length_c   13.43400200
_cell_angle_alpha   90.00000000
_cell_angle_beta   90.00000000
_cell_angle_gamma   90.00000000
_symmetry_Int_Tables_number   1
_chemical_formula_structural   Zr2Zn3InRh6
_chemical_formula_sum   'Zr4 Zn6 In2 Rh12'
_cell_volume   378.01105174
_cell_formula_units_Z   2
loop_
 _symmetry_equiv_pos_site_id
 _symmetry_equiv_pos_as_xyz
  1  'x, y, z'
loop_
 _atom_site_type_symbol
 _atom_site_label
 _atom_site_symmetry_multiplicity
 _atom_site_fract_x
 _atom_site_fract_y
 _atom_site_fract_z
 _atom_site_occupancy
  Zr  Zr0  1  0.000011  0.000000  0.998950  1
  Zr  Zr1  1  0.499908  0.500000  0.166405  1
  Zr  Zr2  1  0.999909  0.000000  0.333596  1
  Zr  Zr3  1  0.500012  0.500000  0.501050  1
  Zn  Zn4  1  0.000006  0.500000  0.999703  1
  Zn  Zn5  1  0.499922  0.000000  0.164130  1
  Zn  Zn6  1  0.999921  0.500000  0.335870  1
  Zn  Zn7  1  0.500007  0.000000  0.500297  1
  Zn  Zn8  1  0.000100  0.500000  0.665647  1
  Zn  Zn9  1  0.500099  0.000000  0.834353  1
  In  In10  1  0.000076  0.000000  0.668909  1
  In  In11  1  0.500077  0.500000  0.831089  1
  Rh  Rh12  1  0.499997  0.252202  0.999230  1
  Rh  Rh13  1  0.499997  0.747799  0.999230  1
  Rh  Rh14  1  0.999912  0.250860  0.167086  1
  Rh  Rh15  1  0.999912  0.749139  0.167086  1
  Rh  Rh16  1  0.499911  0.249140  0.332915  1
  Rh  Rh17  1  0.499911  0.750859  0.332915  1
  Rh  Rh18  1  0.999996  0.247799  0.500770  1
  Rh  Rh19  1  0.999996  0.752201  0.500770  1
  Rh  Rh20  1  0.500081  0.249478  0.665705  1
  Rh  Rh21  1  0.500081  0.750521  0.665705  1
  Rh  Rh22  1  0.000080  0.250522  0.834294  1
  Rh  Rh23  1  0.000080  0.749477  0.834294  1
