# generated using pymatgen
data_Sc5Si8P4Ir19
_symmetry_space_group_name_H-M   'P 1'
_cell_length_a   12.72374410
_cell_length_b   12.68200398
_cell_length_c   3.89560100
_cell_angle_alpha   90.00000000
_cell_angle_beta   90.00000000
_cell_angle_gamma   119.95684510
_symmetry_Int_Tables_number   1
_chemical_formula_structural   Sc5Si8P4Ir19
_chemical_formula_sum   'Sc5 Si8 P4 Ir19'
_cell_volume   544.62378381
_cell_formula_units_Z   1
loop_
 _symmetry_equiv_pos_site_id
 _symmetry_equiv_pos_as_xyz
  1  'x, y, z'
loop_
 _atom_site_type_symbol
 _atom_site_label
 _atom_site_symmetry_multiplicity
 _atom_site_fract_x
 _atom_site_fract_y
 _atom_site_fract_z
 _atom_site_occupancy
  Sc  Sc0  1  0.666919  0.333482  0.000000  1
  Sc  Sc1  1  0.332717  0.667737  0.000000  1
  Sc  Sc2  1  0.814208  0.813997  0.500000  1
  Sc  Sc3  1  0.185668  0.001117  0.500000  1
  Sc  Sc4  1  0.998988  0.182854  0.500000  1
  Si  Si5  1  0.685232  0.167232  0.500000  1
  Si  Si6  1  0.832761  0.517578  0.500000  1
  Si  Si7  1  0.483160  0.315215  0.500000  1
  Si  Si8  1  0.169444  0.687703  0.500000  1
  Si  Si9  1  0.516071  0.828353  0.500000  1
  Si  Si10  1  0.637151  0.636286  0.000000  1
  Si  Si11  1  0.363806  0.999660  0.000000  1
  Si  Si12  1  0.999584  0.362838  0.000000  1
  P  P13  1  0.308332  0.485515  0.500000  1
  P  P14  1  0.176881  0.178039  0.000000  1
  P  P15  1  0.822216  0.996922  0.000000  1
  P  P16  1  0.000531  0.825058  0.000000  1
  Ir  Ir17  1  0.809627  0.177850  0.000000  1
  Ir  Ir18  1  0.821567  0.630643  0.000000  1
  Ir  Ir19  1  0.367869  0.189581  0.000000  1
  Ir  Ir20  1  0.179656  0.808464  0.000000  1
  Ir  Ir21  1  0.625630  0.817177  0.000000  1
  Ir  Ir22  1  0.198054  0.378815  0.000000  1
  Ir  Ir23  1  0.455564  0.444238  0.000000  1
  Ir  Ir24  1  0.553210  0.002034  0.000000  1
  Ir  Ir25  1  0.998997  0.551405  0.000000  1
  Ir  Ir26  1  0.278552  0.282643  0.500000  1
  Ir  Ir27  1  0.721897  0.997474  0.500000  1
  Ir  Ir28  1  0.000469  0.723903  0.500000  1
  Ir  Ir29  1  0.870630  0.357701  0.500000  1
  Ir  Ir30  1  0.643551  0.513186  0.500000  1
  Ir  Ir31  1  0.487629  0.129887  0.500000  1
  Ir  Ir32  1  0.360453  0.871884  0.500000  1
  Ir  Ir33  1  0.504636  0.633241  0.500000  1
  Ir  Ir34  1  0.127311  0.488190  0.500000  1
  Ir  Ir35  1  0.001027  0.002097  0.000000  1
