# generated using pymatgen
data_Tm12Fe3SnBi
_symmetry_space_group_name_H-M   'P 1'
_cell_length_a   8.26625916
_cell_length_b   8.26625980
_cell_length_c   8.26625906
_cell_angle_alpha   108.27354318
_cell_angle_beta   108.51444526
_cell_angle_gamma   111.64793562
_symmetry_Int_Tables_number   1
_chemical_formula_structural   Tm12Fe3SnBi
_chemical_formula_sum   'Tm12 Fe3 Sn1 Bi1'
_cell_volume   434.34114305
_cell_formula_units_Z   1
loop_
 _symmetry_equiv_pos_site_id
 _symmetry_equiv_pos_as_xyz
  1  'x, y, z'
loop_
 _atom_site_type_symbol
 _atom_site_label
 _atom_site_symmetry_multiplicity
 _atom_site_fract_x
 _atom_site_fract_y
 _atom_site_fract_z
 _atom_site_occupancy
  Tm  Tm0  1  0.191455  0.425959  0.234504  1
  Tm  Tm1  1  0.808545  0.574041  0.765496  1
  Tm  Tm2  1  0.191455  0.956952  0.765496  1
  Tm  Tm3  1  0.962196  0.194779  0.767417  1
  Tm  Tm4  1  0.808545  0.043048  0.234504  1
  Tm  Tm5  1  0.037804  0.805221  0.232583  1
  Tm  Tm6  1  0.427363  0.194779  0.232583  1
  Tm  Tm7  1  0.572637  0.805221  0.767417  1
  Tm  Tm8  1  0.305000  0.310070  0.615069  1
  Tm  Tm9  1  0.695000  0.689930  0.384931  1
  Tm  Tm10  1  0.695000  0.310070  0.005070  1
  Tm  Tm11  1  0.305000  0.689930  0.994930  1
  Fe  Fe12  1  0.384076  0.384076  0.000000  1
  Fe  Fe13  1  0.615924  0.615924  0.000000  1
  Fe  Fe14  1  0.000000  0.000000  0.000000  1
  Sn  Sn15  1  0.000000  0.500000  0.500000  1
  Bi  Bi16  1  0.500000  0.000000  0.500000  1
