# generated using pymatgen
data_Er2Tm2Zn4IrPt3
_symmetry_space_group_name_H-M   'P 1'
_cell_length_a   4.11139600
_cell_length_b   6.87118512
_cell_length_c   8.15296761
_cell_angle_alpha   89.87952199
_cell_angle_beta   90.00000000
_cell_angle_gamma   90.00000000
_symmetry_Int_Tables_number   1
_chemical_formula_structural   Er2Tm2Zn4IrPt3
_chemical_formula_sum   'Er2 Tm2 Zn4 Ir1 Pt3'
_cell_volume   230.32215475
_cell_formula_units_Z   1
loop_
 _symmetry_equiv_pos_site_id
 _symmetry_equiv_pos_as_xyz
  1  'x, y, z'
loop_
 _atom_site_type_symbol
 _atom_site_label
 _atom_site_symmetry_multiplicity
 _atom_site_fract_x
 _atom_site_fract_y
 _atom_site_fract_z
 _atom_site_occupancy
  Er  Er0  1  0.250000  0.044600  0.320632  1
  Er  Er1  1  0.250000  0.542119  0.183248  1
  Tm  Tm2  1  0.750000  0.963705  0.682667  1
  Tm  Tm3  1  0.750000  0.453698  0.812075  1
  Zn  Zn4  1  0.250000  0.635337  0.563862  1
  Zn  Zn5  1  0.250000  0.139561  0.934165  1
  Zn  Zn6  1  0.750000  0.359286  0.439868  1
  Zn  Zn7  1  0.750000  0.861601  0.062871  1
  Ir  Ir8  1  0.250000  0.250684  0.622737  1
  Pt  Pt9  1  0.250000  0.751919  0.877796  1
  Pt  Pt10  1  0.750000  0.748347  0.377997  1
  Pt  Pt11  1  0.750000  0.249143  0.122081  1
