# generated using pymatgen
data_LiAg3(PPt3)2
_symmetry_space_group_name_H-M   'P 1'
_cell_length_a   7.27373750
_cell_length_b   7.27529748
_cell_length_c   7.26866800
_cell_angle_alpha   90.00000000
_cell_angle_beta   90.00000000
_cell_angle_gamma   89.82492706
_symmetry_Int_Tables_number   1
_chemical_formula_structural   LiAg3(PPt3)2
_chemical_formula_sum   'Li2 Ag6 P4 Pt12'
_cell_volume   384.64596859
_cell_formula_units_Z   2
loop_
 _symmetry_equiv_pos_site_id
 _symmetry_equiv_pos_as_xyz
  1  'x, y, z'
loop_
 _atom_site_type_symbol
 _atom_site_label
 _atom_site_symmetry_multiplicity
 _atom_site_fract_x
 _atom_site_fract_y
 _atom_site_fract_z
 _atom_site_occupancy
  Li  Li0  1  0.793816  0.205136  0.706858  1
  Li  Li1  1  0.706184  0.794864  0.206858  1
  Ag  Ag2  1  0.292327  0.291651  0.293119  1
  Ag  Ag3  1  0.037574  0.453518  0.546486  1
  Ag  Ag4  1  0.549539  0.041276  0.458369  1
  Ag  Ag5  1  0.462426  0.546482  0.046486  1
  Ag  Ag6  1  0.207673  0.708349  0.793119  1
  Ag  Ag7  1  0.950461  0.958724  0.958369  1
  P  P8  1  0.871822  0.374972  0.122058  1
  P  P9  1  0.378230  0.125412  0.872146  1
  P  P10  1  0.628178  0.625028  0.622058  1
  P  P11  1  0.121770  0.874588  0.372146  1
  Pt  Pt12  1  0.177230  0.072488  0.624225  1
  Pt  Pt13  1  0.427777  0.377544  0.677862  1
  Pt  Pt14  1  0.072223  0.622456  0.177862  1
  Pt  Pt15  1  0.924893  0.125705  0.323954  1
  Pt  Pt16  1  0.322770  0.927512  0.124225  1
  Pt  Pt17  1  0.676756  0.424518  0.375989  1
  Pt  Pt18  1  0.575107  0.874295  0.823954  1
  Pt  Pt19  1  0.625593  0.173611  0.073540  1
  Pt  Pt20  1  0.377260  0.679907  0.425394  1
  Pt  Pt21  1  0.874407  0.826389  0.573540  1
  Pt  Pt22  1  0.122740  0.320093  0.925394  1
  Pt  Pt23  1  0.823244  0.575482  0.875989  1
