# generated using pymatgen
data_Er12Fe2Co3Bi
_symmetry_space_group_name_H-M   'P 1'
_cell_length_a   8.24869038
_cell_length_b   8.24869047
_cell_length_c   8.24869052
_cell_angle_alpha   110.93161014
_cell_angle_beta   111.75510195
_cell_angle_gamma   105.78965212
_symmetry_Int_Tables_number   1
_chemical_formula_structural   Er12Fe2Co3Bi
_chemical_formula_sum   'Er12 Fe2 Co3 Bi1'
_cell_volume   430.69852111
_cell_formula_units_Z   1
loop_
 _symmetry_equiv_pos_site_id
 _symmetry_equiv_pos_as_xyz
  1  'x, y, z'
loop_
 _atom_site_type_symbol
 _atom_site_label
 _atom_site_symmetry_multiplicity
 _atom_site_fract_x
 _atom_site_fract_y
 _atom_site_fract_z
 _atom_site_occupancy
  Er  Er0  1  0.284586  0.184890  0.469476  1
  Er  Er1  1  0.715414  0.815110  0.530524  1
  Er  Er2  1  0.284586  0.815110  0.099696  1
  Er  Er3  1  0.715414  0.184890  0.900304  1
  Er  Er4  1  0.618591  0.310281  0.308310  1
  Er  Er5  1  0.381409  0.689719  0.691690  1
  Er  Er6  1  0.001973  0.310281  0.691690  1
  Er  Er7  1  0.998027  0.689719  0.308310  1
  Er  Er8  1  0.208672  0.404779  0.196107  1
  Er  Er9  1  0.791328  0.595221  0.803893  1
  Er  Er10  1  0.208672  0.012564  0.803893  1
  Er  Er11  1  0.791328  0.987436  0.196107  1
  Fe  Fe12  1  0.000000  0.382667  0.382667  1
  Fe  Fe13  1  0.000000  0.617333  0.617333  1
  Co  Co14  1  0.389341  0.889341  0.500000  1
  Co  Co15  1  0.610659  0.110659  0.500000  1
  Co  Co16  1  0.000000  0.000000  0.000000  1
  Bi  Bi17  1  0.500000  0.500000  0.000000  1
