# generated using pymatgen
data_Nd4ReMo2PN12
_symmetry_space_group_name_H-M   'P 1'
_cell_length_a   7.34155735
_cell_length_b   7.35789681
_cell_length_c   6.07969603
_cell_angle_alpha   76.39075983
_cell_angle_beta   77.28841821
_cell_angle_gamma   85.02317857
_symmetry_Int_Tables_number   1
_chemical_formula_structural   Nd4ReMo2PN12
_chemical_formula_sum   'Nd4 Re1 Mo2 P1 N12'
_cell_volume   311.15928862
_cell_formula_units_Z   1
loop_
 _symmetry_equiv_pos_site_id
 _symmetry_equiv_pos_as_xyz
  1  'x, y, z'
loop_
 _atom_site_type_symbol
 _atom_site_label
 _atom_site_symmetry_multiplicity
 _atom_site_fract_x
 _atom_site_fract_y
 _atom_site_fract_z
 _atom_site_occupancy
  Nd  Nd0  1  0.906808  0.092262  0.751317  1
  Nd  Nd1  1  0.096854  0.899068  0.250527  1
  Nd  Nd2  1  0.671662  0.297034  0.244846  1
  Nd  Nd3  1  0.329618  0.693468  0.739412  1
  Re  Re4  1  0.791422  0.631087  0.762418  1
  Mo  Mo5  1  0.198125  0.379336  0.246190  1
  Mo  Mo6  1  0.383952  0.197939  0.755320  1
  P  P7  1  0.615958  0.812908  0.256047  1
  N  N8  1  0.647735  0.672896  0.046610  1
  N  N9  1  0.397217  0.857623  0.333472  1
  N  N10  1  0.332975  0.376753  0.492282  1
  N  N11  1  0.115050  0.608681  0.136872  1
  N  N12  1  0.000406  0.219529  0.333248  1
  N  N13  1  0.760024  0.980967  0.154086  1
  N  N14  1  0.221961  0.002901  0.844142  1
  N  N15  1  0.611677  0.111398  0.643322  1
  N  N16  1  0.391414  0.339497  0.989006  1
  N  N17  1  0.861234  0.391502  0.840692  1
  N  N18  1  0.668140  0.668717  0.509817  1
  N  N19  1  0.997770  0.766434  0.670372  1
