# generated using pymatgen
data_Eu2PaSe5
_symmetry_space_group_name_H-M   'P 1'
_cell_length_a   4.27934900
_cell_length_b   8.30065700
_cell_length_c   12.07522300
_cell_angle_alpha   90.00000000
_cell_angle_beta   90.00000000
_cell_angle_gamma   90.00000000
_symmetry_Int_Tables_number   1
_chemical_formula_structural   Eu2PaSe5
_chemical_formula_sum   'Eu4 Pa2 Se10'
_cell_volume   428.92892568
_cell_formula_units_Z   2
loop_
 _symmetry_equiv_pos_site_id
 _symmetry_equiv_pos_as_xyz
  1  'x, y, z'
loop_
 _atom_site_type_symbol
 _atom_site_label
 _atom_site_symmetry_multiplicity
 _atom_site_fract_x
 _atom_site_fract_y
 _atom_site_fract_z
 _atom_site_occupancy
  Eu  Eu0  1  0.500000  0.577973  0.168206  1
  Eu  Eu1  1  0.500000  0.422027  0.831794  1
  Eu  Eu2  1  0.500000  0.922027  0.668206  1
  Eu  Eu3  1  0.500000  0.077973  0.331794  1
  Pa  Pa4  1  0.000000  0.500000  0.500000  1
  Pa  Pa5  1  0.000000  0.000000  0.000000  1
  Se  Se6  1  0.000000  0.000000  0.500000  1
  Se  Se7  1  0.000000  0.500000  0.000000  1
  Se  Se8  1  0.000000  0.856678  0.206795  1
  Se  Se9  1  0.000000  0.143322  0.793205  1
  Se  Se10  1  0.000000  0.643322  0.706795  1
  Se  Se11  1  0.000000  0.356678  0.293205  1
  Se  Se12  1  0.500000  0.687919  0.426192  1
  Se  Se13  1  0.500000  0.312081  0.573808  1
  Se  Se14  1  0.500000  0.812081  0.926192  1
  Se  Se15  1  0.500000  0.187919  0.073808  1
