# generated using pymatgen
data_Pr6Al24Os3PtRh4
_symmetry_space_group_name_H-M   'P 1'
_cell_length_a   8.91466700
_cell_length_b   8.94145149
_cell_length_c   9.70942323
_cell_angle_alpha   89.96524312
_cell_angle_beta   90.00000000
_cell_angle_gamma   119.90096134
_symmetry_Int_Tables_number   1
_chemical_formula_structural   Pr6Al24Os3PtRh4
_chemical_formula_sum   'Pr6 Al24 Os3 Pt1 Rh4'
_cell_volume   670.91833424
_cell_formula_units_Z   1
loop_
 _symmetry_equiv_pos_site_id
 _symmetry_equiv_pos_as_xyz
  1  'x, y, z'
loop_
 _atom_site_type_symbol
 _atom_site_label
 _atom_site_symmetry_multiplicity
 _atom_site_fract_x
 _atom_site_fract_y
 _atom_site_fract_z
 _atom_site_occupancy
  Pr  Pr0  1  0.190203  0.380406  0.251385  1
  Pr  Pr1  1  0.809797  0.619594  0.748615  1
  Pr  Pr2  1  0.619223  0.811616  0.250473  1
  Pr  Pr3  1  0.380777  0.188384  0.749527  1
  Pr  Pr4  1  0.192393  0.811616  0.250473  1
  Pr  Pr5  1  0.807607  0.188384  0.749527  1
  Al  Al6  1  0.331467  0.662936  0.021191  1
  Al  Al7  1  0.668533  0.337064  0.978809  1
  Al  Al8  1  0.666211  0.332421  0.520567  1
  Al  Al9  1  0.333789  0.667579  0.479433  1
  Al  Al10  1  0.163803  0.327604  0.574326  1
  Al  Al11  1  0.836197  0.672396  0.425674  1
  Al  Al12  1  0.672004  0.837340  0.573797  1
  Al  Al13  1  0.836781  0.673564  0.074951  1
  Al  Al14  1  0.327996  0.162660  0.426203  1
  Al  Al15  1  0.163219  0.326436  0.925049  1
  Al  Al16  1  0.165337  0.837340  0.573797  1
  Al  Al17  1  0.326900  0.167240  0.075825  1
  Al  Al18  1  0.834663  0.162660  0.426203  1
  Al  Al19  1  0.673100  0.832760  0.924175  1
  Al  Al20  1  0.840338  0.167240  0.075825  1
  Al  Al21  1  0.159662  0.832760  0.924175  1
  Al  Al22  1  0.564430  0.128861  0.253026  1
  Al  Al23  1  0.435570  0.871139  0.746974  1
  Al  Al24  1  0.875133  0.438187  0.249532  1
  Al  Al25  1  0.124867  0.561813  0.750468  1
  Al  Al26  1  0.563055  0.438187  0.249532  1
  Al  Al27  1  0.436945  0.561813  0.750468  1
  Al  Al28  1  0.000805  0.001609  0.250236  1
  Al  Al29  1  0.999195  0.998391  0.749764  1
  Os  Os30  1  0.500000  0.000000  0.500000  1
  Os  Os31  1  0.000000  0.000000  0.000000  1
  Os  Os32  1  0.000000  0.000000  0.500000  1
  Pt  Pt33  1  0.500000  0.000000  0.000000  1
  Rh  Rh34  1  0.000000  0.500000  0.000000  1
  Rh  Rh35  1  0.500000  0.500000  0.000000  1
  Rh  Rh36  1  0.000000  0.500000  0.500000  1
  Rh  Rh37  1  0.500000  0.500000  0.500000  1
