# generated using pymatgen
data_BSO4F
_symmetry_space_group_name_H-M   'P 1'
_cell_length_a   7.93495771
_cell_length_b   6.84406531
_cell_length_c   7.10928932
_cell_angle_alpha   81.67404101
_cell_angle_beta   90.03935278
_cell_angle_gamma   90.01840945
_symmetry_Int_Tables_number   1
_chemical_formula_structural   BSO4F
_chemical_formula_sum   'B4 S4 O16 F4'
_cell_volume   382.01745213
_cell_formula_units_Z   4
loop_
 _symmetry_equiv_pos_site_id
 _symmetry_equiv_pos_as_xyz
  1  'x, y, z'
loop_
 _atom_site_type_symbol
 _atom_site_label
 _atom_site_symmetry_multiplicity
 _atom_site_fract_x
 _atom_site_fract_y
 _atom_site_fract_z
 _atom_site_occupancy
  B  B0  1  0.694004  0.863901  0.146490  1
  B  B1  1  0.193982  0.636121  0.353579  1
  B  B2  1  0.306020  0.136141  0.853560  1
  B  B3  1  0.806008  0.363844  0.646376  1
  S  S4  1  0.869012  0.525157  0.279506  1
  S  S5  1  0.369108  0.974793  0.220479  1
  S  S6  1  0.630873  0.025219  0.779600  1
  S  S7  1  0.131005  0.474837  0.720410  1
  O  O8  1  0.928998  0.360231  0.199849  1
  O  O9  1  0.505972  0.838650  0.159562  1
  O  O10  1  0.494025  0.161395  0.840456  1
  O  O11  1  0.071003  0.639797  0.799989  1
  O  O12  1  0.005948  0.661292  0.340487  1
  O  O13  1  0.429250  0.139780  0.300100  1
  O  O14  1  0.570750  0.860194  0.700079  1
  O  O15  1  0.994035  0.338653  0.659461  1
  O  O16  1  0.257755  0.843905  0.357297  1
  O  O17  1  0.757887  0.475936  0.455269  1
  O  O18  1  0.242116  0.523971  0.544638  1
  O  O19  1  0.742232  0.156054  0.642705  1
  O  O20  1  0.757607  0.656169  0.142630  1
  O  O21  1  0.257925  0.023966  0.044605  1
  O  O22  1  0.742088  0.976148  0.955510  1
  O  O23  1  0.242384  0.343873  0.857336  1
  F  F24  1  0.261864  0.546780  0.214272  1
  F  F25  1  0.762064  0.953146  0.285914  1
  F  F26  1  0.237942  0.046809  0.714201  1
  F  F27  1  0.738140  0.453242  0.785638  1
