# generated using pymatgen
data_Li3Bi2(SbS2)9
_symmetry_space_group_name_H-M   'P 1'
_cell_length_a   6.94388241
_cell_length_b   8.01711088
_cell_length_c   15.59869460
_cell_angle_alpha   75.10441265
_cell_angle_beta   80.47820973
_cell_angle_gamma   72.54244641
_symmetry_Int_Tables_number   1
_chemical_formula_structural   Li3Bi2(SbS2)9
_chemical_formula_sum   'Li3 Bi2 Sb9 S18'
_cell_volume   796.86139640
_cell_formula_units_Z   1
loop_
 _symmetry_equiv_pos_site_id
 _symmetry_equiv_pos_as_xyz
  1  'x, y, z'
loop_
 _atom_site_type_symbol
 _atom_site_label
 _atom_site_symmetry_multiplicity
 _atom_site_fract_x
 _atom_site_fract_y
 _atom_site_fract_z
 _atom_site_occupancy
  Li  Li0  1  0.001370  0.733630  0.508883  1
  Li  Li1  1  0.888769  0.623034  0.805076  1
  Li  Li2  1  0.012304  0.257585  0.501481  1
  Bi  Bi3  1  0.287732  0.210246  0.931288  1
  Bi  Bi4  1  0.146242  0.873997  0.184207  1
  Sb  Sb5  1  0.535860  0.569477  0.618548  1
  Sb  Sb6  1  0.469028  0.934108  0.385970  1
  Sb  Sb7  1  0.299048  0.716746  0.920998  1
  Sb  Sb8  1  0.732045  0.297384  0.056884  1
  Sb  Sb9  1  0.122337  0.373435  0.189942  1
  Sb  Sb10  1  0.519781  0.054880  0.613201  1
  Sb  Sb11  1  0.482874  0.430893  0.394383  1
  Sb  Sb12  1  0.889908  0.128552  0.804166  1
  Sb  Sb13  1  0.695809  0.783709  0.070776  1
  S  S14  1  0.992723  0.017028  0.004798  1
  S  S15  1  0.127613  0.320896  0.775646  1
  S  S16  1  0.546867  0.441438  0.876655  1
  S  S17  1  0.213247  0.776603  0.358957  1
  S  S18  1  0.709433  0.582622  0.464261  1
  S  S19  1  0.973570  0.492162  0.997569  1
  S  S20  1  0.135583  0.836100  0.774786  1
  S  S21  1  0.287332  0.914910  0.538352  1
  S  S22  1  0.774477  0.728823  0.650700  1
  S  S23  1  0.441678  0.060265  0.123760  1
  S  S24  1  0.550774  0.899243  0.885466  1
  S  S25  1  0.208735  0.265599  0.350606  1
  S  S26  1  0.713951  0.095115  0.464230  1
  S  S27  1  0.863089  0.193340  0.218056  1
  S  S28  1  0.271489  0.407963  0.536983  1
  S  S29  1  0.793995  0.230626  0.646019  1
  S  S30  1  0.448980  0.592224  0.122912  1
  S  S31  1  0.863356  0.657365  0.224442  1
