# generated using pymatgen
data_Ce3In3IrPdRh
_symmetry_space_group_name_H-M   'P 1'
_cell_length_a   7.64957200
_cell_length_b   7.64957091
_cell_length_c   4.01033200
_cell_angle_alpha   90.00000000
_cell_angle_beta   90.00000000
_cell_angle_gamma   119.99999606
_symmetry_Int_Tables_number   1
_chemical_formula_structural   Ce3In3IrPdRh
_chemical_formula_sum   'Ce3 In3 Ir1 Pd1 Rh1'
_cell_volume   203.22876976
_cell_formula_units_Z   1
loop_
 _symmetry_equiv_pos_site_id
 _symmetry_equiv_pos_as_xyz
  1  'x, y, z'
loop_
 _atom_site_type_symbol
 _atom_site_label
 _atom_site_symmetry_multiplicity
 _atom_site_fract_x
 _atom_site_fract_y
 _atom_site_fract_z
 _atom_site_occupancy
  Ce  Ce0  1  0.415627  0.997738  0.500000  1
  Ce  Ce1  1  0.002262  0.417889  0.500000  1
  Ce  Ce2  1  0.582111  0.584373  0.500000  1
  In  In3  1  0.746989  0.000863  0.000000  1
  In  In4  1  0.999137  0.746126  0.000000  1
  In  In5  1  0.253874  0.253011  0.000000  1
  Ir  Ir6  1  0.333333  0.666667  0.000000  1
  Pd  Pd7  1  0.000000  0.000000  0.500000  1
  Rh  Rh8  1  0.666667  0.333333  0.000000  1
