# generated using pymatgen
data_Tb4Sc6Ga6SiGe
_symmetry_space_group_name_H-M   'P 1'
_cell_length_a   7.25836747
_cell_length_b   7.52496551
_cell_length_c   14.44312700
_cell_angle_alpha   90.00000000
_cell_angle_beta   90.00000000
_cell_angle_gamma   90.07271873
_symmetry_Int_Tables_number   1
_chemical_formula_structural   Tb4Sc6Ga6SiGe
_chemical_formula_sum   'Tb8 Sc12 Ga12 Si2 Ge2'
_cell_volume   788.86801049
_cell_formula_units_Z   2
loop_
 _symmetry_equiv_pos_site_id
 _symmetry_equiv_pos_as_xyz
  1  'x, y, z'
loop_
 _atom_site_type_symbol
 _atom_site_label
 _atom_site_symmetry_multiplicity
 _atom_site_fract_x
 _atom_site_fract_y
 _atom_site_fract_z
 _atom_site_occupancy
  Tb  Tb0  1  0.012435  0.178040  0.096506  1
  Tb  Tb1  1  0.987565  0.821960  0.903494  1
  Tb  Tb2  1  0.489257  0.677236  0.903646  1
  Tb  Tb3  1  0.987565  0.821960  0.596506  1
  Tb  Tb4  1  0.510743  0.322764  0.096354  1
  Tb  Tb5  1  0.012435  0.178040  0.403494  1
  Tb  Tb6  1  0.510743  0.322764  0.403646  1
  Tb  Tb7  1  0.489257  0.677236  0.596354  1
  Sc  Sc8  1  0.161606  0.504947  0.750000  1
  Sc  Sc9  1  0.838394  0.495053  0.250000  1
  Sc  Sc10  1  0.336395  0.005874  0.250000  1
  Sc  Sc11  1  0.663605  0.994126  0.750000  1
  Sc  Sc12  1  0.329657  0.173754  0.622392  1
  Sc  Sc13  1  0.670343  0.826246  0.377608  1
  Sc  Sc14  1  0.170439  0.672713  0.377313  1
  Sc  Sc15  1  0.670343  0.826246  0.122392  1
  Sc  Sc16  1  0.829561  0.327287  0.622687  1
  Sc  Sc17  1  0.329657  0.173754  0.877608  1
  Sc  Sc18  1  0.829561  0.327287  0.877313  1
  Sc  Sc19  1  0.170439  0.672713  0.122687  1
  Ga  Ga20  1  0.030955  0.117853  0.750000  1
  Ga  Ga21  1  0.969045  0.882147  0.250000  1
  Ga  Ga22  1  0.466826  0.615477  0.250000  1
  Ga  Ga23  1  0.533174  0.384523  0.750000  1
  Ga  Ga24  1  0.159728  0.464641  0.541144  1
  Ga  Ga25  1  0.840272  0.535359  0.458856  1
  Ga  Ga26  1  0.340318  0.964474  0.458851  1
  Ga  Ga27  1  0.840272  0.535359  0.041144  1
  Ga  Ga28  1  0.659682  0.035526  0.541149  1
  Ga  Ga29  1  0.159728  0.464641  0.958856  1
  Ga  Ga30  1  0.659682  0.035526  0.958851  1
  Ga  Ga31  1  0.340318  0.964474  0.041149  1
  Si  Si32  1  0.215149  0.375871  0.250000  1
  Si  Si33  1  0.784851  0.624129  0.750000  1
  Ge  Ge34  1  0.286961  0.873622  0.750000  1
  Ge  Ge35  1  0.713039  0.126378  0.250000  1
