# generated using pymatgen
data_La2Dy10Y8Si15Pt
_symmetry_space_group_name_H-M   'P 1'
_cell_length_a   7.44880839
_cell_length_b   7.77580204
_cell_length_c   14.73383202
_cell_angle_alpha   89.62051401
_cell_angle_beta   89.98474796
_cell_angle_gamma   89.89074100
_symmetry_Int_Tables_number   1
_chemical_formula_structural   La2Dy10Y8Si15Pt
_chemical_formula_sum   'La2 Dy10 Y8 Si15 Pt1'
_cell_volume   853.37002352
_cell_formula_units_Z   1
loop_
 _symmetry_equiv_pos_site_id
 _symmetry_equiv_pos_as_xyz
  1  'x, y, z'
loop_
 _atom_site_type_symbol
 _atom_site_label
 _atom_site_symmetry_multiplicity
 _atom_site_fract_x
 _atom_site_fract_y
 _atom_site_fract_z
 _atom_site_occupancy
  La  La0  1  0.523101  0.570577  0.342219  1
  La  La1  1  0.023260  0.428614  0.657108  1
  Dy  Dy2  1  0.811421  0.575304  0.874965  1
  Dy  Dy3  1  0.318702  0.426701  0.125258  1
  Dy  Dy4  1  0.182372  0.928310  0.373011  1
  Dy  Dy5  1  0.681957  0.069717  0.627328  1
  Dy  Dy6  1  0.182854  0.928120  0.628633  1
  Dy  Dy7  1  0.682422  0.070722  0.371110  1
  Dy  Dy8  1  0.815624  0.571581  0.126086  1
  Dy  Dy9  1  0.322180  0.431029  0.873713  1
  Dy  Dy10  1  0.644388  0.235872  0.999524  1
  Dy  Dy11  1  0.156084  0.758431  0.000707  1
  Y  Y12  1  0.350438  0.262711  0.500107  1
  Y  Y13  1  0.850234  0.736538  0.499898  1
  Y  Y14  1  0.475109  0.932585  0.847180  1
  Y  Y15  1  0.973061  0.066364  0.152140  1
  Y  Y16  1  0.473166  0.933425  0.151827  1
  Y  Y17  1  0.971421  0.066939  0.849132  1
  Y  Y18  1  0.527653  0.565832  0.651865  1
  Y  Y19  1  0.027693  0.433808  0.347828  1
  Si  Si20  1  0.020563  0.351197  0.999961  1
  Si  Si21  1  0.476271  0.859205  0.501146  1
  Si  Si22  1  0.976492  0.140182  0.499052  1
  Si  Si23  1  0.650216  0.276595  0.790695  1
  Si  Si24  1  0.149876  0.722382  0.209182  1
  Si  Si25  1  0.351688  0.216039  0.287625  1
  Si  Si26  1  0.852068  0.783789  0.712954  1
  Si  Si27  1  0.361310  0.219983  0.710821  1
  Si  Si28  1  0.861008  0.780166  0.288578  1
  Si  Si29  1  0.645955  0.269530  0.206290  1
  Si  Si30  1  0.145211  0.728573  0.793395  1
  Si  Si31  1  0.770148  0.880359  0.000687  1
  Si  Si32  1  0.259587  0.125705  0.999591  1
  Si  Si33  1  0.234211  0.627547  0.501765  1
  Si  Si34  1  0.733324  0.372962  0.498477  1
  Pt  Pt35  1  0.518936  0.652606  0.000145  1
