# generated using pymatgen
data_CeHoHf3Si4
_symmetry_space_group_name_H-M   'P 1'
_cell_length_a   7.30639900
_cell_length_b   7.30639900
_cell_length_c   13.44541300
_cell_angle_alpha   90.00000000
_cell_angle_beta   90.00000000
_cell_angle_gamma   90.00000000
_symmetry_Int_Tables_number   1
_chemical_formula_structural   CeHoHf3Si4
_chemical_formula_sum   'Ce4 Ho4 Hf12 Si16'
_cell_volume   717.76275241
_cell_formula_units_Z   4
loop_
 _symmetry_equiv_pos_site_id
 _symmetry_equiv_pos_as_xyz
  1  'x, y, z'
loop_
 _atom_site_type_symbol
 _atom_site_label
 _atom_site_symmetry_multiplicity
 _atom_site_fract_x
 _atom_site_fract_y
 _atom_site_fract_z
 _atom_site_occupancy
  Ce  Ce0  1  0.844015  0.505944  0.964208  1
  Ce  Ce1  1  0.155985  0.494056  0.464208  1
  Ce  Ce2  1  0.005944  0.655985  0.714208  1
  Ce  Ce3  1  0.994056  0.344015  0.214208  1
  Ho  Ho4  1  0.495650  0.155077  0.535419  1
  Ho  Ho5  1  0.504350  0.844923  0.035419  1
  Ho  Ho6  1  0.655077  0.004350  0.285419  1
  Ho  Ho7  1  0.344923  0.995650  0.785419  1
  Hf  Hf8  1  0.676774  0.326754  0.750859  1
  Hf  Hf9  1  0.323226  0.673246  0.250859  1
  Hf  Hf10  1  0.826754  0.823226  0.500859  1
  Hf  Hf11  1  0.173246  0.176774  0.000859  1
  Hf  Hf12  1  0.498612  0.349023  0.124155  1
  Hf  Hf13  1  0.501388  0.650977  0.624155  1
  Hf  Hf14  1  0.849023  0.001388  0.874155  1
  Hf  Hf15  1  0.150977  0.998612  0.374155  1
  Hf  Hf16  1  0.650658  0.503239  0.375208  1
  Hf  Hf17  1  0.349342  0.496761  0.875208  1
  Hf  Hf18  1  0.003239  0.849342  0.125208  1
  Hf  Hf19  1  0.996761  0.150658  0.625208  1
  Si  Si20  1  0.794946  0.135167  0.065344  1
  Si  Si21  1  0.205054  0.864833  0.565344  1
  Si  Si22  1  0.635167  0.705054  0.815344  1
  Si  Si23  1  0.364833  0.294946  0.315344  1
  Si  Si24  1  0.859922  0.202347  0.434508  1
  Si  Si25  1  0.140078  0.797653  0.934508  1
  Si  Si26  1  0.702347  0.640078  0.184508  1
  Si  Si27  1  0.297653  0.359922  0.684508  1
  Si  Si28  1  0.546684  0.202850  0.935281  1
  Si  Si29  1  0.453316  0.797150  0.435281  1
  Si  Si30  1  0.702850  0.953316  0.685281  1
  Si  Si31  1  0.297150  0.046684  0.185281  1
  Si  Si32  1  0.792691  0.450892  0.565018  1
  Si  Si33  1  0.207309  0.549108  0.065018  1
  Si  Si34  1  0.950892  0.707309  0.315018  1
  Si  Si35  1  0.049108  0.292691  0.815018  1
