# generated using pymatgen
data_Y9TmRu3Rh
_symmetry_space_group_name_H-M   'P 1'
_cell_length_a   6.37700683
_cell_length_b   7.32792373
_cell_length_c   8.52202877
_cell_angle_alpha   96.74723611
_cell_angle_beta   111.88457926
_cell_angle_gamma   90.06825125
_symmetry_Int_Tables_number   1
_chemical_formula_structural   Y9TmRu3Rh
_chemical_formula_sum   'Y9 Tm1 Ru3 Rh1'
_cell_volume   366.54113676
_cell_formula_units_Z   1
loop_
 _symmetry_equiv_pos_site_id
 _symmetry_equiv_pos_as_xyz
  1  'x, y, z'
loop_
 _atom_site_type_symbol
 _atom_site_label
 _atom_site_symmetry_multiplicity
 _atom_site_fract_x
 _atom_site_fract_y
 _atom_site_fract_z
 _atom_site_occupancy
  Y  Y0  1  0.793585  0.081926  0.814608  1
  Y  Y1  1  0.979879  0.415629  0.187876  1
  Y  Y2  1  0.206911  0.914539  0.185867  1
  Y  Y3  1  0.022783  0.586685  0.814503  1
  Y  Y4  1  0.204387  0.183128  0.564425  1
  Y  Y5  1  0.642262  0.315302  0.432466  1
  Y  Y6  1  0.792977  0.814867  0.433097  1
  Y  Y7  1  0.358333  0.686409  0.565589  1
  Y  Y8  1  0.419864  0.249350  0.000833  1
  Tm  Tm9  1  0.577055  0.751654  0.001071  1
  Ru  Ru10  1  0.821597  0.074876  0.217506  1
  Ru  Ru11  1  0.397936  0.576503  0.219389  1
  Ru  Ru12  1  0.180032  0.923059  0.780926  1
  Rh  Rh13  1  0.602400  0.426073  0.781843  1
