# generated using pymatgen
data_Tb3Be(SiIr3)2
_symmetry_space_group_name_H-M   'P 1'
_cell_length_a   5.55289300
_cell_length_b   5.55289290
_cell_length_c   14.94885200
_cell_angle_alpha   90.00000000
_cell_angle_beta   90.00000000
_cell_angle_gamma   120.00000654
_symmetry_Int_Tables_number   1
_chemical_formula_structural   Tb3Be(SiIr3)2
_chemical_formula_sum   'Tb6 Be2 Si4 Ir12'
_cell_volume   399.18760489
_cell_formula_units_Z   2
loop_
 _symmetry_equiv_pos_site_id
 _symmetry_equiv_pos_as_xyz
  1  'x, y, z'
loop_
 _atom_site_type_symbol
 _atom_site_label
 _atom_site_symmetry_multiplicity
 _atom_site_fract_x
 _atom_site_fract_y
 _atom_site_fract_z
 _atom_site_occupancy
  Tb  Tb0  1  0.333333  0.666667  0.538460  1
  Tb  Tb1  1  0.666667  0.333333  0.461540  1
  Tb  Tb2  1  0.666667  0.333333  0.038460  1
  Tb  Tb3  1  0.333333  0.666667  0.961540  1
  Tb  Tb4  1  0.333333  0.666667  0.750000  1
  Tb  Tb5  1  0.666667  0.333333  0.250000  1
  Be  Be6  1  0.000000  0.000000  0.250000  1
  Be  Be7  1  0.000000  0.000000  0.750000  1
  Si  Si8  1  0.333333  0.666667  0.250000  1
  Si  Si9  1  0.666667  0.333333  0.750000  1
  Si  Si10  1  0.000000  0.000000  0.000000  1
  Si  Si11  1  0.000000  0.000000  0.500000  1
  Ir  Ir12  1  0.164597  0.329194  0.132239  1
  Ir  Ir13  1  0.835403  0.670806  0.867761  1
  Ir  Ir14  1  0.670806  0.835403  0.132239  1
  Ir  Ir15  1  0.835403  0.670806  0.632239  1
  Ir  Ir16  1  0.329194  0.164597  0.867761  1
  Ir  Ir17  1  0.164597  0.329194  0.367761  1
  Ir  Ir18  1  0.164597  0.835403  0.132239  1
  Ir  Ir19  1  0.329194  0.164597  0.632239  1
  Ir  Ir20  1  0.835403  0.164597  0.867761  1
  Ir  Ir21  1  0.670806  0.835403  0.367761  1
  Ir  Ir22  1  0.835403  0.164597  0.632239  1
  Ir  Ir23  1  0.164597  0.835403  0.367761  1
