# generated using pymatgen
data_LaBe(InIr4)2
_symmetry_space_group_name_H-M   'P 1'
_cell_length_a   8.72197700
_cell_length_b   8.72197700
_cell_length_c   5.26964000
_cell_angle_alpha   90.00000000
_cell_angle_beta   90.00000000
_cell_angle_gamma   90.00000000
_symmetry_Int_Tables_number   1
_chemical_formula_structural   LaBe(InIr4)2
_chemical_formula_sum   'La2 Be2 In4 Ir16'
_cell_volume   400.87670606
_cell_formula_units_Z   2
loop_
 _symmetry_equiv_pos_site_id
 _symmetry_equiv_pos_as_xyz
  1  'x, y, z'
loop_
 _atom_site_type_symbol
 _atom_site_label
 _atom_site_symmetry_multiplicity
 _atom_site_fract_x
 _atom_site_fract_y
 _atom_site_fract_z
 _atom_site_occupancy
  La  La0  1  0.000000  0.000000  0.000000  1
  La  La1  1  0.500000  0.500000  0.000000  1
  Be  Be2  1  0.500000  0.000000  0.500000  1
  Be  Be3  1  0.000000  0.500000  0.500000  1
  In  In4  1  0.126867  0.626867  0.000000  1
  In  In5  1  0.873133  0.373133  0.000000  1
  In  In6  1  0.626867  0.873133  0.000000  1
  In  In7  1  0.373133  0.126867  0.000000  1
  Ir  Ir8  1  0.208327  0.070632  0.500000  1
  Ir  Ir9  1  0.791673  0.929368  0.500000  1
  Ir  Ir10  1  0.070632  0.791673  0.500000  1
  Ir  Ir11  1  0.708327  0.429368  0.500000  1
  Ir  Ir12  1  0.929368  0.208327  0.500000  1
  Ir  Ir13  1  0.291673  0.570632  0.500000  1
  Ir  Ir14  1  0.570632  0.708327  0.500000  1
  Ir  Ir15  1  0.429368  0.291673  0.500000  1
  Ir  Ir16  1  0.667929  0.167929  0.240373  1
  Ir  Ir17  1  0.332071  0.832071  0.759627  1
  Ir  Ir18  1  0.332071  0.832071  0.240373  1
  Ir  Ir19  1  0.167929  0.332071  0.240373  1
  Ir  Ir20  1  0.167929  0.332071  0.759627  1
  Ir  Ir21  1  0.667929  0.167929  0.759627  1
  Ir  Ir22  1  0.832071  0.667929  0.759627  1
  Ir  Ir23  1  0.832071  0.667929  0.240373  1
