# generated using pymatgen
data_Dy3Al3ZnGaCu
_symmetry_space_group_name_H-M   'P 1'
_cell_length_a   6.95728700
_cell_length_b   6.95728700
_cell_length_c   4.23935600
_cell_angle_alpha   90.00000000
_cell_angle_beta   90.00000000
_cell_angle_gamma   120.00000473
_symmetry_Int_Tables_number   1
_chemical_formula_structural   Dy3Al3ZnGaCu
_chemical_formula_sum   'Dy3 Al3 Zn1 Ga1 Cu1'
_cell_volume   177.70937419
_cell_formula_units_Z   1
loop_
 _symmetry_equiv_pos_site_id
 _symmetry_equiv_pos_as_xyz
  1  'x, y, z'
loop_
 _atom_site_type_symbol
 _atom_site_label
 _atom_site_symmetry_multiplicity
 _atom_site_fract_x
 _atom_site_fract_y
 _atom_site_fract_z
 _atom_site_occupancy
  Dy  Dy0  1  0.999630  0.413829  0.500000  1
  Dy  Dy1  1  0.586171  0.585801  0.500000  1
  Dy  Dy2  1  0.414199  0.000370  0.500000  1
  Al  Al3  1  0.994748  0.762118  0.000000  1
  Al  Al4  1  0.237882  0.232630  0.000000  1
  Al  Al5  1  0.767370  0.005252  0.000000  1
  Zn  Zn6  1  0.666667  0.333333  0.000000  1
  Ga  Ga7  1  0.333333  0.666667  0.000000  1
  Cu  Cu8  1  0.000000  0.000000  0.500000  1
