# generated using pymatgen
data_Nd3CuIr8
_symmetry_space_group_name_H-M   'P 1'
_cell_length_a   5.38506030
_cell_length_b   5.38506067
_cell_length_c   9.25387663
_cell_angle_alpha   106.91557905
_cell_angle_beta   73.08442161
_cell_angle_gamma   120.00000571
_symmetry_Int_Tables_number   1
_chemical_formula_structural   Nd3CuIr8
_chemical_formula_sum   'Nd3 Cu1 Ir8'
_cell_volume   218.89052811
_cell_formula_units_Z   1
loop_
 _symmetry_equiv_pos_site_id
 _symmetry_equiv_pos_as_xyz
  1  'x, y, z'
loop_
 _atom_site_type_symbol
 _atom_site_label
 _atom_site_symmetry_multiplicity
 _atom_site_fract_x
 _atom_site_fract_y
 _atom_site_fract_z
 _atom_site_occupancy
  Nd  Nd0  1  0.000378  0.999622  0.998866  1
  Nd  Nd1  1  0.861026  0.138973  0.416919  1
  Nd  Nd2  1  0.141554  0.858447  0.575341  1
  Cu  Cu3  1  0.666509  0.333490  0.000472  1
  Ir  Ir4  1  0.332222  0.667779  0.003335  1
  Ir  Ir5  1  0.420923  0.085218  0.243373  1
  Ir  Ir6  1  0.420923  0.579078  0.243373  1
  Ir  Ir7  1  0.914783  0.579078  0.243373  1
  Ir  Ir8  1  0.498452  0.501547  0.504640  1
  Ir  Ir9  1  0.077467  0.417118  0.756770  1
  Ir  Ir10  1  0.582882  0.417119  0.756770  1
  Ir  Ir11  1  0.582882  0.922533  0.756770  1
