# generated using pymatgen
data_Dy2HoEr3Ni2
_symmetry_space_group_name_H-M   'P 1'
_cell_length_a   6.31435160
_cell_length_b   6.79197200
_cell_length_c   9.46565000
_cell_angle_alpha   90.00000000
_cell_angle_beta   90.06138806
_cell_angle_gamma   90.00000000
_symmetry_Int_Tables_number   1
_chemical_formula_structural   Dy2HoEr3Ni2
_chemical_formula_sum   'Dy4 Ho2 Er6 Ni4'
_cell_volume   405.95214526
_cell_formula_units_Z   2
loop_
 _symmetry_equiv_pos_site_id
 _symmetry_equiv_pos_as_xyz
  1  'x, y, z'
loop_
 _atom_site_type_symbol
 _atom_site_label
 _atom_site_symmetry_multiplicity
 _atom_site_fract_x
 _atom_site_fract_y
 _atom_site_fract_z
 _atom_site_occupancy
  Dy  Dy0  1  0.861609  0.531574  0.250229  1
  Dy  Dy1  1  0.638391  0.031574  0.249771  1
  Dy  Dy2  1  0.137943  0.468299  0.749876  1
  Dy  Dy3  1  0.362057  0.968299  0.750124  1
  Ho  Ho4  1  0.320757  0.678189  0.065307  1
  Ho  Ho5  1  0.179243  0.178189  0.434693  1
  Er  Er6  1  0.678845  0.321883  0.565890  1
  Er  Er7  1  0.821155  0.821883  0.934110  1
  Er  Er8  1  0.679245  0.321800  0.934243  1
  Er  Er9  1  0.820755  0.821800  0.565757  1
  Er  Er10  1  0.321138  0.678216  0.434740  1
  Er  Er11  1  0.178862  0.178216  0.065260  1
  Ni  Ni12  1  0.055489  0.892034  0.249931  1
  Ni  Ni13  1  0.444511  0.392034  0.250069  1
  Ni  Ni14  1  0.943996  0.108004  0.750298  1
  Ni  Ni15  1  0.556004  0.608004  0.749702  1
