# generated using pymatgen
data_Tm5Lu7Th4(CdIr)4
_symmetry_space_group_name_H-M   'P 1'
_cell_length_a   9.64512989
_cell_length_b   9.64369626
_cell_length_c   9.64214568
_cell_angle_alpha   59.83435038
_cell_angle_beta   59.82272687
_cell_angle_gamma   59.81349413
_symmetry_Int_Tables_number   1
_chemical_formula_structural   Tm5Lu7Th4(CdIr)4
_chemical_formula_sum   'Tm5 Lu7 Th4 Cd4 Ir4'
_cell_volume   631.63643399
_cell_formula_units_Z   1
loop_
 _symmetry_equiv_pos_site_id
 _symmetry_equiv_pos_as_xyz
  1  'x, y, z'
loop_
 _atom_site_type_symbol
 _atom_site_label
 _atom_site_symmetry_multiplicity
 _atom_site_fract_x
 _atom_site_fract_y
 _atom_site_fract_z
 _atom_site_occupancy
  Tm  Tm0  1  0.816313  0.186082  0.186074  1
  Tm  Tm1  1  0.816861  0.185777  0.816263  1
  Tm  Tm2  1  0.186128  0.816022  0.185189  1
  Tm  Tm3  1  0.816697  0.816316  0.185912  1
  Tm  Tm4  1  0.186118  0.185387  0.815925  1
  Lu  Lu5  1  0.062606  0.437121  0.437147  1
  Lu  Lu6  1  0.436334  0.064326  0.064147  1
  Lu  Lu7  1  0.436706  0.062708  0.437524  1
  Lu  Lu8  1  0.064256  0.436917  0.063909  1
  Lu  Lu9  1  0.436816  0.437532  0.062562  1
  Lu  Lu10  1  0.064249  0.063866  0.436849  1
  Lu  Lu11  1  0.186796  0.815754  0.815826  1
  Th  Th12  1  0.599364  0.599164  0.599443  1
  Th  Th13  1  0.602558  0.602737  0.194356  1
  Th  Th14  1  0.602596  0.194535  0.602862  1
  Th  Th15  1  0.194245  0.602445  0.602706  1
  Cd  Cd16  1  0.834396  0.833270  0.834783  1
  Cd  Cd17  1  0.830534  0.831815  0.499440  1
  Cd  Cd18  1  0.830689  0.499186  0.831813  1
  Cd  Cd19  1  0.498697  0.831975  0.830457  1
  Ir  Ir20  1  0.392137  0.392202  0.392166  1
  Ir  Ir21  1  0.390356  0.390736  0.823863  1
  Ir  Ir22  1  0.390373  0.823941  0.390568  1
  Ir  Ir23  1  0.824173  0.390184  0.390213  1
