# generated using pymatgen
data_LiPr6(NdRh3)2
_symmetry_space_group_name_H-M   'P 1'
_cell_length_a   7.63049233
_cell_length_b   7.63049199
_cell_length_c   7.63049167
_cell_angle_alpha   70.45709903
_cell_angle_beta   70.45710030
_cell_angle_gamma   70.45708894
_symmetry_Int_Tables_number   1
_chemical_formula_structural   LiPr6(NdRh3)2
_chemical_formula_sum   'Li1 Pr6 Nd2 Rh6'
_cell_volume   381.96968487
_cell_formula_units_Z   1
loop_
 _symmetry_equiv_pos_site_id
 _symmetry_equiv_pos_as_xyz
  1  'x, y, z'
loop_
 _atom_site_type_symbol
 _atom_site_label
 _atom_site_symmetry_multiplicity
 _atom_site_fract_x
 _atom_site_fract_y
 _atom_site_fract_z
 _atom_site_occupancy
  Li  Li0  1  0.000000  0.000000  0.000000  1
  Pr  Pr1  1  0.149617  0.384478  0.674023  1
  Pr  Pr2  1  0.674023  0.149617  0.384478  1
  Pr  Pr3  1  0.384478  0.674023  0.149617  1
  Pr  Pr4  1  0.850383  0.615522  0.325977  1
  Pr  Pr5  1  0.325977  0.850383  0.615522  1
  Pr  Pr6  1  0.615522  0.325977  0.850383  1
  Nd  Nd7  1  0.810691  0.810691  0.810691  1
  Nd  Nd8  1  0.189309  0.189309  0.189309  1
  Rh  Rh9  1  0.949622  0.177704  0.576608  1
  Rh  Rh10  1  0.576608  0.949622  0.177704  1
  Rh  Rh11  1  0.177704  0.576608  0.949622  1
  Rh  Rh12  1  0.050378  0.822296  0.423392  1
  Rh  Rh13  1  0.423392  0.050378  0.822296  1
  Rh  Rh14  1  0.822296  0.423392  0.050378  1
