# generated using pymatgen
data_AcDy(In2Rh)2
_symmetry_space_group_name_H-M   'P 1'
_cell_length_a   5.64177100
_cell_length_b   5.64177152
_cell_length_c   8.63042100
_cell_angle_alpha   90.00000000
_cell_angle_beta   90.00000000
_cell_angle_gamma   135.99240131
_symmetry_Int_Tables_number   1
_chemical_formula_structural   AcDy(In2Rh)2
_chemical_formula_sum   'Ac1 Dy1 In4 Rh2'
_cell_volume   190.85073562
_cell_formula_units_Z   1
loop_
 _symmetry_equiv_pos_site_id
 _symmetry_equiv_pos_as_xyz
  1  'x, y, z'
loop_
 _atom_site_type_symbol
 _atom_site_label
 _atom_site_symmetry_multiplicity
 _atom_site_fract_x
 _atom_site_fract_y
 _atom_site_fract_z
 _atom_site_occupancy
  Ac  Ac0  1  0.064714  0.935286  0.250000  1
  Dy  Dy1  1  0.933065  0.066935  0.750000  1
  In  In2  1  0.645879  0.354121  0.559196  1
  In  In3  1  0.351913  0.648087  0.461109  1
  In  In4  1  0.645879  0.354121  0.940804  1
  In  In5  1  0.351913  0.648087  0.038891  1
  Rh  Rh6  1  0.225410  0.774590  0.750000  1
  Rh  Rh7  1  0.781226  0.218774  0.250000  1
