# generated using pymatgen
data_YbY3PdPt3O14
_symmetry_space_group_name_H-M   'P 1'
_cell_length_a   7.26229255
_cell_length_b   7.28147626
_cell_length_c   7.26229300
_cell_angle_alpha   60.08711586
_cell_angle_beta   60.00000252
_cell_angle_gamma   60.08711765
_symmetry_Int_Tables_number   1
_chemical_formula_structural   YbY3PdPt3O14
_chemical_formula_sum   'Yb1 Y3 Pd1 Pt3 O14'
_cell_volume   271.90836438
_cell_formula_units_Z   1
loop_
 _symmetry_equiv_pos_site_id
 _symmetry_equiv_pos_as_xyz
  1  'x, y, z'
loop_
 _atom_site_type_symbol
 _atom_site_label
 _atom_site_symmetry_multiplicity
 _atom_site_fract_x
 _atom_site_fract_y
 _atom_site_fract_z
 _atom_site_occupancy
  Yb  Yb0  1  0.125000  0.625000  0.125000  1
  Y  Y1  1  0.125000  0.125000  0.625000  1
  Y  Y2  1  0.625000  0.125000  0.125000  1
  Y  Y3  1  0.125000  0.125000  0.125000  1
  Pd  Pd4  1  0.625000  0.125000  0.625000  1
  Pt  Pt5  1  0.625000  0.625000  0.625000  1
  Pt  Pt6  1  0.125000  0.625000  0.625000  1
  Pt  Pt7  1  0.625000  0.625000  0.125000  1
  O  O8  1  0.288894  0.715060  0.707152  1
  O  O9  1  0.536003  0.963408  0.964587  1
  O  O10  1  0.707152  0.715060  0.288894  1
  O  O11  1  0.285413  0.286592  0.713997  1
  O  O12  1  0.998284  0.005146  0.998284  1
  O  O13  1  0.288894  0.715060  0.288894  1
  O  O14  1  0.713997  0.286592  0.713997  1
  O  O15  1  0.961106  0.534940  0.961106  1
  O  O16  1  0.542848  0.534940  0.961106  1
  O  O17  1  0.964587  0.963408  0.536003  1
  O  O18  1  0.251716  0.244854  0.251716  1
  O  O19  1  0.536003  0.963408  0.536003  1
  O  O20  1  0.713997  0.286592  0.285413  1
  O  O21  1  0.961106  0.534940  0.542848  1
