# generated using pymatgen
data_Sc4NiOs5W2
_symmetry_space_group_name_H-M   'P 1'
_cell_length_a   5.32764100
_cell_length_b   5.33544132
_cell_length_c   8.28723900
_cell_angle_alpha   90.00000000
_cell_angle_beta   90.00000000
_cell_angle_gamma   119.95165599
_symmetry_Int_Tables_number   1
_chemical_formula_structural   Sc4NiOs5W2
_chemical_formula_sum   'Sc4 Ni1 Os5 W2'
_cell_volume   204.10665002
_cell_formula_units_Z   1
loop_
 _symmetry_equiv_pos_site_id
 _symmetry_equiv_pos_as_xyz
  1  'x, y, z'
loop_
 _atom_site_type_symbol
 _atom_site_label
 _atom_site_symmetry_multiplicity
 _atom_site_fract_x
 _atom_site_fract_y
 _atom_site_fract_z
 _atom_site_occupancy
  Sc  Sc0  1  0.334888  0.669777  0.435916  1
  Sc  Sc1  1  0.665054  0.330107  0.565688  1
  Sc  Sc2  1  0.665054  0.330107  0.934312  1
  Sc  Sc3  1  0.334888  0.669777  0.064084  1
  Ni  Ni4  1  0.171223  0.342444  0.750000  1
  Os  Os5  1  0.175819  0.826051  0.750000  1
  Os  Os6  1  0.350531  0.180663  0.250000  1
  Os  Os7  1  0.828812  0.657626  0.250000  1
  Os  Os8  1  0.650233  0.826051  0.750000  1
  Os  Os9  1  0.830132  0.180663  0.250000  1
  W  W10  1  0.996684  0.993368  0.997770  1
  W  W11  1  0.996684  0.993368  0.502230  1
