# generated using pymatgen
data_Dy5SnHg3Pt2
_symmetry_space_group_name_H-M   'P 1'
_cell_length_a   3.66870600
_cell_length_b   7.98853474
_cell_length_c   18.18513452
_cell_angle_alpha   90.38105506
_cell_angle_beta   90.00000000
_cell_angle_gamma   90.00000000
_symmetry_Int_Tables_number   1
_chemical_formula_structural   Dy5SnHg3Pt2
_chemical_formula_sum   'Dy10 Sn2 Hg6 Pt4'
_cell_volume   532.95059502
_cell_formula_units_Z   2
loop_
 _symmetry_equiv_pos_site_id
 _symmetry_equiv_pos_as_xyz
  1  'x, y, z'
loop_
 _atom_site_type_symbol
 _atom_site_label
 _atom_site_symmetry_multiplicity
 _atom_site_fract_x
 _atom_site_fract_y
 _atom_site_fract_z
 _atom_site_occupancy
  Dy  Dy0  1  0.000000  0.113612  0.414314  1
  Dy  Dy1  1  0.000000  0.886388  0.585686  1
  Dy  Dy2  1  0.000000  0.386677  0.913620  1
  Dy  Dy3  1  0.000000  0.613323  0.086380  1
  Dy  Dy4  1  0.000000  0.238527  0.217029  1
  Dy  Dy5  1  0.000000  0.761473  0.782971  1
  Dy  Dy6  1  0.000000  0.256426  0.717451  1
  Dy  Dy7  1  0.000000  0.743574  0.282549  1
  Dy  Dy8  1  0.000000  0.000000  0.000000  1
  Dy  Dy9  1  0.000000  0.500000  0.500000  1
  Sn  Sn10  1  0.500000  0.424621  0.352850  1
  Sn  Sn11  1  0.500000  0.575379  0.647150  1
  Hg  Hg12  1  0.500000  0.076609  0.855293  1
  Hg  Hg13  1  0.500000  0.923391  0.144707  1
  Hg  Hg14  1  0.500000  0.288888  0.063580  1
  Hg  Hg15  1  0.500000  0.711112  0.936420  1
  Hg  Hg16  1  0.500000  0.209269  0.563883  1
  Hg  Hg17  1  0.500000  0.790731  0.436117  1
  Pt  Pt18  1  0.500000  0.027985  0.303231  1
  Pt  Pt19  1  0.500000  0.972015  0.696769  1
  Pt  Pt20  1  0.500000  0.475070  0.801881  1
  Pt  Pt21  1  0.500000  0.524930  0.198119  1
