# generated using pymatgen
data_Y9Lu(AsPb3)2
_symmetry_space_group_name_H-M   'P 1'
_cell_length_a   9.18648000
_cell_length_b   9.18648082
_cell_length_c   6.80615400
_cell_angle_alpha   90.00000000
_cell_angle_beta   90.00000000
_cell_angle_gamma   119.99999704
_symmetry_Int_Tables_number   1
_chemical_formula_structural   Y9Lu(AsPb3)2
_chemical_formula_sum   'Y9 Lu1 As2 Pb6'
_cell_volume   497.42856675
_cell_formula_units_Z   1
loop_
 _symmetry_equiv_pos_site_id
 _symmetry_equiv_pos_as_xyz
  1  'x, y, z'
loop_
 _atom_site_type_symbol
 _atom_site_label
 _atom_site_symmetry_multiplicity
 _atom_site_fract_x
 _atom_site_fract_y
 _atom_site_fract_z
 _atom_site_occupancy
  Y  Y0  1  0.245749  0.999527  0.249467  1
  Y  Y1  1  0.753778  0.999527  0.750533  1
  Y  Y2  1  0.000473  0.246222  0.249467  1
  Y  Y3  1  0.333333  0.666667  0.500000  1
  Y  Y4  1  0.666667  0.333333  0.500000  1
  Y  Y5  1  0.666667  0.333333  0.000000  1
  Y  Y6  1  0.000473  0.754251  0.750533  1
  Y  Y7  1  0.245749  0.246222  0.750533  1
  Y  Y8  1  0.753778  0.754251  0.249467  1
  Lu  Lu9  1  0.333333  0.666667  0.000000  1
  As  As10  1  0.000000  0.000000  0.000000  1
  As  As11  1  0.000000  0.000000  0.500000  1
  Pb  Pb12  1  0.398407  0.998815  0.751142  1
  Pb  Pb13  1  0.001185  0.399592  0.751142  1
  Pb  Pb14  1  0.398407  0.399592  0.248858  1
  Pb  Pb15  1  0.600408  0.998815  0.248858  1
  Pb  Pb16  1  0.001185  0.601593  0.248858  1
  Pb  Pb17  1  0.600408  0.601593  0.751142  1
