# generated using pymatgen
data_Ta12Mn4Al5Ga3C4
_symmetry_space_group_name_H-M   'P 1'
_cell_length_a   8.23231583
_cell_length_b   8.23230932
_cell_length_c   8.22073217
_cell_angle_alpha   59.97839786
_cell_angle_beta   59.97901605
_cell_angle_gamma   60.03228989
_symmetry_Int_Tables_number   1
_chemical_formula_structural   Ta12Mn4Al5Ga3C4
_chemical_formula_sum   'Ta12 Mn4 Al5 Ga3 C4'
_cell_volume   393.91739169
_cell_formula_units_Z   1
loop_
 _symmetry_equiv_pos_site_id
 _symmetry_equiv_pos_as_xyz
  1  'x, y, z'
loop_
 _atom_site_type_symbol
 _atom_site_label
 _atom_site_symmetry_multiplicity
 _atom_site_fract_x
 _atom_site_fract_y
 _atom_site_fract_z
 _atom_site_occupancy
  Ta  Ta0  1  0.556736  0.943922  0.555930  1
  Ta  Ta1  1  0.306406  0.692555  0.695185  1
  Ta  Ta2  1  0.693634  0.305700  0.305323  1
  Ta  Ta3  1  0.305698  0.693633  0.305322  1
  Ta  Ta4  1  0.694725  0.694717  0.305371  1
  Ta  Ta5  1  0.306394  0.306395  0.694026  1
  Ta  Ta6  1  0.555672  0.555674  0.944487  1
  Ta  Ta7  1  0.943925  0.556736  0.555926  1
  Ta  Ta8  1  0.554917  0.944473  0.944294  1
  Ta  Ta9  1  0.944107  0.944104  0.554738  1
  Ta  Ta10  1  0.692558  0.306409  0.695180  1
  Ta  Ta11  1  0.944477  0.554917  0.944296  1
  Mn  Mn12  1  0.125376  0.125378  0.124206  1
  Mn  Mn13  1  0.624814  0.126166  0.125118  1
  Mn  Mn14  1  0.126164  0.624816  0.125115  1
  Mn  Mn15  1  0.125766  0.125767  0.624650  1
  Al  Al16  1  0.332971  0.332989  0.001876  1
  Al  Al17  1  0.916818  0.249242  0.918095  1
  Al  Al18  1  0.917635  0.917615  0.248174  1
  Al  Al19  1  0.249235  0.916805  0.918104  1
  Al  Al20  1  0.333848  0.333873  0.331637  1
  Ga  Ga21  1  0.915294  0.915286  0.916330  1
  Ga  Ga22  1  0.995710  0.336205  0.333407  1
  Ga  Ga23  1  0.336195  0.995700  0.333422  1
  C  C24  1  0.625067  0.625067  0.624381  1
  C  C25  1  0.124683  0.625822  0.625109  1
  C  C26  1  0.625823  0.124682  0.625109  1
  C  C27  1  0.625351  0.625350  0.125190  1
