# generated using pymatgen
data_Tb2YAl12CoRu3
_symmetry_space_group_name_H-M   'P 1'
_cell_length_a   8.76950800
_cell_length_b   8.77190899
_cell_length_c   9.53895600
_cell_angle_alpha   90.00000000
_cell_angle_beta   90.00000000
_cell_angle_gamma   119.99094606
_symmetry_Int_Tables_number   1
_chemical_formula_structural   Tb2YAl12CoRu3
_chemical_formula_sum   'Tb4 Y2 Al24 Co2 Ru6'
_cell_volume   635.53641200
_cell_formula_units_Z   2
loop_
 _symmetry_equiv_pos_site_id
 _symmetry_equiv_pos_as_xyz
  1  'x, y, z'
loop_
 _atom_site_type_symbol
 _atom_site_label
 _atom_site_symmetry_multiplicity
 _atom_site_fract_x
 _atom_site_fract_y
 _atom_site_fract_z
 _atom_site_occupancy
  Tb  Tb0  1  0.806610  0.613220  0.250000  1
  Tb  Tb1  1  0.613238  0.806651  0.750000  1
  Tb  Tb2  1  0.193413  0.806651  0.750000  1
  Tb  Tb3  1  0.193343  0.386687  0.750000  1
  Y  Y4  1  0.387072  0.193526  0.250000  1
  Y  Y5  1  0.806454  0.193526  0.250000  1
  Al  Al6  1  0.438625  0.877250  0.250000  1
  Al  Al7  1  0.122812  0.561380  0.250000  1
  Al  Al8  1  0.438568  0.561380  0.250000  1
  Al  Al9  1  0.561465  0.122930  0.750000  1
  Al  Al10  1  0.877097  0.438537  0.750000  1
  Al  Al11  1  0.561440  0.438537  0.750000  1
  Al  Al12  1  0.159913  0.840095  0.423434  1
  Al  Al13  1  0.159882  0.319765  0.423429  1
  Al  Al14  1  0.680181  0.840095  0.423434  1
  Al  Al15  1  0.840105  0.159944  0.576613  1
  Al  Al16  1  0.840098  0.680194  0.576648  1
  Al  Al17  1  0.319840  0.159944  0.576613  1
  Al  Al18  1  0.840105  0.159944  0.923387  1
  Al  Al19  1  0.840098  0.680194  0.923352  1
  Al  Al20  1  0.319840  0.159944  0.923387  1
  Al  Al21  1  0.159913  0.840095  0.076566  1
  Al  Al22  1  0.159882  0.319765  0.076571  1
  Al  Al23  1  0.680181  0.840095  0.076566  1
  Al  Al24  1  0.333362  0.666724  0.514465  1
  Al  Al25  1  0.666627  0.333254  0.485543  1
  Al  Al26  1  0.666627  0.333254  0.014457  1
  Al  Al27  1  0.333362  0.666724  0.985535  1
  Al  Al28  1  0.999975  0.999949  0.250000  1
  Al  Al29  1  0.999989  0.999978  0.750000  1
  Co  Co30  1  0.999999  0.999998  0.499882  1
  Co  Co31  1  0.999999  0.999998  0.000118  1
  Ru  Ru32  1  0.500036  0.000071  0.499892  1
  Ru  Ru33  1  0.999930  0.499908  0.499892  1
  Ru  Ru34  1  0.499977  0.499908  0.499892  1
  Ru  Ru35  1  0.500036  0.000071  0.000108  1
  Ru  Ru36  1  0.999930  0.499908  0.000108  1
  Ru  Ru37  1  0.499977  0.499908  0.000108  1
