# generated using pymatgen
data_Pr2Nd3SmCoBr10
_symmetry_space_group_name_H-M   'P 1'
_cell_length_a   7.61102673
_cell_length_b   9.42043687
_cell_length_c   9.56510786
_cell_angle_alpha   108.36050279
_cell_angle_beta   105.81761331
_cell_angle_gamma   96.41548718
_symmetry_Int_Tables_number   1
_chemical_formula_structural   Pr2Nd3SmCoBr10
_chemical_formula_sum   'Pr2 Nd3 Sm1 Co1 Br10'
_cell_volume   611.41373825
_cell_formula_units_Z   1
loop_
 _symmetry_equiv_pos_site_id
 _symmetry_equiv_pos_as_xyz
  1  'x, y, z'
loop_
 _atom_site_type_symbol
 _atom_site_label
 _atom_site_symmetry_multiplicity
 _atom_site_fract_x
 _atom_site_fract_y
 _atom_site_fract_z
 _atom_site_occupancy
  Pr  Pr0  1  0.874067  0.237859  0.952952  1
  Pr  Pr1  1  0.971136  0.098657  0.301255  1
  Nd  Nd2  1  0.360032  0.182262  0.132320  1
  Nd  Nd3  1  0.028569  0.900443  0.700928  1
  Nd  Nd4  1  0.122429  0.763606  0.047249  1
  Sm  Sm5  1  0.642090  0.819953  0.867045  1
  Co  Co6  1  0.998463  0.000111  0.999829  1
  Br  Br7  1  0.450940  0.078194  0.820757  1
  Br  Br8  1  0.749821  0.547408  0.916473  1
  Br  Br9  1  0.249163  0.457386  0.081348  1
  Br  Br10  1  0.913971  0.169837  0.632695  1
  Br  Br11  1  0.644190  0.726637  0.552361  1
  Br  Br12  1  0.546595  0.915815  0.172891  1
  Br  Br13  1  0.087903  0.826545  0.367583  1
  Br  Br14  1  0.784824  0.351807  0.254759  1
  Br  Br15  1  0.217132  0.650457  0.748831  1
  Br  Br16  1  0.358674  0.273022  0.450726  1
