# generated using pymatgen
data_CsTbH12Ir2Pb
_symmetry_space_group_name_H-M   'P 1'
_cell_length_a   5.24095800
_cell_length_b   5.24095820
_cell_length_c   9.42664000
_cell_angle_alpha   90.00000000
_cell_angle_beta   90.00000000
_cell_angle_gamma   119.99999873
_symmetry_Int_Tables_number   1
_chemical_formula_structural   CsTbH12Ir2Pb
_chemical_formula_sum   'Cs1 Tb1 H12 Ir2 Pb1'
_cell_volume   224.23785708
_cell_formula_units_Z   1
loop_
 _symmetry_equiv_pos_site_id
 _symmetry_equiv_pos_as_xyz
  1  'x, y, z'
loop_
 _atom_site_type_symbol
 _atom_site_label
 _atom_site_symmetry_multiplicity
 _atom_site_fract_x
 _atom_site_fract_y
 _atom_site_fract_z
 _atom_site_occupancy
  Cs  Cs0  1  0.000000  0.000000  0.007342  1
  Tb  Tb1  1  0.333333  0.666667  0.616203  1
  H  H2  1  0.179847  0.820153  0.405571  1
  H  H3  1  0.640307  0.820153  0.405571  1
  H  H4  1  0.179847  0.359693  0.405571  1
  H  H5  1  0.830996  0.169004  0.612727  1
  H  H6  1  0.338008  0.169004  0.612727  1
  H  H7  1  0.830996  0.661992  0.612727  1
  H  H8  1  0.519043  0.038086  0.803968  1
  H  H9  1  0.519043  0.480957  0.803968  1
  H  H10  1  0.961914  0.480957  0.803968  1
  H  H11  1  0.467622  0.935246  0.181672  1
  H  H12  1  0.467622  0.532378  0.181672  1
  H  H13  1  0.064754  0.532378  0.181672  1
  Ir  Ir14  1  0.666667  0.333333  0.696828  1
  Ir  Ir15  1  0.333333  0.666667  0.301454  1
  Pb  Pb16  1  0.666667  0.333333  0.366359  1
