# generated using pymatgen
data_Tb2CeTm7(Al2Ru3)2
_symmetry_space_group_name_H-M   'P 1'
_cell_length_a   8.34730117
_cell_length_b   8.34674371
_cell_length_c   8.24223741
_cell_angle_alpha   110.21380913
_cell_angle_beta   109.28612425
_cell_angle_gamma   109.51827200
_symmetry_Int_Tables_number   1
_chemical_formula_structural   Tb2CeTm7(Al2Ru3)2
_chemical_formula_sum   'Tb2 Ce1 Tm7 Al4 Ru6'
_cell_volume   438.71274128
_cell_formula_units_Z   1
loop_
 _symmetry_equiv_pos_site_id
 _symmetry_equiv_pos_as_xyz
  1  'x, y, z'
loop_
 _atom_site_type_symbol
 _atom_site_label
 _atom_site_symmetry_multiplicity
 _atom_site_fract_x
 _atom_site_fract_y
 _atom_site_fract_z
 _atom_site_occupancy
  Tb  Tb0  1  0.251787  0.185482  0.930060  1
  Tb  Tb1  1  0.930303  0.252541  0.183111  1
  Ce  Ce2  1  0.194468  0.942105  0.251211  1
  Tm  Tm3  1  0.781019  0.786721  0.784853  1
  Tm  Tm4  1  0.319350  0.570120  0.750809  1
  Tm  Tm5  1  0.753204  0.321036  0.570709  1
  Tm  Tm6  1  0.571337  0.748747  0.319657  1
  Tm  Tm7  1  0.714590  0.501385  0.997640  1
  Tm  Tm8  1  0.001816  0.716706  0.503720  1
  Tm  Tm9  1  0.503430  0.996408  0.713928  1
  Al  Al10  1  0.415421  0.416641  0.411073  1
  Al  Al11  1  0.090711  0.496092  0.002663  1
  Al  Al12  1  0.992704  0.086822  0.494402  1
  Al  Al13  1  0.504246  0.003737  0.090640  1
  Ru  Ru14  1  0.872184  0.121674  0.745940  1
  Ru  Ru15  1  0.737793  0.868084  0.116556  1
  Ru  Ru16  1  0.126476  0.759895  0.903623  1
  Ru  Ru17  1  0.253080  0.623497  0.382222  1
  Ru  Ru18  1  0.358428  0.224794  0.595153  1
  Ru  Ru19  1  0.627654  0.377513  0.252030  1
