# generated using pymatgen
data_Tb5Ho3SbPd24
_symmetry_space_group_name_H-M   'P 1'
_cell_length_a   8.40853286
_cell_length_b   8.40846090
_cell_length_c   8.40846090
_cell_angle_alpha   90.05494954
_cell_angle_beta   89.94608668
_cell_angle_gamma   89.94608668
_symmetry_Int_Tables_number   1
_chemical_formula_structural   Tb5Ho3SbPd24
_chemical_formula_sum   'Tb5 Ho3 Sb1 Pd24'
_cell_volume   594.50109525
_cell_formula_units_Z   1
loop_
 _symmetry_equiv_pos_site_id
 _symmetry_equiv_pos_as_xyz
  1  'x, y, z'
loop_
 _atom_site_type_symbol
 _atom_site_label
 _atom_site_symmetry_multiplicity
 _atom_site_fract_x
 _atom_site_fract_y
 _atom_site_fract_z
 _atom_site_occupancy
  Tb  Tb0  1  0.746274  0.746339  0.253705  1
  Tb  Tb1  1  0.746274  0.253705  0.746339  1
  Tb  Tb2  1  0.253679  0.746300  0.746300  1
  Tb  Tb3  1  0.746374  0.746328  0.746328  1
  Tb  Tb4  1  0.746332  0.253654  0.253654  1
  Ho  Ho5  1  0.253881  0.253831  0.746109  1
  Ho  Ho6  1  0.253881  0.746109  0.253831  1
  Ho  Ho7  1  0.253851  0.253913  0.253913  1
  Sb  Sb8  1  0.999819  0.999936  0.999936  1
  Pd  Pd9  1  0.000810  0.000002  0.305949  1
  Pd  Pd10  1  0.735686  0.999981  0.499964  1
  Pd  Pd11  1  0.735686  0.499964  0.999981  1
  Pd  Pd12  1  0.499595  0.000430  0.735669  1
  Pd  Pd13  1  0.000395  0.735673  0.499670  1
  Pd  Pd14  1  0.499307  0.999978  0.264340  1
  Pd  Pd15  1  0.000846  0.264336  0.499963  1
  Pd  Pd16  1  0.499595  0.735669  0.000430  1
  Pd  Pd17  1  0.254249  0.499555  0.499555  1
  Pd  Pd18  1  0.499547  0.499554  0.745727  1
  Pd  Pd19  1  0.499101  0.499997  0.254259  1
  Pd  Pd20  1  0.499101  0.254259  0.499997  1
  Pd  Pd21  1  0.499547  0.745727  0.499554  1
  Pd  Pd22  1  0.745720  0.500000  0.500000  1
  Pd  Pd23  1  0.305811  0.000401  0.000401  1
  Pd  Pd24  1  0.000421  0.000410  0.693909  1
  Pd  Pd25  1  0.000846  0.499963  0.264336  1
  Pd  Pd26  1  0.000810  0.305949  0.000002  1
  Pd  Pd27  1  0.000421  0.693909  0.000410  1
  Pd  Pd28  1  0.693761  0.000012  0.000012  1
  Pd  Pd29  1  0.264338  0.499678  0.000427  1
  Pd  Pd30  1  0.264338  0.000427  0.499678  1
  Pd  Pd31  1  0.000395  0.499670  0.735673  1
  Pd  Pd32  1  0.499307  0.264340  0.999978  1
