# generated using pymatgen
data_LuThZrFe9
_symmetry_space_group_name_H-M   'P 1'
_cell_length_a   8.61247591
_cell_length_b   8.61247518
_cell_length_c   8.61247549
_cell_angle_alpha   34.01546217
_cell_angle_beta   34.01546126
_cell_angle_gamma   34.01545376
_symmetry_Int_Tables_number   1
_chemical_formula_structural   LuThZrFe9
_chemical_formula_sum   'Lu1 Th1 Zr1 Fe9'
_cell_volume   178.20784812
_cell_formula_units_Z   1
loop_
 _symmetry_equiv_pos_site_id
 _symmetry_equiv_pos_as_xyz
  1  'x, y, z'
loop_
 _atom_site_type_symbol
 _atom_site_label
 _atom_site_symmetry_multiplicity
 _atom_site_fract_x
 _atom_site_fract_y
 _atom_site_fract_z
 _atom_site_occupancy
  Lu  Lu0  1  0.856948  0.856948  0.856948  1
  Th  Th1  1  0.999780  0.999780  0.999780  1
  Zr  Zr2  1  0.143193  0.143193  0.143193  1
  Fe  Fe3  1  0.414908  0.915779  0.414908  1
  Fe  Fe4  1  0.414908  0.414908  0.915779  1
  Fe  Fe5  1  0.915779  0.414908  0.414908  1
  Fe  Fe6  1  0.585292  0.083492  0.585292  1
  Fe  Fe7  1  0.585292  0.585292  0.083492  1
  Fe  Fe8  1  0.083492  0.585292  0.585292  1
  Fe  Fe9  1  0.667837  0.667837  0.667837  1
  Fe  Fe10  1  0.332722  0.332722  0.332722  1
  Fe  Fe11  1  0.499849  0.499849  0.499849  1
