# generated using pymatgen
data_Y3ThAlIr
_symmetry_space_group_name_H-M   'P 1'
_cell_length_a   9.69865285
_cell_length_b   9.69865246
_cell_length_c   9.69865300
_cell_angle_alpha   60.00000157
_cell_angle_beta   60.00000291
_cell_angle_gamma   60.00000651
_symmetry_Int_Tables_number   1
_chemical_formula_structural   Y3ThAlIr
_chemical_formula_sum   'Y12 Th4 Al4 Ir4'
_cell_volume   645.08845816
_cell_formula_units_Z   4
loop_
 _symmetry_equiv_pos_site_id
 _symmetry_equiv_pos_as_xyz
  1  'x, y, z'
loop_
 _atom_site_type_symbol
 _atom_site_label
 _atom_site_symmetry_multiplicity
 _atom_site_fract_x
 _atom_site_fract_y
 _atom_site_fract_z
 _atom_site_occupancy
  Y  Y0  1  0.057760  0.442240  0.442240  1
  Y  Y1  1  0.442240  0.057760  0.057760  1
  Y  Y2  1  0.442240  0.057760  0.442240  1
  Y  Y3  1  0.057760  0.442240  0.057760  1
  Y  Y4  1  0.442240  0.442240  0.057760  1
  Y  Y5  1  0.057760  0.057760  0.442240  1
  Y  Y6  1  0.186935  0.813065  0.813065  1
  Y  Y7  1  0.813065  0.186935  0.186935  1
  Y  Y8  1  0.813065  0.186935  0.813065  1
  Y  Y9  1  0.186935  0.813065  0.186935  1
  Y  Y10  1  0.813065  0.813065  0.186935  1
  Y  Y11  1  0.186935  0.186935  0.813065  1
  Th  Th12  1  0.600807  0.600807  0.600807  1
  Th  Th13  1  0.600807  0.600807  0.197578  1
  Th  Th14  1  0.600807  0.197578  0.600807  1
  Th  Th15  1  0.197578  0.600807  0.600807  1
  Al  Al16  1  0.829801  0.829801  0.829801  1
  Al  Al17  1  0.829801  0.829801  0.510598  1
  Al  Al18  1  0.829801  0.510598  0.829801  1
  Al  Al19  1  0.510598  0.829801  0.829801  1
  Ir  Ir20  1  0.393074  0.393074  0.393074  1
  Ir  Ir21  1  0.393074  0.393074  0.820778  1
  Ir  Ir22  1  0.393074  0.820778  0.393074  1
  Ir  Ir23  1  0.820778  0.393074  0.393074  1
