# generated using pymatgen
data_Sc12Co(Si4Os)3
_symmetry_space_group_name_H-M   'P 1'
_cell_length_a   4.00673800
_cell_length_b   10.24355425
_cell_length_c   11.67701402
_cell_angle_alpha   89.76544295
_cell_angle_beta   90.00000000
_cell_angle_gamma   90.00000000
_symmetry_Int_Tables_number   1
_chemical_formula_structural   Sc12Co(Si4Os)3
_chemical_formula_sum   'Sc12 Co1 Si12 Os3'
_cell_volume   479.25845040
_cell_formula_units_Z   1
loop_
 _symmetry_equiv_pos_site_id
 _symmetry_equiv_pos_as_xyz
  1  'x, y, z'
loop_
 _atom_site_type_symbol
 _atom_site_label
 _atom_site_symmetry_multiplicity
 _atom_site_fract_x
 _atom_site_fract_y
 _atom_site_fract_z
 _atom_site_occupancy
  Sc  Sc0  1  0.250000  0.878838  0.017726  1
  Sc  Sc1  1  0.250000  0.619572  0.520902  1
  Sc  Sc2  1  0.750000  0.124561  0.979867  1
  Sc  Sc3  1  0.750000  0.377335  0.479070  1
  Sc  Sc4  1  0.250000  0.920046  0.606454  1
  Sc  Sc5  1  0.250000  0.579082  0.103996  1
  Sc  Sc6  1  0.750000  0.079076  0.396718  1
  Sc  Sc7  1  0.750000  0.422502  0.899874  1
  Sc  Sc8  1  0.250000  0.650558  0.798128  1
  Sc  Sc9  1  0.250000  0.840127  0.298608  1
  Sc  Sc10  1  0.750000  0.340028  0.201500  1
  Sc  Sc11  1  0.750000  0.165133  0.701242  1
  Co  Co12  1  0.250000  0.389168  0.676062  1
  Si  Si13  1  0.250000  0.018619  0.821008  1
  Si  Si14  1  0.250000  0.484624  0.322233  1
  Si  Si15  1  0.750000  0.985568  0.178075  1
  Si  Si16  1  0.750000  0.504263  0.678036  1
  Si  Si17  1  0.250000  0.258540  0.838344  1
  Si  Si18  1  0.250000  0.248218  0.343195  1
  Si  Si19  1  0.750000  0.749094  0.156365  1
  Si  Si20  1  0.750000  0.746747  0.659281  1
  Si  Si21  1  0.250000  0.197625  0.547927  1
  Si  Si22  1  0.250000  0.307149  0.044732  1
  Si  Si23  1  0.750000  0.804540  0.455824  1
  Si  Si24  1  0.750000  0.696237  0.953100  1
  Os  Os25  1  0.250000  0.110828  0.176278  1
  Os  Os26  1  0.750000  0.610176  0.323501  1
  Os  Os27  1  0.750000  0.891745  0.821956  1
