# generated using pymatgen
data_Zr5Sc3Ga15Rh7
_symmetry_space_group_name_H-M   'P 1'
_cell_length_a   8.91628148
_cell_length_b   8.91628153
_cell_length_c   8.91628100
_cell_angle_alpha   120.37688074
_cell_angle_beta   120.08725589
_cell_angle_gamma   89.59869748
_symmetry_Int_Tables_number   1
_chemical_formula_structural   Zr5Sc3Ga15Rh7
_chemical_formula_sum   'Zr5 Sc3 Ga15 Rh7'
_cell_volume   499.45365286
_cell_formula_units_Z   1
loop_
 _symmetry_equiv_pos_site_id
 _symmetry_equiv_pos_as_xyz
  1  'x, y, z'
loop_
 _atom_site_type_symbol
 _atom_site_label
 _atom_site_symmetry_multiplicity
 _atom_site_fract_x
 _atom_site_fract_y
 _atom_site_fract_z
 _atom_site_occupancy
  Zr  Zr0  1  0.802222  0.292073  0.076938  1
  Zr  Zr1  1  0.215136  0.292073  0.489851  1
  Zr  Zr2  1  0.194117  0.694117  0.500000  1
  Zr  Zr3  1  0.215136  0.725285  0.923062  1
  Zr  Zr4  1  0.802222  0.725285  0.510149  1
  Sc  Sc5  1  0.766397  0.266397  0.500000  1
  Sc  Sc6  1  0.377412  0.121128  0.743717  1
  Sc  Sc7  1  0.377412  0.633694  0.256283  1
  Ga  Ga8  1  0.977318  0.477318  0.500000  1
  Ga  Ga9  1  0.159870  0.343691  0.183821  1
  Ga  Ga10  1  0.159870  0.976049  0.816179  1
  Ga  Ga11  1  0.150104  0.351580  0.798525  1
  Ga  Ga12  1  0.553055  0.351580  0.201475  1
  Ga  Ga13  1  0.846294  0.650559  0.804266  1
  Ga  Ga14  1  0.846294  0.042028  0.195734  1
  Ga  Ga15  1  0.844466  0.656390  0.188077  1
  Ga  Ga16  1  0.468313  0.656390  0.811923  1
  Ga  Ga17  1  0.374074  0.125438  0.248636  1
  Ga  Ga18  1  0.876803  0.125438  0.751364  1
  Ga  Ga19  1  0.618738  0.864047  0.245310  1
  Ga  Ga20  1  0.618738  0.373428  0.754690  1
  Ga  Ga21  1  0.613614  0.875254  0.738361  1
  Ga  Ga22  1  0.136892  0.875254  0.261639  1
  Rh  Rh23  1  0.996416  0.000763  0.499299  1
  Rh  Rh24  1  0.501465  0.000763  0.004346  1
  Rh  Rh25  1  0.499626  0.499626  0.000000  1
  Rh  Rh26  1  0.501465  0.497118  0.500701  1
  Rh  Rh27  1  0.996416  0.497118  0.995654  1
  Rh  Rh28  1  0.999559  0.999559  0.000000  1
  Rh  Rh29  1  0.510563  0.010563  0.500000  1
