# generated using pymatgen
data_CaCuHgPd3
_symmetry_space_group_name_H-M   'P 1'
_cell_length_a   5.22460375
_cell_length_b   5.22460424
_cell_length_c   5.22460305
_cell_angle_alpha   63.00236341
_cell_angle_beta   63.00236268
_cell_angle_gamma   63.00236462
_symmetry_Int_Tables_number   1
_chemical_formula_structural   CaCuHgPd3
_chemical_formula_sum   'Ca1 Cu1 Hg1 Pd3'
_cell_volume   107.56429782
_cell_formula_units_Z   1
loop_
 _symmetry_equiv_pos_site_id
 _symmetry_equiv_pos_as_xyz
  1  'x, y, z'
loop_
 _atom_site_type_symbol
 _atom_site_label
 _atom_site_symmetry_multiplicity
 _atom_site_fract_x
 _atom_site_fract_y
 _atom_site_fract_z
 _atom_site_occupancy
  Ca  Ca0  1  0.124739  0.124739  0.124739  1
  Cu  Cu1  1  0.500649  0.500649  0.500649  1
  Hg  Hg2  1  0.872411  0.872411  0.872411  1
  Pd  Pd3  1  0.501070  0.501070  0.000061  1
  Pd  Pd4  1  0.000061  0.501070  0.501070  1
  Pd  Pd5  1  0.501070  0.000061  0.501070  1
