# generated using pymatgen
data_DyHo5Os2
_symmetry_space_group_name_H-M   'P 1'
_cell_length_a   7.39718700
_cell_length_b   9.02213100
_cell_length_c   6.28907900
_cell_angle_alpha   90.00000000
_cell_angle_beta   90.00000000
_cell_angle_gamma   90.00000000
_symmetry_Int_Tables_number   1
_chemical_formula_structural   DyHo5Os2
_chemical_formula_sum   'Dy2 Ho10 Os4'
_cell_volume   419.72300796
_cell_formula_units_Z   2
loop_
 _symmetry_equiv_pos_site_id
 _symmetry_equiv_pos_as_xyz
  1  'x, y, z'
loop_
 _atom_site_type_symbol
 _atom_site_label
 _atom_site_symmetry_multiplicity
 _atom_site_fract_x
 _atom_site_fract_y
 _atom_site_fract_z
 _atom_site_occupancy
  Dy  Dy0  1  0.038812  0.750000  0.129420  1
  Dy  Dy1  1  0.538813  0.750000  0.370580  1
  Ho  Ho2  1  0.325365  0.063347  0.166972  1
  Ho  Ho3  1  0.325365  0.436653  0.166972  1
  Ho  Ho4  1  0.825365  0.063347  0.333027  1
  Ho  Ho5  1  0.825365  0.436653  0.333027  1
  Ho  Ho6  1  0.461037  0.250000  0.629736  1
  Ho  Ho7  1  0.174576  0.562692  0.666920  1
  Ho  Ho8  1  0.174576  0.937308  0.666920  1
  Ho  Ho9  1  0.674575  0.562692  0.833081  1
  Ho  Ho10  1  0.674575  0.937308  0.833081  1
  Ho  Ho11  1  0.961036  0.250000  0.870265  1
  Os  Os12  1  0.618451  0.250000  0.039799  1
  Os  Os13  1  0.118451  0.250000  0.460201  1
  Os  Os14  1  0.881818  0.750000  0.540787  1
  Os  Os15  1  0.381818  0.750000  0.959215  1
