# generated using pymatgen
data_La4TbYb7Ru4
_symmetry_space_group_name_H-M   'P 1'
_cell_length_a   6.49633236
_cell_length_b   7.49475049
_cell_length_c   9.59418211
_cell_angle_alpha   90.10744984
_cell_angle_beta   90.84115907
_cell_angle_gamma   90.51849979
_symmetry_Int_Tables_number   1
_chemical_formula_structural   La4TbYb7Ru4
_chemical_formula_sum   'La4 Tb1 Yb7 Ru4'
_cell_volume   467.05487481
_cell_formula_units_Z   1
loop_
 _symmetry_equiv_pos_site_id
 _symmetry_equiv_pos_as_xyz
  1  'x, y, z'
loop_
 _atom_site_type_symbol
 _atom_site_label
 _atom_site_symmetry_multiplicity
 _atom_site_fract_x
 _atom_site_fract_y
 _atom_site_fract_z
 _atom_site_occupancy
  La  La0  1  0.861459  0.555629  0.252341  1
  La  La1  1  0.638595  0.056181  0.248055  1
  La  La2  1  0.136590  0.445174  0.748860  1
  La  La3  1  0.367154  0.940872  0.751813  1
  Tb  Tb4  1  0.161001  0.169412  0.068780  1
  Yb  Yb5  1  0.334841  0.669078  0.068059  1
  Yb  Yb6  1  0.162449  0.169526  0.428600  1
  Yb  Yb7  1  0.661239  0.328940  0.570001  1
  Yb  Yb8  1  0.838973  0.827673  0.933898  1
  Yb  Yb9  1  0.661173  0.328435  0.932810  1
  Yb  Yb10  1  0.841545  0.832588  0.573086  1
  Yb  Yb11  1  0.340002  0.670217  0.429634  1
  Ru  Ru12  1  0.011105  0.872346  0.240537  1
  Ru  Ru13  1  0.475806  0.359643  0.244504  1
  Ru  Ru14  1  0.994918  0.136915  0.762854  1
  Ru  Ru15  1  0.513148  0.637372  0.746167  1
