# generated using pymatgen
data_Li4TaNbCr6O16
_symmetry_space_group_name_H-M   'P 1'
_cell_length_a   5.97623500
_cell_length_b   5.97623481
_cell_length_c   9.60387400
_cell_angle_alpha   90.00012544
_cell_angle_beta   89.99985320
_cell_angle_gamma   119.99992653
_symmetry_Int_Tables_number   1
_chemical_formula_structural   Li4TaNbCr6O16
_chemical_formula_sum   'Li4 Ta1 Nb1 Cr6 O16'
_cell_volume   297.05216821
_cell_formula_units_Z   1
loop_
 _symmetry_equiv_pos_site_id
 _symmetry_equiv_pos_as_xyz
  1  'x, y, z'
loop_
 _atom_site_type_symbol
 _atom_site_label
 _atom_site_symmetry_multiplicity
 _atom_site_fract_x
 _atom_site_fract_y
 _atom_site_fract_z
 _atom_site_occupancy
  Li  Li0  1  0.333330  0.666682  0.901680  1
  Li  Li1  1  0.000019  0.000011  0.992372  1
  Li  Li2  1  0.999989  0.000010  0.492722  1
  Li  Li3  1  0.666682  0.333352  0.401823  1
  Ta  Ta4  1  0.333334  0.666672  0.491272  1
  Nb  Nb5  1  0.666664  0.333347  0.992152  1
  Cr  Cr6  1  0.169915  0.830118  0.215130  1
  Cr  Cr7  1  0.169929  0.339822  0.215116  1
  Cr  Cr8  1  0.660221  0.830132  0.215120  1
  Cr  Cr9  1  0.339764  0.169878  0.714732  1
  Cr  Cr10  1  0.830076  0.660215  0.714732  1
  Cr  Cr11  1  0.830099  0.169906  0.714735  1
  O  O12  1  0.167579  0.832386  0.593041  1
  O  O13  1  0.039798  0.519899  0.342808  1
  O  O14  1  0.333355  0.666693  0.107964  1
  O  O15  1  0.000023  0.000027  0.308148  1
  O  O16  1  0.999975  0.999996  0.807956  1
  O  O17  1  0.167597  0.335212  0.593046  1
  O  O18  1  0.480122  0.960238  0.342810  1
  O  O19  1  0.480142  0.519921  0.342808  1
  O  O20  1  0.332747  0.166376  0.093843  1
  O  O21  1  0.664800  0.832420  0.593048  1
  O  O22  1  0.519281  0.480648  0.841747  1
  O  O23  1  0.519308  0.038644  0.841745  1
  O  O24  1  0.666648  0.333333  0.607860  1
  O  O25  1  0.833628  0.667260  0.093843  1
  O  O26  1  0.961333  0.480696  0.841752  1
  O  O27  1  0.833640  0.166404  0.093835  1
