# generated using pymatgen
data_Y16Lu4Ir11Au
_symmetry_space_group_name_H-M   'P 1'
_cell_length_a   10.95217223
_cell_length_b   10.95217223
_cell_length_c   6.35166606
_cell_angle_alpha   89.98955507
_cell_angle_beta   89.98955507
_cell_angle_gamma   89.77998542
_symmetry_Int_Tables_number   1
_chemical_formula_structural   Y16Lu4Ir11Au
_chemical_formula_sum   'Y16 Lu4 Ir11 Au1'
_cell_volume   761.87718722
_cell_formula_units_Z   1
loop_
 _symmetry_equiv_pos_site_id
 _symmetry_equiv_pos_as_xyz
  1  'x, y, z'
loop_
 _atom_site_type_symbol
 _atom_site_label
 _atom_site_symmetry_multiplicity
 _atom_site_fract_x
 _atom_site_fract_y
 _atom_site_fract_z
 _atom_site_occupancy
  Y  Y0  1  0.289873  0.087542  0.378106  1
  Y  Y1  1  0.291608  0.912040  0.877004  1
  Y  Y2  1  0.705298  0.084517  0.867969  1
  Y  Y3  1  0.706931  0.906142  0.380483  1
  Y  Y4  1  0.587261  0.789943  0.880080  1
  Y  Y5  1  0.580121  0.211177  0.379807  1
  Y  Y6  1  0.411745  0.790182  0.378399  1
  Y  Y7  1  0.411309  0.209769  0.878914  1
  Y  Y8  1  0.210057  0.412739  0.619920  1
  Y  Y9  1  0.209818  0.588255  0.121601  1
  Y  Y10  1  0.788823  0.419879  0.120193  1
  Y  Y11  1  0.790231  0.588691  0.621086  1
  Y  Y12  1  0.912458  0.710127  0.121894  1
  Y  Y13  1  0.915483  0.294702  0.632031  1
  Y  Y14  1  0.087960  0.708392  0.622996  1
  Y  Y15  1  0.093858  0.293069  0.119517  1
  Lu  Lu16  1  0.004145  0.996016  0.502671  1
  Lu  Lu17  1  0.003984  0.995855  0.997329  1
  Lu  Lu18  1  0.499546  0.500115  0.999269  1
  Lu  Lu19  1  0.499885  0.500454  0.500731  1
  Ir  Ir20  1  0.849837  0.851135  0.749819  1
  Ir  Ir21  1  0.148865  0.150163  0.750181  1
  Ir  Ir22  1  0.151138  0.848862  0.250000  1
  Ir  Ir23  1  0.651601  0.348399  0.750000  1
  Ir  Ir24  1  0.650392  0.650061  0.249562  1
  Ir  Ir25  1  0.349939  0.349608  0.250438  1
  Ir  Ir26  1  0.349435  0.650565  0.750000  1
  Ir  Ir27  1  0.500659  0.000182  0.126909  1
  Ir  Ir28  1  0.500053  0.000259  0.624082  1
  Ir  Ir29  1  0.999741  0.499947  0.875918  1
  Ir  Ir30  1  0.999818  0.499341  0.373091  1
  Au  Au31  1  0.848127  0.151873  0.250000  1
