# generated using pymatgen
data_Hf9Re3MoN3
_symmetry_space_group_name_H-M   'P 1'
_cell_length_a   8.52764800
_cell_length_b   8.52764817
_cell_length_c   8.45514500
_cell_angle_alpha   90.00000000
_cell_angle_beta   90.00000000
_cell_angle_gamma   119.99999934
_symmetry_Int_Tables_number   1
_chemical_formula_structural   Hf9Re3MoN3
_chemical_formula_sum   'Hf18 Re6 Mo2 N6'
_cell_volume   532.48850148
_cell_formula_units_Z   2
loop_
 _symmetry_equiv_pos_site_id
 _symmetry_equiv_pos_as_xyz
  1  'x, y, z'
loop_
 _atom_site_type_symbol
 _atom_site_label
 _atom_site_symmetry_multiplicity
 _atom_site_fract_x
 _atom_site_fract_y
 _atom_site_fract_z
 _atom_site_occupancy
  Hf  Hf0  1  0.454689  0.909378  0.250000  1
  Hf  Hf1  1  0.545311  0.090622  0.750000  1
  Hf  Hf2  1  0.090622  0.545311  0.250000  1
  Hf  Hf3  1  0.909378  0.454689  0.750000  1
  Hf  Hf4  1  0.454689  0.545311  0.250000  1
  Hf  Hf5  1  0.545311  0.454689  0.750000  1
  Hf  Hf6  1  0.204732  0.409463  0.557074  1
  Hf  Hf7  1  0.795268  0.590537  0.442926  1
  Hf  Hf8  1  0.590537  0.795268  0.557074  1
  Hf  Hf9  1  0.795268  0.590537  0.057074  1
  Hf  Hf10  1  0.409463  0.204732  0.442926  1
  Hf  Hf11  1  0.204732  0.409463  0.942926  1
  Hf  Hf12  1  0.204732  0.795268  0.557074  1
  Hf  Hf13  1  0.409463  0.204732  0.057074  1
  Hf  Hf14  1  0.795268  0.204732  0.442926  1
  Hf  Hf15  1  0.590537  0.795268  0.942926  1
  Hf  Hf16  1  0.795268  0.204732  0.057074  1
  Hf  Hf17  1  0.204732  0.795268  0.942926  1
  Re  Re18  1  0.109500  0.219000  0.250000  1
  Re  Re19  1  0.890500  0.781000  0.750000  1
  Re  Re20  1  0.781000  0.890500  0.250000  1
  Re  Re21  1  0.219000  0.109500  0.750000  1
  Re  Re22  1  0.109500  0.890500  0.250000  1
  Re  Re23  1  0.890500  0.109500  0.750000  1
  Mo  Mo24  1  0.000000  0.000000  0.000000  1
  Mo  Mo25  1  0.000000  0.000000  0.500000  1
  N  N26  1  0.500000  0.000000  0.000000  1
  N  N27  1  0.000000  0.500000  0.000000  1
  N  N28  1  0.500000  0.000000  0.500000  1
  N  N29  1  0.500000  0.500000  0.000000  1
  N  N30  1  0.000000  0.500000  0.500000  1
  N  N31  1  0.500000  0.500000  0.500000  1
