# generated using pymatgen
data_Sc2Hg(P2O7)2
_symmetry_space_group_name_H-M   'P 1'
_cell_length_a   5.10432358
_cell_length_b   7.04482641
_cell_length_c   8.53909434
_cell_angle_alpha   92.93247828
_cell_angle_beta   94.65395167
_cell_angle_gamma   105.50195198
_symmetry_Int_Tables_number   1
_chemical_formula_structural   Sc2Hg(P2O7)2
_chemical_formula_sum   'Sc2 Hg1 P4 O14'
_cell_volume   294.06254680
_cell_formula_units_Z   1
loop_
 _symmetry_equiv_pos_site_id
 _symmetry_equiv_pos_as_xyz
  1  'x, y, z'
loop_
 _atom_site_type_symbol
 _atom_site_label
 _atom_site_symmetry_multiplicity
 _atom_site_fract_x
 _atom_site_fract_y
 _atom_site_fract_z
 _atom_site_occupancy
  Sc  Sc0  1  0.500000  0.500000  0.500000  1
  Sc  Sc1  1  0.000000  0.000000  0.000000  1
  Hg  Hg2  1  0.000000  0.000000  0.500000  1
  P  P3  1  0.011293  0.637514  0.258789  1
  P  P4  1  0.988707  0.362486  0.741211  1
  P  P5  1  0.621582  0.239981  0.198101  1
  P  P6  1  0.378418  0.760019  0.801899  1
  O  O7  1  0.778845  0.467361  0.160975  1
  O  O8  1  0.221155  0.532639  0.839025  1
  O  O9  1  0.540558  0.257322  0.367685  1
  O  O10  1  0.459442  0.742678  0.632315  1
  O  O11  1  0.237028  0.554842  0.325752  1
  O  O12  1  0.762972  0.445158  0.674248  1
  O  O13  1  0.856399  0.704935  0.400695  1
  O  O14  1  0.172021  0.881852  0.808234  1
  O  O15  1  0.827979  0.118148  0.191766  1
  O  O16  1  0.900437  0.195070  0.843858  1
  O  O17  1  0.099563  0.804930  0.156142  1
  O  O18  1  0.616425  0.814966  0.927449  1
  O  O19  1  0.383575  0.185034  0.072551  1
  O  O20  1  0.143601  0.295065  0.599305  1
