# generated using pymatgen
data_CaNd3H10
_symmetry_space_group_name_H-M   'P 1'
_cell_length_a   6.64374060
_cell_length_b   6.64374058
_cell_length_c   6.64374034
_cell_angle_alpha   131.21449275
_cell_angle_beta   132.24700030
_cell_angle_gamma   70.65789508
_symmetry_Int_Tables_number   1
_chemical_formula_structural   CaNd3H10
_chemical_formula_sum   'Ca1 Nd3 H10'
_cell_volume   159.97396046
_cell_formula_units_Z   1
loop_
 _symmetry_equiv_pos_site_id
 _symmetry_equiv_pos_as_xyz
  1  'x, y, z'
loop_
 _atom_site_type_symbol
 _atom_site_label
 _atom_site_symmetry_multiplicity
 _atom_site_fract_x
 _atom_site_fract_y
 _atom_site_fract_z
 _atom_site_occupancy
  Ca  Ca0  1  0.494112  0.994112  0.500000  1
  Nd  Nd1  1  0.741336  0.741336  0.000000  1
  Nd  Nd2  1  0.009614  0.509614  0.500000  1
  Nd  Nd3  1  0.260535  0.260535  0.000000  1
  H  H4  1  0.373775  0.349366  0.472550  1
  H  H5  1  0.876816  0.901225  0.527450  1
  H  H6  1  0.650389  0.124441  0.024137  1
  H  H7  1  0.100303  0.626251  0.975863  1
  H  H8  1  0.373775  0.901225  0.024409  1
  H  H9  1  0.876816  0.349366  0.975591  1
  H  H10  1  0.650389  0.626251  0.525948  1
  H  H11  1  0.100303  0.124441  0.474052  1
  H  H12  1  0.241072  0.741072  0.500000  1
  H  H13  1  0.500765  0.500765  0.000000  1
