# generated using pymatgen
data_Dy8Ho2In8Pt3Rh
_symmetry_space_group_name_H-M   'P 1'
_cell_length_a   3.63020100
_cell_length_b   8.14135340
_cell_length_c   18.26255320
_cell_angle_alpha   90.04197363
_cell_angle_beta   90.00000000
_cell_angle_gamma   90.00000000
_symmetry_Int_Tables_number   1
_chemical_formula_structural   Dy8Ho2In8Pt3Rh
_chemical_formula_sum   'Dy8 Ho2 In8 Pt3 Rh1'
_cell_volume   539.74503542
_cell_formula_units_Z   1
loop_
 _symmetry_equiv_pos_site_id
 _symmetry_equiv_pos_as_xyz
  1  'x, y, z'
loop_
 _atom_site_type_symbol
 _atom_site_label
 _atom_site_symmetry_multiplicity
 _atom_site_fract_x
 _atom_site_fract_y
 _atom_site_fract_z
 _atom_site_occupancy
  Dy  Dy0  1  0.000000  0.383027  0.915080  1
  Dy  Dy1  1  0.000000  0.617015  0.085751  1
  Dy  Dy2  1  0.000000  0.239808  0.221692  1
  Dy  Dy3  1  0.000000  0.757118  0.779513  1
  Dy  Dy4  1  0.000000  0.256610  0.720805  1
  Dy  Dy5  1  0.000000  0.750636  0.279311  1
  Dy  Dy6  1  0.000000  0.999925  0.000068  1
  Dy  Dy7  1  0.000000  0.500178  0.499809  1
  Ho  Ho8  1  0.000000  0.114726  0.412233  1
  Ho  Ho9  1  0.000000  0.882745  0.585200  1
  In  In10  1  0.500000  0.423332  0.351462  1
  In  In11  1  0.500000  0.575354  0.648479  1
  In  In12  1  0.500000  0.075216  0.851499  1
  In  In13  1  0.500000  0.927871  0.149484  1
  In  In14  1  0.500000  0.291775  0.067049  1
  In  In15  1  0.500000  0.707802  0.933324  1
  In  In16  1  0.500000  0.207194  0.566468  1
  In  In17  1  0.500000  0.793486  0.431642  1
  Pt  Pt18  1  0.500000  0.974719  0.696187  1
  Pt  Pt19  1  0.500000  0.475160  0.803391  1
  Pt  Pt20  1  0.500000  0.523301  0.197032  1
  Rh  Rh21  1  0.500000  0.023001  0.304518  1
