# generated using pymatgen
data_Ca6Al24Os5Pd3
_symmetry_space_group_name_H-M   'P 1'
_cell_length_a   8.89822729
_cell_length_b   8.89777929
_cell_length_c   9.65304424
_cell_angle_alpha   89.97977188
_cell_angle_beta   89.68934793
_cell_angle_gamma   119.90645399
_symmetry_Int_Tables_number   1
_chemical_formula_structural   Ca6Al24Os5Pd3
_chemical_formula_sum   'Ca6 Al24 Os5 Pd3'
_cell_volume   662.49038191
_cell_formula_units_Z   1
loop_
 _symmetry_equiv_pos_site_id
 _symmetry_equiv_pos_as_xyz
  1  'x, y, z'
loop_
 _atom_site_type_symbol
 _atom_site_label
 _atom_site_symmetry_multiplicity
 _atom_site_fract_x
 _atom_site_fract_y
 _atom_site_fract_z
 _atom_site_occupancy
  Ca  Ca0  1  0.188383  0.381306  0.250958  1
  Ca  Ca1  1  0.811617  0.618694  0.749042  1
  Ca  Ca2  1  0.614735  0.810908  0.253177  1
  Ca  Ca3  1  0.385265  0.189092  0.746823  1
  Ca  Ca4  1  0.196582  0.806350  0.251064  1
  Ca  Ca5  1  0.803418  0.193650  0.748936  1
  Al  Al6  1  0.336782  0.671955  0.001655  1
  Al  Al7  1  0.663218  0.328045  0.998345  1
  Al  Al8  1  0.670298  0.331018  0.504933  1
  Al  Al9  1  0.329702  0.668982  0.495067  1
  Al  Al10  1  0.155289  0.322635  0.577104  1
  Al  Al11  1  0.844711  0.677365  0.422896  1
  Al  Al12  1  0.676493  0.844126  0.577917  1
  Al  Al13  1  0.839070  0.679728  0.082223  1
  Al  Al14  1  0.323507  0.155874  0.422083  1
  Al  Al15  1  0.160930  0.320272  0.917777  1
  Al  Al16  1  0.163049  0.838218  0.574790  1
  Al  Al17  1  0.322028  0.154865  0.078079  1
  Al  Al18  1  0.836951  0.161782  0.425210  1
  Al  Al19  1  0.677972  0.845135  0.921921  1
  Al  Al20  1  0.831689  0.154922  0.078355  1
  Al  Al21  1  0.168311  0.845078  0.921645  1
  Al  Al22  1  0.561099  0.121129  0.249658  1
  Al  Al23  1  0.438901  0.878871  0.750342  1
  Al  Al24  1  0.874428  0.435621  0.253661  1
  Al  Al25  1  0.125572  0.564379  0.746339  1
  Al  Al26  1  0.562358  0.435134  0.249560  1
  Al  Al27  1  0.437642  0.564866  0.750440  1
  Al  Al28  1  0.000731  0.998434  0.250424  1
  Al  Al29  1  0.999269  0.001566  0.749576  1
  Os  Os30  1  0.500000  0.000000  0.000000  1
  Os  Os31  1  0.500000  0.000000  0.500000  1
  Os  Os32  1  0.000000  0.500000  0.500000  1
  Os  Os33  1  0.000000  0.000000  0.000000  1
  Os  Os34  1  0.000000  0.000000  0.500000  1
  Pd  Pd35  1  0.000000  0.500000  0.000000  1
  Pd  Pd36  1  0.500000  0.500000  0.000000  1
  Pd  Pd37  1  0.500000  0.500000  0.500000  1
