# generated using pymatgen
data_Dy5Tm5Sn5Sb
_symmetry_space_group_name_H-M   'P 1'
_cell_length_a   8.91884200
_cell_length_b   8.92202943
_cell_length_c   6.45608300
_cell_angle_alpha   89.99983045
_cell_angle_beta   90.00015700
_cell_angle_gamma   120.06487182
_symmetry_Int_Tables_number   1
_chemical_formula_structural   Dy5Tm5Sn5Sb
_chemical_formula_sum   'Dy5 Tm5 Sn5 Sb1'
_cell_volume   444.61856498
_cell_formula_units_Z   1
loop_
 _symmetry_equiv_pos_site_id
 _symmetry_equiv_pos_as_xyz
  1  'x, y, z'
loop_
 _atom_site_type_symbol
 _atom_site_label
 _atom_site_symmetry_multiplicity
 _atom_site_fract_x
 _atom_site_fract_y
 _atom_site_fract_z
 _atom_site_occupancy
  Dy  Dy0  1  0.998138  0.759530  0.750000  1
  Dy  Dy1  1  0.761222  0.760725  0.249999  1
  Dy  Dy2  1  0.761468  0.000134  0.749999  1
  Dy  Dy3  1  0.238277  0.240258  0.750000  1
  Dy  Dy4  1  0.239492  0.000200  0.250001  1
  Tm  Tm5  1  0.000709  0.239644  0.250000  1
  Tm  Tm6  1  0.333110  0.665645  0.499918  1
  Tm  Tm7  1  0.667481  0.334233  0.000064  1
  Tm  Tm8  1  0.667481  0.334233  0.499937  1
  Tm  Tm9  1  0.333113  0.665646  0.000081  1
  Sn  Sn10  1  0.395549  0.395210  0.250001  1
  Sn  Sn11  1  0.000704  0.604133  0.249999  1
  Sn  Sn12  1  0.999793  0.396106  0.749999  1
  Sn  Sn13  1  0.603684  0.603919  0.750000  1
  Sn  Sn14  1  0.605367  0.000347  0.250000  1
  Sb  Sb15  1  0.394410  0.000036  0.750000  1
