# generated using pymatgen
data_Nd2SmMg3Ge2Au
_symmetry_space_group_name_H-M   'P 1'
_cell_length_a   7.44589633
_cell_length_b   7.44589642
_cell_length_c   4.42958300
_cell_angle_alpha   90.00000000
_cell_angle_beta   90.00000000
_cell_angle_gamma   119.93155817
_symmetry_Int_Tables_number   1
_chemical_formula_structural   Nd2SmMg3Ge2Au
_chemical_formula_sum   'Nd2 Sm1 Mg3 Ge2 Au1'
_cell_volume   212.82691808
_cell_formula_units_Z   1
loop_
 _symmetry_equiv_pos_site_id
 _symmetry_equiv_pos_as_xyz
  1  'x, y, z'
loop_
 _atom_site_type_symbol
 _atom_site_label
 _atom_site_symmetry_multiplicity
 _atom_site_fract_x
 _atom_site_fract_y
 _atom_site_fract_z
 _atom_site_occupancy
  Nd  Nd0  1  0.583270  0.999609  0.000000  1
  Nd  Nd1  1  0.999609  0.583270  0.000000  1
  Sm  Sm2  1  0.415989  0.415989  0.000000  1
  Mg  Mg3  1  0.242608  0.000397  0.500000  1
  Mg  Mg4  1  0.000397  0.242608  0.500000  1
  Mg  Mg5  1  0.757081  0.757081  0.500000  1
  Ge  Ge6  1  0.333909  0.665547  0.500000  1
  Ge  Ge7  1  0.665547  0.333909  0.500000  1
  Au  Au8  1  0.001591  0.001591  0.000000  1
