# generated using pymatgen
data_Cs3K3(LuBi2)2
_symmetry_space_group_name_H-M   'P 1'
_cell_length_a   10.32369577
_cell_length_b   10.32369701
_cell_length_c   10.26095800
_cell_angle_alpha   131.13581163
_cell_angle_beta   68.22550659
_cell_angle_gamma   135.63106860
_symmetry_Int_Tables_number   1
_chemical_formula_structural   Cs3K3(LuBi2)2
_chemical_formula_sum   'Cs3 K3 Lu2 Bi4'
_cell_volume   565.62465108
_cell_formula_units_Z   1
loop_
 _symmetry_equiv_pos_site_id
 _symmetry_equiv_pos_as_xyz
  1  'x, y, z'
loop_
 _atom_site_type_symbol
 _atom_site_label
 _atom_site_symmetry_multiplicity
 _atom_site_fract_x
 _atom_site_fract_y
 _atom_site_fract_z
 _atom_site_occupancy
  Cs  Cs0  1  0.181126  0.265053  0.446181  1
  Cs  Cs1  1  0.819940  0.732732  0.552672  1
  Cs  Cs2  1  0.680537  0.238909  0.919446  1
  K  K3  1  0.249591  0.249909  0.996746  1
  K  K4  1  0.746837  0.747155  0.996746  1
  K  K5  1  0.317058  0.789160  0.106216  1
  Lu  Lu6  1  0.751381  0.246954  0.497561  1
  Lu  Lu7  1  0.250607  0.746179  0.497560  1
  Bi  Bi8  1  0.903660  0.293352  0.197010  1
  Bi  Bi9  1  0.596123  0.794791  0.390914  1
  Bi  Bi10  1  0.403242  0.193146  0.596388  1
  Bi  Bi11  1  0.099899  0.702658  0.802559  1
