# generated using pymatgen
data_Ho13Er3In2(HgRh2)2
_symmetry_space_group_name_H-M   'P 1'
_cell_length_a   9.59357213
_cell_length_b   9.57749401
_cell_length_c   9.58114779
_cell_angle_alpha   59.97553515
_cell_angle_beta   59.93833843
_cell_angle_gamma   59.97114365
_symmetry_Int_Tables_number   1
_chemical_formula_structural   Ho13Er3In2(HgRh2)2
_chemical_formula_sum   'Ho13 Er3 In2 Hg2 Rh4'
_cell_volume   621.95221317
_cell_formula_units_Z   1
loop_
 _symmetry_equiv_pos_site_id
 _symmetry_equiv_pos_as_xyz
  1  'x, y, z'
loop_
 _atom_site_type_symbol
 _atom_site_label
 _atom_site_symmetry_multiplicity
 _atom_site_fract_x
 _atom_site_fract_y
 _atom_site_fract_z
 _atom_site_occupancy
  Ho  Ho0  1  0.189029  0.189606  0.810387  1
  Ho  Ho1  1  0.438724  0.061463  0.061240  1
  Ho  Ho2  1  0.437461  0.060816  0.435572  1
  Ho  Ho3  1  0.066369  0.435708  0.060657  1
  Ho  Ho4  1  0.650022  0.052274  0.647714  1
  Ho  Ho5  1  0.189066  0.810903  0.811069  1
  Ho  Ho6  1  0.066122  0.060661  0.435737  1
  Ho  Ho7  1  0.809559  0.190376  0.190301  1
  Ho  Ho8  1  0.810953  0.810389  0.189608  1
  Ho  Ho9  1  0.649895  0.647656  0.052262  1
  Ho  Ho10  1  0.651200  0.648839  0.649154  1
  Ho  Ho11  1  0.065414  0.434720  0.434579  1
  Ho  Ho12  1  0.050790  0.648987  0.648911  1
  Er  Er13  1  0.810769  0.189776  0.810317  1
  Er  Er14  1  0.437610  0.435888  0.060516  1
  Er  Er15  1  0.189194  0.810132  0.189722  1
  In  In16  1  0.744727  0.419580  0.419704  1
  In  In17  1  0.415927  0.419629  0.419420  1
  Hg  Hg18  1  0.413602  0.758055  0.414680  1
  Hg  Hg19  1  0.413682  0.414688  0.758323  1
  Rh  Rh20  1  0.857086  0.427353  0.857807  1
  Rh  Rh21  1  0.857684  0.857737  0.427310  1
  Rh  Rh22  1  0.428319  0.857071  0.857762  1
  Rh  Rh23  1  0.856792  0.857694  0.857251  1
