# generated using pymatgen
data_Tb4Ho5LuSn8
_symmetry_space_group_name_H-M   'P 1'
_cell_length_a   8.01462700
_cell_length_b   8.15994500
_cell_length_c   15.43482300
_cell_angle_alpha   90.00000000
_cell_angle_beta   90.00000000
_cell_angle_gamma   90.00000000
_symmetry_Int_Tables_number   1
_chemical_formula_structural   Tb4Ho5LuSn8
_chemical_formula_sum   'Tb8 Ho10 Lu2 Sn16'
_cell_volume   1009.42068537
_cell_formula_units_Z   2
loop_
 _symmetry_equiv_pos_site_id
 _symmetry_equiv_pos_as_xyz
  1  'x, y, z'
loop_
 _atom_site_type_symbol
 _atom_site_label
 _atom_site_symmetry_multiplicity
 _atom_site_fract_x
 _atom_site_fract_y
 _atom_site_fract_z
 _atom_site_occupancy
  Tb  Tb0  1  0.520310  0.320476  0.902858  1
  Tb  Tb1  1  0.020310  0.179524  0.597142  1
  Tb  Tb2  1  0.479639  0.679502  0.402679  1
  Tb  Tb3  1  0.979639  0.820498  0.097321  1
  Tb  Tb4  1  0.479639  0.679502  0.097321  1
  Tb  Tb5  1  0.979639  0.820498  0.402679  1
  Tb  Tb6  1  0.520310  0.320476  0.597142  1
  Tb  Tb7  1  0.020310  0.179524  0.902858  1
  Ho  Ho8  1  0.366830  0.836379  0.877741  1
  Ho  Ho9  1  0.866830  0.663621  0.622259  1
  Ho  Ho10  1  0.633057  0.163516  0.377514  1
  Ho  Ho11  1  0.133057  0.336484  0.122486  1
  Ho  Ho12  1  0.633057  0.163516  0.122486  1
  Ho  Ho13  1  0.133057  0.336484  0.377514  1
  Ho  Ho14  1  0.366830  0.836379  0.622259  1
  Ho  Ho15  1  0.866830  0.663621  0.877741  1
  Ho  Ho16  1  0.197932  0.503333  0.750000  1
  Ho  Ho17  1  0.697932  0.996667  0.750000  1
  Lu  Lu18  1  0.801988  0.496565  0.250000  1
  Lu  Lu19  1  0.301988  0.003435  0.250000  1
  Sn  Sn20  1  0.294279  0.036578  0.042208  1
  Sn  Sn21  1  0.794279  0.463422  0.457792  1
  Sn  Sn22  1  0.705665  0.963207  0.541564  1
  Sn  Sn23  1  0.205665  0.536793  0.958436  1
  Sn  Sn24  1  0.705665  0.963207  0.958436  1
  Sn  Sn25  1  0.205665  0.536793  0.541564  1
  Sn  Sn26  1  0.294279  0.036578  0.457792  1
  Sn  Sn27  1  0.794279  0.463422  0.042208  1
  Sn  Sn28  1  0.564640  0.619828  0.750000  1
  Sn  Sn29  1  0.064640  0.880172  0.750000  1
  Sn  Sn30  1  0.436340  0.380122  0.250000  1
  Sn  Sn31  1  0.936340  0.119878  0.250000  1
  Sn  Sn32  1  0.328888  0.146889  0.750000  1
  Sn  Sn33  1  0.828888  0.353111  0.750000  1
  Sn  Sn34  1  0.670652  0.851945  0.250000  1
  Sn  Sn35  1  0.170652  0.648055  0.250000  1
