# generated using pymatgen
data_La2Nd14Cd4Ir3Pd
_symmetry_space_group_name_H-M   'P 1'
_cell_length_a   9.98670198
_cell_length_b   9.98636922
_cell_length_c   9.98884377
_cell_angle_alpha   60.26700189
_cell_angle_beta   60.26769346
_cell_angle_gamma   60.24694371
_symmetry_Int_Tables_number   1
_chemical_formula_structural   La2Nd14Cd4Ir3Pd
_chemical_formula_sum   'La2 Nd14 Cd4 Ir3 Pd1'
_cell_volume   708.57137793
_cell_formula_units_Z   1
loop_
 _symmetry_equiv_pos_site_id
 _symmetry_equiv_pos_as_xyz
  1  'x, y, z'
loop_
 _atom_site_type_symbol
 _atom_site_label
 _atom_site_symmetry_multiplicity
 _atom_site_fract_x
 _atom_site_fract_y
 _atom_site_fract_z
 _atom_site_occupancy
  La  La0  1  0.345410  0.345416  0.347052  1
  La  La1  1  0.351822  0.351815  0.952323  1
  Nd  Nd2  1  0.352554  0.947463  0.353388  1
  Nd  Nd3  1  0.947459  0.352551  0.353382  1
  Nd  Nd4  1  0.805250  0.190540  0.189921  1
  Nd  Nd5  1  0.189177  0.811061  0.809449  1
  Nd  Nd6  1  0.190535  0.805250  0.189924  1
  Nd  Nd7  1  0.811058  0.189180  0.809447  1
  Nd  Nd8  1  0.189901  0.189881  0.805659  1
  Nd  Nd9  1  0.810341  0.810345  0.188910  1
  Nd  Nd10  1  0.939071  0.563057  0.562977  1
  Nd  Nd11  1  0.564012  0.937936  0.938012  1
  Nd  Nd12  1  0.563059  0.939058  0.562988  1
  Nd  Nd13  1  0.937937  0.564020  0.938014  1
  Nd  Nd14  1  0.563949  0.563945  0.938240  1
  Nd  Nd15  1  0.938395  0.938397  0.563522  1
  Cd  Cd16  1  0.581392  0.581389  0.579087  1
  Cd  Cd17  1  0.580610  0.580608  0.258958  1
  Cd  Cd18  1  0.581466  0.258624  0.579591  1
  Cd  Cd19  1  0.258624  0.581468  0.579586  1
  Ir  Ir20  1  0.141525  0.141534  0.573319  1
  Ir  Ir21  1  0.141273  0.573289  0.141229  1
  Ir  Ir22  1  0.573287  0.141269  0.141233  1
  Pd  Pd23  1  0.141888  0.141900  0.143785  1
