# generated using pymatgen
data_Tb4Dy6Sn5Sb
_symmetry_space_group_name_H-M   'P 1'
_cell_length_a   9.00048308
_cell_length_b   8.99196694
_cell_length_c   6.51412600
_cell_angle_alpha   90.00000000
_cell_angle_beta   90.00000000
_cell_angle_gamma   120.01598327
_symmetry_Int_Tables_number   1
_chemical_formula_structural   Tb4Dy6Sn5Sb
_chemical_formula_sum   'Tb4 Dy6 Sn5 Sb1'
_cell_volume   456.49638043
_cell_formula_units_Z   1
loop_
 _symmetry_equiv_pos_site_id
 _symmetry_equiv_pos_as_xyz
  1  'x, y, z'
loop_
 _atom_site_type_symbol
 _atom_site_label
 _atom_site_symmetry_multiplicity
 _atom_site_fract_x
 _atom_site_fract_y
 _atom_site_fract_z
 _atom_site_occupancy
  Tb  Tb0  1  0.998181  0.759991  0.750000  1
  Tb  Tb1  1  0.000658  0.239208  0.250000  1
  Tb  Tb2  1  0.761533  0.999976  0.750000  1
  Tb  Tb3  1  0.238244  0.240040  0.750000  1
  Dy  Dy4  1  0.761409  0.760716  0.250000  1
  Dy  Dy5  1  0.239188  0.999966  0.250000  1
  Dy  Dy6  1  0.333200  0.665782  0.499997  1
  Dy  Dy7  1  0.667410  0.334244  0.000007  1
  Dy  Dy8  1  0.667410  0.334244  0.499993  1
  Dy  Dy9  1  0.333200  0.665782  0.000003  1
  Sn  Sn10  1  0.395584  0.394923  0.250000  1
  Sn  Sn11  1  0.000598  0.605196  0.250000  1
  Sn  Sn12  1  0.999931  0.395531  0.750000  1
  Sn  Sn13  1  0.604403  0.604467  0.750000  1
  Sn  Sn14  1  0.605139  0.999940  0.250000  1
  Sb  Sb15  1  0.393911  0.999996  0.750000  1
