# generated using pymatgen
data_Er6Zn14Ru9
_symmetry_space_group_name_H-M   'P 1'
_cell_length_a   8.93646600
_cell_length_b   8.87282884
_cell_length_c   8.83471505
_cell_angle_alpha   119.63504652
_cell_angle_beta   90.00000000
_cell_angle_gamma   120.23753739
_symmetry_Int_Tables_number   1
_chemical_formula_structural   Er6Zn14Ru9
_chemical_formula_sum   'Er6 Zn14 Ru9'
_cell_volume   496.28107834
_cell_formula_units_Z   1
loop_
 _symmetry_equiv_pos_site_id
 _symmetry_equiv_pos_as_xyz
  1  'x, y, z'
loop_
 _atom_site_type_symbol
 _atom_site_label
 _atom_site_symmetry_multiplicity
 _atom_site_fract_x
 _atom_site_fract_y
 _atom_site_fract_z
 _atom_site_occupancy
  Er  Er0  1  0.214800  0.005158  0.211938  1
  Er  Er1  1  0.211883  0.423766  0.215544  1
  Er  Er2  1  0.790356  0.005158  0.211938  1
  Er  Er3  1  0.212352  0.001416  0.792831  1
  Er  Er4  1  0.787356  0.574715  0.783975  1
  Er  Er5  1  0.789063  0.001416  0.792832  1
  Zn  Zn6  1  0.829798  0.659596  0.169409  1
  Zn  Zn7  1  0.620081  0.240163  0.382377  1
  Zn  Zn8  1  0.138901  0.763532  0.383251  1
  Zn  Zn9  1  0.624631  0.763532  0.383251  1
  Zn  Zn10  1  0.828728  0.657455  0.483889  1
  Zn  Zn11  1  0.495129  0.990260  0.488872  1
  Zn  Zn12  1  0.170542  0.341085  0.510577  1
  Zn  Zn13  1  0.377547  0.247644  0.625952  1
  Zn  Zn14  1  0.376630  0.753260  0.626250  1
  Zn  Zn15  1  0.870097  0.247644  0.625953  1
  Zn  Zn16  1  0.168273  0.336546  0.827394  1
  Zn  Zn17  1  0.166605  0.660151  0.828852  1
  Zn  Zn18  1  0.493544  0.660151  0.828852  1
  Zn  Zn19  1  0.618791  0.237582  0.854462  1
  Ru  Ru20  1  0.501504  0.003011  0.008843  1
  Ru  Ru21  1  0.006589  0.497096  0.011113  1
  Ru  Ru22  1  0.490507  0.497096  0.011113  1
  Ru  Ru23  1  0.372579  0.745157  0.116308  1
  Ru  Ru24  1  0.527756  0.351338  0.171126  1
  Ru  Ru25  1  0.823582  0.351338  0.171126  1
  Ru  Ru26  1  0.000704  0.001408  0.499899  1
  Ru  Ru27  1  0.995157  0.491660  0.491030  1
  Ru  Ru28  1  0.496502  0.491660  0.491030  1
