# generated using pymatgen
data_Dy3Y3(Er2Sb3)2
_symmetry_space_group_name_H-M   'P 1'
_cell_length_a   6.24959600
_cell_length_b   8.97354243
_cell_length_c   8.97291701
_cell_angle_alpha   120.00230773
_cell_angle_beta   89.99884130
_cell_angle_gamma   90.00230989
_symmetry_Int_Tables_number   1
_chemical_formula_structural   Dy3Y3(Er2Sb3)2
_chemical_formula_sum   'Dy3 Y3 Er4 Sb6'
_cell_volume   435.78276176
_cell_formula_units_Z   1
loop_
 _symmetry_equiv_pos_site_id
 _symmetry_equiv_pos_as_xyz
  1  'x, y, z'
loop_
 _atom_site_type_symbol
 _atom_site_label
 _atom_site_symmetry_multiplicity
 _atom_site_fract_x
 _atom_site_fract_y
 _atom_site_fract_z
 _atom_site_occupancy
  Dy  Dy0  1  0.750004  0.247193  0.000000  1
  Dy  Dy1  1  0.749998  0.752844  0.752830  1
  Dy  Dy2  1  0.749998  0.000014  0.247170  1
  Y  Y3  1  0.250003  0.752710  0.000000  1
  Y  Y4  1  0.250000  0.247240  0.247264  1
  Y  Y5  1  0.250000  0.999976  0.752736  1
  Er  Er6  1  0.500170  0.333353  0.666691  1
  Er  Er7  1  0.500170  0.666662  0.333309  1
  Er  Er8  1  0.999814  0.666657  0.333281  1
  Er  Er9  1  0.999814  0.333377  0.666719  1
  Sb  Sb10  1  0.750005  0.610879  0.000000  1
  Sb  Sb11  1  0.750005  0.389127  0.389130  1
  Sb  Sb12  1  0.750005  0.999997  0.610870  1
  Sb  Sb13  1  0.250005  0.389118  0.000000  1
  Sb  Sb14  1  0.250007  0.610860  0.610866  1
  Sb  Sb15  1  0.250007  0.999995  0.389134  1
