# generated using pymatgen
data_La2Mg2CdAu9
_symmetry_space_group_name_H-M   'P 1'
_cell_length_a   5.84367712
_cell_length_b   5.84367770
_cell_length_c   10.20923500
_cell_angle_alpha   90.00000000
_cell_angle_beta   90.00000000
_cell_angle_gamma   123.10579260
_symmetry_Int_Tables_number   1
_chemical_formula_structural   La2Mg2CdAu9
_chemical_formula_sum   'La2 Mg2 Cd1 Au9'
_cell_volume   292.03523910
_cell_formula_units_Z   1
loop_
 _symmetry_equiv_pos_site_id
 _symmetry_equiv_pos_as_xyz
  1  'x, y, z'
loop_
 _atom_site_type_symbol
 _atom_site_label
 _atom_site_symmetry_multiplicity
 _atom_site_fract_x
 _atom_site_fract_y
 _atom_site_fract_z
 _atom_site_occupancy
  La  La0  1  0.000000  0.500000  0.756376  1
  La  La1  1  0.500000  0.000000  0.243624  1
  Mg  Mg2  1  0.000000  0.000000  0.500000  1
  Mg  Mg3  1  0.000000  0.000000  0.000000  1
  Cd  Cd4  1  0.500000  0.500000  0.500000  1
  Au  Au5  1  0.000000  0.500000  0.057446  1
  Au  Au6  1  0.500000  0.000000  0.548078  1
  Au  Au7  1  0.500000  0.000000  0.942554  1
  Au  Au8  1  0.000000  0.500000  0.451922  1
  Au  Au9  1  0.702723  0.809020  0.746801  1
  Au  Au10  1  0.190980  0.297277  0.253199  1
  Au  Au11  1  0.809020  0.702723  0.253199  1
  Au  Au12  1  0.297277  0.190980  0.746801  1
  Au  Au13  1  0.500000  0.500000  0.000000  1
