# generated using pymatgen
data_La5SmIn8HgGe
_symmetry_space_group_name_H-M   'P 1'
_cell_length_a   8.69011957
_cell_length_b   8.69011952
_cell_length_c   8.69011971
_cell_angle_alpha   119.87407149
_cell_angle_beta   119.87408445
_cell_angle_gamma   90.21825366
_symmetry_Int_Tables_number   1
_chemical_formula_structural   La5SmIn8HgGe
_chemical_formula_sum   'La5 Sm1 In8 Hg1 Ge1'
_cell_volume   464.92683927
_cell_formula_units_Z   1
loop_
 _symmetry_equiv_pos_site_id
 _symmetry_equiv_pos_as_xyz
  1  'x, y, z'
loop_
 _atom_site_type_symbol
 _atom_site_label
 _atom_site_symmetry_multiplicity
 _atom_site_fract_x
 _atom_site_fract_y
 _atom_site_fract_z
 _atom_site_occupancy
  La  La0  1  0.237952  0.237952  0.000000  1
  La  La1  1  0.323452  0.852724  0.177615  1
  La  La2  1  0.675108  0.145836  0.822385  1
  La  La3  1  0.852724  0.675108  0.529271  1
  La  La4  1  0.145836  0.323452  0.470729  1
  Sm  Sm5  1  0.764304  0.764304  0.000000  1
  In  In6  1  0.964612  0.452109  0.787435  1
  In  In7  1  0.664674  0.177177  0.212565  1
  In  In8  1  0.452109  0.664674  0.487498  1
  In  In9  1  0.177177  0.964612  0.512502  1
  In  In10  1  0.030710  0.548434  0.210273  1
  In  In11  1  0.338161  0.820437  0.789727  1
  In  In12  1  0.548434  0.338161  0.517723  1
  In  In13  1  0.820437  0.030710  0.482277  1
  Hg  Hg14  1  0.506336  0.506336  0.000000  1
  Ge  Ge15  1  0.997975  0.997975  0.000000  1
