# generated using pymatgen
data_LaGd2TcO7
_symmetry_space_group_name_H-M   'P 1'
_cell_length_a   6.55252282
_cell_length_b   6.55252150
_cell_length_c   7.66579900
_cell_angle_alpha   90.00000000
_cell_angle_beta   90.00000000
_cell_angle_gamma   109.29046975
_symmetry_Int_Tables_number   1
_chemical_formula_structural   LaGd2TcO7
_chemical_formula_sum   'La2 Gd4 Tc2 O14'
_cell_volume   310.65627216
_cell_formula_units_Z   2
loop_
 _symmetry_equiv_pos_site_id
 _symmetry_equiv_pos_as_xyz
  1  'x, y, z'
loop_
 _atom_site_type_symbol
 _atom_site_label
 _atom_site_symmetry_multiplicity
 _atom_site_fract_x
 _atom_site_fract_y
 _atom_site_fract_z
 _atom_site_occupancy
  La  La0  1  0.500000  0.500000  0.500000  1
  La  La1  1  0.500000  0.500000  0.000000  1
  Gd  Gd2  1  0.534956  0.999879  0.750000  1
  Gd  Gd3  1  0.999879  0.534956  0.250000  1
  Gd  Gd4  1  0.465044  0.000121  0.250000  1
  Gd  Gd5  1  0.000121  0.465044  0.750000  1
  Tc  Tc6  1  0.000000  0.000000  0.500000  1
  Tc  Tc7  1  0.000000  0.000000  0.000000  1
  O  O8  1  0.684645  0.933015  0.470425  1
  O  O9  1  0.933015  0.684645  0.529575  1
  O  O10  1  0.684645  0.933015  0.029575  1
  O  O11  1  0.933015  0.684645  0.970425  1
  O  O12  1  0.315355  0.066985  0.529575  1
  O  O13  1  0.066985  0.315355  0.470425  1
  O  O14  1  0.315355  0.066985  0.970425  1
  O  O15  1  0.066985  0.315355  0.029575  1
  O  O16  1  0.364437  0.635563  0.750000  1
  O  O17  1  0.635563  0.364437  0.250000  1
  O  O18  1  0.640308  0.359692  0.750000  1
  O  O19  1  0.359692  0.640308  0.250000  1
  O  O20  1  0.936667  0.063333  0.750000  1
  O  O21  1  0.063333  0.936667  0.250000  1
