# generated using pymatgen
data_Ba4ScOsWO12
_symmetry_space_group_name_H-M   'P 1'
_cell_length_a   10.04478651
_cell_length_b   10.04478653
_cell_length_c   10.04478645
_cell_angle_alpha   33.72423067
_cell_angle_beta   33.72423201
_cell_angle_gamma   33.72422084
_symmetry_Int_Tables_number   1
_chemical_formula_structural   Ba4ScOsWO12
_chemical_formula_sum   'Ba4 Sc1 Os1 W1 O12'
_cell_volume   278.34118630
_cell_formula_units_Z   1
loop_
 _symmetry_equiv_pos_site_id
 _symmetry_equiv_pos_as_xyz
  1  'x, y, z'
loop_
 _atom_site_type_symbol
 _atom_site_label
 _atom_site_symmetry_multiplicity
 _atom_site_fract_x
 _atom_site_fract_y
 _atom_site_fract_z
 _atom_site_occupancy
  Ba  Ba0  1  0.708844  0.708844  0.708844  1
  Ba  Ba1  1  0.289030  0.289030  0.289030  1
  Ba  Ba2  1  0.868439  0.868439  0.868439  1
  Ba  Ba3  1  0.134747  0.134747  0.134747  1
  Sc  Sc4  1  0.998167  0.998167  0.998167  1
  Os  Os5  1  0.418442  0.418442  0.418442  1
  W  W6  1  0.579819  0.579819  0.579819  1
  O  O7  1  0.385890  0.385890  0.865795  1
  O  O8  1  0.865795  0.385890  0.385890  1
  O  O9  1  0.385890  0.865795  0.385890  1
  O  O10  1  0.609066  0.609066  0.142060  1
  O  O11  1  0.142060  0.609066  0.609066  1
  O  O12  1  0.609066  0.142060  0.609066  1
  O  O13  1  0.218915  0.218915  0.692821  1
  O  O14  1  0.692821  0.218915  0.218915  1
  O  O15  1  0.218915  0.692821  0.218915  1
  O  O16  1  0.785388  0.785388  0.303317  1
  O  O17  1  0.303317  0.785388  0.785388  1
  O  O18  1  0.785388  0.303317  0.785388  1
