# generated using pymatgen
data_Ce5Zn2Ir3
_symmetry_space_group_name_H-M   'P 1'
_cell_length_a   8.43595311
_cell_length_b   8.43595207
_cell_length_c   8.43595200
_cell_angle_alpha   109.47122046
_cell_angle_beta   109.47121796
_cell_angle_gamma   109.47122241
_symmetry_Int_Tables_number   1
_chemical_formula_structural   Ce5Zn2Ir3
_chemical_formula_sum   'Ce10 Zn4 Ir6'
_cell_volume   462.14735927
_cell_formula_units_Z   2
loop_
 _symmetry_equiv_pos_site_id
 _symmetry_equiv_pos_as_xyz
  1  'x, y, z'
loop_
 _atom_site_type_symbol
 _atom_site_label
 _atom_site_symmetry_multiplicity
 _atom_site_fract_x
 _atom_site_fract_y
 _atom_site_fract_z
 _atom_site_occupancy
  Ce  Ce0  1  0.767135  0.767135  0.767135  1
  Ce  Ce1  1  0.316374  0.566374  0.750000  1
  Ce  Ce2  1  0.750000  0.316374  0.566374  1
  Ce  Ce3  1  0.566374  0.750000  0.316374  1
  Ce  Ce4  1  0.732865  0.500000  0.000000  1
  Ce  Ce5  1  0.000000  0.732865  0.500000  1
  Ce  Ce6  1  0.500000  0.000000  0.732865  1
  Ce  Ce7  1  0.250000  0.183626  0.933626  1
  Ce  Ce8  1  0.933626  0.250000  0.183626  1
  Ce  Ce9  1  0.183626  0.933626  0.250000  1
  Zn  Zn10  1  0.389025  0.389025  0.389025  1
  Zn  Zn11  1  0.110975  0.500000  0.000000  1
  Zn  Zn12  1  0.000000  0.110975  0.500000  1
  Zn  Zn13  1  0.500000  0.000000  0.110975  1
  Ir  Ir14  1  0.863936  0.113936  0.750000  1
  Ir  Ir15  1  0.750000  0.863936  0.113936  1
  Ir  Ir16  1  0.113936  0.750000  0.863936  1
  Ir  Ir17  1  0.250000  0.636064  0.386064  1
  Ir  Ir18  1  0.386064  0.250000  0.636064  1
  Ir  Ir19  1  0.636064  0.386064  0.250000  1
