# generated using pymatgen
data_TcRuF7
_symmetry_space_group_name_H-M   'P 1'
_cell_length_a   7.55319808
_cell_length_b   7.55319821
_cell_length_c   7.55319811
_cell_angle_alpha   122.56978223
_cell_angle_beta   121.10020594
_cell_angle_gamma   86.85501345
_symmetry_Int_Tables_number   1
_chemical_formula_structural   TcRuF7
_chemical_formula_sum   'Tc2 Ru2 F14'
_cell_volume   295.70252162
_cell_formula_units_Z   2
loop_
 _symmetry_equiv_pos_site_id
 _symmetry_equiv_pos_as_xyz
  1  'x, y, z'
loop_
 _atom_site_type_symbol
 _atom_site_label
 _atom_site_symmetry_multiplicity
 _atom_site_fract_x
 _atom_site_fract_y
 _atom_site_fract_z
 _atom_site_occupancy
  Tc  Tc0  1  0.000000  0.500000  0.500000  1
  Tc  Tc1  1  0.500000  0.000000  0.500000  1
  Ru  Ru2  1  0.500000  0.500000  0.500000  1
  Ru  Ru3  1  0.000000  0.500000  0.000000  1
  F  F4  1  0.049997  0.800927  0.750929  1
  F  F5  1  0.566671  0.819812  0.632965  1
  F  F6  1  0.186847  0.819812  0.253141  1
  F  F7  1  0.549997  0.799068  0.249071  1
  F  F8  1  0.250000  0.394710  0.144710  1
  F  F9  1  0.066671  0.433706  0.746859  1
  F  F10  1  0.686847  0.433706  0.367035  1
  F  F11  1  0.313153  0.566294  0.632965  1
  F  F12  1  0.933329  0.566294  0.253141  1
  F  F13  1  0.750000  0.605290  0.855290  1
  F  F14  1  0.450003  0.200932  0.750929  1
  F  F15  1  0.813153  0.180188  0.746859  1
  F  F16  1  0.433329  0.180188  0.367035  1
  F  F17  1  0.950003  0.199073  0.249071  1
