# generated using pymatgen
data_UCl3O
_symmetry_space_group_name_H-M   'P 1'
_cell_length_a   12.40999700
_cell_length_b   12.40999700
_cell_length_c   4.11810100
_cell_angle_alpha   90.00000000
_cell_angle_beta   90.00000000
_cell_angle_gamma   90.00000000
_symmetry_Int_Tables_number   1
_chemical_formula_structural   UCl3O
_chemical_formula_sum   'U4 Cl12 O4'
_cell_volume   634.22060398
_cell_formula_units_Z   4
loop_
 _symmetry_equiv_pos_site_id
 _symmetry_equiv_pos_as_xyz
  1  'x, y, z'
loop_
 _atom_site_type_symbol
 _atom_site_label
 _atom_site_symmetry_multiplicity
 _atom_site_fract_x
 _atom_site_fract_y
 _atom_site_fract_z
 _atom_site_occupancy
  U  U0  1  0.621092  0.878908  0.740945  1
  U  U1  1  0.121092  0.621092  0.259055  1
  U  U2  1  0.378908  0.121092  0.740945  1
  U  U3  1  0.878908  0.378908  0.259055  1
  Cl  Cl4  1  0.098865  0.401135  0.256403  1
  Cl  Cl5  1  0.820982  0.894385  0.744043  1
  Cl  Cl6  1  0.179018  0.105615  0.744043  1
  Cl  Cl7  1  0.401135  0.901135  0.743597  1
  Cl  Cl8  1  0.901135  0.598865  0.256403  1
  Cl  Cl9  1  0.605615  0.679018  0.744043  1
  Cl  Cl10  1  0.394385  0.320982  0.744043  1
  Cl  Cl11  1  0.894385  0.179018  0.255957  1
  Cl  Cl12  1  0.598865  0.098865  0.743597  1
  Cl  Cl13  1  0.679018  0.394385  0.255957  1
  Cl  Cl14  1  0.320982  0.605615  0.255957  1
  Cl  Cl15  1  0.105615  0.820982  0.255957  1
  O  O16  1  0.115528  0.615528  0.758883  1
  O  O17  1  0.615528  0.884472  0.241117  1
  O  O18  1  0.384472  0.115528  0.241117  1
  O  O19  1  0.884472  0.384472  0.758883  1
