# generated using pymatgen
data_SmDy19Ir12
_symmetry_space_group_name_H-M   'P 1'
_cell_length_a   10.91047933
_cell_length_b   10.90837327
_cell_length_c   6.37711230
_cell_angle_alpha   89.97637576
_cell_angle_beta   90.02630339
_cell_angle_gamma   90.00997093
_symmetry_Int_Tables_number   1
_chemical_formula_structural   SmDy19Ir12
_chemical_formula_sum   'Sm1 Dy19 Ir12'
_cell_volume   758.97557061
_cell_formula_units_Z   1
loop_
 _symmetry_equiv_pos_site_id
 _symmetry_equiv_pos_as_xyz
  1  'x, y, z'
loop_
 _atom_site_type_symbol
 _atom_site_label
 _atom_site_symmetry_multiplicity
 _atom_site_fract_x
 _atom_site_fract_y
 _atom_site_fract_z
 _atom_site_occupancy
  Sm  Sm0  1  0.289930  0.088786  0.377082  1
  Dy  Dy1  1  0.291598  0.911043  0.878458  1
  Dy  Dy2  1  0.708515  0.088424  0.878655  1
  Dy  Dy3  1  0.708644  0.911497  0.378627  1
  Dy  Dy4  1  0.588519  0.791391  0.878494  1
  Dy  Dy5  1  0.589181  0.208768  0.378447  1
  Dy  Dy6  1  0.411846  0.790882  0.378607  1
  Dy  Dy7  1  0.412129  0.208823  0.878460  1
  Dy  Dy8  1  0.208481  0.411885  0.621663  1
  Dy  Dy9  1  0.208542  0.588399  0.121415  1
  Dy  Dy10  1  0.791437  0.411697  0.121387  1
  Dy  Dy11  1  0.791480  0.588347  0.621287  1
  Dy  Dy12  1  0.911648  0.708558  0.121417  1
  Dy  Dy13  1  0.911533  0.291447  0.621307  1
  Dy  Dy14  1  0.088296  0.708466  0.621460  1
  Dy  Dy15  1  0.087764  0.291887  0.120786  1
  Dy  Dy16  1  0.999212  0.999665  0.500473  1
  Dy  Dy17  1  0.999870  0.999945  0.000067  1
  Dy  Dy18  1  0.500018  0.500031  0.000038  1
  Dy  Dy19  1  0.500172  0.500041  0.500254  1
  Ir  Ir20  1  0.846536  0.153505  0.250113  1
  Ir  Ir21  1  0.846556  0.846544  0.749945  1
  Ir  Ir22  1  0.152620  0.153976  0.752631  1
  Ir  Ir23  1  0.152963  0.845462  0.249331  1
  Ir  Ir24  1  0.653453  0.346536  0.750041  1
  Ir  Ir25  1  0.653401  0.653510  0.249987  1
  Ir  Ir26  1  0.346850  0.347977  0.249308  1
  Ir  Ir27  1  0.346515  0.653499  0.749918  1
  Ir  Ir28  1  0.501102  0.999470  0.122807  1
  Ir  Ir29  1  0.501308  0.999494  0.625096  1
  Ir  Ir30  1  0.999938  0.499982  0.876244  1
  Ir  Ir31  1  0.999941  0.500066  0.376198  1
