# generated using pymatgen
data_Ho2Ga2CoNi5B2
_symmetry_space_group_name_H-M   'P 1'
_cell_length_a   5.16760520
_cell_length_b   5.17011121
_cell_length_c   6.74361900
_cell_angle_alpha   90.00000000
_cell_angle_beta   90.00000000
_cell_angle_gamma   120.01603585
_symmetry_Int_Tables_number   1
_chemical_formula_structural   Ho2Ga2CoNi5B2
_chemical_formula_sum   'Ho2 Ga2 Co1 Ni5 B2'
_cell_volume   156.00649147
_cell_formula_units_Z   1
loop_
 _symmetry_equiv_pos_site_id
 _symmetry_equiv_pos_as_xyz
  1  'x, y, z'
loop_
 _atom_site_type_symbol
 _atom_site_label
 _atom_site_symmetry_multiplicity
 _atom_site_fract_x
 _atom_site_fract_y
 _atom_site_fract_z
 _atom_site_occupancy
  Ho  Ho0  1  0.000000  0.000000  0.489899  1
  Ho  Ho1  1  0.000000  0.000000  0.997919  1
  Ga  Ga2  1  0.328188  0.664095  0.501268  1
  Ga  Ga3  1  0.671812  0.335905  0.501268  1
  Co  Co4  1  0.000000  0.500000  0.201970  1
  Ni  Ni5  1  0.500000  0.000000  0.795503  1
  Ni  Ni6  1  0.500000  0.500000  0.795503  1
  Ni  Ni7  1  0.000000  0.500000  0.800696  1
  Ni  Ni8  1  0.500000  0.000000  0.205509  1
  Ni  Ni9  1  0.500000  0.500000  0.205509  1
  B  B10  1  0.331365  0.665683  0.002479  1
  B  B11  1  0.668635  0.334317  0.002479  1
