# generated using pymatgen
data_Er5In4AgRu
_symmetry_space_group_name_H-M   'P 1'
_cell_length_a   3.59147000
_cell_length_b   8.15011414
_cell_length_c   18.30744648
_cell_angle_alpha   89.95976693
_cell_angle_beta   90.00000000
_cell_angle_gamma   90.00000000
_symmetry_Int_Tables_number   1
_chemical_formula_structural   Er5In4AgRu
_chemical_formula_sum   'Er10 In8 Ag2 Ru2'
_cell_volume   535.87512743
_cell_formula_units_Z   2
loop_
 _symmetry_equiv_pos_site_id
 _symmetry_equiv_pos_as_xyz
  1  'x, y, z'
loop_
 _atom_site_type_symbol
 _atom_site_label
 _atom_site_symmetry_multiplicity
 _atom_site_fract_x
 _atom_site_fract_y
 _atom_site_fract_z
 _atom_site_occupancy
  Er  Er0  1  0.000000  0.123306  0.421331  1
  Er  Er1  1  0.000000  0.876694  0.578669  1
  Er  Er2  1  0.000000  0.383533  0.913805  1
  Er  Er3  1  0.000000  0.616467  0.086195  1
  Er  Er4  1  0.000000  0.266383  0.216330  1
  Er  Er5  1  0.000000  0.733617  0.783670  1
  Er  Er6  1  0.000000  0.282707  0.722835  1
  Er  Er7  1  0.000000  0.717293  0.277165  1
  Er  Er8  1  0.000000  0.000000  0.000000  1
  Er  Er9  1  0.000000  0.500000  0.500000  1
  In  In10  1  0.500000  0.423313  0.350722  1
  In  In11  1  0.500000  0.576687  0.649278  1
  In  In12  1  0.500000  0.077360  0.851633  1
  In  In13  1  0.500000  0.922640  0.148367  1
  In  In14  1  0.500000  0.293955  0.067778  1
  In  In15  1  0.500000  0.706045  0.932222  1
  In  In16  1  0.500000  0.208679  0.568205  1
  In  In17  1  0.500000  0.791321  0.431795  1
  Ag  Ag18  1  0.500000  0.023144  0.301455  1
  Ag  Ag19  1  0.500000  0.976856  0.698545  1
  Ru  Ru20  1  0.500000  0.476178  0.804685  1
  Ru  Ru21  1  0.500000  0.523822  0.195315  1
