# generated using pymatgen
data_Y7Er(MoI4)2
_symmetry_space_group_name_H-M   'P 1'
_cell_length_a   11.39484916
_cell_length_b   11.39260153
_cell_length_c   5.99152409
_cell_angle_alpha   90.38244488
_cell_angle_beta   90.39419473
_cell_angle_gamma   90.02896115
_symmetry_Int_Tables_number   1
_chemical_formula_structural   Y7Er(MoI4)2
_chemical_formula_sum   'Y7 Er1 Mo2 I8'
_cell_volume   777.76568598
_cell_formula_units_Z   1
loop_
 _symmetry_equiv_pos_site_id
 _symmetry_equiv_pos_as_xyz
  1  'x, y, z'
loop_
 _atom_site_type_symbol
 _atom_site_label
 _atom_site_symmetry_multiplicity
 _atom_site_fract_x
 _atom_site_fract_y
 _atom_site_fract_z
 _atom_site_occupancy
  Y  Y0  1  0.207105  0.914621  0.002733  1
  Y  Y1  1  0.792648  0.084773  0.997254  1
  Y  Y2  1  0.084315  0.792185  0.497310  1
  Y  Y3  1  0.915102  0.206622  0.502741  1
  Y  Y4  1  0.792846  0.914058  0.496445  1
  Y  Y5  1  0.206689  0.084720  0.503555  1
  Y  Y6  1  0.084906  0.206949  0.003553  1
  Er  Er7  1  0.916640  0.797107  0.996651  1
  Mo  Mo8  1  0.999644  0.000109  0.249792  1
  Mo  Mo9  1  0.000219  0.999519  0.750227  1
  I  I10  1  0.359358  0.848607  0.495126  1
  I  I11  1  0.640602  0.151339  0.504844  1
  I  I12  1  0.150653  0.640622  0.004877  1
  I  I13  1  0.848674  0.359292  0.995140  1
  I  I14  1  0.359297  0.151643  0.012973  1
  I  I15  1  0.641275  0.847926  0.987093  1
  I  I16  1  0.848358  0.640509  0.486708  1
  I  I17  1  0.151668  0.359398  0.512980  1
