# generated using pymatgen
data_Mo5WCl12
_symmetry_space_group_name_H-M   'P 1'
_cell_length_a   9.50441527
_cell_length_b   9.50441546
_cell_length_c   11.54944212
_cell_angle_alpha   89.99014438
_cell_angle_beta   90.00985356
_cell_angle_gamma   74.75213073
_symmetry_Int_Tables_number   1
_chemical_formula_structural   Mo5WCl12
_chemical_formula_sum   'Mo10 W2 Cl24'
_cell_volume   1006.57883947
_cell_formula_units_Z   2
loop_
 _symmetry_equiv_pos_site_id
 _symmetry_equiv_pos_as_xyz
  1  'x, y, z'
loop_
 _atom_site_type_symbol
 _atom_site_label
 _atom_site_symmetry_multiplicity
 _atom_site_fract_x
 _atom_site_fract_y
 _atom_site_fract_z
 _atom_site_occupancy
  Mo  Mo0  1  0.853517  0.146483  0.068823  1
  Mo  Mo1  1  0.068927  0.931073  0.146417  1
  Mo  Mo2  1  0.568006  0.431994  0.354439  1
  Mo  Mo3  1  0.354258  0.645742  0.432039  1
  Mo  Mo4  1  0.376534  0.376534  0.500000  1
  Mo  Mo5  1  0.623466  0.623466  0.500000  1
  Mo  Mo6  1  0.645742  0.354258  0.567961  1
  Mo  Mo7  1  0.431994  0.568006  0.645561  1
  Mo  Mo8  1  0.931073  0.068927  0.853583  1
  Mo  Mo9  1  0.146483  0.853517  0.931177  1
  W  W10  1  0.122370  0.122370  0.000000  1
  W  W11  1  0.877630  0.877630  0.000000  1
  Cl  Cl12  1  0.280234  0.280234  0.000000  1
  Cl  Cl13  1  0.719766  0.719766  0.000000  1
  Cl  Cl14  1  0.086007  0.679825  0.073432  1
  Cl  Cl15  1  0.320175  0.913993  0.073432  1
  Cl  Cl16  1  0.649340  0.350659  0.150869  1
  Cl  Cl17  1  0.043587  0.190489  0.202907  1
  Cl  Cl18  1  0.809511  0.956413  0.202907  1
  Cl  Cl19  1  0.309698  0.458007  0.297145  1
  Cl  Cl20  1  0.541993  0.690301  0.297145  1
  Cl  Cl21  1  0.150724  0.849276  0.350499  1
  Cl  Cl22  1  0.586843  0.180869  0.425995  1
  Cl  Cl23  1  0.819131  0.413157  0.425995  1
  Cl  Cl24  1  0.218253  0.218253  0.500000  1
  Cl  Cl25  1  0.781747  0.781747  0.500000  1
  Cl  Cl26  1  0.180869  0.586843  0.574005  1
  Cl  Cl27  1  0.413157  0.819131  0.574005  1
  Cl  Cl28  1  0.849276  0.150724  0.649501  1
  Cl  Cl29  1  0.458007  0.309698  0.702854  1
  Cl  Cl30  1  0.690301  0.541993  0.702854  1
  Cl  Cl31  1  0.190489  0.043587  0.797092  1
  Cl  Cl32  1  0.956413  0.809511  0.797092  1
  Cl  Cl33  1  0.350659  0.649340  0.849131  1
  Cl  Cl34  1  0.679825  0.086007  0.926568  1
  Cl  Cl35  1  0.913993  0.320175  0.926568  1
