# generated using pymatgen
data_Ho9Er(InBi)3
_symmetry_space_group_name_H-M   'P 1'
_cell_length_a   9.02849200
_cell_length_b   9.02849386
_cell_length_c   6.53831100
_cell_angle_alpha   90.00000000
_cell_angle_beta   90.00000000
_cell_angle_gamma   120.00000051
_symmetry_Int_Tables_number   1
_chemical_formula_structural   Ho9Er(InBi)3
_chemical_formula_sum   'Ho9 Er1 In3 Bi3'
_cell_volume   461.55847347
_cell_formula_units_Z   1
loop_
 _symmetry_equiv_pos_site_id
 _symmetry_equiv_pos_as_xyz
  1  'x, y, z'
loop_
 _atom_site_type_symbol
 _atom_site_label
 _atom_site_symmetry_multiplicity
 _atom_site_fract_x
 _atom_site_fract_y
 _atom_site_fract_z
 _atom_site_occupancy
  Ho  Ho0  1  0.666667  0.333333  0.007192  1
  Ho  Ho1  1  0.333333  0.666667  0.007211  1
  Ho  Ho2  1  0.333333  0.666667  0.492825  1
  Ho  Ho3  1  0.763704  0.763690  0.749984  1
  Ho  Ho4  1  0.236310  0.000014  0.749984  1
  Ho  Ho5  1  0.999986  0.236296  0.749984  1
  Ho  Ho6  1  0.238054  0.238027  0.250020  1
  Ho  Ho7  1  0.761973  0.000026  0.250020  1
  Ho  Ho8  1  0.999974  0.761946  0.250020  1
  Er  Er9  1  0.666667  0.333333  0.492690  1
  In  In10  1  0.606572  0.606511  0.250069  1
  In  In11  1  0.393489  0.000060  0.250069  1
  In  In12  1  0.999940  0.393428  0.250069  1
  Bi  Bi13  1  0.396018  0.395935  0.749954  1
  Bi  Bi14  1  0.604065  0.000084  0.749954  1
  Bi  Bi15  1  0.999916  0.603982  0.749954  1
