# generated using pymatgen
data_HfNb5(B2Ru5)2
_symmetry_space_group_name_H-M   'P 1'
_cell_length_a   9.47977308
_cell_length_b   9.47977308
_cell_length_c   3.04131000
_cell_angle_alpha   90.00000000
_cell_angle_beta   90.00000000
_cell_angle_gamma   89.94528968
_symmetry_Int_Tables_number   1
_chemical_formula_structural   HfNb5(B2Ru5)2
_chemical_formula_sum   'Hf1 Nb5 B4 Ru10'
_cell_volume   273.31053686
_cell_formula_units_Z   1
loop_
 _symmetry_equiv_pos_site_id
 _symmetry_equiv_pos_as_xyz
  1  'x, y, z'
loop_
 _atom_site_type_symbol
 _atom_site_label
 _atom_site_symmetry_multiplicity
 _atom_site_fract_x
 _atom_site_fract_y
 _atom_site_fract_z
 _atom_site_occupancy
  Hf  Hf0  1  0.824346  0.675654  0.000000  1
  Nb  Nb1  1  0.175818  0.324182  0.000000  1
  Nb  Nb2  1  0.323974  0.823151  0.000000  1
  Nb  Nb3  1  0.676849  0.176026  0.000000  1
  Nb  Nb4  1  0.499782  0.500058  0.000000  1
  Nb  Nb5  1  0.999942  0.000218  0.000000  1
  B  B6  1  0.620969  0.879031  0.000000  1
  B  B7  1  0.378618  0.121382  0.000000  1
  B  B8  1  0.121111  0.621509  0.000000  1
  B  B9  1  0.878491  0.378889  0.000000  1
  Ru  Ru10  1  0.568385  0.719680  0.500000  1
  Ru  Ru11  1  0.428530  0.281151  0.500000  1
  Ru  Ru12  1  0.073547  0.781894  0.500000  1
  Ru  Ru13  1  0.929213  0.218551  0.500000  1
  Ru  Ru14  1  0.281449  0.570787  0.500000  1
  Ru  Ru15  1  0.718106  0.426453  0.500000  1
  Ru  Ru16  1  0.218849  0.071470  0.500000  1
  Ru  Ru17  1  0.780320  0.931615  0.500000  1
  Ru  Ru18  1  0.499460  0.000540  0.500000  1
  Ru  Ru19  1  0.002241  0.497759  0.500000  1
