# generated using pymatgen
data_CeTh3(NiB10)2
_symmetry_space_group_name_H-M   'P 1'
_cell_length_a   4.17297500
_cell_length_b   5.63274516
_cell_length_c   11.18587033
_cell_angle_alpha   89.92616000
_cell_angle_beta   90.00000000
_cell_angle_gamma   90.00000000
_symmetry_Int_Tables_number   1
_chemical_formula_structural   CeTh3(NiB10)2
_chemical_formula_sum   'Ce1 Th3 Ni2 B20'
_cell_volume   262.92707274
_cell_formula_units_Z   1
loop_
 _symmetry_equiv_pos_site_id
 _symmetry_equiv_pos_as_xyz
  1  'x, y, z'
loop_
 _atom_site_type_symbol
 _atom_site_label
 _atom_site_symmetry_multiplicity
 _atom_site_fract_x
 _atom_site_fract_y
 _atom_site_fract_z
 _atom_site_occupancy
  Ce  Ce0  1  0.500000  0.189114  0.362042  1
  Th  Th1  1  0.500000  0.307988  0.863196  1
  Th  Th2  1  0.500000  0.691385  0.138263  1
  Th  Th3  1  0.500000  0.808522  0.635346  1
  Ni  Ni4  1  0.000000  0.500564  0.500005  1
  Ni  Ni5  1  0.000000  0.000162  0.000103  1
  B  B6  1  0.000000  0.126195  0.539952  1
  B  B7  1  0.000000  0.875880  0.458985  1
  B  B8  1  0.000000  0.625007  0.959363  1
  B  B9  1  0.000000  0.374902  0.041000  1
  B  B10  1  0.000000  0.154234  0.697091  1
  B  B11  1  0.000000  0.845874  0.302817  1
  B  B12  1  0.300445  0.201099  0.114534  1
  B  B13  1  0.300481  0.799166  0.886047  1
  B  B14  1  0.699501  0.701479  0.386257  1
  B  B15  1  0.699541  0.299137  0.613439  1
  B  B16  1  0.699519  0.799166  0.886047  1
  B  B17  1  0.699555  0.201099  0.114534  1
  B  B18  1  0.300459  0.299137  0.613439  1
  B  B19  1  0.300499  0.701479  0.386257  1
  B  B20  1  0.000000  0.034634  0.188687  1
  B  B21  1  0.000000  0.965249  0.811472  1
  B  B22  1  0.000000  0.533797  0.312329  1
  B  B23  1  0.000000  0.465256  0.688196  1
  B  B24  1  0.000000  0.345407  0.198186  1
  B  B25  1  0.000000  0.654070  0.802413  1
