# generated using pymatgen
data_LaY5HoP12Pd17
_symmetry_space_group_name_H-M   'P 1'
_cell_length_a   12.34670053
_cell_length_b   12.34670135
_cell_length_c   13.60825031
_cell_angle_alpha   68.13381657
_cell_angle_beta   68.13381516
_cell_angle_gamma   18.75161553
_symmetry_Int_Tables_number   1
_chemical_formula_structural   LaY5HoP12Pd17
_chemical_formula_sum   'La1 Y5 Ho1 P12 Pd17'
_cell_volume   617.53015353
_cell_formula_units_Z   1
loop_
 _symmetry_equiv_pos_site_id
 _symmetry_equiv_pos_as_xyz
  1  'x, y, z'
loop_
 _atom_site_type_symbol
 _atom_site_label
 _atom_site_symmetry_multiplicity
 _atom_site_fract_x
 _atom_site_fract_y
 _atom_site_fract_z
 _atom_site_occupancy
  La  La0  1  0.582120  0.582120  0.738576  1
  Y  Y1  1  0.364599  0.364599  0.001547  1
  Y  Y2  1  0.634941  0.634941  0.000920  1
  Y  Y3  1  0.233928  0.233928  0.313113  1
  Y  Y4  1  0.766692  0.766692  0.685624  1
  Y  Y5  1  0.418305  0.418305  0.261088  1
  Ho  Ho6  1  0.500083  0.500083  0.499434  1
  P  P7  1  0.061933  0.061933  0.927335  1
  P  P8  1  0.937832  0.937832  0.076764  1
  P  P9  1  0.886885  0.886885  0.829366  1
  P  P10  1  0.113060  0.113060  0.170657  1
  P  P11  1  0.190295  0.190295  0.620862  1
  P  P12  1  0.811619  0.811619  0.377501  1
  P  P13  1  0.364980  0.364980  0.581032  1
  P  P14  1  0.635451  0.635451  0.418547  1
  P  P15  1  0.010516  0.010516  0.663318  1
  P  P16  1  0.987518  0.987518  0.331781  1
  P  P17  1  0.231830  0.231830  0.883423  1
  P  P18  1  0.768779  0.768779  0.118415  1
  Pd  Pd19  1  0.839233  0.839233  0.194123  1
  Pd  Pd20  1  0.162134  0.162134  0.807427  1
  Pd  Pd21  1  0.026203  0.026203  0.125274  1
  Pd  Pd22  1  0.971889  0.971889  0.878322  1
  Pd  Pd23  1  0.888580  0.888580  0.455727  1
  Pd  Pd24  1  0.111875  0.111875  0.539421  1
  Pd  Pd25  1  0.499425  0.499425  0.002555  1
  Pd  Pd26  1  0.545492  0.545492  0.255656  1
  Pd  Pd27  1  0.452561  0.452561  0.745733  1
  Pd  Pd28  1  0.296784  0.296784  0.489593  1
  Pd  Pd29  1  0.705157  0.705157  0.507828  1
  Pd  Pd30  1  0.667752  0.667752  0.225228  1
  Pd  Pd31  1  0.331950  0.331950  0.774583  1
  Pd  Pd32  1  0.909437  0.909437  0.639958  1
  Pd  Pd33  1  0.089923  0.089923  0.357938  1
  Pd  Pd34  1  0.216241  0.216241  0.069167  1
  Pd  Pd35  1  0.783998  0.783998  0.932161  1
