# generated using pymatgen
data_Eu10Ag3Hg2Ir
_symmetry_space_group_name_H-M   'P 1'
_cell_length_a   9.44945351
_cell_length_b   9.44945263
_cell_length_c   9.44821141
_cell_angle_alpha   128.11596315
_cell_angle_beta   128.11596828
_cell_angle_gamma   76.44680505
_symmetry_Int_Tables_number   1
_chemical_formula_structural   Eu10Ag3Hg2Ir
_chemical_formula_sum   'Eu10 Ag3 Hg2 Ir1'
_cell_volume   507.34819400
_cell_formula_units_Z   1
loop_
 _symmetry_equiv_pos_site_id
 _symmetry_equiv_pos_as_xyz
  1  'x, y, z'
loop_
 _atom_site_type_symbol
 _atom_site_label
 _atom_site_symmetry_multiplicity
 _atom_site_fract_x
 _atom_site_fract_y
 _atom_site_fract_z
 _atom_site_occupancy
  Eu  Eu0  1  0.489876  0.503501  0.993377  1
  Eu  Eu1  1  0.003501  0.989876  0.993377  1
  Eu  Eu2  1  0.523265  0.023265  0.834310  1
  Eu  Eu3  1  0.181502  0.681502  0.138142  1
  Eu  Eu4  1  0.026734  0.206923  0.514189  1
  Eu  Eu5  1  0.706923  0.526734  0.514189  1
  Eu  Eu6  1  0.456640  0.956640  0.138142  1
  Eu  Eu7  1  0.811045  0.311045  0.834310  1
  Eu  Eu8  1  0.987456  0.807266  0.514189  1
  Eu  Eu9  1  0.307266  0.487456  0.514189  1
  Ag  Ag10  1  0.873710  0.373710  0.247422  1
  Ag  Ag11  1  0.624833  0.874503  0.499336  1
  Ag  Ag12  1  0.374503  0.124833  0.499336  1
  Hg  Hg13  1  0.251964  0.251964  0.003928  1
  Hg  Hg14  1  0.751964  0.751964  0.003928  1
  Ir  Ir15  1  0.128818  0.628818  0.757635  1
