# generated using pymatgen
data_Mn3V4CoP4
_symmetry_space_group_name_H-M   'P 1'
_cell_length_a   3.47402300
_cell_length_b   5.90929782
_cell_length_c   6.84508121
_cell_angle_alpha   90.50953134
_cell_angle_beta   90.00000000
_cell_angle_gamma   90.00000000
_symmetry_Int_Tables_number   1
_chemical_formula_structural   Mn3V4CoP4
_chemical_formula_sum   'Mn3 V4 Co1 P4'
_cell_volume   140.51736552
_cell_formula_units_Z   1
loop_
 _symmetry_equiv_pos_site_id
 _symmetry_equiv_pos_as_xyz
  1  'x, y, z'
loop_
 _atom_site_type_symbol
 _atom_site_label
 _atom_site_symmetry_multiplicity
 _atom_site_fract_x
 _atom_site_fract_y
 _atom_site_fract_z
 _atom_site_occupancy
  Mn  Mn0  1  0.250000  0.144135  0.559665  1
  Mn  Mn1  1  0.250000  0.641361  0.942598  1
  Mn  Mn2  1  0.750000  0.856438  0.439109  1
  V  V3  1  0.250000  0.025477  0.171949  1
  V  V4  1  0.250000  0.534687  0.325890  1
  V  V5  1  0.750000  0.967334  0.828719  1
  V  V6  1  0.750000  0.473703  0.672034  1
  Co  Co7  1  0.750000  0.352949  0.060582  1
  P  P8  1  0.250000  0.765764  0.634040  1
  P  P9  1  0.250000  0.267369  0.874628  1
  P  P10  1  0.750000  0.238572  0.366261  1
  P  P11  1  0.750000  0.732212  0.124526  1
