# generated using pymatgen
data_LiCa2InPt2
_symmetry_space_group_name_H-M   'P 1'
_cell_length_a   4.28080400
_cell_length_b   7.25376700
_cell_length_c   8.44202900
_cell_angle_alpha   90.00000000
_cell_angle_beta   90.00000000
_cell_angle_gamma   90.00000000
_symmetry_Int_Tables_number   1
_chemical_formula_structural   LiCa2InPt2
_chemical_formula_sum   'Li2 Ca4 In2 Pt4'
_cell_volume   262.14150283
_cell_formula_units_Z   2
loop_
 _symmetry_equiv_pos_site_id
 _symmetry_equiv_pos_as_xyz
  1  'x, y, z'
loop_
 _atom_site_type_symbol
 _atom_site_label
 _atom_site_symmetry_multiplicity
 _atom_site_fract_x
 _atom_site_fract_y
 _atom_site_fract_z
 _atom_site_occupancy
  Li  Li0  1  0.750000  0.365276  0.439693  1
  Li  Li1  1  0.250000  0.134724  0.939693  1
  Ca  Ca2  1  0.250000  0.039982  0.323383  1
  Ca  Ca3  1  0.250000  0.529852  0.177775  1
  Ca  Ca4  1  0.750000  0.970148  0.677775  1
  Ca  Ca5  1  0.750000  0.460018  0.823383  1
  In  In6  1  0.750000  0.864690  0.063139  1
  In  In7  1  0.250000  0.635310  0.563139  1
  Pt  Pt8  1  0.750000  0.238442  0.122780  1
  Pt  Pt9  1  0.750000  0.738253  0.373230  1
  Pt  Pt10  1  0.250000  0.761747  0.873230  1
  Pt  Pt11  1  0.250000  0.261558  0.622780  1
