# generated using pymatgen
data_Er(PaCo2)3
_symmetry_space_group_name_H-M   'P 1'
_cell_length_a   5.36262200
_cell_length_b   7.47018600
_cell_length_c   8.33362300
_cell_angle_alpha   90.00000000
_cell_angle_beta   90.00000000
_cell_angle_gamma   90.00000000
_symmetry_Int_Tables_number   1
_chemical_formula_structural   Er(PaCo2)3
_chemical_formula_sum   'Er2 Pa6 Co12'
_cell_volume   333.84313555
_cell_formula_units_Z   2
loop_
 _symmetry_equiv_pos_site_id
 _symmetry_equiv_pos_as_xyz
  1  'x, y, z'
loop_
 _atom_site_type_symbol
 _atom_site_label
 _atom_site_symmetry_multiplicity
 _atom_site_fract_x
 _atom_site_fract_y
 _atom_site_fract_z
 _atom_site_occupancy
  Er  Er0  1  0.250000  0.064912  0.611986  1
  Er  Er1  1  0.250000  0.564912  0.888014  1
  Pa  Pa2  1  0.750000  0.893582  0.862727  1
  Pa  Pa3  1  0.750000  0.393582  0.637273  1
  Pa  Pa4  1  0.250000  0.103056  0.150026  1
  Pa  Pa5  1  0.250000  0.603056  0.349974  1
  Pa  Pa6  1  0.750000  0.935279  0.410503  1
  Pa  Pa7  1  0.750000  0.435279  0.089497  1
  Co  Co8  1  0.750000  0.581732  0.358005  1
  Co  Co9  1  0.750000  0.081732  0.141995  1
  Co  Co10  1  0.250000  0.421394  0.596766  1
  Co  Co11  1  0.250000  0.921394  0.903234  1
  Co  Co12  1  0.993309  0.265482  0.368437  1
  Co  Co13  1  0.506691  0.765482  0.131563  1
  Co  Co14  1  0.502707  0.734542  0.616519  1
  Co  Co15  1  0.997293  0.234542  0.883481  1
  Co  Co16  1  0.997293  0.734542  0.616519  1
  Co  Co17  1  0.502707  0.234542  0.883481  1
  Co  Co18  1  0.506691  0.265482  0.368437  1
  Co  Co19  1  0.993309  0.765482  0.131563  1
