# generated using pymatgen
data_Tb2YCd3IrAu2
_symmetry_space_group_name_H-M   'P 1'
_cell_length_a   7.89644739
_cell_length_b   7.90277724
_cell_length_c   3.80503000
_cell_angle_alpha   90.00000000
_cell_angle_beta   90.00000000
_cell_angle_gamma   120.00942168
_symmetry_Int_Tables_number   1
_chemical_formula_structural   Tb2YCd3IrAu2
_chemical_formula_sum   'Tb2 Y1 Cd3 Ir1 Au2'
_cell_volume   205.61697421
_cell_formula_units_Z   1
loop_
 _symmetry_equiv_pos_site_id
 _symmetry_equiv_pos_as_xyz
  1  'x, y, z'
loop_
 _atom_site_type_symbol
 _atom_site_label
 _atom_site_symmetry_multiplicity
 _atom_site_fract_x
 _atom_site_fract_y
 _atom_site_fract_z
 _atom_site_occupancy
  Tb  Tb0  1  0.581592  0.972562  0.000000  1
  Tb  Tb1  1  0.027500  0.608981  0.000000  1
  Y  Y2  1  0.390829  0.417932  0.000000  1
  Cd  Cd3  1  0.269233  0.003550  0.500000  1
  Cd  Cd4  1  0.996782  0.265807  0.500000  1
  Cd  Cd5  1  0.734089  0.730674  0.500000  1
  Ir  Ir6  1  0.333274  0.667220  0.500000  1
  Au  Au7  1  0.666718  0.333331  0.500000  1
  Au  Au8  1  0.999983  0.999944  0.000000  1
