# generated using pymatgen
data_Pr5TmTi2(Co4P3)4
_symmetry_space_group_name_H-M   'P 1'
_cell_length_a   3.77593300
_cell_length_b   10.78050941
_cell_length_c   12.52381600
_cell_angle_alpha   89.98420986
_cell_angle_beta   90.00000000
_cell_angle_gamma   90.00000000
_symmetry_Int_Tables_number   1
_chemical_formula_structural   Pr5TmTi2(Co4P3)4
_chemical_formula_sum   'Pr5 Tm1 Ti2 Co16 P12'
_cell_volume   509.80046164
_cell_formula_units_Z   1
loop_
 _symmetry_equiv_pos_site_id
 _symmetry_equiv_pos_as_xyz
  1  'x, y, z'
loop_
 _atom_site_type_symbol
 _atom_site_label
 _atom_site_symmetry_multiplicity
 _atom_site_fract_x
 _atom_site_fract_y
 _atom_site_fract_z
 _atom_site_occupancy
  Pr  Pr0  1  0.000000  0.500401  0.524309  1
  Pr  Pr1  1  0.500000  0.999472  0.474452  1
  Pr  Pr2  1  0.500000  0.179209  0.204918  1
  Pr  Pr3  1  0.000000  0.680793  0.794520  1
  Pr  Pr4  1  0.000000  0.319484  0.796303  1
  Tm  Tm5  1  0.500000  0.818633  0.203210  1
  Ti  Ti6  1  0.500000  0.501549  0.151247  1
  Ti  Ti7  1  0.000000  0.999554  0.849341  1
  Co  Co8  1  0.500000  0.500721  0.704807  1
  Co  Co9  1  0.000000  0.993061  0.292829  1
  Co  Co10  1  0.000000  0.502116  0.990712  1
  Co  Co11  1  0.500000  0.997716  0.013503  1
  Co  Co12  1  0.500000  0.332448  0.996056  1
  Co  Co13  1  0.500000  0.669552  0.997706  1
  Co  Co14  1  0.000000  0.165750  0.006340  1
  Co  Co15  1  0.000000  0.831608  0.007694  1
  Co  Co16  1  0.500000  0.295780  0.431438  1
  Co  Co17  1  0.500000  0.705340  0.427590  1
  Co  Co18  1  0.000000  0.203760  0.568348  1
  Co  Co19  1  0.000000  0.796239  0.565863  1
  Co  Co20  1  0.500000  0.881243  0.705862  1
  Co  Co21  1  0.500000  0.119033  0.707190  1
  Co  Co22  1  0.000000  0.622548  0.290026  1
  Co  Co23  1  0.000000  0.381956  0.293510  1
  P  P24  1  0.500000  0.501210  0.889768  1
  P  P25  1  0.000000  0.995350  0.114801  1
  P  P26  1  0.500000  0.500134  0.347242  1
  P  P27  1  0.000000  0.000033  0.652287  1
  P  P28  1  0.500000  0.304991  0.614083  1
  P  P29  1  0.500000  0.696363  0.611735  1
  P  P30  1  0.000000  0.194895  0.386177  1
  P  P31  1  0.000000  0.806228  0.380003  1
  P  P32  1  0.500000  0.844900  0.895529  1
  P  P33  1  0.500000  0.154051  0.897129  1
  P  P34  1  0.000000  0.658698  0.108429  1
  P  P35  1  0.000000  0.345180  0.105044  1
