# generated using pymatgen
data_Zn3FeNi4(Mo3N)4
_symmetry_space_group_name_H-M   'P 1'
_cell_length_a   6.73040735
_cell_length_b   6.73040735
_cell_length_c   6.73040735
_cell_angle_alpha   90.23903248
_cell_angle_beta   90.23903248
_cell_angle_gamma   90.23903248
_symmetry_Int_Tables_number   1
_chemical_formula_structural   Zn3FeNi4(Mo3N)4
_chemical_formula_sum   'Zn3 Fe1 Ni4 Mo12 N4'
_cell_volume   304.86858843
_cell_formula_units_Z   1
loop_
 _symmetry_equiv_pos_site_id
 _symmetry_equiv_pos_as_xyz
  1  'x, y, z'
loop_
 _atom_site_type_symbol
 _atom_site_label
 _atom_site_symmetry_multiplicity
 _atom_site_fract_x
 _atom_site_fract_y
 _atom_site_fract_z
 _atom_site_occupancy
  Zn  Zn0  1  0.178896  0.820408  0.318555  1
  Zn  Zn1  1  0.318555  0.178896  0.820408  1
  Zn  Zn2  1  0.820408  0.318555  0.178896  1
  Fe  Fe3  1  0.680113  0.680113  0.680113  1
  Ni  Ni4  1  0.566921  0.433973  0.932965  1
  Ni  Ni5  1  0.433973  0.932965  0.566921  1
  Ni  Ni6  1  0.932965  0.566921  0.433973  1
  Ni  Ni7  1  0.068494  0.068494  0.068494  1
  Mo  Mo8  1  0.790645  0.948279  0.381784  1
  Mo  Mo9  1  0.704064  0.038136  0.872935  1
  Mo  Mo10  1  0.203003  0.454897  0.125015  1
  Mo  Mo11  1  0.304510  0.546400  0.628740  1
  Mo  Mo12  1  0.948279  0.381784  0.790645  1
  Mo  Mo13  1  0.038136  0.872935  0.704064  1
  Mo  Mo14  1  0.454897  0.125015  0.203003  1
  Mo  Mo15  1  0.546400  0.628740  0.304510  1
  Mo  Mo16  1  0.381784  0.790645  0.948279  1
  Mo  Mo17  1  0.872935  0.704064  0.038136  1
  Mo  Mo18  1  0.125015  0.203003  0.454897  1
  Mo  Mo19  1  0.628740  0.304510  0.546400  1
  N  N20  1  0.873727  0.126748  0.625817  1
  N  N21  1  0.625817  0.873727  0.126748  1
  N  N22  1  0.126748  0.625817  0.873727  1
  N  N23  1  0.374975  0.374975  0.374975  1
