# generated using pymatgen
data_TaTc2B4Mo3
_symmetry_space_group_name_H-M   'P 1'
_cell_length_a   3.13474000
_cell_length_b   7.56833247
_cell_length_c   9.69980060
_cell_angle_alpha   89.95958800
_cell_angle_beta   90.00000000
_cell_angle_gamma   90.00000000
_symmetry_Int_Tables_number   1
_chemical_formula_structural   TaTc2B4Mo3
_chemical_formula_sum   'Ta2 Tc4 B8 Mo6'
_cell_volume   230.12533105
_cell_formula_units_Z   2
loop_
 _symmetry_equiv_pos_site_id
 _symmetry_equiv_pos_as_xyz
  1  'x, y, z'
loop_
 _atom_site_type_symbol
 _atom_site_label
 _atom_site_symmetry_multiplicity
 _atom_site_fract_x
 _atom_site_fract_y
 _atom_site_fract_z
 _atom_site_occupancy
  Ta  Ta0  1  0.500000  0.820545  0.126924  1
  Ta  Ta1  1  0.500000  0.179455  0.873076  1
  Tc  Tc2  1  0.500000  0.619667  0.396080  1
  Tc  Tc3  1  0.500000  0.380333  0.603920  1
  Tc  Tc4  1  0.000000  0.870332  0.891887  1
  Tc  Tc5  1  0.000000  0.129668  0.108113  1
  B  B6  1  0.500000  0.115883  0.460957  1
  B  B7  1  0.500000  0.884117  0.539043  1
  B  B8  1  0.000000  0.387921  0.959844  1
  B  B9  1  0.000000  0.612079  0.040156  1
  B  B10  1  0.500000  0.117976  0.267860  1
  B  B11  1  0.500000  0.882024  0.732140  1
  B  B12  1  0.000000  0.375456  0.765633  1
  B  B13  1  0.000000  0.624544  0.234367  1
  Mo  Mo14  1  0.000000  0.691502  0.629607  1
  Mo  Mo15  1  0.000000  0.308498  0.370393  1
  Mo  Mo16  1  0.500000  0.575812  0.860456  1
  Mo  Mo17  1  0.500000  0.424188  0.139544  1
  Mo  Mo18  1  0.000000  0.918387  0.364908  1
  Mo  Mo19  1  0.000000  0.081613  0.635092  1
