# generated using pymatgen
data_TbDyZrSc(Al3Ir)6
_symmetry_space_group_name_H-M   'P 1'
_cell_length_a   7.52048900
_cell_length_b   7.51922347
_cell_length_c   9.38925100
_cell_angle_alpha   90.00000000
_cell_angle_beta   90.00000000
_cell_angle_gamma   119.63567208
_symmetry_Int_Tables_number   1
_chemical_formula_structural   TbDyZrSc(Al3Ir)6
_chemical_formula_sum   'Tb1 Dy1 Zr1 Sc1 Al18 Ir6'
_cell_volume   461.49113310
_cell_formula_units_Z   1
loop_
 _symmetry_equiv_pos_site_id
 _symmetry_equiv_pos_as_xyz
  1  'x, y, z'
loop_
 _atom_site_type_symbol
 _atom_site_label
 _atom_site_symmetry_multiplicity
 _atom_site_fract_x
 _atom_site_fract_y
 _atom_site_fract_z
 _atom_site_occupancy
  Tb  Tb0  1  0.329242  0.007093  0.750000  1
  Dy  Dy1  1  0.005740  0.327315  0.750000  1
  Zr  Zr2  1  0.997064  0.672335  0.250000  1
  Sc  Sc3  1  0.671801  0.995871  0.250000  1
  Al  Al4  1  0.122296  0.121219  0.250000  1
  Al  Al5  1  0.868793  0.868724  0.750000  1
  Al  Al6  1  0.997181  0.334860  0.082125  1
  Al  Al7  1  0.998563  0.664805  0.930515  1
  Al  Al8  1  0.998563  0.664805  0.569485  1
  Al  Al9  1  0.335538  0.997973  0.417728  1
  Al  Al10  1  0.997181  0.334860  0.417875  1
  Al  Al11  1  0.664795  0.998014  0.569670  1
  Al  Al12  1  0.664795  0.998014  0.930330  1
  Al  Al13  1  0.335538  0.997973  0.082272  1
  Al  Al14  1  0.334187  0.334483  0.547534  1
  Al  Al15  1  0.669287  0.669505  0.439151  1
  Al  Al16  1  0.669287  0.669505  0.060849  1
  Al  Al17  1  0.334187  0.334483  0.952466  1
  Al  Al18  1  0.338570  0.554003  0.250000  1
  Al  Al19  1  0.660164  0.452739  0.750000  1
  Al  Al20  1  0.556268  0.342443  0.250000  1
  Al  Al21  1  0.451737  0.659970  0.750000  1
  Ir  Ir22  1  0.672635  0.328310  0.001698  1
  Ir  Ir23  1  0.327640  0.672211  0.002309  1
  Ir  Ir24  1  0.327640  0.672211  0.497691  1
  Ir  Ir25  1  0.672635  0.328310  0.498302  1
  Ir  Ir26  1  0.999338  0.998984  0.001612  1
  Ir  Ir27  1  0.999338  0.998984  0.498388  1
