# generated using pymatgen
data_Tm12Al3Zn9C4
_symmetry_space_group_name_H-M   'P 1'
_cell_length_a   9.03866704
_cell_length_b   9.03866737
_cell_length_c   9.06681080
_cell_angle_alpha   60.10262071
_cell_angle_beta   60.10262299
_cell_angle_gamma   60.00000099
_symmetry_Int_Tables_number   1
_chemical_formula_structural   Tm12Al3Zn9C4
_chemical_formula_sum   'Tm12 Al3 Zn9 C4'
_cell_volume   524.59030495
_cell_formula_units_Z   1
loop_
 _symmetry_equiv_pos_site_id
 _symmetry_equiv_pos_as_xyz
  1  'x, y, z'
loop_
 _atom_site_type_symbol
 _atom_site_label
 _atom_site_symmetry_multiplicity
 _atom_site_fract_x
 _atom_site_fract_y
 _atom_site_fract_z
 _atom_site_occupancy
  Tm  Tm0  1  0.444920  0.444920  0.055815  1
  Tm  Tm1  1  0.054346  0.444920  0.055815  1
  Tm  Tm2  1  0.444920  0.054346  0.055815  1
  Tm  Tm3  1  0.055198  0.055198  0.444588  1
  Tm  Tm4  1  0.445016  0.055198  0.444588  1
  Tm  Tm5  1  0.055198  0.445016  0.444588  1
  Tm  Tm6  1  0.805080  0.805080  0.194185  1
  Tm  Tm7  1  0.195654  0.805080  0.194185  1
  Tm  Tm8  1  0.805080  0.195654  0.194185  1
  Tm  Tm9  1  0.194802  0.194802  0.805412  1
  Tm  Tm10  1  0.804984  0.194802  0.805412  1
  Tm  Tm11  1  0.194802  0.804984  0.805412  1
  Al  Al12  1  0.625000  0.125000  0.625000  1
  Al  Al13  1  0.125000  0.625000  0.625000  1
  Al  Al14  1  0.625000  0.625000  0.625000  1
  Zn  Zn15  1  0.828183  0.828183  0.515453  1
  Zn  Zn16  1  0.826569  0.516746  0.830116  1
  Zn  Zn17  1  0.516746  0.826569  0.830116  1
  Zn  Zn18  1  0.826569  0.826569  0.830116  1
  Zn  Zn19  1  0.421817  0.421817  0.734547  1
  Zn  Zn20  1  0.423431  0.733254  0.419884  1
  Zn  Zn21  1  0.733254  0.423431  0.419884  1
  Zn  Zn22  1  0.423431  0.423431  0.419884  1
  Zn  Zn23  1  0.625000  0.625000  0.125000  1
  C  C24  1  0.125000  0.125000  0.625000  1
  C  C25  1  0.125000  0.625000  0.125000  1
  C  C26  1  0.625000  0.125000  0.125000  1
  C  C27  1  0.125000  0.125000  0.125000  1
