# generated using pymatgen
data_Th4IrPd9Pt2
_symmetry_space_group_name_H-M   'P 1'
_cell_length_a   5.96631835
_cell_length_b   5.93743611
_cell_length_c   9.80112667
_cell_angle_alpha   89.91067876
_cell_angle_beta   89.15419184
_cell_angle_gamma   119.80975981
_symmetry_Int_Tables_number   1
_chemical_formula_structural   Th4IrPd9Pt2
_chemical_formula_sum   'Th4 Ir1 Pd9 Pt2'
_cell_volume   301.21125339
_cell_formula_units_Z   1
loop_
 _symmetry_equiv_pos_site_id
 _symmetry_equiv_pos_as_xyz
  1  'x, y, z'
loop_
 _atom_site_type_symbol
 _atom_site_label
 _atom_site_symmetry_multiplicity
 _atom_site_fract_x
 _atom_site_fract_y
 _atom_site_fract_z
 _atom_site_occupancy
  Th  Th0  1  0.000000  0.000000  0.500000  1
  Th  Th1  1  0.000000  0.000000  0.000000  1
  Th  Th2  1  0.325094  0.662608  0.254831  1
  Th  Th3  1  0.674906  0.337392  0.745169  1
  Ir  Ir4  1  0.000000  0.500000  0.500000  1
  Pd  Pd5  1  0.500000  0.000000  0.500000  1
  Pd  Pd6  1  0.500000  0.500000  0.000000  1
  Pd  Pd7  1  0.000000  0.500000  0.000000  1
  Pd  Pd8  1  0.821092  0.648942  0.248831  1
  Pd  Pd9  1  0.348306  0.174167  0.246962  1
  Pd  Pd10  1  0.821025  0.172200  0.248637  1
  Pd  Pd11  1  0.178908  0.351058  0.751169  1
  Pd  Pd12  1  0.651694  0.825833  0.753038  1
  Pd  Pd13  1  0.178975  0.827800  0.751363  1
  Pt  Pt14  1  0.500000  0.500000  0.500000  1
  Pt  Pt15  1  0.500000  0.000000  0.000000  1
