# generated using pymatgen
data_Pr5TcOsO12
_symmetry_space_group_name_H-M   'P 1'
_cell_length_a   7.15067762
_cell_length_b   7.15067864
_cell_length_c   7.89299300
_cell_angle_alpha   73.83467385
_cell_angle_beta   73.83467028
_cell_angle_gamma   47.81185459
_symmetry_Int_Tables_number   1
_chemical_formula_structural   Pr5TcOsO12
_chemical_formula_sum   'Pr5 Tc1 Os1 O12'
_cell_volume   284.83067032
_cell_formula_units_Z   1
loop_
 _symmetry_equiv_pos_site_id
 _symmetry_equiv_pos_as_xyz
  1  'x, y, z'
loop_
 _atom_site_type_symbol
 _atom_site_label
 _atom_site_symmetry_multiplicity
 _atom_site_fract_x
 _atom_site_fract_y
 _atom_site_fract_z
 _atom_site_occupancy
  Pr  Pr0  1  0.307910  0.306260  0.354131  1
  Pr  Pr1  1  0.693740  0.692090  0.645869  1
  Pr  Pr2  1  0.687163  0.685965  0.168111  1
  Pr  Pr3  1  0.314035  0.312837  0.831889  1
  Pr  Pr4  1  0.999693  0.000307  0.500000  1
  Tc  Tc5  1  0.211004  0.788996  0.000000  1
  Os  Os6  1  0.782351  0.217649  0.000000  1
  O  O7  1  0.096143  0.594494  0.576577  1
  O  O8  1  0.997914  0.000371  0.195809  1
  O  O9  1  0.405506  0.903857  0.423423  1
  O  O10  1  0.502301  0.495254  0.163347  1
  O  O11  1  0.088798  0.595468  0.077752  1
  O  O12  1  0.904166  0.406093  0.423041  1
  O  O13  1  0.999629  0.002086  0.804191  1
  O  O14  1  0.593907  0.095833  0.576959  1
  O  O15  1  0.504746  0.497699  0.836653  1
  O  O16  1  0.592779  0.086316  0.078910  1
  O  O17  1  0.404532  0.911202  0.922248  1
  O  O18  1  0.913684  0.407221  0.921090  1
