# generated using pymatgen
data_K(SmB9)2
_symmetry_space_group_name_H-M   'P 1'
_cell_length_a   4.15128700
_cell_length_b   4.15128700
_cell_length_c   12.48155700
_cell_angle_alpha   90.00000000
_cell_angle_beta   90.00000000
_cell_angle_gamma   90.00000000
_symmetry_Int_Tables_number   1
_chemical_formula_structural   K(SmB9)2
_chemical_formula_sum   'K1 Sm2 B18'
_cell_volume   215.09696535
_cell_formula_units_Z   1
loop_
 _symmetry_equiv_pos_site_id
 _symmetry_equiv_pos_as_xyz
  1  'x, y, z'
loop_
 _atom_site_type_symbol
 _atom_site_label
 _atom_site_symmetry_multiplicity
 _atom_site_fract_x
 _atom_site_fract_y
 _atom_site_fract_z
 _atom_site_occupancy
  K  K0  1  0.000000  0.000000  0.000000  1
  Sm  Sm1  1  0.000000  0.000000  0.328230  1
  Sm  Sm2  1  0.000000  0.000000  0.671770  1
  B  B3  1  0.201632  0.500000  0.170419  1
  B  B4  1  0.200004  0.500000  0.500000  1
  B  B5  1  0.201632  0.500000  0.829581  1
  B  B6  1  0.500000  0.500000  0.269190  1
  B  B7  1  0.500000  0.500000  0.598895  1
  B  B8  1  0.500000  0.500000  0.930883  1
  B  B9  1  0.500000  0.201632  0.170419  1
  B  B10  1  0.500000  0.200004  0.500000  1
  B  B11  1  0.500000  0.201632  0.829581  1
  B  B12  1  0.500000  0.500000  0.069117  1
  B  B13  1  0.500000  0.500000  0.401105  1
  B  B14  1  0.500000  0.500000  0.730810  1
  B  B15  1  0.500000  0.798368  0.170419  1
  B  B16  1  0.500000  0.799996  0.500000  1
  B  B17  1  0.500000  0.798368  0.829581  1
  B  B18  1  0.798368  0.500000  0.170419  1
  B  B19  1  0.799996  0.500000  0.500000  1
  B  B20  1  0.798368  0.500000  0.829581  1
