# generated using pymatgen
data_Tb2Dy4NiBr10
_symmetry_space_group_name_H-M   'P 1'
_cell_length_a   7.34097299
_cell_length_b   9.17289296
_cell_length_c   9.26024942
_cell_angle_alpha   107.97752941
_cell_angle_beta   96.93663288
_cell_angle_gamma   105.32199332
_symmetry_Int_Tables_number   1
_chemical_formula_structural   Tb2Dy4NiBr10
_chemical_formula_sum   'Tb2 Dy4 Ni1 Br10'
_cell_volume   557.95389175
_cell_formula_units_Z   1
loop_
 _symmetry_equiv_pos_site_id
 _symmetry_equiv_pos_as_xyz
  1  'x, y, z'
loop_
 _atom_site_type_symbol
 _atom_site_label
 _atom_site_symmetry_multiplicity
 _atom_site_fract_x
 _atom_site_fract_y
 _atom_site_fract_z
 _atom_site_occupancy
  Tb  Tb0  1  0.124586  0.046856  0.758839  1
  Tb  Tb1  1  0.875414  0.953144  0.241161  1
  Dy  Dy2  1  0.971342  0.293390  0.093090  1
  Dy  Dy3  1  0.028658  0.706610  0.906910  1
  Dy  Dy4  1  0.647653  0.869586  0.824734  1
  Dy  Dy5  1  0.352347  0.130414  0.175266  1
  Ni  Ni6  1  0.000000  0.000000  0.000000  1
  Br  Br7  1  0.547808  0.177907  0.916306  1
  Br  Br8  1  0.452192  0.822093  0.083694  1
  Br  Br9  1  0.750468  0.916310  0.543261  1
  Br  Br10  1  0.249532  0.083690  0.456739  1
  Br  Br11  1  0.086649  0.372625  0.829809  1
  Br  Br12  1  0.913351  0.627375  0.170191  1
  Br  Br13  1  0.219101  0.744720  0.655627  1
  Br  Br14  1  0.780899  0.255280  0.344373  1
  Br  Br15  1  0.647197  0.547626  0.726912  1
  Br  Br16  1  0.352803  0.452374  0.273088  1
