# generated using pymatgen
data_UPRuN
_symmetry_space_group_name_H-M   'P 1'
_cell_length_a   3.93018900
_cell_length_b   3.93018900
_cell_length_c   7.64516600
_cell_angle_alpha   90.00000000
_cell_angle_beta   90.00000000
_cell_angle_gamma   90.00000000
_symmetry_Int_Tables_number   1
_chemical_formula_structural   UPRuN
_chemical_formula_sum   'U2 P2 Ru2 N2'
_cell_volume   118.09018183
_cell_formula_units_Z   2
loop_
 _symmetry_equiv_pos_site_id
 _symmetry_equiv_pos_as_xyz
  1  'x, y, z'
loop_
 _atom_site_type_symbol
 _atom_site_label
 _atom_site_symmetry_multiplicity
 _atom_site_fract_x
 _atom_site_fract_y
 _atom_site_fract_z
 _atom_site_occupancy
  U  U0  1  0.000000  0.000000  0.148241  1
  U  U1  1  0.499999  0.499999  0.851760  1
  P  P2  1  0.499999  0.499999  0.338042  1
  P  P3  1  0.000000  0.000000  0.661957  1
  Ru  Ru4  1  0.499999  0.000000  0.499999  1
  Ru  Ru5  1  0.000000  0.499999  0.499999  1
  N  N6  1  0.499999  0.000000  0.000000  1
  N  N7  1  0.000000  0.499999  0.000000  1
