# generated using pymatgen
data_Yb2GdYB16
_symmetry_space_group_name_H-M   'P 1'
_cell_length_a   7.12193549
_cell_length_b   7.12769250
_cell_length_c   4.04355100
_cell_angle_alpha   90.00000000
_cell_angle_beta   90.00000000
_cell_angle_gamma   89.87129219
_symmetry_Int_Tables_number   1
_chemical_formula_structural   Yb2GdYB16
_chemical_formula_sum   'Yb2 Gd1 Y1 B16'
_cell_volume   205.26212470
_cell_formula_units_Z   1
loop_
 _symmetry_equiv_pos_site_id
 _symmetry_equiv_pos_as_xyz
  1  'x, y, z'
loop_
 _atom_site_type_symbol
 _atom_site_label
 _atom_site_symmetry_multiplicity
 _atom_site_fract_x
 _atom_site_fract_y
 _atom_site_fract_z
 _atom_site_occupancy
  Yb  Yb0  1  0.183590  0.683572  0.000000  1
  Yb  Yb1  1  0.683323  0.816542  0.000000  1
  Gd  Gd2  1  0.316588  0.183647  0.000000  1
  Y  Y3  1  0.817498  0.317023  0.000000  1
  B  B4  1  0.324840  0.462403  0.500000  1
  B  B5  1  0.676314  0.537861  0.500000  1
  B  B6  1  0.538070  0.324635  0.500000  1
  B  B7  1  0.462215  0.676007  0.500000  1
  B  B8  1  0.999224  0.997548  0.203432  1
  B  B9  1  0.499781  0.502355  0.796572  1
  B  B10  1  0.999224  0.997548  0.796568  1
  B  B11  1  0.499781  0.502355  0.203428  1
  B  B12  1  0.586411  0.086444  0.500000  1
  B  B13  1  0.086590  0.413042  0.500000  1
  B  B14  1  0.913582  0.586153  0.500000  1
  B  B15  1  0.413838  0.913857  0.500000  1
  B  B16  1  0.037339  0.175247  0.500000  1
  B  B17  1  0.175831  0.962032  0.500000  1
  B  B18  1  0.824216  0.037695  0.500000  1
  B  B19  1  0.961748  0.824035  0.500000  1
