# generated using pymatgen
data_CoTc2P4Rh
_symmetry_space_group_name_H-M   'P 1'
_cell_length_a   3.15483700
_cell_length_b   5.49860046
_cell_length_c   6.13925779
_cell_angle_alpha   90.16041465
_cell_angle_beta   90.00000000
_cell_angle_gamma   90.00000000
_symmetry_Int_Tables_number   1
_chemical_formula_structural   CoTc2P4Rh
_chemical_formula_sum   'Co1 Tc2 P4 Rh1'
_cell_volume   106.49844277
_cell_formula_units_Z   1
loop_
 _symmetry_equiv_pos_site_id
 _symmetry_equiv_pos_as_xyz
  1  'x, y, z'
loop_
 _atom_site_type_symbol
 _atom_site_label
 _atom_site_symmetry_multiplicity
 _atom_site_fract_x
 _atom_site_fract_y
 _atom_site_fract_z
 _atom_site_occupancy
  Co  Co0  1  0.750000  0.003204  0.214732  1
  Tc  Tc1  1  0.750000  0.499787  0.290740  1
  Tc  Tc2  1  0.250000  0.999778  0.805129  1
  P  P3  1  0.250000  0.704675  0.072299  1
  P  P4  1  0.750000  0.306286  0.938107  1
  P  P5  1  0.250000  0.178702  0.422494  1
  P  P6  1  0.750000  0.811881  0.560196  1
  Rh  Rh7  1  0.250000  0.495687  0.696304  1
