# generated using pymatgen
data_Hf18VFe2Re6W
_symmetry_space_group_name_H-M   'P 1'
_cell_length_a   8.60245300
_cell_length_b   8.60245203
_cell_length_c   8.41659400
_cell_angle_alpha   90.00000000
_cell_angle_beta   90.00000000
_cell_angle_gamma   119.99999989
_symmetry_Int_Tables_number   1
_chemical_formula_structural   Hf18VFe2Re6W
_chemical_formula_sum   'Hf18 V1 Fe2 Re6 W1'
_cell_volume   539.40079018
_cell_formula_units_Z   1
loop_
 _symmetry_equiv_pos_site_id
 _symmetry_equiv_pos_as_xyz
  1  'x, y, z'
loop_
 _atom_site_type_symbol
 _atom_site_label
 _atom_site_symmetry_multiplicity
 _atom_site_fract_x
 _atom_site_fract_y
 _atom_site_fract_z
 _atom_site_occupancy
  Hf  Hf0  1  0.199665  0.800335  0.441166  1
  Hf  Hf1  1  0.199665  0.399332  0.441166  1
  Hf  Hf2  1  0.600668  0.800335  0.441166  1
  Hf  Hf3  1  0.800335  0.199665  0.558834  1
  Hf  Hf4  1  0.800335  0.600668  0.558834  1
  Hf  Hf5  1  0.399332  0.199665  0.558834  1
  Hf  Hf6  1  0.798758  0.201242  0.940384  1
  Hf  Hf7  1  0.798758  0.597517  0.940384  1
  Hf  Hf8  1  0.402483  0.201242  0.940384  1
  Hf  Hf9  1  0.201242  0.798758  0.059616  1
  Hf  Hf10  1  0.201242  0.402483  0.059616  1
  Hf  Hf11  1  0.597517  0.798758  0.059616  1
  Hf  Hf12  1  0.540970  0.459030  0.251008  1
  Hf  Hf13  1  0.540970  0.081939  0.251008  1
  Hf  Hf14  1  0.918061  0.459030  0.251008  1
  Hf  Hf15  1  0.459030  0.540970  0.748992  1
  Hf  Hf16  1  0.459030  0.918061  0.748992  1
  Hf  Hf17  1  0.081939  0.540970  0.748992  1
  V  V18  1  0.000000  0.000000  0.500000  1
  Fe  Fe19  1  0.333333  0.666667  0.250514  1
  Fe  Fe20  1  0.666667  0.333333  0.749486  1
  Re  Re21  1  0.888675  0.111325  0.253121  1
  Re  Re22  1  0.888675  0.777351  0.253121  1
  Re  Re23  1  0.222649  0.111325  0.253121  1
  Re  Re24  1  0.111325  0.888675  0.746879  1
  Re  Re25  1  0.111325  0.222649  0.746879  1
  Re  Re26  1  0.777351  0.888675  0.746879  1
  W  W27  1  0.000000  0.000000  0.000000  1
