# generated using pymatgen
data_ErAlCdPt3
_symmetry_space_group_name_H-M   'P 1'
_cell_length_a   5.51523172
_cell_length_b   5.51523172
_cell_length_c   5.16542134
_cell_angle_alpha   57.73332007
_cell_angle_beta   57.73332195
_cell_angle_gamma   59.99999338
_symmetry_Int_Tables_number   1
_chemical_formula_structural   ErAlCdPt3
_chemical_formula_sum   'Er1 Al1 Cd1 Pt3'
_cell_volume   107.14116344
_cell_formula_units_Z   1
loop_
 _symmetry_equiv_pos_site_id
 _symmetry_equiv_pos_as_xyz
  1  'x, y, z'
loop_
 _atom_site_type_symbol
 _atom_site_label
 _atom_site_symmetry_multiplicity
 _atom_site_fract_x
 _atom_site_fract_y
 _atom_site_fract_z
 _atom_site_occupancy
  Er  Er0  1  0.752897  0.752897  0.741311  1
  Al  Al1  1  0.373524  0.373524  0.879427  1
  Cd  Cd2  1  0.002677  0.002677  0.991969  1
  Pt  Pt3  1  0.372992  0.874917  0.379098  1
  Pt  Pt4  1  0.372992  0.372992  0.379098  1
  Pt  Pt5  1  0.874917  0.372992  0.379098  1
