# generated using pymatgen
data_TbCe6BiF30
_symmetry_space_group_name_H-M   'P 1'
_cell_length_a   8.65643189
_cell_length_b   8.65643205
_cell_length_c   8.65025395
_cell_angle_alpha   79.68784584
_cell_angle_beta   79.68784417
_cell_angle_gamma   100.26148922
_symmetry_Int_Tables_number   1
_chemical_formula_structural   TbCe6BiF30
_chemical_formula_sum   'Tb1 Ce6 Bi1 F30'
_cell_volume   612.45447478
_cell_formula_units_Z   1
loop_
 _symmetry_equiv_pos_site_id
 _symmetry_equiv_pos_as_xyz
  1  'x, y, z'
loop_
 _atom_site_type_symbol
 _atom_site_label
 _atom_site_symmetry_multiplicity
 _atom_site_fract_x
 _atom_site_fract_y
 _atom_site_fract_z
 _atom_site_occupancy
  Tb  Tb0  1  0.178446  0.821554  0.250000  1
  Ce  Ce1  1  0.750520  0.249480  0.250000  1
  Ce  Ce2  1  0.249385  0.750615  0.750000  1
  Ce  Ce3  1  0.752749  0.678380  0.673525  1
  Ce  Ce4  1  0.321620  0.247251  0.826475  1
  Ce  Ce5  1  0.248226  0.322009  0.324931  1
  Ce  Ce6  1  0.677991  0.751774  0.175069  1
  Bi  Bi7  1  0.821368  0.178632  0.750000  1
  F  F8  1  0.466459  0.533541  0.250000  1
  F  F9  1  0.748747  0.958224  0.968793  1
  F  F10  1  0.041776  0.251253  0.531207  1
  F  F11  1  0.250054  0.038339  0.034885  1
  F  F12  1  0.961661  0.749946  0.465115  1
  F  F13  1  0.534481  0.465519  0.750000  1
  F  F14  1  0.222379  0.491797  0.776950  1
  F  F15  1  0.224383  0.725714  0.008255  1
  F  F16  1  0.989607  0.724884  0.781284  1
  F  F17  1  0.724581  0.989880  0.281521  1
  F  F18  1  0.721312  0.225790  0.507404  1
  F  F19  1  0.491907  0.222489  0.276485  1
  F  F20  1  0.777512  0.508093  0.223515  1
  F  F21  1  0.774210  0.278688  0.992596  1
  F  F22  1  0.010120  0.275419  0.218479  1
  F  F23  1  0.275116  0.010393  0.718716  1
  F  F24  1  0.274286  0.775617  0.491745  1
  F  F25  1  0.508203  0.777621  0.723050  1
  F  F26  1  0.543549  0.153264  0.818011  1
  F  F27  1  0.188480  0.057439  0.343471  1
  F  F28  1  0.650470  0.682548  0.446719  1
  F  F29  1  0.683129  0.650978  0.946272  1
  F  F30  1  0.059282  0.187050  0.848828  1
  F  F31  1  0.157579  0.548310  0.314765  1
  F  F32  1  0.451690  0.842421  0.185235  1
  F  F33  1  0.812950  0.940718  0.651172  1
  F  F34  1  0.349022  0.316871  0.553728  1
  F  F35  1  0.317452  0.349530  0.053281  1
  F  F36  1  0.942561  0.811520  0.156529  1
  F  F37  1  0.846736  0.456451  0.681989  1
