# generated using pymatgen
data_Y3Er2P12PdRu18
_symmetry_space_group_name_H-M   'P 1'
_cell_length_a   12.58719948
_cell_length_b   12.47691590
_cell_length_c   3.97903400
_cell_angle_alpha   90.00000000
_cell_angle_beta   90.00000000
_cell_angle_gamma   119.71432076
_symmetry_Int_Tables_number   1
_chemical_formula_structural   Y3Er2P12PdRu18
_chemical_formula_sum   'Y3 Er2 P12 Pd1 Ru18'
_cell_volume   542.73478928
_cell_formula_units_Z   1
loop_
 _symmetry_equiv_pos_site_id
 _symmetry_equiv_pos_as_xyz
  1  'x, y, z'
loop_
 _atom_site_type_symbol
 _atom_site_label
 _atom_site_symmetry_multiplicity
 _atom_site_fract_x
 _atom_site_fract_y
 _atom_site_fract_z
 _atom_site_occupancy
  Y  Y0  1  0.816275  0.816153  0.500000  1
  Y  Y1  1  0.183752  0.999925  0.500000  1
  Y  Y2  1  0.338506  0.668619  0.000000  1
  Er  Er3  1  0.999965  0.182143  0.500000  1
  Er  Er4  1  0.661345  0.329864  0.000000  1
  P  P5  1  0.999788  0.812174  0.000000  1
  P  P6  1  0.182867  0.184272  0.000000  1
  P  P7  1  0.817324  0.001776  0.000000  1
  P  P8  1  0.693005  0.173503  0.500000  1
  P  P9  1  0.819121  0.518823  0.500000  1
  P  P10  1  0.475122  0.305765  0.500000  1
  P  P11  1  0.180203  0.699886  0.500000  1
  P  P12  1  0.525561  0.831261  0.500000  1
  P  P13  1  0.306999  0.479747  0.500000  1
  P  P14  1  0.000079  0.364287  0.000000  1
  P  P15  1  0.626547  0.626849  0.000000  1
  P  P16  1  0.373423  0.000258  0.000000  1
  Pd  Pd17  1  0.999949  0.551958  0.000000  1
  Ru  Ru18  1  0.444469  0.445844  0.000000  1
  Ru  Ru19  1  0.555642  0.001576  0.000000  1
  Ru  Ru20  1  0.999717  0.712270  0.500000  1
  Ru  Ru21  1  0.281288  0.283314  0.500000  1
  Ru  Ru22  1  0.719010  0.002680  0.500000  1
  Ru  Ru23  1  0.807439  0.186504  0.000000  1
  Ru  Ru24  1  0.813562  0.620087  0.000000  1
  Ru  Ru25  1  0.375190  0.191481  0.000000  1
  Ru  Ru26  1  0.185922  0.806788  0.000000  1
  Ru  Ru27  1  0.625568  0.816808  0.000000  1
  Ru  Ru28  1  0.192334  0.378311  0.000000  1
  Ru  Ru29  1  0.872950  0.366920  0.500000  1
  Ru  Ru30  1  0.630298  0.507083  0.500000  1
  Ru  Ru31  1  0.493009  0.128185  0.500000  1
  Ru  Ru32  1  0.369668  0.877787  0.500000  1
  Ru  Ru33  1  0.508099  0.635154  0.500000  1
  Ru  Ru34  1  0.125988  0.492946  0.500000  1
  Ru  Ru35  1  0.000016  0.999002  0.000000  1
