# generated using pymatgen
data_SrTh5(GePd)6
_symmetry_space_group_name_H-M   'P 1'
_cell_length_a   4.47844600
_cell_length_b   7.73533865
_cell_length_c   22.86084401
_cell_angle_alpha   90.19900493
_cell_angle_beta   90.00000000
_cell_angle_gamma   90.00000000
_symmetry_Int_Tables_number   1
_chemical_formula_structural   SrTh5(GePd)6
_chemical_formula_sum   'Sr2 Th10 Ge12 Pd12'
_cell_volume   791.94735831
_cell_formula_units_Z   2
loop_
 _symmetry_equiv_pos_site_id
 _symmetry_equiv_pos_as_xyz
  1  'x, y, z'
loop_
 _atom_site_type_symbol
 _atom_site_label
 _atom_site_symmetry_multiplicity
 _atom_site_fract_x
 _atom_site_fract_y
 _atom_site_fract_z
 _atom_site_occupancy
  Sr  Sr0  1  0.750000  0.225662  0.498401  1
  Sr  Sr1  1  0.250000  0.774338  0.501599  1
  Th  Th2  1  0.250000  0.719447  0.333676  1
  Th  Th3  1  0.750000  0.280553  0.666324  1
  Th  Th4  1  0.750000  0.236608  0.167036  1
  Th  Th5  1  0.250000  0.763392  0.832964  1
  Th  Th6  1  0.250000  0.765623  0.166241  1
  Th  Th7  1  0.750000  0.234377  0.833759  1
  Th  Th8  1  0.750000  0.283724  0.331980  1
  Th  Th9  1  0.250000  0.716276  0.668020  1
  Th  Th10  1  0.250000  0.736210  0.999781  1
  Th  Th11  1  0.750000  0.263790  0.000219  1
  Ge  Ge12  1  0.250000  0.086786  0.082212  1
  Ge  Ge13  1  0.750000  0.913214  0.917788  1
  Ge  Ge14  1  0.750000  0.589844  0.419275  1
  Ge  Ge15  1  0.250000  0.410156  0.580725  1
  Ge  Ge16  1  0.250000  0.085614  0.258822  1
  Ge  Ge17  1  0.750000  0.914386  0.741178  1
  Ge  Ge18  1  0.750000  0.591464  0.242968  1
  Ge  Ge19  1  0.250000  0.408536  0.757032  1
  Ge  Ge20  1  0.250000  0.083396  0.392840  1
  Ge  Ge21  1  0.750000  0.916604  0.607160  1
  Ge  Ge22  1  0.750000  0.584914  0.082383  1
  Ge  Ge23  1  0.250000  0.415086  0.917617  1
  Pd  Pd24  1  0.250000  0.419224  0.240355  1
  Pd  Pd25  1  0.750000  0.580776  0.759645  1
  Pd  Pd26  1  0.750000  0.923245  0.257414  1
  Pd  Pd27  1  0.250000  0.076755  0.742586  1
  Pd  Pd28  1  0.250000  0.416703  0.419329  1
  Pd  Pd29  1  0.750000  0.583297  0.580671  1
  Pd  Pd30  1  0.750000  0.919025  0.077732  1
  Pd  Pd31  1  0.250000  0.080975  0.922268  1
  Pd  Pd32  1  0.250000  0.419457  0.092331  1
  Pd  Pd33  1  0.750000  0.580543  0.907669  1
  Pd  Pd34  1  0.750000  0.920834  0.400279  1
  Pd  Pd35  1  0.250000  0.079166  0.599721  1
