# generated using pymatgen
data_Tb2Er10Os3Rh
_symmetry_space_group_name_H-M   'P 1'
_cell_length_a   6.33629101
_cell_length_b   7.32102965
_cell_length_c   9.02563700
_cell_angle_alpha   90.00000000
_cell_angle_beta   90.00000000
_cell_angle_gamma   90.22415485
_symmetry_Int_Tables_number   1
_chemical_formula_structural   Tb2Er10Os3Rh
_chemical_formula_sum   'Tb2 Er10 Os3 Rh1'
_cell_volume   418.67961865
_cell_formula_units_Z   1
loop_
 _symmetry_equiv_pos_site_id
 _symmetry_equiv_pos_as_xyz
  1  'x, y, z'
loop_
 _atom_site_type_symbol
 _atom_site_label
 _atom_site_symmetry_multiplicity
 _atom_site_fract_x
 _atom_site_fract_y
 _atom_site_fract_z
 _atom_site_occupancy
  Tb  Tb0  1  0.869218  0.538279  0.250000  1
  Tb  Tb1  1  0.631180  0.039249  0.250000  1
  Er  Er2  1  0.333575  0.673039  0.061108  1
  Er  Er3  1  0.169597  0.177899  0.438653  1
  Er  Er4  1  0.669993  0.323936  0.564286  1
  Er  Er5  1  0.826651  0.823683  0.932845  1
  Er  Er6  1  0.669993  0.323936  0.935714  1
  Er  Er7  1  0.826651  0.823683  0.567155  1
  Er  Er8  1  0.333575  0.673039  0.438892  1
  Er  Er9  1  0.169597  0.177899  0.061347  1
  Er  Er10  1  0.130218  0.462141  0.750000  1
  Er  Er11  1  0.367946  0.961868  0.750000  1
  Os  Os12  1  0.457421  0.383605  0.250000  1
  Os  Os13  1  0.961795  0.116045  0.750000  1
  Os  Os14  1  0.537745  0.616840  0.750000  1
  Rh  Rh15  1  0.044844  0.884860  0.250000  1
