# generated using pymatgen
data_Ho8ErLu11Pb16
_symmetry_space_group_name_H-M   'P 1'
_cell_length_a   8.11697523
_cell_length_b   15.40625100
_cell_length_c   8.17743300
_cell_angle_alpha   90.00000000
_cell_angle_beta   89.90468552
_cell_angle_gamma   90.00000000
_symmetry_Int_Tables_number   1
_chemical_formula_structural   Ho8ErLu11Pb16
_chemical_formula_sum   'Ho8 Er1 Lu11 Pb16'
_cell_volume   1022.60422674
_cell_formula_units_Z   1
loop_
 _symmetry_equiv_pos_site_id
 _symmetry_equiv_pos_as_xyz
  1  'x, y, z'
loop_
 _atom_site_type_symbol
 _atom_site_label
 _atom_site_symmetry_multiplicity
 _atom_site_fract_x
 _atom_site_fract_y
 _atom_site_fract_z
 _atom_site_occupancy
  Ho  Ho0  1  0.462247  0.599082  0.676026  1
  Ho  Ho1  1  0.962278  0.900724  0.823611  1
  Ho  Ho2  1  0.537291  0.098894  0.324182  1
  Ho  Ho3  1  0.037555  0.401214  0.176952  1
  Ho  Ho4  1  0.537291  0.401106  0.324182  1
  Ho  Ho5  1  0.037555  0.098786  0.176952  1
  Ho  Ho6  1  0.462247  0.900918  0.676026  1
  Ho  Ho7  1  0.962278  0.599276  0.823611  1
  Er  Er8  1  0.706957  0.250000  0.994945  1
  Lu  Lu9  1  0.624433  0.622812  0.157374  1
  Lu  Lu10  1  0.124797  0.877817  0.342483  1
  Lu  Lu11  1  0.375439  0.122298  0.842161  1
  Lu  Lu12  1  0.875571  0.378154  0.657680  1
  Lu  Lu13  1  0.375439  0.377702  0.842161  1
  Lu  Lu14  1  0.875571  0.121846  0.657680  1
  Lu  Lu15  1  0.624433  0.877188  0.157374  1
  Lu  Lu16  1  0.124797  0.622183  0.342483  1
  Lu  Lu17  1  0.793429  0.750000  0.493974  1
  Lu  Lu18  1  0.293241  0.750000  0.005399  1
  Lu  Lu19  1  0.207018  0.250000  0.505899  1
  Pb  Pb20  1  0.716467  0.457908  0.965506  1
  Pb  Pb21  1  0.216816  0.042572  0.535052  1
  Pb  Pb22  1  0.283376  0.957176  0.034430  1
  Pb  Pb23  1  0.783074  0.542767  0.464627  1
  Pb  Pb24  1  0.283376  0.542824  0.034430  1
  Pb  Pb25  1  0.783074  0.957233  0.464627  1
  Pb  Pb26  1  0.716467  0.042092  0.965506  1
  Pb  Pb27  1  0.216816  0.457428  0.535052  1
  Pb  Pb28  1  0.430587  0.750000  0.374104  1
  Pb  Pb29  1  0.931209  0.750000  0.125895  1
  Pb  Pb30  1  0.569575  0.250000  0.625105  1
  Pb  Pb31  1  0.070109  0.250000  0.873813  1
  Pb  Pb32  1  0.651409  0.750000  0.843124  1
  Pb  Pb33  1  0.151502  0.750000  0.655836  1
  Pb  Pb34  1  0.347654  0.250000  0.156409  1
  Pb  Pb35  1  0.848616  0.250000  0.345327  1
