# generated using pymatgen
data_Mn8FeNi3Se16
_symmetry_space_group_name_H-M   'P 1'
_cell_length_a   7.31764800
_cell_length_b   7.31764800
_cell_length_c   10.30192800
_cell_angle_alpha   90.00000000
_cell_angle_beta   90.00000000
_cell_angle_gamma   90.00000000
_symmetry_Int_Tables_number   1
_chemical_formula_structural   Mn8FeNi3Se16
_chemical_formula_sum   'Mn8 Fe1 Ni3 Se16'
_cell_volume   551.64735469
_cell_formula_units_Z   1
loop_
 _symmetry_equiv_pos_site_id
 _symmetry_equiv_pos_as_xyz
  1  'x, y, z'
loop_
 _atom_site_type_symbol
 _atom_site_label
 _atom_site_symmetry_multiplicity
 _atom_site_fract_x
 _atom_site_fract_y
 _atom_site_fract_z
 _atom_site_occupancy
  Mn  Mn0  1  0.751381  0.000000  0.624880  1
  Mn  Mn1  1  0.250529  0.500000  0.124570  1
  Mn  Mn2  1  0.248619  0.000000  0.624880  1
  Mn  Mn3  1  0.749471  0.500000  0.124570  1
  Mn  Mn4  1  0.000000  0.248619  0.375120  1
  Mn  Mn5  1  0.500000  0.749471  0.875430  1
  Mn  Mn6  1  0.500000  0.250529  0.875430  1
  Mn  Mn7  1  0.000000  0.751381  0.375120  1
  Fe  Fe8  1  0.500000  0.500000  0.500000  1
  Ni  Ni9  1  0.000000  0.000000  0.000000  1
  Ni  Ni10  1  0.500000  0.000000  0.250122  1
  Ni  Ni11  1  0.000000  0.500000  0.749878  1
  Se  Se12  1  0.761554  0.500000  0.369302  1
  Se  Se13  1  0.260467  0.000000  0.870536  1
  Se  Se14  1  0.238446  0.500000  0.369302  1
  Se  Se15  1  0.739533  0.000000  0.870536  1
  Se  Se16  1  0.500000  0.238446  0.630698  1
  Se  Se17  1  0.000000  0.739533  0.129464  1
  Se  Se18  1  0.500000  0.761554  0.630698  1
  Se  Se19  1  0.000000  0.260467  0.129464  1
  Se  Se20  1  0.240384  0.000000  0.380016  1
  Se  Se21  1  0.739505  0.500000  0.879508  1
  Se  Se22  1  0.759616  0.000000  0.380016  1
  Se  Se23  1  0.260495  0.500000  0.879508  1
  Se  Se24  1  0.500000  0.260495  0.120492  1
  Se  Se25  1  0.000000  0.759616  0.619984  1
  Se  Se26  1  0.500000  0.739505  0.120492  1
  Se  Se27  1  0.000000  0.240384  0.619984  1
