# generated using pymatgen
data_Tb12Si11Ge
_symmetry_space_group_name_H-M   'P 1'
_cell_length_a   3.87181900
_cell_length_b   5.72779805
_cell_length_c   24.08975129
_cell_angle_alpha   82.35127995
_cell_angle_beta   90.00000000
_cell_angle_gamma   90.00000000
_symmetry_Int_Tables_number   1
_chemical_formula_structural   Tb12Si11Ge
_chemical_formula_sum   'Tb12 Si11 Ge1'
_cell_volume   529.48508188
_cell_formula_units_Z   1
loop_
 _symmetry_equiv_pos_site_id
 _symmetry_equiv_pos_as_xyz
  1  'x, y, z'
loop_
 _atom_site_type_symbol
 _atom_site_label
 _atom_site_symmetry_multiplicity
 _atom_site_fract_x
 _atom_site_fract_y
 _atom_site_fract_z
 _atom_site_occupancy
  Tb  Tb0  1  0.750000  0.348996  0.059241  1
  Tb  Tb1  1  0.250000  0.659344  0.940031  1
  Tb  Tb2  1  0.750000  0.529273  0.228066  1
  Tb  Tb3  1  0.250000  0.470373  0.773215  1
  Tb  Tb4  1  0.750000  0.167403  0.393354  1
  Tb  Tb5  1  0.250000  0.827629  0.606227  1
  Tb  Tb6  1  0.750000  0.350648  0.559922  1
  Tb  Tb7  1  0.250000  0.644917  0.439612  1
  Tb  Tb8  1  0.750000  0.994332  0.727213  1
  Tb  Tb9  1  0.250000  0.001674  0.273395  1
  Tb  Tb10  1  0.750000  0.167458  0.893556  1
  Tb  Tb11  1  0.250000  0.840207  0.105803  1
  Si  Si12  1  0.750000  0.868257  0.012479  1
  Si  Si13  1  0.250000  0.141619  0.987258  1
  Si  Si14  1  0.750000  0.037802  0.180031  1
  Si  Si15  1  0.250000  0.954304  0.821228  1
  Si  Si16  1  0.750000  0.703833  0.345746  1
  Si  Si17  1  0.250000  0.291498  0.654202  1
  Si  Si18  1  0.750000  0.864399  0.512042  1
  Si  Si19  1  0.250000  0.132116  0.487258  1
  Si  Si20  1  0.750000  0.531617  0.679063  1
  Si  Si21  1  0.250000  0.463174  0.321365  1
  Si  Si22  1  0.750000  0.684003  0.846042  1
  Ge  Ge23  1  0.250000  0.325125  0.153652  1
