# generated using pymatgen
data_K2Ge(AuSe2)2
_symmetry_space_group_name_H-M   'P 1'
_cell_length_a   13.63105206
_cell_length_b   12.09785789
_cell_length_c   7.78571200
_cell_angle_alpha   83.54757747
_cell_angle_beta   61.87241829
_cell_angle_gamma   34.58001865
_symmetry_Int_Tables_number   1
_chemical_formula_structural   K2Ge(AuSe2)2
_chemical_formula_sum   'K4 Ge2 Au4 Se8'
_cell_volume   536.29914329
_cell_formula_units_Z   2
loop_
 _symmetry_equiv_pos_site_id
 _symmetry_equiv_pos_as_xyz
  1  'x, y, z'
loop_
 _atom_site_type_symbol
 _atom_site_label
 _atom_site_symmetry_multiplicity
 _atom_site_fract_x
 _atom_site_fract_y
 _atom_site_fract_z
 _atom_site_occupancy
  K  K0  1  0.315559  0.315559  0.684441  1
  K  K1  1  0.684441  0.684441  0.315559  1
  K  K2  1  0.934441  0.934441  0.565559  1
  K  K3  1  0.565559  0.565559  0.934441  1
  Ge  Ge4  1  0.500000  0.500000  0.500000  1
  Ge  Ge5  1  0.750000  0.750000  0.750000  1
  Au  Au6  1  0.931146  0.931146  0.068854  1
  Au  Au7  1  0.068854  0.068854  0.931146  1
  Au  Au8  1  0.318854  0.318854  0.181146  1
  Au  Au9  1  0.181146  0.181146  0.318854  1
  Se  Se10  1  0.531434  0.345621  0.260021  1
  Se  Se11  1  0.862925  0.260021  0.345621  1
  Se  Se12  1  0.260021  0.862925  0.531434  1
  Se  Se13  1  0.345621  0.531434  0.862925  1
  Se  Se14  1  0.718566  0.904379  0.989979  1
  Se  Se15  1  0.387075  0.989979  0.904379  1
  Se  Se16  1  0.989979  0.387075  0.718566  1
  Se  Se17  1  0.904379  0.718566  0.387075  1
