# generated using pymatgen
data_Sm3Ho3Pa2(ReB6)4
_symmetry_space_group_name_H-M   'P 1'
_cell_length_a   3.72527300
_cell_length_b   9.23286674
_cell_length_c   11.60183631
_cell_angle_alpha   90.47290882
_cell_angle_beta   90.00000000
_cell_angle_gamma   90.00000000
_symmetry_Int_Tables_number   1
_chemical_formula_structural   Sm3Ho3Pa2(ReB6)4
_chemical_formula_sum   'Sm3 Ho3 Pa2 Re4 B24'
_cell_volume   399.03097808
_cell_formula_units_Z   1
loop_
 _symmetry_equiv_pos_site_id
 _symmetry_equiv_pos_as_xyz
  1  'x, y, z'
loop_
 _atom_site_type_symbol
 _atom_site_label
 _atom_site_symmetry_multiplicity
 _atom_site_fract_x
 _atom_site_fract_y
 _atom_site_fract_z
 _atom_site_occupancy
  Sm  Sm0  1  0.000000  0.823777  0.085789  1
  Sm  Sm1  1  0.000000  0.176557  0.913580  1
  Sm  Sm2  1  0.000000  0.945182  0.374253  1
  Ho  Ho3  1  0.000000  0.054956  0.627116  1
  Ho  Ho4  1  0.000000  0.444022  0.126832  1
  Ho  Ho5  1  0.000000  0.556200  0.872623  1
  Pa  Pa6  1  0.000000  0.323202  0.413355  1
  Pa  Pa7  1  0.000000  0.676895  0.587535  1
  Re  Re8  1  0.000000  0.632789  0.325779  1
  Re  Re9  1  0.000000  0.365362  0.674699  1
  Re  Re10  1  0.000000  0.143374  0.182422  1
  Re  Re11  1  0.000000  0.857914  0.816753  1
  B  B12  1  0.500000  0.551844  0.433335  1
  B  B13  1  0.500000  0.446747  0.567312  1
  B  B14  1  0.500000  0.055348  0.068228  1
  B  B15  1  0.500000  0.945583  0.930748  1
  B  B16  1  0.500000  0.744534  0.420551  1
  B  B17  1  0.500000  0.253480  0.580352  1
  B  B18  1  0.500000  0.249530  0.081641  1
  B  B19  1  0.500000  0.751251  0.917853  1
  B  B20  1  0.500000  0.788249  0.267070  1
  B  B21  1  0.500000  0.209499  0.732677  1
  B  B22  1  0.500000  0.293822  0.234016  1
  B  B23  1  0.500000  0.707037  0.765783  1
  B  B24  1  0.500000  0.629562  0.186417  1
  B  B25  1  0.500000  0.369685  0.813291  1
  B  B26  1  0.500000  0.135626  0.313720  1
  B  B27  1  0.500000  0.866042  0.685980  1
  B  B28  1  0.500000  0.985639  0.212392  1
  B  B29  1  0.500000  0.015910  0.786015  1
  B  B30  1  0.500000  0.482497  0.287114  1
  B  B31  1  0.500000  0.516880  0.712859  1
  B  B32  1  0.500000  0.601503  0.028450  1
  B  B33  1  0.500000  0.398638  0.971055  1
  B  B34  1  0.500000  0.119381  0.468678  1
  B  B35  1  0.500000  0.881484  0.533729  1
