# generated using pymatgen
data_Ca3Nd7Ir4
_symmetry_space_group_name_H-M   'P 1'
_cell_length_a   8.86949039
_cell_length_b   8.83079951
_cell_length_c   7.45625787
_cell_angle_alpha   83.15853369
_cell_angle_beta   83.54294513
_cell_angle_gamma   44.48188492
_symmetry_Int_Tables_number   1
_chemical_formula_structural   Ca3Nd7Ir4
_chemical_formula_sum   'Ca3 Nd7 Ir4'
_cell_volume   405.97513856
_cell_formula_units_Z   1
loop_
 _symmetry_equiv_pos_site_id
 _symmetry_equiv_pos_as_xyz
  1  'x, y, z'
loop_
 _atom_site_type_symbol
 _atom_site_label
 _atom_site_symmetry_multiplicity
 _atom_site_fract_x
 _atom_site_fract_y
 _atom_site_fract_z
 _atom_site_occupancy
  Ca  Ca0  1  0.017417  0.799169  0.918342  1
  Ca  Ca1  1  0.201461  0.983039  0.581472  1
  Ca  Ca2  1  0.985435  0.200140  0.081599  1
  Nd  Nd3  1  0.798010  0.017860  0.416537  1
  Nd  Nd4  1  0.351835  0.213000  0.815865  1
  Nd  Nd5  1  0.786970  0.651220  0.682462  1
  Nd  Nd6  1  0.652698  0.784908  0.182244  1
  Nd  Nd7  1  0.209566  0.349759  0.316786  1
  Nd  Nd8  1  0.563620  0.436611  0.751270  1
  Nd  Nd9  1  0.433641  0.567524  0.249052  1
  Ir  Ir10  1  0.179439  0.592845  0.568642  1
  Ir  Ir11  1  0.415818  0.815001  0.926218  1
  Ir  Ir12  1  0.811676  0.409140  0.430891  1
  Ir  Ir13  1  0.592415  0.179784  0.078620  1
