# generated using pymatgen
data_Ba2La2PrNdO8
_symmetry_space_group_name_H-M   'P 1'
_cell_length_a   7.36853753
_cell_length_b   7.40238694
_cell_length_c   7.40238768
_cell_angle_alpha   60.43953096
_cell_angle_beta   60.27698689
_cell_angle_gamma   60.27698012
_symmetry_Int_Tables_number   1
_chemical_formula_structural   Ba2La2PrNdO8
_chemical_formula_sum   'Ba2 La2 Pr1 Nd1 O8'
_cell_volume   287.64010160
_cell_formula_units_Z   1
loop_
 _symmetry_equiv_pos_site_id
 _symmetry_equiv_pos_as_xyz
  1  'x, y, z'
loop_
 _atom_site_type_symbol
 _atom_site_label
 _atom_site_symmetry_multiplicity
 _atom_site_fract_x
 _atom_site_fract_y
 _atom_site_fract_z
 _atom_site_occupancy
  Ba  Ba0  1  0.499758  0.499992  0.499992  1
  Ba  Ba1  1  0.750242  0.750008  0.750008  1
  La  La2  1  0.125000  0.625000  0.125000  1
  La  La3  1  0.125000  0.125000  0.625000  1
  Pr  Pr4  1  0.625000  0.125000  0.125000  1
  Nd  Nd5  1  0.125000  0.125000  0.125000  1
  O  O6  1  0.356575  0.354384  0.930337  1
  O  O7  1  0.930745  0.354947  0.354947  1
  O  O8  1  0.356575  0.930337  0.354384  1
  O  O9  1  0.891740  0.893998  0.893998  1
  O  O10  1  0.358260  0.356002  0.356002  1
  O  O11  1  0.893425  0.319663  0.895616  1
  O  O12  1  0.319255  0.895053  0.895053  1
  O  O13  1  0.893425  0.895616  0.319663  1
