# generated using pymatgen
data_Y16MgHg3PtRh3
_symmetry_space_group_name_H-M   'P 1'
_cell_length_a   9.69120806
_cell_length_b   9.67694034
_cell_length_c   9.67694096
_cell_angle_alpha   59.94372668
_cell_angle_beta   59.98608245
_cell_angle_gamma   59.98607823
_symmetry_Int_Tables_number   1
_chemical_formula_structural   Y16MgHg3PtRh3
_chemical_formula_sum   'Y16 Mg1 Hg3 Pt1 Rh3'
_cell_volume   641.30216656
_cell_formula_units_Z   1
loop_
 _symmetry_equiv_pos_site_id
 _symmetry_equiv_pos_as_xyz
  1  'x, y, z'
loop_
 _atom_site_type_symbol
 _atom_site_label
 _atom_site_symmetry_multiplicity
 _atom_site_fract_x
 _atom_site_fract_y
 _atom_site_fract_z
 _atom_site_occupancy
  Y  Y0  1  0.599393  0.597852  0.597852  1
  Y  Y1  1  0.604286  0.601364  0.198419  1
  Y  Y2  1  0.604286  0.198419  0.601364  1
  Y  Y3  1  0.186840  0.606198  0.606198  1
  Y  Y4  1  0.054471  0.442038  0.442038  1
  Y  Y5  1  0.435543  0.061860  0.061860  1
  Y  Y6  1  0.438463  0.058017  0.439562  1
  Y  Y7  1  0.058311  0.439359  0.059228  1
  Y  Y8  1  0.438463  0.439562  0.058017  1
  Y  Y9  1  0.058311  0.059228  0.439359  1
  Y  Y10  1  0.185953  0.814106  0.814106  1
  Y  Y11  1  0.812153  0.187068  0.187068  1
  Y  Y12  1  0.812837  0.187536  0.814549  1
  Y  Y13  1  0.185671  0.813074  0.188303  1
  Y  Y14  1  0.812837  0.814549  0.187536  1
  Y  Y15  1  0.185671  0.188303  0.813074  1
  Mg  Mg16  1  0.534849  0.821137  0.821137  1
  Hg  Hg17  1  0.832542  0.836834  0.836834  1
  Hg  Hg18  1  0.832546  0.837343  0.492556  1
  Hg  Hg19  1  0.832546  0.492556  0.837343  1
  Pt  Pt20  1  0.390549  0.394738  0.394738  1
  Rh  Rh21  1  0.390087  0.394216  0.822112  1
  Rh  Rh22  1  0.390087  0.822112  0.394216  1
  Rh  Rh23  1  0.823305  0.392533  0.392533  1
