# generated using pymatgen
data_Dy2YCu4(SiSn)2
_symmetry_space_group_name_H-M   'P 1'
_cell_length_a   8.22363849
_cell_length_b   8.22363942
_cell_length_c   8.22363791
_cell_angle_alpha   149.31916033
_cell_angle_beta   132.12718456
_cell_angle_gamma   57.94036811
_symmetry_Int_Tables_number   1
_chemical_formula_structural   Dy2YCu4(SiSn)2
_chemical_formula_sum   'Dy2 Y1 Cu4 Si2 Sn2'
_cell_volume   208.90024722
_cell_formula_units_Z   1
loop_
 _symmetry_equiv_pos_site_id
 _symmetry_equiv_pos_as_xyz
  1  'x, y, z'
loop_
 _atom_site_type_symbol
 _atom_site_label
 _atom_site_symmetry_multiplicity
 _atom_site_fract_x
 _atom_site_fract_y
 _atom_site_fract_z
 _atom_site_occupancy
  Dy  Dy0  1  0.124175  0.124175  0.000000  1
  Dy  Dy1  1  0.875825  0.875825  0.000000  1
  Y  Y2  1  0.500000  0.000000  0.500000  1
  Cu  Cu3  1  0.464220  0.653293  0.810927  1
  Cu  Cu4  1  0.842366  0.653293  0.189073  1
  Cu  Cu5  1  0.157634  0.346707  0.810927  1
  Cu  Cu6  1  0.535780  0.346707  0.189073  1
  Si  Si7  1  0.180757  0.500000  0.680757  1
  Si  Si8  1  0.819243  0.500000  0.319243  1
  Sn  Sn9  1  0.718448  0.218448  0.500000  1
  Sn  Sn10  1  0.281552  0.781552  0.500000  1
