# generated using pymatgen
data_Er8Hf11Si16Ag
_symmetry_space_group_name_H-M   'P 1'
_cell_length_a   7.26416865
_cell_length_b   7.26416948
_cell_length_c   13.21723359
_cell_angle_alpha   90.17791678
_cell_angle_beta   89.82208023
_cell_angle_gamma   89.82883576
_symmetry_Int_Tables_number   1
_chemical_formula_structural   Er8Hf11Si16Ag
_chemical_formula_sum   'Er8 Hf11 Si16 Ag1'
_cell_volume   697.43913603
_cell_formula_units_Z   1
loop_
 _symmetry_equiv_pos_site_id
 _symmetry_equiv_pos_as_xyz
  1  'x, y, z'
loop_
 _atom_site_type_symbol
 _atom_site_label
 _atom_site_symmetry_multiplicity
 _atom_site_fract_x
 _atom_site_fract_y
 _atom_site_fract_z
 _atom_site_occupancy
  Er  Er0  1  0.345606  0.003950  0.464802  1
  Er  Er1  1  0.494694  0.846040  0.716214  1
  Er  Er2  1  0.503425  0.153377  0.211622  1
  Er  Er3  1  0.846040  0.494694  0.283786  1
  Er  Er4  1  0.153377  0.503425  0.788378  1
  Er  Er5  1  0.652191  0.002040  0.967008  1
  Er  Er6  1  0.003950  0.345606  0.535198  1
  Er  Er7  1  0.002040  0.652191  0.032992  1
  Hf  Hf8  1  0.177156  0.822151  0.249236  1
  Hf  Hf9  1  0.822151  0.177156  0.750764  1
  Hf  Hf10  1  0.675450  0.675450  0.500000  1
  Hf  Hf11  1  0.143339  0.007203  0.876780  1
  Hf  Hf12  1  0.497528  0.642848  0.120959  1
  Hf  Hf13  1  0.502483  0.355024  0.625519  1
  Hf  Hf14  1  0.642848  0.497528  0.879041  1
  Hf  Hf15  1  0.355024  0.502483  0.374481  1
  Hf  Hf16  1  0.854424  0.995719  0.373649  1
  Hf  Hf17  1  0.007203  0.143339  0.123220  1
  Hf  Hf18  1  0.995719  0.854424  0.626351  1
  Si  Si19  1  0.203304  0.142503  0.682791  1
  Si  Si20  1  0.367179  0.724126  0.926246  1
  Si  Si21  1  0.640508  0.292850  0.430747  1
  Si  Si22  1  0.724126  0.367179  0.073754  1
  Si  Si23  1  0.292850  0.640508  0.569253  1
  Si  Si24  1  0.795873  0.857758  0.179817  1
  Si  Si25  1  0.142503  0.203304  0.317209  1
  Si  Si26  1  0.857758  0.795873  0.820183  1
  Si  Si27  1  0.291629  0.936106  0.063983  1
  Si  Si28  1  0.549750  0.795246  0.313191  1
  Si  Si29  1  0.447567  0.204428  0.810963  1
  Si  Si30  1  0.795246  0.549750  0.686809  1
  Si  Si31  1  0.204428  0.447567  0.189037  1
  Si  Si32  1  0.703168  0.050045  0.564181  1
  Si  Si33  1  0.936106  0.291629  0.936017  1
  Si  Si34  1  0.050045  0.703168  0.435819  1
  Ag  Ag35  1  0.323312  0.323312  0.000000  1
