# generated using pymatgen
data_Er7Tm(Sc3Pt4)4
_symmetry_space_group_name_H-M   'P 1'
_cell_length_a   7.30075700
_cell_length_b   7.36571900
_cell_length_c   13.85630201
_cell_angle_alpha   90.00102202
_cell_angle_beta   89.99685911
_cell_angle_gamma   90.00180486
_symmetry_Int_Tables_number   1
_chemical_formula_structural   Er7Tm(Sc3Pt4)4
_chemical_formula_sum   'Er7 Tm1 Sc12 Pt16'
_cell_volume   745.12713630
_cell_formula_units_Z   1
loop_
 _symmetry_equiv_pos_site_id
 _symmetry_equiv_pos_as_xyz
  1  'x, y, z'
loop_
 _atom_site_type_symbol
 _atom_site_label
 _atom_site_symmetry_multiplicity
 _atom_site_fract_x
 _atom_site_fract_y
 _atom_site_fract_z
 _atom_site_occupancy
  Er  Er0  1  0.007275  0.176404  0.094750  1
  Er  Er1  1  0.992716  0.823577  0.905237  1
  Er  Er2  1  0.492722  0.676411  0.905224  1
  Er  Er3  1  0.992656  0.823530  0.594739  1
  Er  Er4  1  0.507290  0.323612  0.094743  1
  Er  Er5  1  0.007343  0.176441  0.405297  1
  Er  Er6  1  0.507311  0.323649  0.405327  1
  Tm  Tm7  1  0.492570  0.676487  0.594797  1
  Sc  Sc8  1  0.164431  0.501503  0.749972  1
  Sc  Sc9  1  0.835645  0.498524  0.250007  1
  Sc  Sc10  1  0.335646  0.001480  0.250005  1
  Sc  Sc11  1  0.664335  0.998485  0.749969  1
  Sc  Sc12  1  0.332395  0.166780  0.623596  1
  Sc  Sc13  1  0.667549  0.833181  0.376441  1
  Sc  Sc14  1  0.167669  0.666764  0.376405  1
  Sc  Sc15  1  0.667632  0.833227  0.123616  1
  Sc  Sc16  1  0.832288  0.333332  0.623572  1
  Sc  Sc17  1  0.332376  0.166794  0.876384  1
  Sc  Sc18  1  0.832352  0.333249  0.876385  1
  Sc  Sc19  1  0.167640  0.666770  0.123596  1
  Pt  Pt20  1  0.029549  0.121889  0.750009  1
  Pt  Pt21  1  0.970461  0.878096  0.249996  1
  Pt  Pt22  1  0.470461  0.621929  0.249991  1
  Pt  Pt23  1  0.529508  0.378199  0.749931  1
  Pt  Pt24  1  0.295874  0.854352  0.749892  1
  Pt  Pt25  1  0.704284  0.145525  0.250000  1
  Pt  Pt26  1  0.204286  0.354460  0.249992  1
  Pt  Pt27  1  0.795597  0.645534  0.749930  1
  Pt  Pt28  1  0.175162  0.459910  0.542790  1
  Pt  Pt29  1  0.824991  0.540287  0.457292  1
  Pt  Pt30  1  0.325100  0.959600  0.457291  1
  Pt  Pt31  1  0.825053  0.540254  0.042752  1
  Pt  Pt32  1  0.674892  0.040059  0.542782  1
  Pt  Pt33  1  0.174945  0.459755  0.957270  1
  Pt  Pt34  1  0.674958  0.040216  0.957264  1
  Pt  Pt35  1  0.325035  0.959736  0.042754  1
