# generated using pymatgen
data_Ho7Th(CdNi)2
_symmetry_space_group_name_H-M   'P 1'
_cell_length_a   9.55726445
_cell_length_b   9.55726401
_cell_length_c   9.56430200
_cell_angle_alpha   59.97563703
_cell_angle_beta   59.97563853
_cell_angle_gamma   59.96141045
_symmetry_Int_Tables_number   1
_chemical_formula_structural   Ho7Th(CdNi)2
_chemical_formula_sum   'Ho14 Th2 Cd4 Ni4'
_cell_volume   617.33190676
_cell_formula_units_Z   2
loop_
 _symmetry_equiv_pos_site_id
 _symmetry_equiv_pos_as_xyz
  1  'x, y, z'
loop_
 _atom_site_type_symbol
 _atom_site_label
 _atom_site_symmetry_multiplicity
 _atom_site_fract_x
 _atom_site_fract_y
 _atom_site_fract_z
 _atom_site_occupancy
  Ho  Ho0  1  0.348831  0.949620  0.350774  1
  Ho  Ho1  1  0.949620  0.348831  0.350774  1
  Ho  Ho2  1  0.812738  0.189033  0.187673  1
  Ho  Ho3  1  0.189033  0.812738  0.810555  1
  Ho  Ho4  1  0.189033  0.812738  0.187673  1
  Ho  Ho5  1  0.812738  0.189033  0.810555  1
  Ho  Ho6  1  0.188117  0.188117  0.811883  1
  Ho  Ho7  1  0.811831  0.811831  0.188169  1
  Ho  Ho8  1  0.936388  0.564522  0.565793  1
  Ho  Ho9  1  0.564522  0.936388  0.933297  1
  Ho  Ho10  1  0.564522  0.936388  0.565793  1
  Ho  Ho11  1  0.936388  0.564522  0.933297  1
  Ho  Ho12  1  0.565294  0.565294  0.934706  1
  Ho  Ho13  1  0.935508  0.935508  0.564492  1
  Th  Th14  1  0.344617  0.344617  0.350590  1
  Th  Th15  1  0.344617  0.344617  0.960175  1
  Cd  Cd16  1  0.582687  0.582687  0.579767  1
  Cd  Cd17  1  0.582687  0.582687  0.254861  1
  Cd  Cd18  1  0.583942  0.254041  0.581009  1
  Cd  Cd19  1  0.254041  0.583942  0.581009  1
  Ni  Ni20  1  0.143410  0.143410  0.142047  1
  Ni  Ni21  1  0.143410  0.143410  0.571132  1
  Ni  Ni22  1  0.145859  0.570168  0.141986  1
  Ni  Ni23  1  0.570168  0.145859  0.141986  1
