# generated using pymatgen
data_Pr6MgCd22Si
_symmetry_space_group_name_H-M   'P 1'
_cell_length_a   10.12843524
_cell_length_b   10.12843499
_cell_length_c   10.12843600
_cell_angle_alpha   59.99999672
_cell_angle_beta   59.99999752
_cell_angle_gamma   59.99999377
_symmetry_Int_Tables_number   1
_chemical_formula_structural   Pr6MgCd22Si
_chemical_formula_sum   'Pr6 Mg1 Cd22 Si1'
_cell_volume   734.70340354
_cell_formula_units_Z   1
loop_
 _symmetry_equiv_pos_site_id
 _symmetry_equiv_pos_as_xyz
  1  'x, y, z'
loop_
 _atom_site_type_symbol
 _atom_site_label
 _atom_site_symmetry_multiplicity
 _atom_site_fract_x
 _atom_site_fract_y
 _atom_site_fract_z
 _atom_site_occupancy
  Pr  Pr0  1  0.792990  0.792990  0.207010  1
  Pr  Pr1  1  0.207010  0.792990  0.207010  1
  Pr  Pr2  1  0.792990  0.207010  0.207010  1
  Pr  Pr3  1  0.207010  0.207010  0.792990  1
  Pr  Pr4  1  0.792990  0.207010  0.792990  1
  Pr  Pr5  1  0.207010  0.792990  0.792990  1
  Mg  Mg6  1  0.500000  0.500000  0.500000  1
  Cd  Cd7  1  0.833473  0.833473  0.499581  1
  Cd  Cd8  1  0.833473  0.499581  0.833473  1
  Cd  Cd9  1  0.499581  0.833473  0.833473  1
  Cd  Cd10  1  0.833473  0.833473  0.833473  1
  Cd  Cd11  1  0.166527  0.166527  0.500419  1
  Cd  Cd12  1  0.166527  0.500419  0.166527  1
  Cd  Cd13  1  0.500419  0.166527  0.166527  1
  Cd  Cd14  1  0.166527  0.166527  0.166527  1
  Cd  Cd15  1  0.621692  0.621692  0.134923  1
  Cd  Cd16  1  0.621692  0.134923  0.621692  1
  Cd  Cd17  1  0.134923  0.621692  0.621692  1
  Cd  Cd18  1  0.621692  0.621692  0.621692  1
  Cd  Cd19  1  0.378308  0.378308  0.865077  1
  Cd  Cd20  1  0.378308  0.865077  0.378308  1
  Cd  Cd21  1  0.865077  0.378308  0.378308  1
  Cd  Cd22  1  0.378308  0.378308  0.378308  1
  Cd  Cd23  1  0.000000  0.000000  0.500000  1
  Cd  Cd24  1  0.500000  0.000000  0.500000  1
  Cd  Cd25  1  0.000000  0.500000  0.500000  1
  Cd  Cd26  1  0.500000  0.500000  0.000000  1
  Cd  Cd27  1  0.000000  0.500000  0.000000  1
  Cd  Cd28  1  0.500000  0.000000  0.000000  1
  Si  Si29  1  0.000000  0.000000  0.000000  1
