# generated using pymatgen
data_Nd6Cd23Te
_symmetry_space_group_name_H-M   'P 1'
_cell_length_a   10.12315217
_cell_length_b   10.12315193
_cell_length_c   10.12315300
_cell_angle_alpha   59.99999976
_cell_angle_beta   60.00000057
_cell_angle_gamma   60.00000146
_symmetry_Int_Tables_number   1
_chemical_formula_structural   Nd6Cd23Te
_chemical_formula_sum   'Nd6 Cd23 Te1'
_cell_volume   733.55440412
_cell_formula_units_Z   1
loop_
 _symmetry_equiv_pos_site_id
 _symmetry_equiv_pos_as_xyz
  1  'x, y, z'
loop_
 _atom_site_type_symbol
 _atom_site_label
 _atom_site_symmetry_multiplicity
 _atom_site_fract_x
 _atom_site_fract_y
 _atom_site_fract_z
 _atom_site_occupancy
  Nd  Nd0  1  0.781812  0.781812  0.218188  1
  Nd  Nd1  1  0.218188  0.781812  0.218188  1
  Nd  Nd2  1  0.781812  0.218188  0.218188  1
  Nd  Nd3  1  0.218188  0.218188  0.781812  1
  Nd  Nd4  1  0.781812  0.218188  0.781812  1
  Nd  Nd5  1  0.218188  0.781812  0.781812  1
  Cd  Cd6  1  0.834747  0.834747  0.495758  1
  Cd  Cd7  1  0.834747  0.495758  0.834747  1
  Cd  Cd8  1  0.495758  0.834747  0.834747  1
  Cd  Cd9  1  0.834747  0.834747  0.834747  1
  Cd  Cd10  1  0.165253  0.165253  0.504242  1
  Cd  Cd11  1  0.165253  0.504242  0.165253  1
  Cd  Cd12  1  0.504242  0.165253  0.165253  1
  Cd  Cd13  1  0.165253  0.165253  0.165253  1
  Cd  Cd14  1  0.623237  0.623237  0.130290  1
  Cd  Cd15  1  0.623237  0.130290  0.623237  1
  Cd  Cd16  1  0.130290  0.623237  0.623237  1
  Cd  Cd17  1  0.623237  0.623237  0.623237  1
  Cd  Cd18  1  0.376763  0.376763  0.869710  1
  Cd  Cd19  1  0.376763  0.869710  0.376763  1
  Cd  Cd20  1  0.869710  0.376763  0.376763  1
  Cd  Cd21  1  0.376763  0.376763  0.376763  1
  Cd  Cd22  1  0.000000  0.000000  0.500000  1
  Cd  Cd23  1  0.500000  0.000000  0.500000  1
  Cd  Cd24  1  0.000000  0.500000  0.500000  1
  Cd  Cd25  1  0.500000  0.500000  0.000000  1
  Cd  Cd26  1  0.000000  0.500000  0.000000  1
  Cd  Cd27  1  0.500000  0.000000  0.000000  1
  Cd  Cd28  1  0.500000  0.500000  0.500000  1
  Te  Te29  1  0.000000  0.000000  0.000000  1
