# generated using pymatgen
data_Np4Al18TcPd5
_symmetry_space_group_name_H-M   'P 1'
_cell_length_a   7.64887834
_cell_length_b   7.64857023
_cell_length_c   9.50176151
_cell_angle_alpha   89.65789102
_cell_angle_beta   89.65352776
_cell_angle_gamma   119.05180860
_symmetry_Int_Tables_number   1
_chemical_formula_structural   Np4Al18TcPd5
_chemical_formula_sum   'Np4 Al18 Tc1 Pd5'
_cell_volume   485.90682360
_cell_formula_units_Z   1
loop_
 _symmetry_equiv_pos_site_id
 _symmetry_equiv_pos_as_xyz
  1  'x, y, z'
loop_
 _atom_site_type_symbol
 _atom_site_label
 _atom_site_symmetry_multiplicity
 _atom_site_fract_x
 _atom_site_fract_y
 _atom_site_fract_z
 _atom_site_occupancy
  Np  Np0  1  0.994887  0.675319  0.244535  1
  Np  Np1  1  0.005113  0.324681  0.755465  1
  Np  Np2  1  0.675359  0.995010  0.244485  1
  Np  Np3  1  0.324641  0.004990  0.755515  1
  Al  Al4  1  0.132106  0.132122  0.248833  1
  Al  Al5  1  0.867894  0.867878  0.751167  1
  Al  Al6  1  0.002423  0.334481  0.077847  1
  Al  Al7  1  0.997577  0.665519  0.922153  1
  Al  Al8  1  0.000536  0.662277  0.576575  1
  Al  Al9  1  0.337782  0.999508  0.423453  1
  Al  Al10  1  0.999464  0.337723  0.423425  1
  Al  Al11  1  0.662218  0.000492  0.576547  1
  Al  Al12  1  0.665520  0.997549  0.922180  1
  Al  Al13  1  0.334480  0.002451  0.077820  1
  Al  Al14  1  0.331960  0.331955  0.556852  1
  Al  Al15  1  0.668040  0.668045  0.443148  1
  Al  Al16  1  0.668129  0.668108  0.052196  1
  Al  Al17  1  0.331871  0.331892  0.947804  1
  Al  Al18  1  0.342532  0.550408  0.250821  1
  Al  Al19  1  0.657468  0.449592  0.749179  1
  Al  Al20  1  0.550480  0.342560  0.250829  1
  Al  Al21  1  0.449520  0.657440  0.749171  1
  Tc  Tc22  1  0.000000  0.000000  0.000000  1
  Pd  Pd23  1  0.671426  0.328492  0.999963  1
  Pd  Pd24  1  0.328574  0.671508  0.000037  1
  Pd  Pd25  1  0.329533  0.670543  0.499969  1
  Pd  Pd26  1  0.670467  0.329457  0.500031  1
  Pd  Pd27  1  0.000000  0.000000  0.500000  1
