# generated using pymatgen
data_Ca2Nb3As7Rh9
_symmetry_space_group_name_H-M   'P 1'
_cell_length_a   4.00190400
_cell_length_b   10.01391631
_cell_length_c   10.01391800
_cell_angle_alpha   119.99999899
_cell_angle_beta   90.00000000
_cell_angle_gamma   90.00000000
_symmetry_Int_Tables_number   1
_chemical_formula_structural   Ca2Nb3As7Rh9
_chemical_formula_sum   'Ca2 Nb3 As7 Rh9'
_cell_volume   347.54039514
_cell_formula_units_Z   1
loop_
 _symmetry_equiv_pos_site_id
 _symmetry_equiv_pos_as_xyz
  1  'x, y, z'
loop_
 _atom_site_type_symbol
 _atom_site_label
 _atom_site_symmetry_multiplicity
 _atom_site_fract_x
 _atom_site_fract_y
 _atom_site_fract_z
 _atom_site_occupancy
  Ca  Ca0  1  0.000000  0.666667  0.333333  1
  Ca  Ca1  1  0.500000  0.333333  0.666667  1
  Nb  Nb2  1  0.500000  0.780355  0.903822  1
  Nb  Nb3  1  0.500000  0.123466  0.219645  1
  Nb  Nb4  1  0.500000  0.096178  0.876534  1
  As  As5  1  0.500000  0.709764  0.121950  1
  As  As6  1  0.500000  0.412188  0.290236  1
  As  As7  1  0.500000  0.878050  0.587812  1
  As  As8  1  0.000000  0.000000  0.000000  1
  As  As9  1  0.000000  0.582988  0.701513  1
  As  As10  1  0.000000  0.118525  0.417012  1
  As  As11  1  0.000000  0.298487  0.881475  1
  Rh  Rh12  1  0.000000  0.566010  0.935605  1
  Rh  Rh13  1  0.000000  0.369594  0.433990  1
  Rh  Rh14  1  0.000000  0.064395  0.630406  1
  Rh  Rh15  1  0.000000  0.883505  0.159108  1
  Rh  Rh16  1  0.000000  0.275603  0.116495  1
  Rh  Rh17  1  0.000000  0.840892  0.724397  1
  Rh  Rh18  1  0.500000  0.951892  0.387443  1
  Rh  Rh19  1  0.500000  0.435551  0.048108  1
  Rh  Rh20  1  0.500000  0.612557  0.564449  1
