# generated using pymatgen
data_Nd3(LuSb4)5
_symmetry_space_group_name_H-M   'P 1'
_cell_length_a   4.28129600
_cell_length_b   13.21779431
_cell_length_c   14.58473013
_cell_angle_alpha   77.85650086
_cell_angle_beta   90.00000000
_cell_angle_gamma   90.00000000
_symmetry_Int_Tables_number   1
_chemical_formula_structural   Nd3(LuSb4)5
_chemical_formula_sum   'Nd3 Lu5 Sb20'
_cell_volume   806.87156914
_cell_formula_units_Z   1
loop_
 _symmetry_equiv_pos_site_id
 _symmetry_equiv_pos_as_xyz
  1  'x, y, z'
loop_
 _atom_site_type_symbol
 _atom_site_label
 _atom_site_symmetry_multiplicity
 _atom_site_fract_x
 _atom_site_fract_y
 _atom_site_fract_z
 _atom_site_occupancy
  Nd  Nd0  1  0.750000  0.333300  0.424024  1
  Nd  Nd1  1  0.250000  0.950792  0.357397  1
  Nd  Nd2  1  0.750000  0.046994  0.642260  1
  Lu  Lu3  1  0.250000  0.399996  0.774587  1
  Lu  Lu4  1  0.750000  0.602601  0.226902  1
  Lu  Lu5  1  0.250000  0.660513  0.856467  1
  Lu  Lu6  1  0.750000  0.339413  0.142151  1
  Lu  Lu7  1  0.250000  0.668163  0.577688  1
  Sb  Sb8  1  0.250000  0.147796  0.784719  1
  Sb  Sb9  1  0.750000  0.851512  0.214709  1
  Sb  Sb10  1  0.250000  0.142142  0.479160  1
  Sb  Sb11  1  0.750000  0.847993  0.521253  1
  Sb  Sb12  1  0.250000  0.157696  0.167467  1
  Sb  Sb13  1  0.750000  0.841865  0.830726  1
  Sb  Sb14  1  0.250000  0.421314  0.976707  1
  Sb  Sb15  1  0.750000  0.579203  0.023502  1
  Sb  Sb16  1  0.750000  0.030680  0.903794  1
  Sb  Sb17  1  0.250000  0.968658  0.095996  1
  Sb  Sb18  1  0.750000  0.142083  0.317025  1
  Sb  Sb19  1  0.250000  0.854387  0.680260  1
  Sb  Sb20  1  0.750000  0.282607  0.938906  1
  Sb  Sb21  1  0.250000  0.717356  0.061412  1
  Sb  Sb22  1  0.750000  0.294875  0.658001  1
  Sb  Sb23  1  0.250000  0.707418  0.346221  1
  Sb  Sb24  1  0.750000  0.578198  0.735877  1
  Sb  Sb25  1  0.250000  0.426869  0.258154  1
  Sb  Sb26  1  0.750000  0.576560  0.445934  1
  Sb  Sb27  1  0.250000  0.429015  0.558700  1
