# generated using pymatgen
data_Tb3Dy3(TmPt2)2
_symmetry_space_group_name_H-M   'P 1'
_cell_length_a   4.77114100
_cell_length_b   7.15189309
_cell_length_c   8.79119157
_cell_angle_alpha   90.01135407
_cell_angle_beta   90.00000000
_cell_angle_gamma   90.00000000
_symmetry_Int_Tables_number   1
_chemical_formula_structural   Tb3Dy3(TmPt2)2
_chemical_formula_sum   'Tb3 Dy3 Tm2 Pt4'
_cell_volume   299.97910205
_cell_formula_units_Z   1
loop_
 _symmetry_equiv_pos_site_id
 _symmetry_equiv_pos_as_xyz
  1  'x, y, z'
loop_
 _atom_site_type_symbol
 _atom_site_label
 _atom_site_symmetry_multiplicity
 _atom_site_fract_x
 _atom_site_fract_y
 _atom_site_fract_z
 _atom_site_occupancy
  Tb  Tb0  1  0.250000  0.491540  0.169078  1
  Tb  Tb1  1  0.750000  0.008751  0.670234  1
  Tb  Tb2  1  0.250000  0.991991  0.330239  1
  Dy  Dy3  1  0.750000  0.643068  0.420767  1
  Dy  Dy4  1  0.750000  0.143726  0.078865  1
  Dy  Dy5  1  0.750000  0.509007  0.831698  1
  Tm  Tm6  1  0.250000  0.356616  0.581120  1
  Tm  Tm7  1  0.250000  0.855333  0.919890  1
  Pt  Pt8  1  0.750000  0.242851  0.409074  1
  Pt  Pt9  1  0.250000  0.756530  0.592818  1
  Pt  Pt10  1  0.750000  0.743230  0.089819  1
  Pt  Pt11  1  0.250000  0.257359  0.906398  1
