# generated using pymatgen
data_Lu5GaCo5
_symmetry_space_group_name_H-M   'P 1'
_cell_length_a   5.35020642
_cell_length_b   5.35020569
_cell_length_c   20.24376800
_cell_angle_alpha   90.00000000
_cell_angle_beta   90.00000000
_cell_angle_gamma   43.50827540
_symmetry_Int_Tables_number   1
_chemical_formula_structural   Lu5GaCo5
_chemical_formula_sum   'Lu10 Ga2 Co10'
_cell_volume   398.94282903
_cell_formula_units_Z   2
loop_
 _symmetry_equiv_pos_site_id
 _symmetry_equiv_pos_as_xyz
  1  'x, y, z'
loop_
 _atom_site_type_symbol
 _atom_site_label
 _atom_site_symmetry_multiplicity
 _atom_site_fract_x
 _atom_site_fract_y
 _atom_site_fract_z
 _atom_site_occupancy
  Lu  Lu0  1  0.292428  0.292428  0.250000  1
  Lu  Lu1  1  0.707572  0.707572  0.750000  1
  Lu  Lu2  1  0.293112  0.293112  0.066193  1
  Lu  Lu3  1  0.706888  0.706888  0.566193  1
  Lu  Lu4  1  0.706888  0.706888  0.933808  1
  Lu  Lu5  1  0.293112  0.293112  0.433808  1
  Lu  Lu6  1  0.004710  0.004710  0.157733  1
  Lu  Lu7  1  0.995291  0.995291  0.657734  1
  Lu  Lu8  1  0.995291  0.995291  0.842267  1
  Lu  Lu9  1  0.004710  0.004710  0.342266  1
  Ga  Ga10  1  0.000000  0.000000  0.000000  1
  Ga  Ga11  1  0.000000  0.000000  0.500000  1
  Co  Co12  1  0.587570  0.587570  0.250000  1
  Co  Co13  1  0.412430  0.412430  0.750000  1
  Co  Co14  1  0.584585  0.584585  0.058631  1
  Co  Co15  1  0.415414  0.415414  0.558631  1
  Co  Co16  1  0.415414  0.415414  0.941369  1
  Co  Co17  1  0.584585  0.584585  0.441369  1
  Co  Co18  1  0.710390  0.710390  0.154777  1
  Co  Co19  1  0.289610  0.289610  0.654777  1
  Co  Co20  1  0.289610  0.289610  0.845223  1
  Co  Co21  1  0.710390  0.710390  0.345223  1
