# generated using pymatgen
data_Ta12CrGa8Cu3N4
_symmetry_space_group_name_H-M   'P 1'
_cell_length_a   8.17858877
_cell_length_b   8.17858955
_cell_length_c   8.24311428
_cell_angle_alpha   60.25860226
_cell_angle_beta   60.25860229
_cell_angle_gamma   59.99999322
_symmetry_Int_Tables_number   1
_chemical_formula_structural   Ta12CrGa8Cu3N4
_chemical_formula_sum   'Ta12 Cr1 Ga8 Cu3 N4'
_cell_volume   391.39892707
_cell_formula_units_Z   1
loop_
 _symmetry_equiv_pos_site_id
 _symmetry_equiv_pos_as_xyz
  1  'x, y, z'
loop_
 _atom_site_type_symbol
 _atom_site_label
 _atom_site_symmetry_multiplicity
 _atom_site_fract_x
 _atom_site_fract_y
 _atom_site_fract_z
 _atom_site_occupancy
  Ta  Ta0  1  0.807948  0.807948  0.188741  1
  Ta  Ta1  1  0.187367  0.187367  0.814000  1
  Ta  Ta2  1  0.811264  0.187367  0.814000  1
  Ta  Ta3  1  0.195362  0.807948  0.188741  1
  Ta  Ta4  1  0.187367  0.811264  0.814000  1
  Ta  Ta5  1  0.807948  0.195362  0.188741  1
  Ta  Ta6  1  0.442052  0.442052  0.061259  1
  Ta  Ta7  1  0.062633  0.062633  0.436000  1
  Ta  Ta8  1  0.438736  0.062633  0.436000  1
  Ta  Ta9  1  0.054638  0.442052  0.061259  1
  Ta  Ta10  1  0.062633  0.438736  0.436000  1
  Ta  Ta11  1  0.442052  0.054638  0.061259  1
  Cr  Cr12  1  0.625000  0.625000  0.125000  1
  Ga  Ga13  1  0.754469  0.414452  0.416626  1
  Ga  Ga14  1  0.414452  0.754469  0.416626  1
  Ga  Ga15  1  0.412161  0.412161  0.763515  1
  Ga  Ga16  1  0.414452  0.414452  0.416626  1
  Ga  Ga17  1  0.495531  0.835548  0.833374  1
  Ga  Ga18  1  0.835548  0.495531  0.833374  1
  Ga  Ga19  1  0.837839  0.837839  0.486485  1
  Ga  Ga20  1  0.835548  0.835548  0.833374  1
  Cu  Cu21  1  0.125000  0.625000  0.625000  1
  Cu  Cu22  1  0.625000  0.125000  0.625000  1
  Cu  Cu23  1  0.625000  0.625000  0.625000  1
  N  N24  1  0.625000  0.125000  0.125000  1
  N  N25  1  0.125000  0.625000  0.125000  1
  N  N26  1  0.125000  0.125000  0.625000  1
  N  N27  1  0.125000  0.125000  0.125000  1
