# generated using pymatgen
data_Sr5BiRh2
_symmetry_space_group_name_H-M   'P 1'
_cell_length_a   9.74916337
_cell_length_b   9.74916382
_cell_length_c   9.74678582
_cell_angle_alpha   129.72709660
_cell_angle_beta   129.72709658
_cell_angle_gamma   73.86105169
_symmetry_Int_Tables_number   1
_chemical_formula_structural   Sr5BiRh2
_chemical_formula_sum   'Sr10 Bi2 Rh4'
_cell_volume   534.46572081
_cell_formula_units_Z   2
loop_
 _symmetry_equiv_pos_site_id
 _symmetry_equiv_pos_as_xyz
  1  'x, y, z'
loop_
 _atom_site_type_symbol
 _atom_site_label
 _atom_site_symmetry_multiplicity
 _atom_site_fract_x
 _atom_site_fract_y
 _atom_site_fract_z
 _atom_site_occupancy
  Sr  Sr0  1  0.000000  0.000000  0.000000  1
  Sr  Sr1  1  0.500000  0.500000  0.000000  1
  Sr  Sr2  1  0.199961  0.699961  0.159537  1
  Sr  Sr3  1  0.459594  0.959594  0.159557  1
  Sr  Sr4  1  0.040480  0.199917  0.499993  1
  Sr  Sr5  1  0.300083  0.459520  0.500007  1
  Sr  Sr6  1  0.699916  0.540480  0.499993  1
  Sr  Sr7  1  0.959520  0.800084  0.500007  1
  Sr  Sr8  1  0.540406  0.040406  0.840443  1
  Sr  Sr9  1  0.800038  0.300038  0.840463  1
  Bi  Bi10  1  0.249994  0.250006  0.000000  1
  Bi  Bi11  1  0.750006  0.749994  0.000000  1
  Rh  Rh12  1  0.882851  0.382852  0.265739  1
  Rh  Rh13  1  0.382753  0.117246  0.499999  1
  Rh  Rh14  1  0.617245  0.882753  0.499999  1
  Rh  Rh15  1  0.117148  0.617148  0.734260  1
