# generated using pymatgen
data_Pr5Nd(CoSn6)2
_symmetry_space_group_name_H-M   'P 1'
_cell_length_a   8.71164144
_cell_length_b   8.71164251
_cell_length_c   13.42318700
_cell_angle_alpha   90.00000000
_cell_angle_beta   90.00000000
_cell_angle_gamma   148.88779246
_symmetry_Int_Tables_number   1
_chemical_formula_structural   Pr5Nd(CoSn6)2
_chemical_formula_sum   'Pr5 Nd1 Co2 Sn12'
_cell_volume   526.38969857
_cell_formula_units_Z   1
loop_
 _symmetry_equiv_pos_site_id
 _symmetry_equiv_pos_as_xyz
  1  'x, y, z'
loop_
 _atom_site_type_symbol
 _atom_site_label
 _atom_site_symmetry_multiplicity
 _atom_site_fract_x
 _atom_site_fract_y
 _atom_site_fract_z
 _atom_site_occupancy
  Pr  Pr0  1  0.899713  0.100287  0.091668  1
  Pr  Pr1  1  0.100284  0.899716  0.591272  1
  Pr  Pr2  1  0.898384  0.101616  0.750000  1
  Pr  Pr3  1  0.100284  0.899716  0.908728  1
  Pr  Pr4  1  0.899713  0.100287  0.408332  1
  Nd  Nd5  1  0.101832  0.898168  0.250000  1
  Co  Co6  1  0.299154  0.700846  0.250000  1
  Co  Co7  1  0.700691  0.299309  0.750000  1
  Sn  Sn8  1  0.752962  0.247038  0.571473  1
  Sn  Sn9  1  0.430767  0.569233  0.577854  1
  Sn  Sn10  1  0.569647  0.430353  0.421323  1
  Sn  Sn11  1  0.737673  0.262327  0.250000  1
  Sn  Sn12  1  0.261839  0.738161  0.750000  1
  Sn  Sn13  1  0.246696  0.753304  0.071738  1
  Sn  Sn14  1  0.246696  0.753304  0.428262  1
  Sn  Sn15  1  0.569647  0.430353  0.078677  1
  Sn  Sn16  1  0.452543  0.547457  0.250000  1
  Sn  Sn17  1  0.547747  0.452253  0.750000  1
  Sn  Sn18  1  0.752962  0.247038  0.928527  1
  Sn  Sn19  1  0.430767  0.569233  0.922146  1
