# generated using pymatgen
data_CaTmPa2Ge6Ir7
_symmetry_space_group_name_H-M   'P 1'
_cell_length_a   7.28571734
_cell_length_b   7.30096785
_cell_length_c   7.28678391
_cell_angle_alpha   109.34845222
_cell_angle_beta   109.59711695
_cell_angle_gamma   109.34759958
_symmetry_Int_Tables_number   1
_chemical_formula_structural   CaTmPa2Ge6Ir7
_chemical_formula_sum   'Ca1 Tm1 Pa2 Ge6 Ir7'
_cell_volume   298.81943387
_cell_formula_units_Z   1
loop_
 _symmetry_equiv_pos_site_id
 _symmetry_equiv_pos_as_xyz
  1  'x, y, z'
loop_
 _atom_site_type_symbol
 _atom_site_label
 _atom_site_symmetry_multiplicity
 _atom_site_fract_x
 _atom_site_fract_y
 _atom_site_fract_z
 _atom_site_occupancy
  Ca  Ca0  1  0.000000  0.000000  0.500000  1
  Tm  Tm1  1  0.500000  0.000000  0.000000  1
  Pa  Pa2  1  0.000000  0.500000  0.000000  1
  Pa  Pa3  1  0.500000  0.500000  0.500000  1
  Ge  Ge4  1  0.684235  0.689572  0.007644  1
  Ge  Ge5  1  0.315274  0.999949  0.317068  1
  Ge  Ge6  1  0.994608  0.310421  0.318013  1
  Ge  Ge7  1  0.315765  0.310428  0.992356  1
  Ge  Ge8  1  0.684726  0.000051  0.682932  1
  Ge  Ge9  1  0.005392  0.689579  0.681987  1
  Ir  Ir10  1  0.747449  0.255358  0.503145  1
  Ir  Ir11  1  0.748278  0.496570  0.248307  1
  Ir  Ir12  1  0.507879  0.255348  0.752151  1
  Ir  Ir13  1  0.251722  0.503430  0.751693  1
  Ir  Ir14  1  0.252551  0.744642  0.496855  1
  Ir  Ir15  1  0.492121  0.744652  0.247849  1
  Ir  Ir16  1  0.000000  0.000000  0.000000  1
