# generated using pymatgen
data_Ce2Zn16Au
_symmetry_space_group_name_H-M   'P 1'
_cell_length_a   6.87631520
_cell_length_b   6.87631515
_cell_length_c   6.87631521
_cell_angle_alpha   82.50428390
_cell_angle_beta   97.49570604
_cell_angle_gamma   97.49570891
_symmetry_Int_Tables_number   1
_chemical_formula_structural   Ce2Zn16Au
_chemical_formula_sum   'Ce2 Zn16 Au1'
_cell_volume   317.46942291
_cell_formula_units_Z   1
loop_
 _symmetry_equiv_pos_site_id
 _symmetry_equiv_pos_as_xyz
  1  'x, y, z'
loop_
 _atom_site_type_symbol
 _atom_site_label
 _atom_site_symmetry_multiplicity
 _atom_site_fract_x
 _atom_site_fract_y
 _atom_site_fract_z
 _atom_site_occupancy
  Ce  Ce0  1  0.662408  0.337593  0.337593  1
  Ce  Ce1  1  0.337293  0.662708  0.662708  1
  Zn  Zn2  1  0.000909  0.502268  0.999091  1
  Zn  Zn3  1  0.295524  0.295919  0.000086  1
  Zn  Zn4  1  0.497732  0.999091  0.999092  1
  Zn  Zn5  1  0.704081  0.704475  0.000086  1
  Zn  Zn6  1  0.352005  0.647994  0.160116  1
  Zn  Zn7  1  0.999915  0.704477  0.295919  1
  Zn  Zn8  1  0.295524  0.000085  0.295919  1
  Zn  Zn9  1  0.161790  0.352854  0.352854  1
  Zn  Zn10  1  0.647145  0.838209  0.352855  1
  Zn  Zn11  1  0.000909  0.999090  0.502268  1
  Zn  Zn12  1  0.839883  0.647994  0.647995  1
  Zn  Zn13  1  0.352006  0.160117  0.647995  1
  Zn  Zn14  1  0.704081  0.000085  0.704476  1
  Zn  Zn15  1  0.999915  0.295919  0.704477  1
  Zn  Zn16  1  0.647145  0.352854  0.838210  1
  Zn  Zn17  1  0.103874  0.896127  0.896127  1
  Au  Au18  1  0.897861  0.102140  0.102140  1
