# generated using pymatgen
data_Y6ZrSn23Ru6
_symmetry_space_group_name_H-M   'P 1'
_cell_length_a   9.84892490
_cell_length_b   9.84369307
_cell_length_c   10.05636399
_cell_angle_alpha   89.99999920
_cell_angle_beta   89.93784007
_cell_angle_gamma   119.98242954
_symmetry_Int_Tables_number   1
_chemical_formula_structural   Y6ZrSn23Ru6
_chemical_formula_sum   'Y6 Zr1 Sn23 Ru6'
_cell_volume   844.49100923
_cell_formula_units_Z   1
loop_
 _symmetry_equiv_pos_site_id
 _symmetry_equiv_pos_as_xyz
  1  'x, y, z'
loop_
 _atom_site_type_symbol
 _atom_site_label
 _atom_site_symmetry_multiplicity
 _atom_site_fract_x
 _atom_site_fract_y
 _atom_site_fract_z
 _atom_site_occupancy
  Y  Y0  1  0.001442  0.000721  0.000181  1
  Y  Y1  1  0.483825  0.967441  0.304420  1
  Y  Y2  1  0.483825  0.516383  0.304420  1
  Y  Y3  1  0.967538  0.483769  0.696747  1
  Y  Y4  1  0.516046  0.032729  0.694996  1
  Y  Y5  1  0.516046  0.483317  0.694996  1
  Zr  Zr6  1  0.025909  0.512955  0.302601  1
  Sn  Sn7  1  0.001185  0.000593  0.498981  1
  Sn  Sn8  1  0.118399  0.878742  0.274684  1
  Sn  Sn9  1  0.766273  0.883137  0.273997  1
  Sn  Sn10  1  0.118399  0.239658  0.274684  1
  Sn  Sn11  1  0.882738  0.118482  0.725688  1
  Sn  Sn12  1  0.234285  0.117142  0.726266  1
  Sn  Sn13  1  0.882738  0.764256  0.725688  1
  Sn  Sn14  1  0.349518  0.000369  0.999822  1
  Sn  Sn15  1  0.651969  0.650986  0.000390  1
  Sn  Sn16  1  0.000446  0.350214  0.000531  1
  Sn  Sn17  1  0.349518  0.349148  0.999822  1
  Sn  Sn18  1  0.000446  0.650232  0.000531  1
  Sn  Sn19  1  0.651969  0.000983  0.000390  1
  Sn  Sn20  1  0.784564  0.560507  0.460281  1
  Sn  Sn21  1  0.784564  0.224058  0.460281  1
  Sn  Sn22  1  0.439162  0.219582  0.461690  1
  Sn  Sn23  1  0.218377  0.440933  0.535591  1
  Sn  Sn24  1  0.218377  0.777443  0.535591  1
  Sn  Sn25  1  0.560614  0.780307  0.538664  1
  Sn  Sn26  1  0.667323  0.333661  0.179316  1
  Sn  Sn27  1  0.334340  0.667170  0.821318  1
  Sn  Sn28  1  0.666029  0.333014  0.874203  1
  Sn  Sn29  1  0.321118  0.660560  0.131295  1
  Ru  Ru30  1  0.170173  0.829432  0.798032  1
  Ru  Ru31  1  0.661011  0.830506  0.798890  1
  Ru  Ru32  1  0.170173  0.340743  0.798032  1
  Ru  Ru33  1  0.831756  0.173480  0.202284  1
  Ru  Ru34  1  0.338149  0.169074  0.202409  1
  Ru  Ru35  1  0.831756  0.658275  0.202284  1
