# generated using pymatgen
data_La16Cd4Ru3Pt
_symmetry_space_group_name_H-M   'P 1'
_cell_length_a   10.11234418
_cell_length_b   10.11234368
_cell_length_c   10.09373359
_cell_angle_alpha   59.93899135
_cell_angle_beta   59.93899464
_cell_angle_gamma   60.00000064
_symmetry_Int_Tables_number   1
_chemical_formula_structural   La16Cd4Ru3Pt
_chemical_formula_sum   'La16 Cd4 Ru3 Pt1'
_cell_volume   729.18783997
_cell_formula_units_Z   1
loop_
 _symmetry_equiv_pos_site_id
 _symmetry_equiv_pos_as_xyz
  1  'x, y, z'
loop_
 _atom_site_type_symbol
 _atom_site_label
 _atom_site_symmetry_multiplicity
 _atom_site_fract_x
 _atom_site_fract_y
 _atom_site_fract_z
 _atom_site_occupancy
  La  La0  1  0.900890  0.900890  0.907072  1
  La  La1  1  0.438212  0.438212  0.061002  1
  La  La2  1  0.059546  0.059546  0.433068  1
  La  La3  1  0.438212  0.062575  0.061002  1
  La  La4  1  0.310018  0.689903  0.310176  1
  La  La5  1  0.689903  0.689903  0.310176  1
  La  La6  1  0.689903  0.310018  0.310176  1
  La  La7  1  0.291150  0.900890  0.907072  1
  La  La8  1  0.900890  0.291150  0.907072  1
  La  La9  1  0.310420  0.687486  0.691673  1
  La  La10  1  0.904038  0.904038  0.287887  1
  La  La11  1  0.062575  0.438212  0.061002  1
  La  La12  1  0.310420  0.310420  0.691673  1
  La  La13  1  0.059546  0.447840  0.433068  1
  La  La14  1  0.447840  0.059546  0.433068  1
  La  La15  1  0.687486  0.310420  0.691673  1
  Cd  Cd16  1  0.670814  0.670814  0.987557  1
  Cd  Cd17  1  0.988027  0.670585  0.670801  1
  Cd  Cd18  1  0.670585  0.988027  0.670801  1
  Cd  Cd19  1  0.670585  0.670585  0.670801  1
  Ru  Ru20  1  0.112683  0.112683  0.110493  1
  Ru  Ru21  1  0.112683  0.664139  0.110493  1
  Ru  Ru22  1  0.664139  0.112683  0.110493  1
  Pt  Pt23  1  0.109433  0.109433  0.671701  1
