# generated using pymatgen
data_La16Ho3LuIr12
_symmetry_space_group_name_H-M   'P 1'
_cell_length_a   11.36960500
_cell_length_b   11.36960500
_cell_length_c   6.54715400
_cell_angle_alpha   90.00000000
_cell_angle_beta   90.00000000
_cell_angle_gamma   90.00000000
_symmetry_Int_Tables_number   1
_chemical_formula_structural   La16Ho3LuIr12
_chemical_formula_sum   'La16 Ho3 Lu1 Ir12'
_cell_volume   846.33696546
_cell_formula_units_Z   1
loop_
 _symmetry_equiv_pos_site_id
 _symmetry_equiv_pos_as_xyz
  1  'x, y, z'
loop_
 _atom_site_type_symbol
 _atom_site_label
 _atom_site_symmetry_multiplicity
 _atom_site_fract_x
 _atom_site_fract_y
 _atom_site_fract_z
 _atom_site_occupancy
  La  La0  1  0.287817  0.088440  0.386946  1
  La  La1  1  0.287820  0.911674  0.886964  1
  La  La2  1  0.712180  0.088326  0.886964  1
  La  La3  1  0.712183  0.911560  0.386946  1
  La  La4  1  0.588399  0.787716  0.886822  1
  La  La5  1  0.588341  0.212625  0.387232  1
  La  La6  1  0.411659  0.787375  0.387232  1
  La  La7  1  0.411601  0.212284  0.886822  1
  La  La8  1  0.212625  0.411659  0.612768  1
  La  La9  1  0.212284  0.588399  0.113178  1
  La  La10  1  0.787716  0.411601  0.113178  1
  La  La11  1  0.787375  0.588341  0.612768  1
  La  La12  1  0.911674  0.712180  0.113036  1
  La  La13  1  0.911560  0.287817  0.613054  1
  La  La14  1  0.088440  0.712183  0.613054  1
  La  La15  1  0.088326  0.287820  0.113036  1
  Ho  Ho16  1  0.000000  0.000000  0.500000  1
  Ho  Ho17  1  0.000000  0.000000  0.000000  1
  Ho  Ho18  1  0.500000  0.500000  0.000000  1
  Lu  Lu19  1  0.500000  0.500000  0.500000  1
  Ir  Ir20  1  0.851829  0.148161  0.249988  1
  Ir  Ir21  1  0.851839  0.851829  0.750012  1
  Ir  Ir22  1  0.148161  0.148171  0.750012  1
  Ir  Ir23  1  0.148171  0.851839  0.249988  1
  Ir  Ir24  1  0.647368  0.352610  0.748856  1
  Ir  Ir25  1  0.647390  0.647368  0.251144  1
  Ir  Ir26  1  0.352610  0.352632  0.251144  1
  Ir  Ir27  1  0.352632  0.647390  0.748856  1
  Ir  Ir28  1  0.500000  0.000000  0.118040  1
  Ir  Ir29  1  0.500000  0.000000  0.618026  1
  Ir  Ir30  1  0.000000  0.500000  0.881960  1
  Ir  Ir31  1  0.000000  0.500000  0.381974  1
