# generated using pymatgen
data_Tb8Gd4TlGaCo4
_symmetry_space_group_name_H-M   'P 1'
_cell_length_a   8.37805527
_cell_length_b   8.37805641
_cell_length_c   8.37805582
_cell_angle_alpha   112.28540715
_cell_angle_beta   109.19931518
_cell_angle_gamma   106.97319010
_symmetry_Int_Tables_number   1
_chemical_formula_structural   Tb8Gd4TlGaCo4
_chemical_formula_sum   'Tb8 Gd4 Tl1 Ga1 Co4'
_cell_volume   451.71173269
_cell_formula_units_Z   1
loop_
 _symmetry_equiv_pos_site_id
 _symmetry_equiv_pos_as_xyz
  1  'x, y, z'
loop_
 _atom_site_type_symbol
 _atom_site_label
 _atom_site_symmetry_multiplicity
 _atom_site_fract_x
 _atom_site_fract_y
 _atom_site_fract_z
 _atom_site_occupancy
  Tb  Tb0  1  0.674778  0.860943  0.186165  1
  Tb  Tb1  1  0.325222  0.511389  0.186165  1
  Tb  Tb2  1  0.325222  0.139057  0.813835  1
  Tb  Tb3  1  0.674778  0.488611  0.813835  1
  Tb  Tb4  1  0.179453  0.217704  0.397157  1
  Tb  Tb5  1  0.820547  0.217704  0.038252  1
  Tb  Tb6  1  0.179453  0.782296  0.961748  1
  Tb  Tb7  1  0.820547  0.782296  0.602843  1
  Gd  Gd8  1  0.031376  0.732323  0.299053  1
  Gd  Gd9  1  0.968624  0.267677  0.700947  1
  Gd  Gd10  1  0.566729  0.267677  0.299053  1
  Gd  Gd11  1  0.433271  0.732323  0.700947  1
  Tl  Tl12  1  0.500000  0.000000  0.500000  1
  Ga  Ga13  1  0.000000  0.500000  0.500000  1
  Co  Co14  1  0.661848  0.500000  0.161848  1
  Co  Co15  1  0.338152  0.500000  0.838152  1
  Co  Co16  1  0.886663  0.886663  0.000000  1
  Co  Co17  1  0.113337  0.113337  0.000000  1
