# generated using pymatgen
data_Rb2AlGaH8
_symmetry_space_group_name_H-M   'P 1'
_cell_length_a   5.84080400
_cell_length_b   7.68701000
_cell_length_c   9.58196100
_cell_angle_alpha   90.00000000
_cell_angle_beta   90.00000000
_cell_angle_gamma   90.00000000
_symmetry_Int_Tables_number   1
_chemical_formula_structural   Rb2AlGaH8
_chemical_formula_sum   'Rb4 Al2 Ga2 H16'
_cell_volume   430.21393929
_cell_formula_units_Z   2
loop_
 _symmetry_equiv_pos_site_id
 _symmetry_equiv_pos_as_xyz
  1  'x, y, z'
loop_
 _atom_site_type_symbol
 _atom_site_label
 _atom_site_symmetry_multiplicity
 _atom_site_fract_x
 _atom_site_fract_y
 _atom_site_fract_z
 _atom_site_occupancy
  Rb  Rb0  1  0.250000  0.337447  0.682874  1
  Rb  Rb1  1  0.250000  0.162553  0.182874  1
  Rb  Rb2  1  0.750000  0.662513  0.317650  1
  Rb  Rb3  1  0.750000  0.837487  0.817650  1
  Al  Al4  1  0.250000  0.692470  0.062055  1
  Al  Al5  1  0.250000  0.807530  0.562055  1
  Ga  Ga6  1  0.750000  0.306781  0.937718  1
  Ga  Ga7  1  0.750000  0.193219  0.437718  1
  H  H8  1  0.250000  0.611205  0.904766  1
  H  H9  1  0.250000  0.888795  0.404766  1
  H  H10  1  0.750000  0.387529  0.090789  1
  H  H11  1  0.750000  0.112471  0.590789  1
  H  H12  1  0.250000  0.544585  0.184578  1
  H  H13  1  0.250000  0.955415  0.684578  1
  H  H14  1  0.750000  0.451705  0.818678  1
  H  H15  1  0.750000  0.048295  0.318678  1
  H  H16  1  0.972033  0.185705  0.918002  1
  H  H17  1  0.527967  0.314295  0.418002  1
  H  H18  1  0.476764  0.816749  0.082444  1
  H  H19  1  0.023236  0.683251  0.582444  1
  H  H20  1  0.023236  0.816749  0.082444  1
  H  H21  1  0.476764  0.683251  0.582444  1
  H  H22  1  0.527967  0.185705  0.918002  1
  H  H23  1  0.972033  0.314295  0.418002  1
