# generated using pymatgen
data_Ca5Th(SiRh2)6
_symmetry_space_group_name_H-M   'P 1'
_cell_length_a   5.65542000
_cell_length_b   5.65541966
_cell_length_c   14.91621300
_cell_angle_alpha   90.00000000
_cell_angle_beta   90.00000000
_cell_angle_gamma   120.00000197
_symmetry_Int_Tables_number   1
_chemical_formula_structural   Ca5Th(SiRh2)6
_chemical_formula_sum   'Ca5 Th1 Si6 Rh12'
_cell_volume   413.16060078
_cell_formula_units_Z   1
loop_
 _symmetry_equiv_pos_site_id
 _symmetry_equiv_pos_as_xyz
  1  'x, y, z'
loop_
 _atom_site_type_symbol
 _atom_site_label
 _atom_site_symmetry_multiplicity
 _atom_site_fract_x
 _atom_site_fract_y
 _atom_site_fract_z
 _atom_site_occupancy
  Ca  Ca0  1  0.333333  0.666667  0.257368  1
  Ca  Ca1  1  0.333333  0.666667  0.463175  1
  Ca  Ca2  1  0.666667  0.333334  0.540144  1
  Ca  Ca3  1  0.666667  0.333334  0.748312  1
  Ca  Ca4  1  0.666667  0.333334  0.954335  1
  Th  Th5  1  0.333333  0.666667  0.038201  1
  Si  Si6  1  0.000000  0.000000  0.999050  1
  Si  Si7  1  0.000000  0.000000  0.249904  1
  Si  Si8  1  0.666667  0.333334  0.250028  1
  Si  Si9  1  0.000000  0.000000  0.499986  1
  Si  Si10  1  0.000000  0.000000  0.749816  1
  Si  Si11  1  0.333333  0.666667  0.750218  1
  Rh  Rh12  1  0.332249  0.166125  0.131381  1
  Rh  Rh13  1  0.833875  0.166125  0.131381  1
  Rh  Rh14  1  0.833875  0.667751  0.131381  1
  Rh  Rh15  1  0.330343  0.165172  0.366854  1
  Rh  Rh16  1  0.834828  0.165172  0.366854  1
  Rh  Rh17  1  0.834828  0.669657  0.366854  1
  Rh  Rh18  1  0.165164  0.330329  0.632952  1
  Rh  Rh19  1  0.165164  0.834836  0.632952  1
  Rh  Rh20  1  0.669672  0.834836  0.632952  1
  Rh  Rh21  1  0.165678  0.331357  0.868634  1
  Rh  Rh22  1  0.165678  0.834322  0.868634  1
  Rh  Rh23  1  0.668644  0.834322  0.868634  1
