# generated using pymatgen
data_Cs3Ta2SbSe11
_symmetry_space_group_name_H-M   'P 1'
_cell_length_a   10.71539154
_cell_length_b   10.71539203
_cell_length_c   10.44181265
_cell_angle_alpha   84.89416393
_cell_angle_beta   84.89416421
_cell_angle_gamma   84.77765373
_symmetry_Int_Tables_number   1
_chemical_formula_structural   Cs3Ta2SbSe11
_chemical_formula_sum   'Cs6 Ta4 Sb2 Se22'
_cell_volume   1185.24907224
_cell_formula_units_Z   2
loop_
 _symmetry_equiv_pos_site_id
 _symmetry_equiv_pos_as_xyz
  1  'x, y, z'
loop_
 _atom_site_type_symbol
 _atom_site_label
 _atom_site_symmetry_multiplicity
 _atom_site_fract_x
 _atom_site_fract_y
 _atom_site_fract_z
 _atom_site_occupancy
  Cs  Cs0  1  0.355763  0.191296  0.658048  1
  Cs  Cs1  1  0.191296  0.355763  0.158048  1
  Cs  Cs2  1  0.955435  0.819963  0.395793  1
  Cs  Cs3  1  0.819963  0.955435  0.895793  1
  Cs  Cs4  1  0.567072  0.721703  0.558287  1
  Cs  Cs5  1  0.721703  0.567072  0.058287  1
  Ta  Ta6  1  0.453684  0.918395  0.170710  1
  Ta  Ta7  1  0.209859  0.806966  0.983912  1
  Ta  Ta8  1  0.918395  0.453684  0.670710  1
  Ta  Ta9  1  0.806966  0.209859  0.483912  1
  Sb  Sb10  1  0.586885  0.250006  0.214298  1
  Sb  Sb11  1  0.250006  0.586885  0.714298  1
  Se  Se12  1  0.428337  0.100798  0.329651  1
  Se  Se13  1  0.137963  0.042459  0.928582  1
  Se  Se14  1  0.383112  0.618789  0.913298  1
  Se  Se15  1  0.887819  0.465025  0.421358  1
  Se  Se16  1  0.817761  0.167450  0.236520  1
  Se  Se17  1  0.485626  0.097669  0.987875  1
  Se  Se18  1  0.618789  0.383112  0.413298  1
  Se  Se19  1  0.167450  0.817761  0.736520  1
  Se  Se20  1  0.659507  0.840896  0.223745  1
  Se  Se21  1  0.032825  0.697572  0.064760  1
  Se  Se22  1  0.697572  0.032825  0.564760  1
  Se  Se23  1  0.097669  0.485626  0.487875  1
  Se  Se24  1  0.699031  0.349875  0.681172  1
  Se  Se25  1  0.465025  0.887819  0.921358  1
  Se  Se26  1  0.189431  0.982698  0.145249  1
  Se  Se27  1  0.982698  0.189431  0.645249  1
  Se  Se28  1  0.840896  0.659507  0.723745  1
  Se  Se29  1  0.824194  0.308333  0.864202  1
  Se  Se30  1  0.308333  0.824194  0.364202  1
  Se  Se31  1  0.042459  0.137963  0.428582  1
  Se  Se32  1  0.349875  0.699031  0.181172  1
  Se  Se33  1  0.100798  0.428337  0.829651  1
