# generated using pymatgen
data_Yb7TmBi6
_symmetry_space_group_name_H-M   'P 1'
_cell_length_a   8.24553072
_cell_length_b   8.33325357
_cell_length_c   8.33325264
_cell_angle_alpha   109.68348124
_cell_angle_beta   109.25811726
_cell_angle_gamma   109.25811986
_symmetry_Int_Tables_number   1
_chemical_formula_structural   Yb7TmBi6
_chemical_formula_sum   'Yb7 Tm1 Bi6'
_cell_volume   441.93793888
_cell_formula_units_Z   1
loop_
 _symmetry_equiv_pos_site_id
 _symmetry_equiv_pos_as_xyz
  1  'x, y, z'
loop_
 _atom_site_type_symbol
 _atom_site_label
 _atom_site_symmetry_multiplicity
 _atom_site_fract_x
 _atom_site_fract_y
 _atom_site_fract_z
 _atom_site_occupancy
  Yb  Yb0  1  0.649599  0.500000  0.000000  1
  Yb  Yb1  1  0.499649  0.001433  0.651516  1
  Yb  Yb2  1  0.355132  0.351701  0.355543  1
  Yb  Yb3  1  0.503430  0.003842  0.148299  1
  Yb  Yb4  1  0.998216  0.650083  0.498567  1
  Yb  Yb5  1  0.848133  0.848484  0.849917  1
  Yb  Yb6  1  0.999589  0.144457  0.496158  1
  Tm  Tm7  1  0.148579  0.500000  0.000000  1
  Bi  Bi8  1  0.370159  0.623900  0.756130  1
  Bi  Bi9  1  0.882951  0.256177  0.125450  1
  Bi  Bi10  1  0.614029  0.743870  0.367770  1
  Bi  Bi11  1  0.126774  0.869273  0.243823  1
  Bi  Bi12  1  0.246259  0.132230  0.876100  1
  Bi  Bi13  1  0.757501  0.374550  0.630727  1
