# generated using pymatgen
data_Ac8Pr11Si16Hg
_symmetry_space_group_name_H-M   'P 1'
_cell_length_a   8.12918586
_cell_length_b   8.12918610
_cell_length_c   15.40653507
_cell_angle_alpha   90.15920001
_cell_angle_beta   89.84080041
_cell_angle_gamma   89.90276847
_symmetry_Int_Tables_number   1
_chemical_formula_structural   Ac8Pr11Si16Hg
_chemical_formula_sum   'Ac8 Pr11 Si16 Hg1'
_cell_volume   1018.11095804
_cell_formula_units_Z   1
loop_
 _symmetry_equiv_pos_site_id
 _symmetry_equiv_pos_as_xyz
  1  'x, y, z'
loop_
 _atom_site_type_symbol
 _atom_site_label
 _atom_site_symmetry_multiplicity
 _atom_site_fract_x
 _atom_site_fract_y
 _atom_site_fract_z
 _atom_site_occupancy
  Ac  Ac0  1  0.372229  0.015725  0.452434  1
  Ac  Ac1  1  0.484805  0.864910  0.705839  1
  Ac  Ac2  1  0.506087  0.126746  0.192645  1
  Ac  Ac3  1  0.864910  0.484805  0.294161  1
  Ac  Ac4  1  0.126746  0.506087  0.807355  1
  Ac  Ac5  1  0.621207  0.996079  0.952942  1
  Ac  Ac6  1  0.015725  0.372229  0.547566  1
  Ac  Ac7  1  0.996079  0.621207  0.047058  1
  Pr  Pr8  1  0.192305  0.811651  0.250492  1
  Pr  Pr9  1  0.811651  0.192305  0.749508  1
  Pr  Pr10  1  0.691155  0.691155  0.500000  1
  Pr  Pr11  1  0.134271  0.999714  0.881243  1
  Pr  Pr12  1  0.507477  0.620393  0.123510  1
  Pr  Pr13  1  0.481133  0.375514  0.626483  1
  Pr  Pr14  1  0.620393  0.507477  0.876490  1
  Pr  Pr15  1  0.375514  0.481133  0.373517  1
  Pr  Pr16  1  0.867970  0.015242  0.374258  1
  Pr  Pr17  1  0.999714  0.134271  0.118757  1
  Pr  Pr18  1  0.015242  0.867970  0.625742  1
  Si  Si19  1  0.198774  0.163875  0.702289  1
  Si  Si20  1  0.344864  0.717564  0.945269  1
  Si  Si21  1  0.665615  0.300570  0.453341  1
  Si  Si22  1  0.717564  0.344864  0.054731  1
  Si  Si23  1  0.300570  0.665615  0.546659  1
  Si  Si24  1  0.800222  0.838211  0.195618  1
  Si  Si25  1  0.163875  0.198774  0.297711  1
  Si  Si26  1  0.838211  0.800222  0.804382  1
  Si  Si27  1  0.280163  0.899438  0.064279  1
  Si  Si28  1  0.580268  0.786309  0.306453  1
  Si  Si29  1  0.426356  0.210030  0.804917  1
  Si  Si30  1  0.786309  0.580268  0.693547  1
  Si  Si31  1  0.210030  0.426356  0.195083  1
  Si  Si32  1  0.713947  0.077388  0.561327  1
  Si  Si33  1  0.899438  0.280163  0.935721  1
  Si  Si34  1  0.077388  0.713947  0.438673  1
  Hg  Hg35  1  0.311794  0.311794  0.000000  1
