# generated using pymatgen
data_CdAgBi2(Ir2O7)2
_symmetry_space_group_name_H-M   'P 1'
_cell_length_a   7.31310699
_cell_length_b   7.19950295
_cell_length_c   7.31310721
_cell_angle_alpha   60.14245217
_cell_angle_beta   60.69611323
_cell_angle_gamma   60.14244831
_symmetry_Int_Tables_number   1
_chemical_formula_structural   CdAgBi2(Ir2O7)2
_chemical_formula_sum   'Cd1 Ag1 Bi2 Ir4 O14'
_cell_volume   274.26212884
_cell_formula_units_Z   1
loop_
 _symmetry_equiv_pos_site_id
 _symmetry_equiv_pos_as_xyz
  1  'x, y, z'
loop_
 _atom_site_type_symbol
 _atom_site_label
 _atom_site_symmetry_multiplicity
 _atom_site_fract_x
 _atom_site_fract_y
 _atom_site_fract_z
 _atom_site_occupancy
  Cd  Cd0  1  0.125000  0.125000  0.125000  1
  Ag  Ag1  1  0.125000  0.625000  0.125000  1
  Bi  Bi2  1  0.625000  0.125000  0.125000  1
  Bi  Bi3  1  0.125000  0.125000  0.625000  1
  Ir  Ir4  1  0.125000  0.625000  0.625000  1
  Ir  Ir5  1  0.625000  0.125000  0.625000  1
  Ir  Ir6  1  0.625000  0.625000  0.125000  1
  Ir  Ir7  1  0.625000  0.625000  0.625000  1
  O  O8  1  0.694253  0.708442  0.300357  1
  O  O9  1  0.297475  0.293500  0.698682  1
  O  O10  1  0.706737  0.292738  0.706737  1
  O  O11  1  0.308099  0.693157  0.308099  1
  O  O12  1  0.300357  0.708442  0.694253  1
  O  O13  1  0.698682  0.293500  0.297475  1
  O  O14  1  0.555747  0.541558  0.949643  1
  O  O15  1  0.952525  0.956500  0.551318  1
  O  O16  1  0.543263  0.957262  0.543263  1
  O  O17  1  0.941901  0.556843  0.941901  1
  O  O18  1  0.949643  0.541558  0.555747  1
  O  O19  1  0.551318  0.956500  0.952525  1
  O  O20  1  0.241968  0.261434  0.241968  1
  O  O21  1  0.008032  0.988566  0.008032  1
