# generated using pymatgen
data_DyTm5TiAl23Ru8
_symmetry_space_group_name_H-M   'P 1'
_cell_length_a   8.78594151
_cell_length_b   8.78594045
_cell_length_c   9.56473003
_cell_angle_alpha   90.00841697
_cell_angle_beta   89.99158338
_cell_angle_gamma   119.95484429
_symmetry_Int_Tables_number   1
_chemical_formula_structural   DyTm5TiAl23Ru8
_chemical_formula_sum   'Dy1 Tm5 Ti1 Al23 Ru8'
_cell_volume   639.70145340
_cell_formula_units_Z   1
loop_
 _symmetry_equiv_pos_site_id
 _symmetry_equiv_pos_as_xyz
  1  'x, y, z'
loop_
 _atom_site_type_symbol
 _atom_site_label
 _atom_site_symmetry_multiplicity
 _atom_site_fract_x
 _atom_site_fract_y
 _atom_site_fract_z
 _atom_site_occupancy
  Dy  Dy0  1  0.807269  0.192731  0.750331  1
  Tm  Tm1  1  0.193703  0.806297  0.250795  1
  Tm  Tm2  1  0.388228  0.194101  0.750373  1
  Tm  Tm3  1  0.612255  0.806279  0.250730  1
  Tm  Tm4  1  0.805899  0.611772  0.750373  1
  Tm  Tm5  1  0.193721  0.387745  0.250730  1
  Ti  Ti6  1  0.666516  0.333484  0.003390  1
  Al  Al7  1  0.333346  0.666654  0.019695  1
  Al  Al8  1  0.333227  0.666773  0.479100  1
  Al  Al9  1  0.666553  0.333447  0.519895  1
  Al  Al10  1  0.837964  0.162036  0.421846  1
  Al  Al11  1  0.162690  0.837310  0.576363  1
  Al  Al12  1  0.323788  0.162013  0.422344  1
  Al  Al13  1  0.162640  0.837360  0.921607  1
  Al  Al14  1  0.674184  0.836708  0.576265  1
  Al  Al15  1  0.840809  0.159191  0.078621  1
  Al  Al16  1  0.837987  0.676212  0.422344  1
  Al  Al17  1  0.674226  0.836773  0.921675  1
  Al  Al18  1  0.163292  0.325816  0.576265  1
  Al  Al19  1  0.318003  0.159037  0.077891  1
  Al  Al20  1  0.163227  0.325774  0.921675  1
  Al  Al21  1  0.840963  0.681997  0.077891  1
  Al  Al22  1  0.438176  0.561824  0.748026  1
  Al  Al23  1  0.559969  0.440031  0.249830  1
  Al  Al24  1  0.124246  0.562547  0.748123  1
  Al  Al25  1  0.879909  0.440198  0.249811  1
  Al  Al26  1  0.437453  0.875754  0.748123  1
  Al  Al27  1  0.559802  0.120091  0.249811  1
  Al  Al28  1  0.001153  0.998847  0.749801  1
  Al  Al29  1  0.999887  0.000113  0.249987  1
  Ru  Ru30  1  0.501887  0.498113  0.997671  1
  Ru  Ru31  1  0.996640  0.498834  0.998183  1
  Ru  Ru32  1  0.500376  0.499624  0.497742  1
  Ru  Ru33  1  0.501166  0.003360  0.998183  1
  Ru  Ru34  1  0.999241  0.500064  0.497527  1
  Ru  Ru35  1  0.499936  0.000759  0.497527  1
  Ru  Ru36  1  0.999803  0.000197  0.998521  1
  Ru  Ru37  1  0.999869  0.000131  0.500935  1
