# generated using pymatgen
data_YbTm3ReOs7
_symmetry_space_group_name_H-M   'P 1'
_cell_length_a   5.39741647
_cell_length_b   5.23451344
_cell_length_c   8.84455910
_cell_angle_alpha   90.01757908
_cell_angle_beta   89.99099568
_cell_angle_gamma   120.87520617
_symmetry_Int_Tables_number   1
_chemical_formula_structural   YbTm3ReOs7
_chemical_formula_sum   'Yb1 Tm3 Re1 Os7'
_cell_volume   214.47218598
_cell_formula_units_Z   1
loop_
 _symmetry_equiv_pos_site_id
 _symmetry_equiv_pos_as_xyz
  1  'x, y, z'
loop_
 _atom_site_type_symbol
 _atom_site_label
 _atom_site_symmetry_multiplicity
 _atom_site_fract_x
 _atom_site_fract_y
 _atom_site_fract_z
 _atom_site_occupancy
  Yb  Yb0  1  0.669891  0.338662  0.561733  1
  Tm  Tm1  1  0.332910  0.667969  0.438068  1
  Tm  Tm2  1  0.332902  0.667689  0.065896  1
  Tm  Tm3  1  0.670985  0.340325  0.932003  1
  Re  Re4  1  0.166153  0.329832  0.749927  1
  Os  Os5  1  0.006630  0.014944  0.499670  1
  Os  Os6  1  0.006897  0.016458  0.001863  1
  Os  Os7  1  0.172456  0.822890  0.751062  1
  Os  Os8  1  0.649359  0.821698  0.751462  1
  Os  Os9  1  0.822990  0.647812  0.248699  1
  Os  Os10  1  0.827371  0.164464  0.249953  1
  Os  Os11  1  0.341458  0.167254  0.249663  1
