# generated using pymatgen
data_Sr10Al4Si13Sn
_symmetry_space_group_name_H-M   'P 1'
_cell_length_a   6.45336795
_cell_length_b   6.45336686
_cell_length_c   17.92580666
_cell_angle_alpha   81.26749990
_cell_angle_beta   81.26749210
_cell_angle_gamma   99.29583603
_symmetry_Int_Tables_number   1
_chemical_formula_structural   Sr10Al4Si13Sn
_chemical_formula_sum   'Sr10 Al4 Si13 Sn1'
_cell_volume   716.19395413
_cell_formula_units_Z   1
loop_
 _symmetry_equiv_pos_site_id
 _symmetry_equiv_pos_as_xyz
  1  'x, y, z'
loop_
 _atom_site_type_symbol
 _atom_site_label
 _atom_site_symmetry_multiplicity
 _atom_site_fract_x
 _atom_site_fract_y
 _atom_site_fract_z
 _atom_site_occupancy
  Sr  Sr0  1  0.750108  0.249900  0.001784  1
  Sr  Sr1  1  0.122014  0.565631  0.784822  1
  Sr  Sr2  1  0.294634  0.706329  0.499322  1
  Sr  Sr3  1  0.762185  0.762185  0.637901  1
  Sr  Sr4  1  0.243037  0.243037  0.357298  1
  Sr  Sr5  1  0.565631  0.122014  0.784822  1
  Sr  Sr6  1  0.249900  0.750108  0.001784  1
  Sr  Sr7  1  0.706329  0.294634  0.499322  1
  Sr  Sr8  1  0.430661  0.877908  0.213441  1
  Sr  Sr9  1  0.877908  0.430661  0.213441  1
  Al  Al10  1  0.220068  0.220068  0.074283  1
  Al  Al11  1  0.935910  0.935910  0.264405  1
  Al  Al12  1  0.062399  0.062399  0.735864  1
  Al  Al13  1  0.784944  0.784944  0.934095  1
  Si  Si14  1  0.352880  0.352880  0.640208  1
  Si  Si15  1  0.292112  0.292112  0.933303  1
  Si  Si16  1  0.926781  0.926781  0.130878  1
  Si  Si17  1  0.646565  0.646565  0.359341  1
  Si  Si18  1  0.414271  0.414271  0.157589  1
  Si  Si19  1  0.071068  0.071068  0.870911  1
  Si  Si20  1  0.821673  0.821673  0.452992  1
  Si  Si21  1  0.336781  0.962029  0.639045  1
  Si  Si22  1  0.661591  0.037504  0.360030  1
  Si  Si23  1  0.179275  0.179275  0.545531  1
  Si  Si24  1  0.962029  0.336781  0.639045  1
  Si  Si25  1  0.037504  0.661591  0.360030  1
  Si  Si26  1  0.694159  0.694159  0.073279  1
  Sn  Sn27  1  0.597582  0.597582  0.835232  1
