# generated using pymatgen
data_Tb3Y(Al8Pt3)3
_symmetry_space_group_name_H-M   'P 1'
_cell_length_a   7.53015528
_cell_length_b   7.55175019
_cell_length_c   13.18351733
_cell_angle_alpha   84.56684588
_cell_angle_beta   79.12174263
_cell_angle_gamma   59.97100802
_symmetry_Int_Tables_number   1
_chemical_formula_structural   Tb3Y(Al8Pt3)3
_chemical_formula_sum   'Tb3 Y1 Al24 Pt9'
_cell_volume   637.39908866
_cell_formula_units_Z   1
loop_
 _symmetry_equiv_pos_site_id
 _symmetry_equiv_pos_as_xyz
  1  'x, y, z'
loop_
 _atom_site_type_symbol
 _atom_site_label
 _atom_site_symmetry_multiplicity
 _atom_site_fract_x
 _atom_site_fract_y
 _atom_site_fract_z
 _atom_site_occupancy
  Tb  Tb0  1  0.606644  0.831585  0.192029  1
  Tb  Tb1  1  0.734083  0.498420  0.807700  1
  Tb  Tb2  1  0.265956  0.501527  0.192297  1
  Y  Y3  1  0.393332  0.168468  0.807961  1
  Al  Al4  1  0.684569  0.833775  0.944611  1
  Al  Al5  1  0.315393  0.166287  0.055386  1
  Al  Al6  1  0.146866  0.832367  0.561172  1
  Al  Al7  1  0.853125  0.167628  0.438827  1
  Al  Al8  1  0.479726  0.166821  0.558597  1
  Al  Al9  1  0.520281  0.833191  0.441398  1
  Al  Al10  1  0.216932  0.165274  0.330229  1
  Al  Al11  1  0.782981  0.834809  0.669775  1
  Al  Al12  1  0.437875  0.506148  0.669796  1
  Al  Al13  1  0.562109  0.493759  0.330225  1
  Al  Al14  1  0.109850  0.159934  0.668992  1
  Al  Al15  1  0.890236  0.840071  0.331045  1
  Al  Al16  1  0.352968  0.499218  0.944765  1
  Al  Al17  1  0.647003  0.500733  0.055244  1
  Al  Al18  1  0.014974  0.167657  0.953333  1
  Al  Al19  1  0.985080  0.832318  0.046665  1
  Al  Al20  1  0.186716  0.498922  0.441316  1
  Al  Al21  1  0.813295  0.501072  0.558680  1
  Al  Al22  1  0.734502  0.163952  0.183413  1
  Al  Al23  1  0.265529  0.836103  0.816575  1
  Al  Al24  1  0.061879  0.631647  0.815366  1
  Al  Al25  1  0.938173  0.368269  0.184629  1
  Al  Al26  1  0.855146  0.041435  0.815920  1
  Al  Al27  1  0.144792  0.958621  0.184068  1
  Pt  Pt28  1  0.120189  0.492313  0.638595  1
  Pt  Pt29  1  0.879831  0.507649  0.361433  1
  Pt  Pt30  1  0.657310  0.171135  0.999932  1
  Pt  Pt31  1  0.342670  0.828886  0.000012  1
  Pt  Pt32  1  0.538156  0.166719  0.361405  1
  Pt  Pt33  1  0.461850  0.833323  0.638613  1
  Pt  Pt34  1  0.779116  0.174758  0.637127  1
  Pt  Pt35  1  0.220836  0.825241  0.362893  1
  Pt  Pt36  1  0.000026  0.499965  0.999976  1
