# generated using pymatgen
data_Sm4B16MoW3
_symmetry_space_group_name_H-M   'P 1'
_cell_length_a   3.67402500
_cell_length_b   6.09247142
_cell_length_c   11.78324145
_cell_angle_alpha   90.01061325
_cell_angle_beta   90.00000000
_cell_angle_gamma   90.00000000
_symmetry_Int_Tables_number   1
_chemical_formula_structural   Sm4B16MoW3
_chemical_formula_sum   'Sm4 B16 Mo1 W3'
_cell_volume   263.75480332
_cell_formula_units_Z   1
loop_
 _symmetry_equiv_pos_site_id
 _symmetry_equiv_pos_as_xyz
  1  'x, y, z'
loop_
 _atom_site_type_symbol
 _atom_site_label
 _atom_site_symmetry_multiplicity
 _atom_site_fract_x
 _atom_site_fract_y
 _atom_site_fract_z
 _atom_site_occupancy
  Sm  Sm0  1  0.000000  0.625782  0.350177  1
  Sm  Sm1  1  0.000000  0.374509  0.650099  1
  Sm  Sm2  1  0.000000  0.125699  0.149871  1
  Sm  Sm3  1  0.000000  0.874466  0.849792  1
  B  B4  1  0.500000  0.783654  0.185704  1
  B  B5  1  0.500000  0.216253  0.814035  1
  B  B6  1  0.500000  0.283741  0.314370  1
  B  B7  1  0.500000  0.717048  0.685306  1
  B  B8  1  0.500000  0.864339  0.032046  1
  B  B9  1  0.500000  0.135659  0.967551  1
  B  B10  1  0.500000  0.364779  0.468226  1
  B  B11  1  0.500000  0.636068  0.532532  1
  B  B12  1  0.500000  0.886788  0.453836  1
  B  B13  1  0.500000  0.112511  0.546950  1
  B  B14  1  0.500000  0.387190  0.046326  1
  B  B15  1  0.500000  0.612805  0.953320  1
  B  B16  1  0.500000  0.974657  0.308104  1
  B  B17  1  0.500000  0.024517  0.691844  1
  B  B18  1  0.500000  0.475005  0.191783  1
  B  B19  1  0.500000  0.525034  0.807960  1
  Mo  Mo20  1  0.000000  0.871151  0.583610  1
  W  W21  1  0.000000  0.629117  0.083843  1
  W  W22  1  0.000000  0.370810  0.916026  1
  W  W23  1  0.000000  0.128417  0.416687  1
