# generated using pymatgen
data_Er8Re(TcB8)3
_symmetry_space_group_name_H-M   'P 1'
_cell_length_a   3.65860300
_cell_length_b   9.12180227
_cell_length_c   11.49031534
_cell_angle_alpha   90.02792383
_cell_angle_beta   90.00000000
_cell_angle_gamma   90.00000000
_symmetry_Int_Tables_number   1
_chemical_formula_structural   Er8Re(TcB8)3
_chemical_formula_sum   'Er8 Re1 Tc3 B24'
_cell_volume   383.46685909
_cell_formula_units_Z   1
loop_
 _symmetry_equiv_pos_site_id
 _symmetry_equiv_pos_as_xyz
  1  'x, y, z'
loop_
 _atom_site_type_symbol
 _atom_site_label
 _atom_site_symmetry_multiplicity
 _atom_site_fract_x
 _atom_site_fract_y
 _atom_site_fract_z
 _atom_site_occupancy
  Er  Er0  1  0.000000  0.323945  0.413973  1
  Er  Er1  1  0.000000  0.676102  0.586017  1
  Er  Er2  1  0.000000  0.823925  0.086209  1
  Er  Er3  1  0.000000  0.176484  0.914057  1
  Er  Er4  1  0.000000  0.943130  0.369317  1
  Er  Er5  1  0.000000  0.057512  0.629829  1
  Er  Er6  1  0.000000  0.443029  0.130659  1
  Er  Er7  1  0.000000  0.555885  0.869752  1
  Re  Re8  1  0.000000  0.861090  0.820661  1
  Tc  Tc9  1  0.000000  0.639108  0.320524  1
  Tc  Tc10  1  0.000000  0.360933  0.679417  1
  Tc  Tc11  1  0.000000  0.139142  0.179509  1
  B  B12  1  0.500000  0.553382  0.433227  1
  B  B13  1  0.500000  0.446653  0.566790  1
  B  B14  1  0.500000  0.053426  0.066873  1
  B  B15  1  0.500000  0.946800  0.933445  1
  B  B16  1  0.500000  0.749515  0.419183  1
  B  B17  1  0.500000  0.250651  0.580836  1
  B  B18  1  0.500000  0.249475  0.080819  1
  B  B19  1  0.500000  0.750128  0.919320  1
  B  B20  1  0.500000  0.792652  0.265281  1
  B  B21  1  0.500000  0.207379  0.734624  1
  B  B22  1  0.500000  0.292622  0.234780  1
  B  B23  1  0.500000  0.707002  0.765335  1
  B  B24  1  0.500000  0.631093  0.185332  1
  B  B25  1  0.500000  0.368771  0.814639  1
  B  B26  1  0.500000  0.131133  0.314711  1
  B  B27  1  0.500000  0.869073  0.685129  1
  B  B28  1  0.500000  0.982140  0.211700  1
  B  B29  1  0.500000  0.018188  0.788112  1
  B  B30  1  0.500000  0.482110  0.288288  1
  B  B31  1  0.500000  0.517756  0.711787  1
  B  B32  1  0.500000  0.600123  0.028070  1
  B  B33  1  0.500000  0.399519  0.972078  1
  B  B34  1  0.500000  0.100310  0.471789  1
  B  B35  1  0.500000  0.899815  0.527929  1
