# generated using pymatgen
data_Dy13Er3In3AgRh4
_symmetry_space_group_name_H-M   'P 1'
_cell_length_a   9.61585532
_cell_length_b   9.61058420
_cell_length_c   9.61103309
_cell_angle_alpha   60.00259931
_cell_angle_beta   59.98380768
_cell_angle_gamma   59.98200659
_symmetry_Int_Tables_number   1
_chemical_formula_structural   Dy13Er3In3AgRh4
_chemical_formula_sum   'Dy13 Er3 In3 Ag1 Rh4'
_cell_volume   627.89793821
_cell_formula_units_Z   1
loop_
 _symmetry_equiv_pos_site_id
 _symmetry_equiv_pos_as_xyz
  1  'x, y, z'
loop_
 _atom_site_type_symbol
 _atom_site_label
 _atom_site_symmetry_multiplicity
 _atom_site_fract_x
 _atom_site_fract_y
 _atom_site_fract_z
 _atom_site_occupancy
  Dy  Dy0  1  0.937906  0.937650  0.556789  1
  Dy  Dy1  1  0.150106  0.148834  0.550931  1
  Dy  Dy2  1  0.567645  0.937631  0.556794  1
  Dy  Dy3  1  0.152026  0.149675  0.149387  1
  Dy  Dy4  1  0.309450  0.310916  0.690938  1
  Dy  Dy5  1  0.938689  0.566302  0.556336  1
  Dy  Dy6  1  0.563946  0.563300  0.936014  1
  Dy  Dy7  1  0.564254  0.936406  0.935113  1
  Dy  Dy8  1  0.936728  0.563272  0.936065  1
  Dy  Dy9  1  0.149849  0.552143  0.148142  1
  Dy  Dy10  1  0.310002  0.689303  0.690687  1
  Dy  Dy11  1  0.688739  0.310905  0.690897  1
  Dy  Dy12  1  0.548872  0.149737  0.149390  1
  Er  Er13  1  0.688511  0.312894  0.310195  1
  Er  Er14  1  0.687673  0.688666  0.311797  1
  Er  Er15  1  0.311886  0.688695  0.311782  1
  In  In16  1  0.244822  0.917055  0.922025  1
  In  In17  1  0.916034  0.245055  0.922831  1
  In  In18  1  0.916080  0.917101  0.922055  1
  Ag  Ag19  1  0.916433  0.915389  0.251690  1
  Rh  Rh20  1  0.357534  0.357547  0.357493  1
  Rh  Rh21  1  0.927390  0.357531  0.357484  1
  Rh  Rh22  1  0.357534  0.357142  0.927785  1
  Rh  Rh23  1  0.357888  0.926853  0.357380  1
