# generated using pymatgen
data_Ho5Tl2InO
_symmetry_space_group_name_H-M   'P 1'
_cell_length_a   9.08266718
_cell_length_b   9.08266766
_cell_length_c   9.01004000
_cell_angle_alpha   125.56996194
_cell_angle_beta   125.56995633
_cell_angle_gamma   81.13596264
_symmetry_Int_Tables_number   1
_chemical_formula_structural   Ho5Tl2InO
_chemical_formula_sum   'Ho10 Tl4 In2 O2'
_cell_volume   472.31671424
_cell_formula_units_Z   2
loop_
 _symmetry_equiv_pos_site_id
 _symmetry_equiv_pos_as_xyz
  1  'x, y, z'
loop_
 _atom_site_type_symbol
 _atom_site_label
 _atom_site_symmetry_multiplicity
 _atom_site_fract_x
 _atom_site_fract_y
 _atom_site_fract_z
 _atom_site_occupancy
  Ho  Ho0  1  0.995481  0.195693  0.500000  1
  Ho  Ho1  1  0.803611  0.303611  0.804682  1
  Ho  Ho2  1  0.501072  0.001072  0.804682  1
  Ho  Ho3  1  0.498928  0.998928  0.195318  1
  Ho  Ho4  1  0.004519  0.804307  0.500000  1
  Ho  Ho5  1  0.500000  0.500000  0.000000  1
  Ho  Ho6  1  0.196389  0.696389  0.195318  1
  Ho  Ho7  1  0.695693  0.495481  0.500000  1
  Ho  Ho8  1  0.304307  0.504519  0.500000  1
  Ho  Ho9  1  0.000000  0.000000  0.000000  1
  Tl  Tl10  1  0.355447  0.144553  0.500000  1
  Tl  Tl11  1  0.750000  0.750000  0.000000  1
  Tl  Tl12  1  0.644553  0.855447  0.500000  1
  Tl  Tl13  1  0.250000  0.250000  0.000000  1
  In  In14  1  0.861458  0.361458  0.222916  1
  In  In15  1  0.138542  0.638542  0.777084  1
  O  O16  1  0.748435  0.248435  0.500000  1
  O  O17  1  0.251565  0.751565  0.500000  1
