# generated using pymatgen
data_Rh8W
_symmetry_space_group_name_H-M   'P 1'
_cell_length_a   6.11103751
_cell_length_b   6.11103722
_cell_length_c   6.11103778
_cell_angle_alpha   95.74318330
_cell_angle_beta   95.74318730
_cell_angle_gamma   143.11678888
_symmetry_Int_Tables_number   1
_chemical_formula_structural   Rh8W
_chemical_formula_sum   'Rh8 W1'
_cell_volume   129.93766253
_cell_formula_units_Z   1
loop_
 _symmetry_equiv_pos_site_id
 _symmetry_equiv_pos_as_xyz
  1  'x, y, z'
loop_
 _atom_site_type_symbol
 _atom_site_label
 _atom_site_symmetry_multiplicity
 _atom_site_fract_x
 _atom_site_fract_y
 _atom_site_fract_z
 _atom_site_occupancy
  Rh  Rh0  1  0.662782  0.337217  0.000000  1
  Rh  Rh1  1  0.337217  0.662782  0.000000  1
  Rh  Rh2  1  0.662782  0.662782  0.325565  1
  Rh  Rh3  1  0.330765  0.000000  0.330765  1
  Rh  Rh4  1  0.000000  0.330765  0.330765  1
  Rh  Rh5  1  0.669235  0.000000  0.669235  1
  Rh  Rh6  1  0.000000  0.669235  0.669235  1
  Rh  Rh7  1  0.337218  0.337218  0.674435  1
  W  W8  1  0.000000  0.000000  0.000000  1
