# generated using pymatgen
data_Pm4Cu3SbO12
_symmetry_space_group_name_H-M   'P 1'
_cell_length_a   5.43438256
_cell_length_b   6.04813754
_cell_length_c   7.62529109
_cell_angle_alpha   90.78746294
_cell_angle_beta   89.39934178
_cell_angle_gamma   92.57011578
_symmetry_Int_Tables_number   1
_chemical_formula_structural   Pm4Cu3SbO12
_chemical_formula_sum   'Pm4 Cu3 Sb1 O12'
_cell_volume   250.33928462
_cell_formula_units_Z   1
loop_
 _symmetry_equiv_pos_site_id
 _symmetry_equiv_pos_as_xyz
  1  'x, y, z'
loop_
 _atom_site_type_symbol
 _atom_site_label
 _atom_site_symmetry_multiplicity
 _atom_site_fract_x
 _atom_site_fract_y
 _atom_site_fract_z
 _atom_site_occupancy
  Pm  Pm0  1  0.981035  0.094058  0.266151  1
  Pm  Pm1  1  0.524132  0.577657  0.265394  1
  Pm  Pm2  1  0.475872  0.422337  0.734603  1
  Pm  Pm3  1  0.018970  0.905937  0.733846  1
  Cu  Cu4  1  0.000006  0.500001  0.000000  1
  Cu  Cu5  1  0.499949  0.000034  0.500023  1
  Cu  Cu6  1  0.000011  0.500002  0.499997  1
  Sb  Sb7  1  0.500003  0.999997  0.999999  1
  O  O8  1  0.682148  0.296474  0.061994  1
  O  O9  1  0.793278  0.831083  0.057925  1
  O  O10  1  0.099733  0.473953  0.247864  1
  O  O11  1  0.383608  0.961254  0.247647  1
  O  O12  1  0.705520  0.328629  0.456008  1
  O  O13  1  0.784074  0.830393  0.454017  1
  O  O14  1  0.215930  0.169601  0.545980  1
  O  O15  1  0.294484  0.671365  0.543990  1
  O  O16  1  0.616397  0.038741  0.752350  1
  O  O17  1  0.900272  0.526043  0.752134  1
  O  O18  1  0.206727  0.168912  0.942073  1
  O  O19  1  0.317857  0.703521  0.938003  1
