# generated using pymatgen
data_YPu3Zn3Si5
_symmetry_space_group_name_H-M   'P 1'
_cell_length_a   4.28014600
_cell_length_b   4.28014499
_cell_length_c   14.46975400
_cell_angle_alpha   90.00000000
_cell_angle_beta   90.00000000
_cell_angle_gamma   120.00000782
_symmetry_Int_Tables_number   1
_chemical_formula_structural   YPu3Zn3Si5
_chemical_formula_sum   'Y1 Pu3 Zn3 Si5'
_cell_volume   229.56665678
_cell_formula_units_Z   1
loop_
 _symmetry_equiv_pos_site_id
 _symmetry_equiv_pos_as_xyz
  1  'x, y, z'
loop_
 _atom_site_type_symbol
 _atom_site_label
 _atom_site_symmetry_multiplicity
 _atom_site_fract_x
 _atom_site_fract_y
 _atom_site_fract_z
 _atom_site_occupancy
  Y  Y0  1  0.333333  0.666667  0.878497  1
  Pu  Pu1  1  0.333333  0.666667  0.123469  1
  Pu  Pu2  1  0.333333  0.666667  0.623555  1
  Pu  Pu3  1  0.333333  0.666667  0.374705  1
  Zn  Zn4  1  0.666667  0.333333  0.500115  1
  Zn  Zn5  1  0.000000  0.000000  0.246292  1
  Zn  Zn6  1  0.000000  0.000000  0.753840  1
  Si  Si7  1  0.666667  0.333333  0.257019  1
  Si  Si8  1  0.666667  0.333333  0.736476  1
  Si  Si9  1  0.000000  0.000000  0.003130  1
  Si  Si10  1  0.000000  0.000000  0.499311  1
  Si  Si11  1  0.666667  0.333333  0.003590  1
