# generated using pymatgen
data_Rb(PdO2)6
_symmetry_space_group_name_H-M   'P 1'
_cell_length_a   8.69861906
_cell_length_b   8.69861904
_cell_length_c   8.69861881
_cell_angle_alpha   107.13407379
_cell_angle_beta   107.13408347
_cell_angle_gamma   114.25399202
_symmetry_Int_Tables_number   1
_chemical_formula_structural   Rb(PdO2)6
_chemical_formula_sum   'Rb2 Pd12 O24'
_cell_volume   504.00383837
_cell_formula_units_Z   2
loop_
 _symmetry_equiv_pos_site_id
 _symmetry_equiv_pos_as_xyz
  1  'x, y, z'
loop_
 _atom_site_type_symbol
 _atom_site_label
 _atom_site_symmetry_multiplicity
 _atom_site_fract_x
 _atom_site_fract_y
 _atom_site_fract_z
 _atom_site_occupancy
  Rb  Rb0  1  0.791495  0.791495  0.000000  1
  Rb  Rb1  1  0.208505  0.208505  0.000000  1
  Pd  Pd2  1  0.315474  0.832987  0.815452  1
  Pd  Pd3  1  0.649178  0.166416  0.815594  1
  Pd  Pd4  1  0.982463  0.499976  0.815452  1
  Pd  Pd5  1  0.017537  0.500024  0.184548  1
  Pd  Pd6  1  0.350822  0.833584  0.184406  1
  Pd  Pd7  1  0.684526  0.167013  0.184548  1
  Pd  Pd8  1  0.833584  0.649178  0.482763  1
  Pd  Pd9  1  0.167013  0.982463  0.482487  1
  Pd  Pd10  1  0.500024  0.315474  0.482487  1
  Pd  Pd11  1  0.499976  0.684526  0.517513  1
  Pd  Pd12  1  0.832987  0.017537  0.517513  1
  Pd  Pd13  1  0.166416  0.350822  0.517237  1
  O  O14  1  0.787591  0.508090  0.629423  1
  O  O15  1  0.121333  0.841832  0.629423  1
  O  O16  1  0.454564  0.172615  0.627179  1
  O  O17  1  0.878667  0.158168  0.370577  1
  O  O18  1  0.212409  0.491910  0.370577  1
  O  O19  1  0.545436  0.827385  0.372821  1
  O  O20  1  0.491910  0.121333  0.279502  1
  O  O21  1  0.827385  0.454564  0.281948  1
  O  O22  1  0.158168  0.787591  0.279502  1
  O  O23  1  0.172615  0.545436  0.718052  1
  O  O24  1  0.508090  0.878667  0.720498  1
  O  O25  1  0.841832  0.212409  0.720498  1
  O  O26  1  0.512280  0.869600  0.049263  1
  O  O27  1  0.847480  0.201728  0.049207  1
  O  O28  1  0.179664  0.536984  0.049263  1
  O  O29  1  0.152520  0.798272  0.950793  1
  O  O30  1  0.487720  0.130400  0.950737  1
  O  O31  1  0.820336  0.463016  0.950737  1
  O  O32  1  0.130400  0.179664  0.642680  1
  O  O33  1  0.463016  0.512280  0.642680  1
  O  O34  1  0.798272  0.847480  0.645752  1
  O  O35  1  0.536984  0.487720  0.357320  1
  O  O36  1  0.869600  0.820336  0.357320  1
  O  O37  1  0.201728  0.152520  0.354248  1
