# generated using pymatgen
data_Ce2ZnFeSi3Ni
_symmetry_space_group_name_H-M   'P 1'
_cell_length_a   8.67776053
_cell_length_b   8.67776201
_cell_length_c   4.07188500
_cell_angle_alpha   90.00000000
_cell_angle_beta   90.00000000
_cell_angle_gamma   152.95137951
_symmetry_Int_Tables_number   1
_chemical_formula_structural   Ce2ZnFeSi3Ni
_chemical_formula_sum   'Ce2 Zn1 Fe1 Si3 Ni1'
_cell_volume   139.43769732
_cell_formula_units_Z   1
loop_
 _symmetry_equiv_pos_site_id
 _symmetry_equiv_pos_as_xyz
  1  'x, y, z'
loop_
 _atom_site_type_symbol
 _atom_site_label
 _atom_site_symmetry_multiplicity
 _atom_site_fract_x
 _atom_site_fract_y
 _atom_site_fract_z
 _atom_site_occupancy
  Ce  Ce0  1  0.612150  0.387850  0.250000  1
  Ce  Ce1  1  0.386750  0.613250  0.750000  1
  Zn  Zn2  1  0.964472  0.035528  0.250000  1
  Fe  Fe3  1  0.750357  0.249643  0.750000  1
  Si  Si4  1  0.038162  0.961838  0.750000  1
  Si  Si5  1  0.817729  0.182271  0.250000  1
  Si  Si6  1  0.181381  0.818619  0.750000  1
  Ni  Ni7  1  0.249000  0.751000  0.250000  1
