# generated using pymatgen
data_SmY3(Ga8Pd3)3
_symmetry_space_group_name_H-M   'P 1'
_cell_length_a   7.51600936
_cell_length_b   7.58270395
_cell_length_c   13.45225531
_cell_angle_alpha   84.85932239
_cell_angle_beta   79.76432628
_cell_angle_gamma   60.22788263
_symmetry_Int_Tables_number   1
_chemical_formula_structural   SmY3(Ga8Pd3)3
_chemical_formula_sum   'Sm1 Y3 Ga24 Pd9'
_cell_volume   654.88036427
_cell_formula_units_Z   1
loop_
 _symmetry_equiv_pos_site_id
 _symmetry_equiv_pos_as_xyz
  1  'x, y, z'
loop_
 _atom_site_type_symbol
 _atom_site_label
 _atom_site_symmetry_multiplicity
 _atom_site_fract_x
 _atom_site_fract_y
 _atom_site_fract_z
 _atom_site_occupancy
  Sm  Sm0  1  0.393803  0.168814  0.811305  1
  Y  Y1  1  0.606013  0.831108  0.188833  1
  Y  Y2  1  0.732131  0.497163  0.811311  1
  Y  Y3  1  0.267835  0.502829  0.188743  1
  Ga  Ga4  1  0.687637  0.832531  0.940054  1
  Ga  Ga5  1  0.313075  0.166491  0.060581  1
  Ga  Ga6  1  0.144505  0.834757  0.558256  1
  Ga  Ga7  1  0.855501  0.165215  0.441799  1
  Ga  Ga8  1  0.478158  0.167044  0.556014  1
  Ga  Ga9  1  0.521849  0.832887  0.443901  1
  Ga  Ga10  1  0.219911  0.165116  0.326169  1
  Ga  Ga11  1  0.780883  0.834213  0.673532  1
  Ga  Ga12  1  0.436490  0.505115  0.672841  1
  Ga  Ga13  1  0.563630  0.495624  0.326824  1
  Ga  Ga14  1  0.106847  0.162095  0.671841  1
  Ga  Ga15  1  0.892557  0.837902  0.327789  1
  Ga  Ga16  1  0.355446  0.500641  0.940927  1
  Ga  Ga17  1  0.644591  0.500301  0.059346  1
  Ga  Ga18  1  0.017783  0.167557  0.946300  1
  Ga  Ga19  1  0.981186  0.832531  0.054003  1
  Ga  Ga20  1  0.187199  0.500184  0.443243  1
  Ga  Ga21  1  0.812685  0.499851  0.556853  1
  Ga  Ga22  1  0.734325  0.163535  0.182429  1
  Ga  Ga23  1  0.265387  0.835684  0.817608  1
  Ga  Ga24  1  0.060497  0.631457  0.816691  1
  Ga  Ga25  1  0.938836  0.369435  0.183330  1
  Ga  Ga26  1  0.857917  0.039804  0.816645  1
  Ga  Ga27  1  0.143061  0.960030  0.183392  1
  Pd  Pd28  1  0.116160  0.496785  0.638248  1
  Pd  Pd29  1  0.883569  0.503734  0.361317  1
  Pd  Pd30  1  0.659435  0.169618  0.999207  1
  Pd  Pd31  1  0.340490  0.830331  0.001224  1
  Pd  Pd32  1  0.542128  0.167222  0.360650  1
  Pd  Pd33  1  0.458022  0.832321  0.638972  1
  Pd  Pd34  1  0.778851  0.172033  0.637582  1
  Pd  Pd35  1  0.221670  0.827943  0.362044  1
  Pd  Pd36  1  0.999938  0.500098  0.000195  1
