# generated using pymatgen
data_Th14Re3TcPt2
_symmetry_space_group_name_H-M   'P 1'
_cell_length_a   10.08162900
_cell_length_b   10.10661844
_cell_length_c   6.31851374
_cell_angle_alpha   89.76919540
_cell_angle_beta   90.00000000
_cell_angle_gamma   119.91824457
_symmetry_Int_Tables_number   1
_chemical_formula_structural   Th14Re3TcPt2
_chemical_formula_sum   'Th14 Re3 Tc1 Pt2'
_cell_volume   558.00057784
_cell_formula_units_Z   1
loop_
 _symmetry_equiv_pos_site_id
 _symmetry_equiv_pos_as_xyz
  1  'x, y, z'
loop_
 _atom_site_type_symbol
 _atom_site_label
 _atom_site_symmetry_multiplicity
 _atom_site_fract_x
 _atom_site_fract_y
 _atom_site_fract_z
 _atom_site_occupancy
  Th  Th0  1  0.668787  0.337571  0.553391  1
  Th  Th1  1  0.332894  0.665790  0.033540  1
  Th  Th2  1  0.876233  0.752467  0.748995  1
  Th  Th3  1  0.247506  0.124844  0.756512  1
  Th  Th4  1  0.877338  0.124844  0.756512  1
  Th  Th5  1  0.131857  0.263714  0.252125  1
  Th  Th6  1  0.746840  0.867281  0.251348  1
  Th  Th7  1  0.120442  0.867281  0.251348  1
  Th  Th8  1  0.458144  0.916287  0.545090  1
  Th  Th9  1  0.081725  0.543446  0.549107  1
  Th  Th10  1  0.461720  0.543446  0.549107  1
  Th  Th11  1  0.535436  0.070869  0.036224  1
  Th  Th12  1  0.920177  0.464944  0.043543  1
  Th  Th13  1  0.544768  0.464944  0.043543  1
  Re  Re14  1  0.185252  0.370503  0.800937  1
  Re  Re15  1  0.629756  0.817289  0.802195  1
  Re  Re16  1  0.187534  0.817289  0.802195  1
  Tc  Tc17  1  0.809033  0.618067  0.302301  1
  Pt  Pt18  1  0.376931  0.184560  0.305042  1
  Pt  Pt19  1  0.807629  0.184560  0.305042  1
