# generated using pymatgen
data_Tm8Ta9Si16W3
_symmetry_space_group_name_H-M   'P 1'
_cell_length_a   6.74960044
_cell_length_b   6.98383737
_cell_length_c   13.24420200
_cell_angle_alpha   90.00000000
_cell_angle_beta   90.00000000
_cell_angle_gamma   90.01517223
_symmetry_Int_Tables_number   1
_chemical_formula_structural   Tm8Ta9Si16W3
_chemical_formula_sum   'Tm8 Ta9 Si16 W3'
_cell_volume   624.30665248
_cell_formula_units_Z   1
loop_
 _symmetry_equiv_pos_site_id
 _symmetry_equiv_pos_as_xyz
  1  'x, y, z'
loop_
 _atom_site_type_symbol
 _atom_site_label
 _atom_site_symmetry_multiplicity
 _atom_site_fract_x
 _atom_site_fract_y
 _atom_site_fract_z
 _atom_site_occupancy
  Tm  Tm0  1  0.501012  0.672498  0.593921  1
  Tm  Tm1  1  0.000243  0.827580  0.905815  1
  Tm  Tm2  1  0.499781  0.327203  0.093968  1
  Tm  Tm3  1  0.000190  0.172513  0.406136  1
  Tm  Tm4  1  0.499781  0.327203  0.406032  1
  Tm  Tm5  1  0.000190  0.172513  0.093864  1
  Tm  Tm6  1  0.501012  0.672498  0.906079  1
  Tm  Tm7  1  0.000243  0.827580  0.594185  1
  Ta  Ta8  1  0.663111  0.169881  0.625652  1
  Ta  Ta9  1  0.164492  0.328789  0.874721  1
  Ta  Ta10  1  0.336263  0.830532  0.126405  1
  Ta  Ta11  1  0.835567  0.669846  0.373282  1
  Ta  Ta12  1  0.336263  0.830532  0.373595  1
  Ta  Ta13  1  0.835567  0.669846  0.126718  1
  Ta  Ta14  1  0.663111  0.169881  0.874348  1
  Ta  Ta15  1  0.164492  0.328789  0.625279  1
  Ta  Ta16  1  0.838501  0.491203  0.750000  1
  Si  Si17  1  0.666668  0.961569  0.457854  1
  Si  Si18  1  0.166326  0.538525  0.042324  1
  Si  Si19  1  0.333305  0.037970  0.958074  1
  Si  Si20  1  0.833577  0.462274  0.541045  1
  Si  Si21  1  0.333305  0.037970  0.541926  1
  Si  Si22  1  0.833577  0.462274  0.958955  1
  Si  Si23  1  0.666668  0.961569  0.042146  1
  Si  Si24  1  0.166326  0.538525  0.457676  1
  Si  Si25  1  0.460964  0.382462  0.750000  1
  Si  Si26  1  0.964300  0.116751  0.750000  1
  Si  Si27  1  0.535474  0.615779  0.250000  1
  Si  Si28  1  0.036128  0.883387  0.250000  1
  Si  Si29  1  0.702080  0.866870  0.750000  1
  Si  Si30  1  0.205473  0.636722  0.750000  1
  Si  Si31  1  0.297798  0.136283  0.250000  1
  Si  Si32  1  0.797847  0.363380  0.250000  1
  W  W33  1  0.339112  0.009214  0.750000  1
  W  W34  1  0.160648  0.509197  0.250000  1
  W  W35  1  0.660608  0.990390  0.250000  1
