# generated using pymatgen
data_NdEr3(Ir2O7)2
_symmetry_space_group_name_H-M   'P 1'
_cell_length_a   7.30804477
_cell_length_b   7.21362216
_cell_length_c   7.21362100
_cell_angle_alpha   60.00000073
_cell_angle_beta   60.42649049
_cell_angle_gamma   60.42649939
_symmetry_Int_Tables_number   1
_chemical_formula_structural   NdEr3(Ir2O7)2
_chemical_formula_sum   'Nd1 Er3 Ir4 O14'
_cell_volume   270.62175502
_cell_formula_units_Z   1
loop_
 _symmetry_equiv_pos_site_id
 _symmetry_equiv_pos_as_xyz
  1  'x, y, z'
loop_
 _atom_site_type_symbol
 _atom_site_label
 _atom_site_symmetry_multiplicity
 _atom_site_fract_x
 _atom_site_fract_y
 _atom_site_fract_z
 _atom_site_occupancy
  Nd  Nd0  1  0.625000  0.125000  0.125000  1
  Er  Er1  1  0.125000  0.625000  0.125000  1
  Er  Er2  1  0.125000  0.125000  0.625000  1
  Er  Er3  1  0.125000  0.125000  0.125000  1
  Ir  Ir4  1  0.125000  0.625000  0.625000  1
  Ir  Ir5  1  0.625000  0.125000  0.625000  1
  Ir  Ir6  1  0.625000  0.625000  0.125000  1
  Ir  Ir7  1  0.625000  0.625000  0.625000  1
  O  O8  1  0.722896  0.701868  0.287618  1
  O  O9  1  0.287381  0.288482  0.712069  1
  O  O10  1  0.722896  0.287618  0.701868  1
  O  O11  1  0.287381  0.712069  0.288482  1
  O  O12  1  0.287381  0.712069  0.712069  1
  O  O13  1  0.722896  0.287618  0.287618  1
  O  O14  1  0.527104  0.548132  0.962382  1
  O  O15  1  0.962619  0.961518  0.537931  1
  O  O16  1  0.527104  0.962382  0.548132  1
  O  O17  1  0.962619  0.537931  0.961518  1
  O  O18  1  0.962619  0.537931  0.537931  1
  O  O19  1  0.527104  0.962382  0.962382  1
  O  O20  1  0.238598  0.253801  0.253801  1
  O  O21  1  0.011402  0.996199  0.996199  1
