# generated using pymatgen
data_DyYAl2PtRh
_symmetry_space_group_name_H-M   'P 1'
_cell_length_a   4.37778900
_cell_length_b   6.82619087
_cell_length_c   7.85620121
_cell_angle_alpha   90.17533459
_cell_angle_beta   90.00000000
_cell_angle_gamma   90.00000000
_symmetry_Int_Tables_number   1
_chemical_formula_structural   DyYAl2PtRh
_chemical_formula_sum   'Dy2 Y2 Al4 Pt2 Rh2'
_cell_volume   234.77065831
_cell_formula_units_Z   2
loop_
 _symmetry_equiv_pos_site_id
 _symmetry_equiv_pos_as_xyz
  1  'x, y, z'
loop_
 _atom_site_type_symbol
 _atom_site_label
 _atom_site_symmetry_multiplicity
 _atom_site_fract_x
 _atom_site_fract_y
 _atom_site_fract_z
 _atom_site_occupancy
  Dy  Dy0  1  0.750000  0.030518  0.678393  1
  Dy  Dy1  1  0.250000  0.969482  0.321607  1
  Y  Y2  1  0.250000  0.466896  0.183270  1
  Y  Y3  1  0.750000  0.533104  0.816730  1
  Al  Al4  1  0.250000  0.856704  0.937409  1
  Al  Al5  1  0.750000  0.143296  0.062591  1
  Al  Al6  1  0.750000  0.638326  0.437308  1
  Al  Al7  1  0.250000  0.361674  0.562692  1
  Pt  Pt8  1  0.750000  0.771206  0.119974  1
  Pt  Pt9  1  0.250000  0.228794  0.880026  1
  Rh  Rh10  1  0.250000  0.735860  0.615734  1
  Rh  Rh11  1  0.750000  0.264140  0.384266  1
