# generated using pymatgen
data_Nd12CdGe11Pd12
_symmetry_space_group_name_H-M   'P 1'
_cell_length_a   4.52509800
_cell_length_b   7.72848019
_cell_length_c   22.03114731
_cell_angle_alpha   89.69720590
_cell_angle_beta   90.00000000
_cell_angle_gamma   90.00000000
_symmetry_Int_Tables_number   1
_chemical_formula_structural   Nd12CdGe11Pd12
_chemical_formula_sum   'Nd12 Cd1 Ge11 Pd12'
_cell_volume   770.46539444
_cell_formula_units_Z   1
loop_
 _symmetry_equiv_pos_site_id
 _symmetry_equiv_pos_as_xyz
  1  'x, y, z'
loop_
 _atom_site_type_symbol
 _atom_site_label
 _atom_site_symmetry_multiplicity
 _atom_site_fract_x
 _atom_site_fract_y
 _atom_site_fract_z
 _atom_site_occupancy
  Nd  Nd0  1  0.250000  0.710703  0.333324  1
  Nd  Nd1  1  0.750000  0.292116  0.664428  1
  Nd  Nd2  1  0.750000  0.212005  0.168017  1
  Nd  Nd3  1  0.250000  0.790417  0.830098  1
  Nd  Nd4  1  0.250000  0.791777  0.167887  1
  Nd  Nd5  1  0.750000  0.201391  0.828557  1
  Nd  Nd6  1  0.750000  0.292458  0.333790  1
  Nd  Nd7  1  0.250000  0.702741  0.664907  1
  Nd  Nd8  1  0.250000  0.716734  0.005171  1
  Nd  Nd9  1  0.750000  0.287926  0.001153  1
  Nd  Nd10  1  0.750000  0.213772  0.497483  1
  Nd  Nd11  1  0.250000  0.784517  0.500838  1
  Cd  Cd12  1  0.250000  0.408203  0.896258  1
  Ge  Ge13  1  0.250000  0.091181  0.072202  1
  Ge  Ge14  1  0.750000  0.924336  0.929582  1
  Ge  Ge15  1  0.750000  0.589963  0.427614  1
  Ge  Ge16  1  0.250000  0.409169  0.567785  1
  Ge  Ge17  1  0.250000  0.085532  0.269605  1
  Ge  Ge18  1  0.750000  0.910191  0.728036  1
  Ge  Ge19  1  0.750000  0.585801  0.231781  1
  Ge  Ge20  1  0.250000  0.407842  0.763434  1
  Ge  Ge21  1  0.250000  0.087692  0.396871  1
  Ge  Ge22  1  0.750000  0.912068  0.602207  1
  Ge  Ge23  1  0.750000  0.588067  0.105326  1
  Pd  Pd24  1  0.250000  0.418948  0.237870  1
  Pd  Pd25  1  0.750000  0.580454  0.764092  1
  Pd  Pd26  1  0.750000  0.919559  0.263498  1
  Pd  Pd27  1  0.250000  0.074776  0.734375  1
  Pd  Pd28  1  0.250000  0.417225  0.436814  1
  Pd  Pd29  1  0.750000  0.582459  0.563263  1
  Pd  Pd30  1  0.750000  0.916650  0.066763  1
  Pd  Pd31  1  0.250000  0.068830  0.941971  1
  Pd  Pd32  1  0.250000  0.421700  0.095231  1
  Pd  Pd33  1  0.750000  0.604041  0.910618  1
  Pd  Pd34  1  0.750000  0.921443  0.405774  1
  Pd  Pd35  1  0.250000  0.077313  0.593376  1
