# generated using pymatgen
data_Yb3YTh6(Si3C)2
_symmetry_space_group_name_H-M   'P 1'
_cell_length_a   8.79951500
_cell_length_b   8.79951479
_cell_length_c   6.38996100
_cell_angle_alpha   90.00000000
_cell_angle_beta   90.00000000
_cell_angle_gamma   120.00000455
_symmetry_Int_Tables_number   1
_chemical_formula_structural   Yb3YTh6(Si3C)2
_chemical_formula_sum   'Yb3 Y1 Th6 Si6 C2'
_cell_volume   428.49551526
_cell_formula_units_Z   1
loop_
 _symmetry_equiv_pos_site_id
 _symmetry_equiv_pos_as_xyz
  1  'x, y, z'
loop_
 _atom_site_type_symbol
 _atom_site_label
 _atom_site_symmetry_multiplicity
 _atom_site_fract_x
 _atom_site_fract_y
 _atom_site_fract_z
 _atom_site_occupancy
  Yb  Yb0  1  0.666667  0.333333  0.000000  1
  Yb  Yb1  1  0.333333  0.666667  0.000000  1
  Yb  Yb2  1  0.333333  0.666667  0.500000  1
  Y  Y3  1  0.666667  0.333333  0.500000  1
  Th  Th4  1  0.764962  0.766775  0.750705  1
  Th  Th5  1  0.233225  0.998188  0.750705  1
  Th  Th6  1  0.001812  0.235038  0.750705  1
  Th  Th7  1  0.233225  0.235038  0.249295  1
  Th  Th8  1  0.764962  0.998188  0.249295  1
  Th  Th9  1  0.001812  0.766775  0.249295  1
  Si  Si10  1  0.401038  0.395347  0.742777  1
  Si  Si11  1  0.604653  0.005690  0.742777  1
  Si  Si12  1  0.994310  0.598962  0.742777  1
  Si  Si13  1  0.604653  0.598962  0.257223  1
  Si  Si14  1  0.401038  0.005690  0.257223  1
  Si  Si15  1  0.994310  0.395347  0.257223  1
  C  C16  1  0.000000  0.000000  0.000000  1
  C  C17  1  0.000000  0.000000  0.500000  1
