# generated using pymatgen
data_La6V(FeC4)3
_symmetry_space_group_name_H-M   'P 1'
_cell_length_a   8.35377000
_cell_length_b   8.35376947
_cell_length_c   5.29199100
_cell_angle_alpha   90.00000000
_cell_angle_beta   90.00000000
_cell_angle_gamma   119.99999419
_symmetry_Int_Tables_number   1
_chemical_formula_structural   La6V(FeC4)3
_chemical_formula_sum   'La6 V1 Fe3 C12'
_cell_volume   319.82672736
_cell_formula_units_Z   1
loop_
 _symmetry_equiv_pos_site_id
 _symmetry_equiv_pos_as_xyz
  1  'x, y, z'
loop_
 _atom_site_type_symbol
 _atom_site_label
 _atom_site_symmetry_multiplicity
 _atom_site_fract_x
 _atom_site_fract_y
 _atom_site_fract_z
 _atom_site_occupancy
  La  La0  1  0.614157  0.686436  0.749665  1
  La  La1  1  0.927721  0.614157  0.250335  1
  La  La2  1  0.686436  0.072279  0.250335  1
  La  La3  1  0.313564  0.927721  0.749665  1
  La  La4  1  0.072279  0.385843  0.749665  1
  La  La5  1  0.385843  0.313564  0.250335  1
  V  V6  1  0.000000  0.000000  0.500000  1
  Fe  Fe7  1  0.000000  0.000000  0.000000  1
  Fe  Fe8  1  0.666667  0.333333  0.758158  1
  Fe  Fe9  1  0.333333  0.666667  0.241842  1
  C  C10  1  0.952183  0.762169  0.738309  1
  C  C11  1  0.190014  0.952183  0.261691  1
  C  C12  1  0.762169  0.809986  0.261691  1
  C  C13  1  0.237831  0.190014  0.738309  1
  C  C14  1  0.809986  0.047817  0.738309  1
  C  C15  1  0.047817  0.237831  0.261691  1
  C  C16  1  0.855781  0.574421  0.750537  1
  C  C17  1  0.281358  0.855781  0.249463  1
  C  C18  1  0.574421  0.718642  0.249463  1
  C  C19  1  0.425579  0.281358  0.750537  1
  C  C20  1  0.144219  0.425579  0.249463  1
  C  C21  1  0.718642  0.144219  0.750537  1
