# generated using pymatgen
data_HoErSi2PdRu
_symmetry_space_group_name_H-M   'P 1'
_cell_length_a   4.27520000
_cell_length_b   6.92070901
_cell_length_c   7.40186503
_cell_angle_alpha   90.51957950
_cell_angle_beta   90.00000000
_cell_angle_gamma   90.00000000
_symmetry_Int_Tables_number   1
_chemical_formula_structural   HoErSi2PdRu
_chemical_formula_sum   'Ho2 Er2 Si4 Pd2 Ru2'
_cell_volume   218.99304872
_cell_formula_units_Z   2
loop_
 _symmetry_equiv_pos_site_id
 _symmetry_equiv_pos_as_xyz
  1  'x, y, z'
loop_
 _atom_site_type_symbol
 _atom_site_label
 _atom_site_symmetry_multiplicity
 _atom_site_fract_x
 _atom_site_fract_y
 _atom_site_fract_z
 _atom_site_occupancy
  Ho  Ho0  1  0.250000  0.993670  0.807414  1
  Ho  Ho1  1  0.750000  0.006330  0.192586  1
  Er  Er2  1  0.250000  0.499477  0.689604  1
  Er  Er3  1  0.750000  0.500523  0.310396  1
  Si  Si4  1  0.250000  0.300317  0.090964  1
  Si  Si5  1  0.750000  0.699683  0.909036  1
  Si  Si6  1  0.250000  0.787988  0.381103  1
  Si  Si7  1  0.750000  0.212012  0.618897  1
  Pd  Pd8  1  0.750000  0.835900  0.573259  1
  Pd  Pd9  1  0.250000  0.164100  0.426741  1
  Ru  Ru10  1  0.750000  0.345759  0.934019  1
  Ru  Ru11  1  0.250000  0.654241  0.065981  1
