# generated using pymatgen
data_MgZr8In14Co6Ir
_symmetry_space_group_name_H-M   'P 1'
_cell_length_a   9.47828200
_cell_length_b   9.47828203
_cell_length_c   9.47828200
_cell_angle_alpha   60.00000010
_cell_angle_beta   60.00000001
_cell_angle_gamma   60.00000212
_symmetry_Int_Tables_number   1
_chemical_formula_structural   MgZr8In14Co6Ir
_chemical_formula_sum   'Mg1 Zr8 In14 Co6 Ir1'
_cell_volume   602.10729403
_cell_formula_units_Z   1
loop_
 _symmetry_equiv_pos_site_id
 _symmetry_equiv_pos_as_xyz
  1  'x, y, z'
loop_
 _atom_site_type_symbol
 _atom_site_label
 _atom_site_symmetry_multiplicity
 _atom_site_fract_x
 _atom_site_fract_y
 _atom_site_fract_z
 _atom_site_occupancy
  Mg  Mg0  1  0.500000  0.500000  0.500000  1
  Zr  Zr1  1  0.123038  0.630888  0.123038  1
  Zr  Zr2  1  0.369112  0.876962  0.876962  1
  Zr  Zr3  1  0.876962  0.876962  0.876962  1
  Zr  Zr4  1  0.630888  0.123038  0.123038  1
  Zr  Zr5  1  0.876962  0.876962  0.369112  1
  Zr  Zr6  1  0.123038  0.123038  0.123038  1
  Zr  Zr7  1  0.876962  0.369112  0.876962  1
  Zr  Zr8  1  0.123038  0.123038  0.630888  1
  In  In9  1  0.500000  0.842162  0.157838  1
  In  In10  1  0.500000  0.842162  0.500000  1
  In  In11  1  0.500000  0.157838  0.500000  1
  In  In12  1  0.500000  0.500000  0.842162  1
  In  In13  1  0.157838  0.500000  0.500000  1
  In  In14  1  0.842162  0.157838  0.500000  1
  In  In15  1  0.157838  0.842162  0.500000  1
  In  In16  1  0.500000  0.157838  0.842162  1
  In  In17  1  0.157838  0.500000  0.842162  1
  In  In18  1  0.500000  0.500000  0.157838  1
  In  In19  1  0.842162  0.500000  0.500000  1
  In  In20  1  0.842162  0.500000  0.157838  1
  In  In21  1  0.250000  0.250000  0.250000  1
  In  In22  1  0.750000  0.750000  0.750000  1
  Co  Co23  1  0.783189  0.783189  0.216811  1
  Co  Co24  1  0.216811  0.783189  0.216811  1
  Co  Co25  1  0.216811  0.783189  0.783189  1
  Co  Co26  1  0.216811  0.216811  0.783189  1
  Co  Co27  1  0.783189  0.216811  0.783189  1
  Co  Co28  1  0.783189  0.216811  0.216811  1
  Ir  Ir29  1  0.000000  0.000000  0.000000  1
