# generated using pymatgen
data_Y3In3IrRh2
_symmetry_space_group_name_H-M   'P 1'
_cell_length_a   7.57696100
_cell_length_b   7.57696064
_cell_length_c   3.91281200
_cell_angle_alpha   90.00000000
_cell_angle_beta   90.00000000
_cell_angle_gamma   120.00000596
_symmetry_Int_Tables_number   1
_chemical_formula_structural   Y3In3IrRh2
_chemical_formula_sum   'Y3 In3 Ir1 Rh2'
_cell_volume   194.54033984
_cell_formula_units_Z   1
loop_
 _symmetry_equiv_pos_site_id
 _symmetry_equiv_pos_as_xyz
  1  'x, y, z'
loop_
 _atom_site_type_symbol
 _atom_site_label
 _atom_site_symmetry_multiplicity
 _atom_site_fract_x
 _atom_site_fract_y
 _atom_site_fract_z
 _atom_site_occupancy
  Y  Y0  1  0.003545  0.593190  0.500000  1
  Y  Y1  1  0.406810  0.410355  0.500000  1
  Y  Y2  1  0.589645  0.996455  0.500000  1
  In  In3  1  0.999406  0.257557  0.000000  1
  In  In4  1  0.258152  0.000594  0.000000  1
  In  In5  1  0.742443  0.741848  0.000000  1
  Ir  Ir6  1  0.333333  0.666667  0.000000  1
  Rh  Rh7  1  0.000000  0.000000  0.500000  1
  Rh  Rh8  1  0.666667  0.333333  0.000000  1
