# generated using pymatgen
data_Ho2Er6In3Rh
_symmetry_space_group_name_H-M   'P 1'
_cell_length_a   10.35192900
_cell_length_b   10.35235651
_cell_length_c   6.97236900
_cell_angle_alpha   89.99706730
_cell_angle_beta   90.00000000
_cell_angle_gamma   119.99862436
_symmetry_Int_Tables_number   1
_chemical_formula_structural   Ho2Er6In3Rh
_chemical_formula_sum   'Ho4 Er12 In6 Rh2'
_cell_volume   647.10911738
_cell_formula_units_Z   2
loop_
 _symmetry_equiv_pos_site_id
 _symmetry_equiv_pos_as_xyz
  1  'x, y, z'
loop_
 _atom_site_type_symbol
 _atom_site_label
 _atom_site_symmetry_multiplicity
 _atom_site_fract_x
 _atom_site_fract_y
 _atom_site_fract_z
 _atom_site_occupancy
  Ho  Ho0  1  0.532399  0.064798  0.793931  1
  Ho  Ho1  1  0.935321  0.467668  0.793960  1
  Ho  Ho2  1  0.532347  0.467668  0.793960  1
  Ho  Ho3  1  0.467523  0.935047  0.293941  1
  Er  Er4  1  0.065230  0.532611  0.293921  1
  Er  Er5  1  0.467382  0.532611  0.293921  1
  Er  Er6  1  0.823587  0.647175  0.499440  1
  Er  Er7  1  0.352712  0.176503  0.499576  1
  Er  Er8  1  0.823791  0.176503  0.499576  1
  Er  Er9  1  0.176411  0.352821  0.999973  1
  Er  Er10  1  0.647285  0.823550  0.999877  1
  Er  Er11  1  0.176264  0.823550  0.999877  1
  Er  Er12  1  0.666742  0.333483  0.174106  1
  Er  Er13  1  0.333247  0.666496  0.673776  1
  Er  Er14  1  0.999968  0.999935  0.778860  1
  Er  Er15  1  0.999986  0.999973  0.279038  1
  In  In16  1  0.837296  0.674593  0.038983  1
  In  In17  1  0.325373  0.162709  0.038911  1
  In  In18  1  0.837335  0.162709  0.038911  1
  In  In19  1  0.162783  0.325565  0.538653  1
  In  In20  1  0.674554  0.837213  0.538729  1
  In  In21  1  0.162661  0.837213  0.538729  1
  Rh  Rh22  1  0.666670  0.333338  0.567500  1
  Rh  Rh23  1  0.333133  0.666267  0.067757  1
