# generated using pymatgen
data_Sc19Ga4Si12Tc
_symmetry_space_group_name_H-M   'P 1'
_cell_length_a   6.89042425
_cell_length_b   7.18538686
_cell_length_c   13.76424794
_cell_angle_alpha   90.04288268
_cell_angle_beta   89.69015123
_cell_angle_gamma   89.81598998
_symmetry_Int_Tables_number   1
_chemical_formula_structural   Sc19Ga4Si12Tc
_chemical_formula_sum   'Sc19 Ga4 Si12 Tc1'
_cell_volume   681.45924452
_cell_formula_units_Z   1
loop_
 _symmetry_equiv_pos_site_id
 _symmetry_equiv_pos_as_xyz
  1  'x, y, z'
loop_
 _atom_site_type_symbol
 _atom_site_label
 _atom_site_symmetry_multiplicity
 _atom_site_fract_x
 _atom_site_fract_y
 _atom_site_fract_z
 _atom_site_occupancy
  Sc  Sc0  1  0.841364  0.004396  0.249969  1
  Sc  Sc1  1  0.341529  0.495070  0.248718  1
  Sc  Sc2  1  0.656489  0.508105  0.749772  1
  Sc  Sc3  1  0.990695  0.681189  0.602948  1
  Sc  Sc4  1  0.009355  0.322915  0.404211  1
  Sc  Sc5  1  0.512417  0.178382  0.403259  1
  Sc  Sc6  1  0.015062  0.322094  0.093339  1
  Sc  Sc7  1  0.490034  0.821820  0.600918  1
  Sc  Sc8  1  0.991496  0.685751  0.898844  1
  Sc  Sc9  1  0.485239  0.822603  0.901363  1
  Sc  Sc10  1  0.512119  0.181932  0.095021  1
  Sc  Sc11  1  0.329559  0.325459  0.628948  1
  Sc  Sc12  1  0.671057  0.672171  0.374202  1
  Sc  Sc13  1  0.171184  0.828332  0.375566  1
  Sc  Sc14  1  0.671372  0.672247  0.124948  1
  Sc  Sc15  1  0.829415  0.168970  0.629616  1
  Sc  Sc16  1  0.326326  0.322906  0.873521  1
  Sc  Sc17  1  0.827145  0.170050  0.871758  1
  Sc  Sc18  1  0.175968  0.826535  0.120507  1
  Ga  Ga19  1  0.166366  0.028397  0.546684  1
  Ga  Ga20  1  0.833829  0.965897  0.462607  1
  Ga  Ga21  1  0.336107  0.534441  0.462723  1
  Ga  Ga22  1  0.835118  0.965701  0.037728  1
  Si  Si23  1  0.028907  0.390691  0.751374  1
  Si  Si24  1  0.971591  0.607606  0.248484  1
  Si  Si25  1  0.468822  0.893589  0.248422  1
  Si  Si26  1  0.516373  0.093472  0.750808  1
  Si  Si27  1  0.280155  0.651998  0.750934  1
  Si  Si28  1  0.720536  0.364557  0.248613  1
  Si  Si29  1  0.217157  0.135370  0.248642  1
  Si  Si30  1  0.793027  0.863237  0.751381  1
  Si  Si31  1  0.666144  0.466261  0.539769  1
  Si  Si32  1  0.158330  0.028383  0.951706  1
  Si  Si33  1  0.662669  0.467642  0.960199  1
  Si  Si34  1  0.345049  0.531164  0.037038  1
  Tc  Tc35  1  0.151993  0.000658  0.755460  1
