# generated using pymatgen
data_Pr3Tm(PPt)4
_symmetry_space_group_name_H-M   'P 1'
_cell_length_a   4.17073200
_cell_length_b   4.17073312
_cell_length_c   16.24983600
_cell_angle_alpha   90.00000000
_cell_angle_beta   90.00000000
_cell_angle_gamma   120.00002286
_symmetry_Int_Tables_number   1
_chemical_formula_structural   Pr3Tm(PPt)4
_chemical_formula_sum   'Pr3 Tm1 P4 Pt4'
_cell_volume   244.79593318
_cell_formula_units_Z   1
loop_
 _symmetry_equiv_pos_site_id
 _symmetry_equiv_pos_as_xyz
  1  'x, y, z'
loop_
 _atom_site_type_symbol
 _atom_site_label
 _atom_site_symmetry_multiplicity
 _atom_site_fract_x
 _atom_site_fract_y
 _atom_site_fract_z
 _atom_site_occupancy
  Pr  Pr0  1  0.000000  0.000000  0.509006  1
  Pr  Pr1  1  0.000000  0.000000  0.990994  1
  Pr  Pr2  1  0.000000  0.000000  0.250000  1
  Tm  Tm3  1  0.000000  0.000000  0.750000  1
  P  P4  1  0.333333  0.666667  0.872649  1
  P  P5  1  0.666667  0.333333  0.122274  1
  P  P6  1  0.666667  0.333333  0.377726  1
  P  P7  1  0.333333  0.666667  0.627351  1
  Pt  Pt8  1  0.333333  0.666667  0.378678  1
  Pt  Pt9  1  0.666667  0.333333  0.644467  1
  Pt  Pt10  1  0.666667  0.333333  0.855533  1
  Pt  Pt11  1  0.333333  0.666667  0.121322  1
