# generated using pymatgen
data_PrErCo2P7Ru10
_symmetry_space_group_name_H-M   'P 1'
_cell_length_a   9.39633819
_cell_length_b   9.35838808
_cell_length_c   3.88626700
_cell_angle_alpha   90.00000000
_cell_angle_beta   90.00000000
_cell_angle_gamma   119.59962862
_symmetry_Int_Tables_number   1
_chemical_formula_structural   PrErCo2P7Ru10
_chemical_formula_sum   'Pr1 Er1 Co2 P7 Ru10'
_cell_volume   297.13990334
_cell_formula_units_Z   1
loop_
 _symmetry_equiv_pos_site_id
 _symmetry_equiv_pos_as_xyz
  1  'x, y, z'
loop_
 _atom_site_type_symbol
 _atom_site_label
 _atom_site_symmetry_multiplicity
 _atom_site_fract_x
 _atom_site_fract_y
 _atom_site_fract_z
 _atom_site_occupancy
  Pr  Pr0  1  0.333125  0.665484  0.000000  1
  Er  Er1  1  0.670096  0.334493  0.500000  1
  Co  Co2  1  0.730371  0.892004  0.000000  1
  Co  Co3  1  0.109365  0.839379  0.000000  1
  P  P4  1  0.111651  0.396552  0.500000  1
  P  P5  1  0.605338  0.717151  0.500000  1
  P  P6  1  0.283156  0.886446  0.500000  1
  P  P7  1  0.993421  0.991694  0.000000  1
  P  P8  1  0.425490  0.311186  0.000000  1
  P  P9  1  0.692244  0.109817  0.000000  1
  P  P10  1  0.891207  0.586515  0.000000  1
  Ru  Ru11  1  0.422886  0.064221  0.000000  1
  Ru  Ru12  1  0.930275  0.360049  0.000000  1
  Ru  Ru13  1  0.645047  0.580559  0.000000  1
  Ru  Ru14  1  0.393265  0.435957  0.500000  1
  Ru  Ru15  1  0.564593  0.950652  0.500000  1
  Ru  Ru16  1  0.049384  0.615021  0.500000  1
  Ru  Ru17  1  0.158730  0.267180  0.000000  1
  Ru  Ru18  1  0.199386  0.079562  0.500000  1
  Ru  Ru19  1  0.908700  0.119070  0.500000  1
  Ru  Ru20  1  0.882269  0.797010  0.500000  1
