# generated using pymatgen
data_Ho16Zn3CdCo4
_symmetry_space_group_name_H-M   'P 1'
_cell_length_a   9.35780990
_cell_length_b   9.36601485
_cell_length_c   9.35713800
_cell_angle_alpha   60.02946294
_cell_angle_beta   60.00052535
_cell_angle_gamma   60.03183869
_symmetry_Int_Tables_number   1
_chemical_formula_structural   Ho16Zn3CdCo4
_chemical_formula_sum   'Ho16 Zn3 Cd1 Co4'
_cell_volume   580.17614861
_cell_formula_units_Z   1
loop_
 _symmetry_equiv_pos_site_id
 _symmetry_equiv_pos_as_xyz
  1  'x, y, z'
loop_
 _atom_site_type_symbol
 _atom_site_label
 _atom_site_symmetry_multiplicity
 _atom_site_fract_x
 _atom_site_fract_y
 _atom_site_fract_z
 _atom_site_occupancy
  Ho  Ho0  1  0.941962  0.933509  0.562247  1
  Ho  Ho1  1  0.810785  0.189938  0.188707  1
  Ho  Ho2  1  0.937845  0.561174  0.563125  1
  Ho  Ho3  1  0.937861  0.561143  0.937871  1
  Ho  Ho4  1  0.809729  0.809484  0.190395  1
  Ho  Ho5  1  0.347962  0.349552  0.348140  1
  Ho  Ho6  1  0.562257  0.933513  0.941954  1
  Ho  Ho7  1  0.562314  0.933471  0.562292  1
  Ho  Ho8  1  0.190373  0.809607  0.809660  1
  Ho  Ho9  1  0.188683  0.189910  0.810697  1
  Ho  Ho10  1  0.347983  0.349575  0.954308  1
  Ho  Ho11  1  0.350019  0.949607  0.350199  1
  Ho  Ho12  1  0.810780  0.189938  0.810576  1
  Ho  Ho13  1  0.563149  0.561173  0.937833  1
  Ho  Ho14  1  0.190358  0.809624  0.190346  1
  Ho  Ho15  1  0.954398  0.349469  0.348081  1
  Zn  Zn16  1  0.577434  0.583253  0.261861  1
  Zn  Zn17  1  0.261864  0.583249  0.577439  1
  Zn  Zn18  1  0.577444  0.583257  0.577452  1
  Cd  Cd19  1  0.575986  0.272053  0.575983  1
  Co  Co20  1  0.574858  0.140606  0.142260  1
  Co  Co21  1  0.142273  0.140643  0.142301  1
  Co  Co22  1  0.141431  0.575616  0.141471  1
  Co  Co23  1  0.142256  0.140638  0.574805  1
