# generated using pymatgen
data_Y4V3Ni17P12
_symmetry_space_group_name_H-M   'P 1'
_cell_length_a   3.68403500
_cell_length_b   10.46623405
_cell_length_c   11.99935372
_cell_angle_alpha   90.15495156
_cell_angle_beta   90.00000000
_cell_angle_gamma   90.00000000
_symmetry_Int_Tables_number   1
_chemical_formula_structural   Y4V3Ni17P12
_chemical_formula_sum   'Y4 V3 Ni17 P12'
_cell_volume   462.66905951
_cell_formula_units_Z   1
loop_
 _symmetry_equiv_pos_site_id
 _symmetry_equiv_pos_as_xyz
  1  'x, y, z'
loop_
 _atom_site_type_symbol
 _atom_site_label
 _atom_site_symmetry_multiplicity
 _atom_site_fract_x
 _atom_site_fract_y
 _atom_site_fract_z
 _atom_site_occupancy
  Y  Y0  1  0.250000  0.917557  0.203710  1
  Y  Y1  1  0.750000  0.080895  0.794868  1
  Y  Y2  1  0.750000  0.416607  0.293679  1
  Y  Y3  1  0.250000  0.583117  0.706605  1
  V  V4  1  0.250000  0.793844  0.488336  1
  V  V5  1  0.750000  0.204828  0.511673  1
  V  V6  1  0.750000  0.295001  0.012100  1
  Ni  Ni7  1  0.250000  0.714045  0.988820  1
  Ni  Ni8  1  0.250000  0.092124  0.987896  1
  Ni  Ni9  1  0.750000  0.907707  0.011147  1
  Ni  Ni10  1  0.750000  0.591221  0.512119  1
  Ni  Ni11  1  0.250000  0.408106  0.490085  1
  Ni  Ni12  1  0.250000  0.278070  0.677427  1
  Ni  Ni13  1  0.750000  0.718837  0.322360  1
  Ni  Ni14  1  0.750000  0.777278  0.824362  1
  Ni  Ni15  1  0.250000  0.219674  0.176074  1
  Ni  Ni16  1  0.250000  0.621231  0.200010  1
  Ni  Ni17  1  0.750000  0.381883  0.799917  1
  Ni  Ni18  1  0.750000  0.117335  0.297837  1
  Ni  Ni19  1  0.250000  0.880940  0.701537  1
  Ni  Ni20  1  0.250000  0.033230  0.430329  1
  Ni  Ni21  1  0.750000  0.965728  0.567767  1
  Ni  Ni22  1  0.750000  0.536523  0.069266  1
  Ni  Ni23  1  0.250000  0.469085  0.930843  1
  P  P24  1  0.250000  0.079970  0.613165  1
  P  P25  1  0.750000  0.918018  0.385772  1
  P  P26  1  0.750000  0.581047  0.888989  1
  P  P27  1  0.250000  0.417984  0.112846  1
  P  P28  1  0.250000  0.232401  0.368946  1
  P  P29  1  0.750000  0.767749  0.631537  1
  P  P30  1  0.750000  0.732575  0.129194  1
  P  P31  1  0.250000  0.267830  0.870179  1
  P  P32  1  0.250000  0.897470  0.892280  1
  P  P33  1  0.750000  0.101304  0.107435  1
  P  P34  1  0.750000  0.397969  0.609239  1
  P  P35  1  0.250000  0.600818  0.391650  1
