# generated using pymatgen
data_LiPa3(GePt)4
_symmetry_space_group_name_H-M   'P 1'
_cell_length_a   4.39213400
_cell_length_b   6.94035011
_cell_length_c   7.59510792
_cell_angle_alpha   89.68503691
_cell_angle_beta   90.00000000
_cell_angle_gamma   90.00000000
_symmetry_Int_Tables_number   1
_chemical_formula_structural   LiPa3(GePt)4
_chemical_formula_sum   'Li1 Pa3 Ge4 Pt4'
_cell_volume   231.51777948
_cell_formula_units_Z   1
loop_
 _symmetry_equiv_pos_site_id
 _symmetry_equiv_pos_as_xyz
  1  'x, y, z'
loop_
 _atom_site_type_symbol
 _atom_site_label
 _atom_site_symmetry_multiplicity
 _atom_site_fract_x
 _atom_site_fract_y
 _atom_site_fract_z
 _atom_site_occupancy
  Li  Li0  1  0.250000  0.004601  0.800936  1
  Pa  Pa1  1  0.750000  0.999980  0.198450  1
  Pa  Pa2  1  0.750000  0.495064  0.293177  1
  Pa  Pa3  1  0.250000  0.505240  0.714561  1
  Ge  Ge4  1  0.250000  0.699258  0.077864  1
  Ge  Ge5  1  0.250000  0.173464  0.422203  1
  Ge  Ge6  1  0.750000  0.811368  0.592855  1
  Ge  Ge7  1  0.750000  0.299528  0.905390  1
  Pt  Pt8  1  0.250000  0.290918  0.089518  1
  Pt  Pt9  1  0.250000  0.774628  0.409967  1
  Pt  Pt10  1  0.750000  0.218231  0.576513  1
  Pt  Pt11  1  0.750000  0.727720  0.918563  1
