# generated using pymatgen
data_CaPOsF
_symmetry_space_group_name_H-M   'P 1'
_cell_length_a   4.04056600
_cell_length_b   4.04056600
_cell_length_c   8.00363000
_cell_angle_alpha   90.00000000
_cell_angle_beta   90.00000000
_cell_angle_gamma   90.00000000
_symmetry_Int_Tables_number   1
_chemical_formula_structural   CaPOsF
_chemical_formula_sum   'Ca2 P2 Os2 F2'
_cell_volume   130.66865281
_cell_formula_units_Z   2
loop_
 _symmetry_equiv_pos_site_id
 _symmetry_equiv_pos_as_xyz
  1  'x, y, z'
loop_
 _atom_site_type_symbol
 _atom_site_label
 _atom_site_symmetry_multiplicity
 _atom_site_fract_x
 _atom_site_fract_y
 _atom_site_fract_z
 _atom_site_occupancy
  Ca  Ca0  1  0.250002  0.250002  0.156198  1
  Ca  Ca1  1  0.750001  0.750001  0.843802  1
  P  P2  1  0.750001  0.750001  0.348592  1
  P  P3  1  0.250002  0.250002  0.651407  1
  Os  Os4  1  0.750002  0.250002  0.499999  1
  Os  Os5  1  0.250002  0.750002  0.499999  1
  F  F6  1  0.750002  0.250002  0.000000  1
  F  F7  1  0.250002  0.750002  0.000000  1
