# generated using pymatgen
data_Li13In4Hg
_symmetry_space_group_name_H-M   'P 1'
_cell_length_a   4.73195200
_cell_length_b   4.73195331
_cell_length_c   17.06879600
_cell_angle_alpha   90.00000000
_cell_angle_beta   90.00000000
_cell_angle_gamma   120.00001880
_symmetry_Int_Tables_number   1
_chemical_formula_structural   Li13In4Hg
_chemical_formula_sum   'Li13 In4 Hg1'
_cell_volume   330.98950145
_cell_formula_units_Z   1
loop_
 _symmetry_equiv_pos_site_id
 _symmetry_equiv_pos_as_xyz
  1  'x, y, z'
loop_
 _atom_site_type_symbol
 _atom_site_label
 _atom_site_symmetry_multiplicity
 _atom_site_fract_x
 _atom_site_fract_y
 _atom_site_fract_z
 _atom_site_occupancy
  Li  Li0  1  0.000000  0.000000  0.500000  1
  Li  Li1  1  0.000000  0.000000  0.671948  1
  Li  Li2  1  0.000000  0.000000  0.328052  1
  Li  Li3  1  0.000000  0.000000  0.836406  1
  Li  Li4  1  0.000000  0.000000  0.163594  1
  Li  Li5  1  0.333333  0.666667  0.946803  1
  Li  Li6  1  0.666667  0.333333  0.053197  1
  Li  Li7  1  0.333333  0.666667  0.446257  1
  Li  Li8  1  0.666667  0.333333  0.553743  1
  Li  Li9  1  0.333333  0.666667  0.283851  1
  Li  Li10  1  0.666667  0.333333  0.716149  1
  Li  Li11  1  0.333333  0.666667  0.115908  1
  Li  Li12  1  0.666667  0.333333  0.884092  1
  In  In13  1  0.333333  0.666667  0.783222  1
  In  In14  1  0.666667  0.333333  0.216778  1
  In  In15  1  0.333333  0.666667  0.610333  1
  In  In16  1  0.666667  0.333333  0.389667  1
  Hg  Hg17  1  0.000000  0.000000  0.000000  1
