# generated using pymatgen
data_Cs4V2CoCuS8
_symmetry_space_group_name_H-M   'P 1'
_cell_length_a   14.32831769
_cell_length_b   12.74087044
_cell_length_c   7.61431224
_cell_angle_alpha   85.56405542
_cell_angle_beta   62.44230386
_cell_angle_gamma   31.99363874
_symmetry_Int_Tables_number   1
_chemical_formula_structural   Cs4V2CoCuS8
_chemical_formula_sum   'Cs4 V2 Co1 Cu1 S8'
_cell_volume   484.30318152
_cell_formula_units_Z   1
loop_
 _symmetry_equiv_pos_site_id
 _symmetry_equiv_pos_as_xyz
  1  'x, y, z'
loop_
 _atom_site_type_symbol
 _atom_site_label
 _atom_site_symmetry_multiplicity
 _atom_site_fract_x
 _atom_site_fract_y
 _atom_site_fract_z
 _atom_site_occupancy
  Cs  Cs0  1  0.572821  0.572821  0.927179  1
  Cs  Cs1  1  0.927179  0.927179  0.572821  1
  Cs  Cs2  1  0.322912  0.322912  0.677088  1
  Cs  Cs3  1  0.677088  0.677088  0.322912  1
  V  V4  1  0.750000  0.750000  0.750000  1
  V  V5  1  0.500000  0.500000  0.500000  1
  Co  Co6  1  0.000000  0.000000  0.000000  1
  Cu  Cu7  1  0.250000  0.250000  0.250000  1
  S  S8  1  0.218202  0.880440  0.608139  1
  S  S9  1  0.293220  0.608139  0.880440  1
  S  S10  1  0.608139  0.293220  0.218202  1
  S  S11  1  0.880440  0.218202  0.293220  1
  S  S12  1  0.380448  0.018915  0.942237  1
  S  S13  1  0.942237  0.658400  0.380448  1
  S  S14  1  0.658400  0.942237  0.018915  1
  S  S15  1  0.018915  0.380448  0.658400  1
