# generated using pymatgen
data_Tb4Ho(SiB4)2
_symmetry_space_group_name_H-M   'P 1'
_cell_length_a   7.24805800
_cell_length_b   7.24805800
_cell_length_c   8.12044900
_cell_angle_alpha   90.00000000
_cell_angle_beta   90.00000000
_cell_angle_gamma   90.00000000
_symmetry_Int_Tables_number   1
_chemical_formula_structural   Tb4Ho(SiB4)2
_chemical_formula_sum   'Tb8 Ho2 Si4 B16'
_cell_volume   426.60246746
_cell_formula_units_Z   2
loop_
 _symmetry_equiv_pos_site_id
 _symmetry_equiv_pos_as_xyz
  1  'x, y, z'
loop_
 _atom_site_type_symbol
 _atom_site_label
 _atom_site_symmetry_multiplicity
 _atom_site_fract_x
 _atom_site_fract_y
 _atom_site_fract_z
 _atom_site_occupancy
  Tb  Tb0  1  0.680318  0.180318  0.224874  1
  Tb  Tb1  1  0.319682  0.819682  0.775126  1
  Tb  Tb2  1  0.319682  0.819682  0.224874  1
  Tb  Tb3  1  0.819682  0.680318  0.224874  1
  Tb  Tb4  1  0.819682  0.680318  0.775126  1
  Tb  Tb5  1  0.680318  0.180318  0.775126  1
  Tb  Tb6  1  0.180318  0.319682  0.775126  1
  Tb  Tb7  1  0.180318  0.319682  0.224874  1
  Ho  Ho8  1  0.000000  0.000000  0.500000  1
  Ho  Ho9  1  0.500000  0.500000  0.500000  1
  Si  Si10  1  0.114945  0.614945  0.500000  1
  Si  Si11  1  0.885055  0.385055  0.500000  1
  Si  Si12  1  0.385055  0.114945  0.500000  1
  Si  Si13  1  0.614945  0.885055  0.500000  1
  B  B14  1  0.172492  0.039119  0.000000  1
  B  B15  1  0.827508  0.960881  0.000000  1
  B  B16  1  0.960881  0.172492  0.000000  1
  B  B17  1  0.327508  0.539119  0.000000  1
  B  B18  1  0.039119  0.827508  0.000000  1
  B  B19  1  0.672492  0.460881  0.000000  1
  B  B20  1  0.539119  0.672492  0.000000  1
  B  B21  1  0.460881  0.327508  0.000000  1
  B  B22  1  0.089974  0.589974  0.000000  1
  B  B23  1  0.910026  0.410026  0.000000  1
  B  B24  1  0.410026  0.089974  0.000000  1
  B  B25  1  0.589974  0.910026  0.000000  1
  B  B26  1  0.000000  0.000000  0.161693  1
  B  B27  1  0.000000  0.000000  0.838307  1
  B  B28  1  0.500000  0.500000  0.838307  1
  B  B29  1  0.500000  0.500000  0.161693  1
