# generated using pymatgen
data_Ta9Ti3Al8(IrN)4
_symmetry_space_group_name_H-M   'P 1'
_cell_length_a   8.25439660
_cell_length_b   8.25509489
_cell_length_c   8.24304172
_cell_angle_alpha   60.06676971
_cell_angle_beta   59.98411647
_cell_angle_gamma   59.91300669
_symmetry_Int_Tables_number   1
_chemical_formula_structural   Ta9Ti3Al8(IrN)4
_chemical_formula_sum   'Ta9 Ti3 Al8 Ir4 N4'
_cell_volume   397.06334637
_cell_formula_units_Z   1
loop_
 _symmetry_equiv_pos_site_id
 _symmetry_equiv_pos_as_xyz
  1  'x, y, z'
loop_
 _atom_site_type_symbol
 _atom_site_label
 _atom_site_symmetry_multiplicity
 _atom_site_fract_x
 _atom_site_fract_y
 _atom_site_fract_z
 _atom_site_occupancy
  Ta  Ta0  1  0.813693  0.815846  0.185769  1
  Ta  Ta1  1  0.064285  0.434335  0.436524  1
  Ta  Ta2  1  0.436977  0.062968  0.065590  1
  Ta  Ta3  1  0.064971  0.064292  0.436369  1
  Ta  Ta4  1  0.062578  0.436776  0.064116  1
  Ta  Ta5  1  0.435371  0.064101  0.435185  1
  Ta  Ta6  1  0.184437  0.814710  0.186247  1
  Ta  Ta7  1  0.185047  0.815909  0.813250  1
  Ta  Ta8  1  0.813329  0.183948  0.187180  1
  Ti  Ti9  1  0.815381  0.183561  0.815113  1
  Ti  Ti10  1  0.436827  0.434520  0.065407  1
  Ti  Ti11  1  0.185868  0.185302  0.813055  1
  Al  Al12  1  0.416303  0.750510  0.416739  1
  Al  Al13  1  0.833280  0.833268  0.499780  1
  Al  Al14  1  0.498083  0.835070  0.833430  1
  Al  Al15  1  0.832944  0.835883  0.833471  1
  Al  Al16  1  0.750171  0.415875  0.417595  1
  Al  Al17  1  0.416658  0.416211  0.414961  1
  Al  Al18  1  0.417426  0.416283  0.751834  1
  Al  Al19  1  0.834612  0.496281  0.833196  1
  Ir  Ir20  1  0.623975  0.125747  0.625810  1
  Ir  Ir21  1  0.625423  0.624415  0.123898  1
  Ir  Ir22  1  0.125130  0.623568  0.626140  1
  Ir  Ir23  1  0.624936  0.624477  0.626008  1
  N  N24  1  0.129539  0.621881  0.123415  1
  N  N25  1  0.122278  0.126842  0.630283  1
  N  N26  1  0.624622  0.130778  0.119704  1
  N  N27  1  0.125857  0.126642  0.119929  1
