# generated using pymatgen
data_Y16In4Ir3Ru
_symmetry_space_group_name_H-M   'P 1'
_cell_length_a   9.70155691
_cell_length_b   9.70155657
_cell_length_c   9.69630771
_cell_angle_alpha   59.98208629
_cell_angle_beta   59.98208772
_cell_angle_gamma   60.00000289
_symmetry_Int_Tables_number   1
_chemical_formula_structural   Y16In4Ir3Ru
_chemical_formula_sum   'Y16 In4 Ir3 Ru1'
_cell_volume   645.14393174
_cell_formula_units_Z   1
loop_
 _symmetry_equiv_pos_site_id
 _symmetry_equiv_pos_as_xyz
  1  'x, y, z'
loop_
 _atom_site_type_symbol
 _atom_site_label
 _atom_site_symmetry_multiplicity
 _atom_site_fract_x
 _atom_site_fract_y
 _atom_site_fract_z
 _atom_site_occupancy
  Y  Y0  1  0.810096  0.191371  0.807162  1
  Y  Y1  1  0.940125  0.559194  0.560557  1
  Y  Y2  1  0.559194  0.940125  0.560557  1
  Y  Y3  1  0.808377  0.191883  0.191364  1
  Y  Y4  1  0.191883  0.808377  0.191364  1
  Y  Y5  1  0.348849  0.952414  0.349889  1
  Y  Y6  1  0.940125  0.940125  0.560557  1
  Y  Y7  1  0.560320  0.939553  0.939808  1
  Y  Y8  1  0.191371  0.810096  0.807162  1
  Y  Y9  1  0.349548  0.349548  0.951356  1
  Y  Y10  1  0.560320  0.560320  0.939808  1
  Y  Y11  1  0.348849  0.348849  0.349889  1
  Y  Y12  1  0.191371  0.191371  0.807162  1
  Y  Y13  1  0.808377  0.808377  0.191364  1
  Y  Y14  1  0.939553  0.560320  0.939808  1
  Y  Y15  1  0.952414  0.348849  0.349889  1
  In  In16  1  0.583251  0.583251  0.583393  1
  In  In17  1  0.583251  0.250106  0.583393  1
  In  In18  1  0.583162  0.583162  0.250516  1
  In  In19  1  0.250106  0.583251  0.583393  1
  Ir  Ir20  1  0.576817  0.141049  0.141085  1
  Ir  Ir21  1  0.141049  0.576817  0.141085  1
  Ir  Ir22  1  0.141049  0.141049  0.141085  1
  Ru  Ru23  1  0.140548  0.140548  0.578355  1
