# generated using pymatgen
data_Ac8SmNi6
_symmetry_space_group_name_H-M   'P 1'
_cell_length_a   7.81245199
_cell_length_b   7.81245199
_cell_length_c   7.81245235
_cell_angle_alpha   74.30592851
_cell_angle_beta   74.30592425
_cell_angle_gamma   74.30593152
_symmetry_Int_Tables_number   1
_chemical_formula_structural   Ac8SmNi6
_chemical_formula_sum   'Ac8 Sm1 Ni6'
_cell_volume   431.80578545
_cell_formula_units_Z   1
loop_
 _symmetry_equiv_pos_site_id
 _symmetry_equiv_pos_as_xyz
  1  'x, y, z'
loop_
 _atom_site_type_symbol
 _atom_site_label
 _atom_site_symmetry_multiplicity
 _atom_site_fract_x
 _atom_site_fract_y
 _atom_site_fract_z
 _atom_site_occupancy
  Ac  Ac0  1  0.292993  0.292993  0.292993  1
  Ac  Ac1  1  0.707007  0.707007  0.707007  1
  Ac  Ac2  1  0.818709  0.332292  0.127487  1
  Ac  Ac3  1  0.332292  0.127487  0.818709  1
  Ac  Ac4  1  0.127487  0.818709  0.332292  1
  Ac  Ac5  1  0.181291  0.667708  0.872513  1
  Ac  Ac6  1  0.667708  0.872513  0.181291  1
  Ac  Ac7  1  0.872513  0.181291  0.667708  1
  Sm  Sm8  1  0.500000  0.500000  0.500000  1
  Ni  Ni9  1  0.467884  0.627488  0.101326  1
  Ni  Ni10  1  0.627488  0.101326  0.467884  1
  Ni  Ni11  1  0.101326  0.467884  0.627488  1
  Ni  Ni12  1  0.532116  0.372512  0.898674  1
  Ni  Ni13  1  0.372512  0.898674  0.532116  1
  Ni  Ni14  1  0.898674  0.532116  0.372512  1
