# generated using pymatgen
data_Ho6Sc4InSb5
_symmetry_space_group_name_H-M   'P 1'
_cell_length_a   8.77147600
_cell_length_b   8.77324964
_cell_length_c   6.15401900
_cell_angle_alpha   90.00000000
_cell_angle_beta   90.00000000
_cell_angle_gamma   119.99331267
_symmetry_Int_Tables_number   1
_chemical_formula_structural   Ho6Sc4InSb5
_chemical_formula_sum   'Ho6 Sc4 In1 Sb5'
_cell_volume   410.15866661
_cell_formula_units_Z   1
loop_
 _symmetry_equiv_pos_site_id
 _symmetry_equiv_pos_as_xyz
  1  'x, y, z'
loop_
 _atom_site_type_symbol
 _atom_site_label
 _atom_site_symmetry_multiplicity
 _atom_site_fract_x
 _atom_site_fract_y
 _atom_site_fract_z
 _atom_site_occupancy
  Ho  Ho0  1  0.758033  0.000000  0.750000  1
  Ho  Ho1  1  0.754038  0.756284  0.250000  1
  Ho  Ho2  1  0.997754  0.243716  0.250000  1
  Ho  Ho3  1  0.003535  0.758299  0.750000  1
  Ho  Ho4  1  0.245235  0.241701  0.750000  1
  Ho  Ho5  1  0.240534  0.000000  0.250000  1
  Sc  Sc6  1  0.333752  0.667114  0.000653  1
  Sc  Sc7  1  0.666640  0.332886  0.499347  1
  Sc  Sc8  1  0.666640  0.332886  0.000653  1
  Sc  Sc9  1  0.333752  0.667114  0.499347  1
  In  In10  1  0.399874  0.000000  0.750000  1
  Sb  Sb11  1  0.394651  0.395383  0.250000  1
  Sb  Sb12  1  0.999268  0.604617  0.250000  1
  Sb  Sb13  1  0.000663  0.395539  0.750000  1
  Sb  Sb14  1  0.605125  0.604461  0.750000  1
  Sb  Sb15  1  0.600507  0.000000  0.250000  1
