# generated using pymatgen
data_Ba12CdSn12Au11
_symmetry_space_group_name_H-M   'P 1'
_cell_length_a   5.07068600
_cell_length_b   8.54404279
_cell_length_c   25.12979378
_cell_angle_alpha   89.89107262
_cell_angle_beta   90.00000000
_cell_angle_gamma   90.00000000
_symmetry_Int_Tables_number   1
_chemical_formula_structural   Ba12CdSn12Au11
_chemical_formula_sum   'Ba12 Cd1 Sn12 Au11'
_cell_volume   1088.72519214
_cell_formula_units_Z   1
loop_
 _symmetry_equiv_pos_site_id
 _symmetry_equiv_pos_as_xyz
  1  'x, y, z'
loop_
 _atom_site_type_symbol
 _atom_site_label
 _atom_site_symmetry_multiplicity
 _atom_site_fract_x
 _atom_site_fract_y
 _atom_site_fract_z
 _atom_site_occupancy
  Ba  Ba0  1  0.750000  0.216008  0.494742  1
  Ba  Ba1  1  0.250000  0.794806  0.166041  1
  Ba  Ba2  1  0.250000  0.784792  0.500336  1
  Ba  Ba3  1  0.250000  0.794002  0.832923  1
  Ba  Ba4  1  0.250000  0.706722  0.333133  1
  Ba  Ba5  1  0.750000  0.205472  0.834621  1
  Ba  Ba6  1  0.750000  0.292439  0.997215  1
  Ba  Ba7  1  0.750000  0.301641  0.671397  1
  Ba  Ba8  1  0.750000  0.294533  0.333179  1
  Ba  Ba9  1  0.250000  0.699704  0.667627  1
  Ba  Ba10  1  0.250000  0.707430  0.002590  1
  Ba  Ba11  1  0.750000  0.206472  0.166701  1
  Cd  Cd12  1  0.250000  0.091859  0.602371  1
  Sn  Sn13  1  0.250000  0.414163  0.564413  1
  Sn  Sn14  1  0.250000  0.082987  0.395236  1
  Sn  Sn15  1  0.250000  0.085887  0.062107  1
  Sn  Sn16  1  0.250000  0.417988  0.895794  1
  Sn  Sn17  1  0.750000  0.582110  0.104530  1
  Sn  Sn18  1  0.250000  0.417776  0.772730  1
  Sn  Sn19  1  0.750000  0.581749  0.228166  1
  Sn  Sn20  1  0.750000  0.587046  0.435732  1
  Sn  Sn21  1  0.750000  0.913151  0.937637  1
  Sn  Sn22  1  0.250000  0.081362  0.271561  1
  Sn  Sn23  1  0.750000  0.904610  0.602567  1
  Sn  Sn24  1  0.750000  0.920224  0.727306  1
  Au  Au25  1  0.250000  0.088549  0.736900  1
  Au  Au26  1  0.750000  0.587195  0.906252  1
  Au  Au27  1  0.750000  0.912064  0.405302  1
  Au  Au28  1  0.750000  0.577252  0.566521  1
  Au  Au29  1  0.750000  0.589469  0.760874  1
  Au  Au30  1  0.250000  0.416756  0.430662  1
  Au  Au31  1  0.250000  0.415203  0.239667  1
  Au  Au32  1  0.750000  0.920770  0.066274  1
  Au  Au33  1  0.250000  0.413203  0.093874  1
  Au  Au34  1  0.250000  0.079850  0.933497  1
  Au  Au35  1  0.750000  0.914755  0.259522  1
