# generated using pymatgen
data_Ca3Yb3(DySb3)2
_symmetry_space_group_name_H-M   'P 1'
_cell_length_a   8.12968135
_cell_length_b   8.13185055
_cell_length_c   8.18708547
_cell_angle_alpha   70.52800322
_cell_angle_beta   70.53673536
_cell_angle_gamma   109.09559936
_symmetry_Int_Tables_number   1
_chemical_formula_structural   Ca3Yb3(DySb3)2
_chemical_formula_sum   'Ca3 Yb3 Dy2 Sb6'
_cell_volume   418.60138096
_cell_formula_units_Z   1
loop_
 _symmetry_equiv_pos_site_id
 _symmetry_equiv_pos_as_xyz
  1  'x, y, z'
loop_
 _atom_site_type_symbol
 _atom_site_label
 _atom_site_symmetry_multiplicity
 _atom_site_fract_x
 _atom_site_fract_y
 _atom_site_fract_z
 _atom_site_occupancy
  Ca  Ca0  1  0.000974  0.359384  0.495498  1
  Ca  Ca1  1  0.495920  0.495974  0.147879  1
  Ca  Ca2  1  0.644258  0.147875  0.357097  1
  Yb  Yb3  1  0.359335  0.001065  0.995211  1
  Yb  Yb4  1  0.495701  0.495836  0.648254  1
  Yb  Yb5  1  0.148238  0.644427  0.856911  1
  Dy  Dy6  1  0.855251  0.000439  0.999434  1
  Dy  Dy7  1  0.000375  0.855120  0.499532  1
  Sb  Sb8  1  0.633428  0.873475  0.750361  1
  Sb  Sb9  1  0.874019  0.634168  0.249926  1
  Sb  Sb10  1  0.239375  0.117938  0.629508  1
  Sb  Sb11  1  0.756717  0.377887  0.870810  1
  Sb  Sb12  1  0.377938  0.756873  0.371122  1
  Sb  Sb13  1  0.118471  0.239537  0.128454  1
