# generated using pymatgen
data_ErTa(Nb2N3)4
_symmetry_space_group_name_H-M   'P 1'
_cell_length_a   5.30240900
_cell_length_b   5.30240934
_cell_length_c   10.51531400
_cell_angle_alpha   90.00000000
_cell_angle_beta   90.00000000
_cell_angle_gamma   120.00000411
_symmetry_Int_Tables_number   1
_chemical_formula_structural   ErTa(Nb2N3)4
_chemical_formula_sum   'Er1 Ta1 Nb8 N12'
_cell_volume   256.03499864
_cell_formula_units_Z   1
loop_
 _symmetry_equiv_pos_site_id
 _symmetry_equiv_pos_as_xyz
  1  'x, y, z'
loop_
 _atom_site_type_symbol
 _atom_site_label
 _atom_site_symmetry_multiplicity
 _atom_site_fract_x
 _atom_site_fract_y
 _atom_site_fract_z
 _atom_site_occupancy
  Er  Er0  1  0.333333  0.666667  0.500000  1
  Ta  Ta1  1  0.666667  0.333333  0.500000  1
  Nb  Nb2  1  0.675121  0.676316  0.754281  1
  Nb  Nb3  1  0.323684  0.998806  0.754281  1
  Nb  Nb4  1  0.001194  0.324879  0.754281  1
  Nb  Nb5  1  0.323684  0.324879  0.245719  1
  Nb  Nb6  1  0.675121  0.998806  0.245719  1
  Nb  Nb7  1  0.001194  0.676316  0.245719  1
  Nb  Nb8  1  0.666667  0.333333  0.000000  1
  Nb  Nb9  1  0.333333  0.666667  0.000000  1
  N  N10  1  0.664763  0.646797  0.371951  1
  N  N11  1  0.353203  0.017966  0.371951  1
  N  N12  1  0.982034  0.335237  0.371951  1
  N  N13  1  0.353203  0.335237  0.628049  1
  N  N14  1  0.664763  0.017966  0.628049  1
  N  N15  1  0.982034  0.646797  0.628049  1
  N  N16  1  0.340344  0.340090  0.880082  1
  N  N17  1  0.659910  0.000255  0.880082  1
  N  N18  1  0.999745  0.659656  0.880082  1
  N  N19  1  0.659910  0.659656  0.119918  1
  N  N20  1  0.340344  0.000255  0.119918  1
  N  N21  1  0.999745  0.340090  0.119918  1
