# generated using pymatgen
data_CoOsI18
_symmetry_space_group_name_H-M   'P 1'
_cell_length_a   9.87375398
_cell_length_b   9.86443986
_cell_length_c   9.86550428
_cell_angle_alpha   94.79818447
_cell_angle_beta   94.87308285
_cell_angle_gamma   94.80154548
_symmetry_Int_Tables_number   1
_chemical_formula_structural   CoOsI18
_chemical_formula_sum   'Co1 Os1 I18'
_cell_volume   950.06344803
_cell_formula_units_Z   1
loop_
 _symmetry_equiv_pos_site_id
 _symmetry_equiv_pos_as_xyz
  1  'x, y, z'
loop_
 _atom_site_type_symbol
 _atom_site_label
 _atom_site_symmetry_multiplicity
 _atom_site_fract_x
 _atom_site_fract_y
 _atom_site_fract_z
 _atom_site_occupancy
  Co  Co0  1  0.000000  0.000000  0.000000  1
  Os  Os1  1  0.500000  0.500000  0.500000  1
  I  I2  1  0.773780  0.496289  0.524450  1
  I  I3  1  0.524408  0.773998  0.495179  1
  I  I4  1  0.496479  0.525116  0.773867  1
  I  I5  1  0.226220  0.503711  0.475550  1
  I  I6  1  0.475592  0.226002  0.504821  1
  I  I7  1  0.503521  0.474884  0.226133  1
  I  I8  1  0.886723  0.365973  0.765323  1
  I  I9  1  0.765646  0.886547  0.365611  1
  I  I10  1  0.365793  0.765591  0.886293  1
  I  I11  1  0.113277  0.634027  0.234677  1
  I  I12  1  0.234354  0.113453  0.634389  1
  I  I13  1  0.634207  0.234409  0.113707  1
  I  I14  1  0.996206  0.965318  0.734863  1
  I  I15  1  0.734938  0.996593  0.965339  1
  I  I16  1  0.965148  0.734763  0.996614  1
  I  I17  1  0.003794  0.034682  0.265137  1
  I  I18  1  0.265062  0.003407  0.034661  1
  I  I19  1  0.034852  0.265237  0.003386  1
