# generated using pymatgen
data_EuTm6NiI12
_symmetry_space_group_name_H-M   'P 1'
_cell_length_a   9.65704306
_cell_length_b   9.65704319
_cell_length_c   9.65704345
_cell_angle_alpha   106.48833178
_cell_angle_beta   106.48832387
_cell_angle_gamma   106.48833723
_symmetry_Int_Tables_number   1
_chemical_formula_structural   EuTm6NiI12
_chemical_formula_sum   'Eu1 Tm6 Ni1 I12'
_cell_volume   760.25516002
_cell_formula_units_Z   1
loop_
 _symmetry_equiv_pos_site_id
 _symmetry_equiv_pos_as_xyz
  1  'x, y, z'
loop_
 _atom_site_type_symbol
 _atom_site_label
 _atom_site_symmetry_multiplicity
 _atom_site_fract_x
 _atom_site_fract_y
 _atom_site_fract_z
 _atom_site_occupancy
  Eu  Eu0  1  0.500000  0.500000  0.500000  1
  Tm  Tm1  1  0.907585  0.977530  0.711332  1
  Tm  Tm2  1  0.711332  0.907585  0.977530  1
  Tm  Tm3  1  0.977530  0.711332  0.907585  1
  Tm  Tm4  1  0.092415  0.022470  0.288668  1
  Tm  Tm5  1  0.288668  0.092415  0.022470  1
  Tm  Tm6  1  0.022470  0.288668  0.092415  1
  Ni  Ni7  1  0.000000  0.000000  0.000000  1
  I  I8  1  0.926142  0.323230  0.777183  1
  I  I9  1  0.777183  0.926142  0.323230  1
  I  I10  1  0.323230  0.777183  0.926142  1
  I  I11  1  0.073858  0.676770  0.222817  1
  I  I12  1  0.222817  0.073858  0.676770  1
  I  I13  1  0.676770  0.222817  0.073858  1
  I  I14  1  0.547707  0.862485  0.627117  1
  I  I15  1  0.627117  0.547707  0.862485  1
  I  I16  1  0.862485  0.627117  0.547707  1
  I  I17  1  0.452293  0.137515  0.372883  1
  I  I18  1  0.372883  0.452293  0.137515  1
  I  I19  1  0.137515  0.372883  0.452293  1
