# generated using pymatgen
data_CaNdAsPd14
_symmetry_space_group_name_H-M   'P 1'
_cell_length_a   9.00866300
_cell_length_b   9.00866300
_cell_length_c   7.14096200
_cell_angle_alpha   90.00000000
_cell_angle_beta   90.00000000
_cell_angle_gamma   90.00000000
_symmetry_Int_Tables_number   1
_chemical_formula_structural   CaNdAsPd14
_chemical_formula_sum   'Ca2 Nd2 As2 Pd28'
_cell_volume   579.53197668
_cell_formula_units_Z   2
loop_
 _symmetry_equiv_pos_site_id
 _symmetry_equiv_pos_as_xyz
  1  'x, y, z'
loop_
 _atom_site_type_symbol
 _atom_site_label
 _atom_site_symmetry_multiplicity
 _atom_site_fract_x
 _atom_site_fract_y
 _atom_site_fract_z
 _atom_site_occupancy
  Ca  Ca0  1  0.000000  0.000000  0.500000  1
  Ca  Ca1  1  0.500000  0.500000  0.500000  1
  Nd  Nd2  1  0.500000  0.000000  0.938866  1
  Nd  Nd3  1  0.000000  0.500000  0.061134  1
  As  As4  1  0.500000  0.000000  0.450117  1
  As  As5  1  0.000000  0.500000  0.549883  1
  Pd  Pd6  1  0.330625  0.830625  0.622821  1
  Pd  Pd7  1  0.330625  0.169375  0.622821  1
  Pd  Pd8  1  0.669375  0.830625  0.622821  1
  Pd  Pd9  1  0.669375  0.169375  0.622821  1
  Pd  Pd10  1  0.169375  0.669375  0.377179  1
  Pd  Pd11  1  0.169375  0.330625  0.377179  1
  Pd  Pd12  1  0.830625  0.669375  0.377179  1
  Pd  Pd13  1  0.830625  0.330625  0.377179  1
  Pd  Pd14  1  0.500000  0.766419  0.254120  1
  Pd  Pd15  1  0.500000  0.233581  0.254120  1
  Pd  Pd16  1  0.266419  0.000000  0.254120  1
  Pd  Pd17  1  0.733581  0.000000  0.254120  1
  Pd  Pd18  1  0.000000  0.733581  0.745880  1
  Pd  Pd19  1  0.000000  0.266419  0.745880  1
  Pd  Pd20  1  0.233581  0.500000  0.745880  1
  Pd  Pd21  1  0.766419  0.500000  0.745880  1
  Pd  Pd22  1  0.500000  0.349387  0.856884  1
  Pd  Pd23  1  0.500000  0.650613  0.856884  1
  Pd  Pd24  1  0.849387  0.000000  0.856884  1
  Pd  Pd25  1  0.150613  0.000000  0.856884  1
  Pd  Pd26  1  0.000000  0.150613  0.143116  1
  Pd  Pd27  1  0.000000  0.849387  0.143116  1
  Pd  Pd28  1  0.650613  0.500000  0.143116  1
  Pd  Pd29  1  0.349387  0.500000  0.143116  1
  Pd  Pd30  1  0.250000  0.750000  0.000000  1
  Pd  Pd31  1  0.250000  0.250000  0.000000  1
  Pd  Pd32  1  0.750000  0.750000  0.000000  1
  Pd  Pd33  1  0.750000  0.250000  0.000000  1
