# generated using pymatgen
data_Tb3YbEr4(B6Ru)4
_symmetry_space_group_name_H-M   'P 1'
_cell_length_a   3.65148800
_cell_length_b   9.12601559
_cell_length_c   11.51785500
_cell_angle_alpha   89.91824412
_cell_angle_beta   90.00000000
_cell_angle_gamma   90.00000000
_symmetry_Int_Tables_number   1
_chemical_formula_structural   Tb3YbEr4(B6Ru)4
_chemical_formula_sum   'Tb3 Yb1 Er4 B24 Ru4'
_cell_volume   383.81526974
_cell_formula_units_Z   1
loop_
 _symmetry_equiv_pos_site_id
 _symmetry_equiv_pos_as_xyz
  1  'x, y, z'
loop_
 _atom_site_type_symbol
 _atom_site_label
 _atom_site_symmetry_multiplicity
 _atom_site_fract_x
 _atom_site_fract_y
 _atom_site_fract_z
 _atom_site_occupancy
  Tb  Tb0  1  0.000000  0.676084  0.584927  1
  Tb  Tb1  1  0.000000  0.822326  0.086397  1
  Tb  Tb2  1  0.000000  0.178150  0.914497  1
  Yb  Yb3  1  0.000000  0.323124  0.413830  1
  Er  Er4  1  0.000000  0.943980  0.371228  1
  Er  Er5  1  0.000000  0.058297  0.627845  1
  Er  Er6  1  0.000000  0.442687  0.129810  1
  Er  Er7  1  0.000000  0.556311  0.871980  1
  B  B8  1  0.500000  0.553825  0.432215  1
  B  B9  1  0.500000  0.445454  0.567472  1
  B  B10  1  0.500000  0.053678  0.067110  1
  B  B11  1  0.500000  0.945655  0.932116  1
  B  B12  1  0.500000  0.748541  0.418706  1
  B  B13  1  0.500000  0.251907  0.580951  1
  B  B14  1  0.500000  0.248119  0.081155  1
  B  B15  1  0.500000  0.751229  0.919086  1
  B  B16  1  0.500000  0.791140  0.266210  1
  B  B17  1  0.500000  0.209900  0.733913  1
  B  B18  1  0.500000  0.289970  0.234023  1
  B  B19  1  0.500000  0.709442  0.766213  1
  B  B20  1  0.500000  0.630925  0.185824  1
  B  B21  1  0.500000  0.369316  0.815257  1
  B  B22  1  0.500000  0.130805  0.314448  1
  B  B23  1  0.500000  0.869360  0.684921  1
  B  B24  1  0.500000  0.983353  0.212302  1
  B  B25  1  0.500000  0.016763  0.786846  1
  B  B26  1  0.500000  0.483144  0.287740  1
  B  B27  1  0.500000  0.516486  0.712889  1
  B  B28  1  0.500000  0.605715  0.029476  1
  B  B29  1  0.500000  0.394353  0.971245  1
  B  B30  1  0.500000  0.103560  0.471304  1
  B  B31  1  0.500000  0.896055  0.528671  1
  Ru  Ru32  1  0.000000  0.639290  0.320192  1
  Ru  Ru33  1  0.000000  0.361906  0.680393  1
  Ru  Ru34  1  0.000000  0.137051  0.178362  1
  Ru  Ru35  1  0.000000  0.862095  0.820449  1
