# generated using pymatgen
data_TaNb(CoSi)2
_symmetry_space_group_name_H-M   'P 1'
_cell_length_a   6.23013300
_cell_length_b   3.65964900
_cell_length_c   7.04661000
_cell_angle_alpha   90.00000000
_cell_angle_beta   90.00000000
_cell_angle_gamma   90.00000000
_symmetry_Int_Tables_number   1
_chemical_formula_structural   TaNb(CoSi)2
_chemical_formula_sum   'Ta2 Nb2 Co4 Si4'
_cell_volume   160.66341268
_cell_formula_units_Z   2
loop_
 _symmetry_equiv_pos_site_id
 _symmetry_equiv_pos_as_xyz
  1  'x, y, z'
loop_
 _atom_site_type_symbol
 _atom_site_label
 _atom_site_symmetry_multiplicity
 _atom_site_fract_x
 _atom_site_fract_y
 _atom_site_fract_z
 _atom_site_occupancy
  Ta  Ta0  1  0.979483  0.750000  0.180039  1
  Ta  Ta1  1  0.479483  0.750000  0.319961  1
  Nb  Nb2  1  0.020244  0.250000  0.820197  1
  Nb  Nb3  1  0.520244  0.250000  0.679803  1
  Co  Co4  1  0.141427  0.250000  0.433849  1
  Co  Co5  1  0.641427  0.250000  0.066151  1
  Co  Co6  1  0.859327  0.750000  0.560639  1
  Co  Co7  1  0.359327  0.750000  0.939361  1
  Si  Si8  1  0.774676  0.250000  0.383143  1
  Si  Si9  1  0.274676  0.250000  0.116857  1
  Si  Si10  1  0.224843  0.750000  0.618354  1
  Si  Si11  1  0.724843  0.750000  0.881646  1
