# generated using pymatgen
data_Nd4Ag3Au
_symmetry_space_group_name_H-M   'P 1'
_cell_length_a   4.90407200
_cell_length_b   5.88543395
_cell_length_c   7.56394427
_cell_angle_alpha   90.06575182
_cell_angle_beta   90.00000000
_cell_angle_gamma   90.00000000
_symmetry_Int_Tables_number   1
_chemical_formula_structural   Nd4Ag3Au
_chemical_formula_sum   'Nd4 Ag3 Au1'
_cell_volume   218.31489242
_cell_formula_units_Z   1
loop_
 _symmetry_equiv_pos_site_id
 _symmetry_equiv_pos_as_xyz
  1  'x, y, z'
loop_
 _atom_site_type_symbol
 _atom_site_label
 _atom_site_symmetry_multiplicity
 _atom_site_fract_x
 _atom_site_fract_y
 _atom_site_fract_z
 _atom_site_occupancy
  Nd  Nd0  1  0.250000  0.350976  0.688866  1
  Nd  Nd1  1  0.250000  0.152669  0.179163  1
  Nd  Nd2  1  0.750000  0.642885  0.314025  1
  Nd  Nd3  1  0.750000  0.853072  0.820304  1
  Ag  Ag4  1  0.250000  0.853859  0.535580  1
  Ag  Ag5  1  0.250000  0.651026  0.037853  1
  Ag  Ag6  1  0.750000  0.141542  0.463119  1
  Au  Au7  1  0.750000  0.353970  0.961090  1
