# generated using pymatgen
data_Rb3TcO5
_symmetry_space_group_name_H-M   'P 1'
_cell_length_a   8.65554700
_cell_length_b   8.78904400
_cell_length_c   9.42446000
_cell_angle_alpha   90.00000000
_cell_angle_beta   90.00000000
_cell_angle_gamma   90.00000000
_symmetry_Int_Tables_number   1
_chemical_formula_structural   Rb3TcO5
_chemical_formula_sum   'Rb12 Tc4 O20'
_cell_volume   716.95621385
_cell_formula_units_Z   4
loop_
 _symmetry_equiv_pos_site_id
 _symmetry_equiv_pos_as_xyz
  1  'x, y, z'
loop_
 _atom_site_type_symbol
 _atom_site_label
 _atom_site_symmetry_multiplicity
 _atom_site_fract_x
 _atom_site_fract_y
 _atom_site_fract_z
 _atom_site_occupancy
  Rb  Rb0  1  0.951413  0.250000  0.750000  1
  Rb  Rb1  1  0.548587  0.750000  0.750000  1
  Rb  Rb2  1  0.048587  0.750000  0.250000  1
  Rb  Rb3  1  0.451413  0.250000  0.250000  1
  Rb  Rb4  1  0.750000  0.500000  0.018898  1
  Rb  Rb5  1  0.750000  0.000000  0.481102  1
  Rb  Rb6  1  0.250000  0.500000  0.981102  1
  Rb  Rb7  1  0.250000  0.000000  0.518898  1
  Rb  Rb8  1  0.750000  0.500000  0.484762  1
  Rb  Rb9  1  0.750000  0.000000  0.015238  1
  Rb  Rb10  1  0.250000  0.500000  0.515238  1
  Rb  Rb11  1  0.250000  0.000000  0.984762  1
  Tc  Tc12  1  0.489445  0.250000  0.750000  1
  Tc  Tc13  1  0.010555  0.750000  0.750000  1
  Tc  Tc14  1  0.510555  0.750000  0.250000  1
  Tc  Tc15  1  0.989445  0.250000  0.250000  1
  O  O16  1  0.279924  0.250000  0.750000  1
  O  O17  1  0.220076  0.750000  0.750000  1
  O  O18  1  0.720076  0.750000  0.250000  1
  O  O19  1  0.779924  0.250000  0.250000  1
  O  O20  1  0.588620  0.068539  0.746418  1
  O  O21  1  0.911380  0.931461  0.746418  1
  O  O22  1  0.588620  0.431461  0.753582  1
  O  O23  1  0.911380  0.568539  0.753582  1
  O  O24  1  0.411380  0.931461  0.253582  1
  O  O25  1  0.088620  0.068539  0.253582  1
  O  O26  1  0.411380  0.568539  0.246418  1
  O  O27  1  0.088620  0.431461  0.246418  1
  O  O28  1  0.495681  0.245682  0.948954  1
  O  O29  1  0.004319  0.754318  0.948954  1
  O  O30  1  0.495681  0.254318  0.551046  1
  O  O31  1  0.004319  0.745682  0.551046  1
  O  O32  1  0.504319  0.754318  0.051046  1
  O  O33  1  0.995681  0.245682  0.051046  1
  O  O34  1  0.504319  0.745682  0.448954  1
  O  O35  1  0.995681  0.254318  0.448954  1
