# generated using pymatgen
data_Dy4Fe13Co
_symmetry_space_group_name_H-M   'P 1'
_cell_length_a   5.06602647
_cell_length_b   5.06602621
_cell_length_c   12.39212263
_cell_angle_alpha   78.20532326
_cell_angle_beta   78.20532286
_cell_angle_gamma   60.00000210
_symmetry_Int_Tables_number   1
_chemical_formula_structural   Dy4Fe13Co
_chemical_formula_sum   'Dy4 Fe13 Co1'
_cell_volume   267.64815112
_cell_formula_units_Z   1
loop_
 _symmetry_equiv_pos_site_id
 _symmetry_equiv_pos_as_xyz
  1  'x, y, z'
loop_
 _atom_site_type_symbol
 _atom_site_label
 _atom_site_symmetry_multiplicity
 _atom_site_fract_x
 _atom_site_fract_y
 _atom_site_fract_z
 _atom_site_occupancy
  Dy  Dy0  1  0.947542  0.947542  0.157373  1
  Dy  Dy1  1  0.052458  0.052458  0.842627  1
  Dy  Dy2  1  0.850347  0.850347  0.448958  1
  Dy  Dy3  1  0.149653  0.149653  0.551042  1
  Fe  Fe4  1  0.721024  0.721024  0.836928  1
  Fe  Fe5  1  0.278976  0.278976  0.163072  1
  Fe  Fe6  1  0.612741  0.612741  0.161777  1
  Fe  Fe7  1  0.387259  0.387259  0.838223  1
  Fe  Fe8  1  0.000000  0.500000  0.000000  1
  Fe  Fe9  1  0.500000  0.000000  0.000000  1
  Fe  Fe10  1  0.500000  0.500000  0.000000  1
  Fe  Fe11  1  0.390998  0.390998  0.327533  1
  Fe  Fe12  1  0.890473  0.390998  0.327533  1
  Fe  Fe13  1  0.390998  0.890473  0.327533  1
  Fe  Fe14  1  0.609002  0.609002  0.672467  1
  Fe  Fe15  1  0.109527  0.609002  0.672467  1
  Fe  Fe16  1  0.609002  0.109527  0.672467  1
  Co  Co17  1  0.500000  0.500000  0.500000  1
