# generated using pymatgen
data_Ce3Tm(B4Os)4
_symmetry_space_group_name_H-M   'P 1'
_cell_length_a   3.60701000
_cell_length_b   6.00075545
_cell_length_c   11.63630306
_cell_angle_alpha   89.87295937
_cell_angle_beta   90.00000000
_cell_angle_gamma   90.00000000
_symmetry_Int_Tables_number   1
_chemical_formula_structural   Ce3Tm(B4Os)4
_chemical_formula_sum   'Ce3 Tm1 B16 Os4'
_cell_volume   251.86465760
_cell_formula_units_Z   1
loop_
 _symmetry_equiv_pos_site_id
 _symmetry_equiv_pos_as_xyz
  1  'x, y, z'
loop_
 _atom_site_type_symbol
 _atom_site_label
 _atom_site_symmetry_multiplicity
 _atom_site_fract_x
 _atom_site_fract_y
 _atom_site_fract_z
 _atom_site_occupancy
  Ce  Ce0  1  0.000000  0.628742  0.350099  1
  Ce  Ce1  1  0.000000  0.371317  0.650943  1
  Ce  Ce2  1  0.000000  0.128533  0.148381  1
  Tm  Tm3  1  0.000000  0.872146  0.851067  1
  B  B4  1  0.500000  0.787226  0.184811  1
  B  B5  1  0.500000  0.210978  0.814384  1
  B  B6  1  0.500000  0.285284  0.313181  1
  B  B7  1  0.500000  0.714612  0.687736  1
  B  B8  1  0.500000  0.863802  0.029670  1
  B  B9  1  0.500000  0.136493  0.967705  1
  B  B10  1  0.500000  0.361924  0.469669  1
  B  B11  1  0.500000  0.637503  0.531527  1
  B  B12  1  0.500000  0.888066  0.454824  1
  B  B13  1  0.500000  0.110887  0.547163  1
  B  B14  1  0.500000  0.388487  0.044191  1
  B  B15  1  0.500000  0.614344  0.952485  1
  B  B16  1  0.500000  0.974022  0.309308  1
  B  B17  1  0.500000  0.025257  0.692556  1
  B  B18  1  0.500000  0.472103  0.189213  1
  B  B19  1  0.500000  0.528741  0.809721  1
  Os  Os20  1  0.000000  0.640559  0.093647  1
  Os  Os21  1  0.000000  0.358548  0.906047  1
  Os  Os22  1  0.000000  0.140474  0.406128  1
  Os  Os23  1  0.000000  0.859952  0.595539  1
