# generated using pymatgen
data_Er2LuGa2Co9B4
_symmetry_space_group_name_H-M   'P 1'
_cell_length_a   5.11640600
_cell_length_b   5.11784787
_cell_length_c   9.52801500
_cell_angle_alpha   90.00110017
_cell_angle_beta   89.99779903
_cell_angle_gamma   119.99066783
_symmetry_Int_Tables_number   1
_chemical_formula_structural   Er2LuGa2Co9B4
_chemical_formula_sum   'Er2 Lu1 Ga2 Co9 B4'
_cell_volume   216.08581958
_cell_formula_units_Z   1
loop_
 _symmetry_equiv_pos_site_id
 _symmetry_equiv_pos_as_xyz
  1  'x, y, z'
loop_
 _atom_site_type_symbol
 _atom_site_label
 _atom_site_symmetry_multiplicity
 _atom_site_fract_x
 _atom_site_fract_y
 _atom_site_fract_z
 _atom_site_occupancy
  Er  Er0  1  0.000074  0.000000  0.999288  1
  Er  Er1  1  0.000092  0.000000  0.340618  1
  Lu  Lu2  1  0.999940  0.000000  0.660256  1
  Ga  Ga3  1  0.333261  0.666637  0.999791  1
  Ga  Ga4  1  0.666624  0.333363  0.999791  1
  Co  Co5  1  0.499880  0.000000  0.500390  1
  Co  Co6  1  0.499974  0.499940  0.500451  1
  Co  Co7  1  0.000034  0.500060  0.500451  1
  Co  Co8  1  0.499986  0.000000  0.207498  1
  Co  Co9  1  0.499993  0.499996  0.207506  1
  Co  Co10  1  0.999997  0.500004  0.207506  1
  Co  Co11  1  0.499938  0.000000  0.791934  1
  Co  Co12  1  0.500051  0.499844  0.791830  1
  Co  Co13  1  0.000207  0.500156  0.791830  1
  B  B14  1  0.333301  0.666640  0.349717  1
  B  B15  1  0.666661  0.333360  0.349717  1
  B  B16  1  0.666625  0.333362  0.650713  1
  B  B17  1  0.333261  0.666638  0.650713  1
