# generated using pymatgen
data_ErTm3Al7Ga5
_symmetry_space_group_name_H-M   'P 1'
_cell_length_a   6.10422002
_cell_length_b   6.09093743
_cell_length_c   9.40434300
_cell_angle_alpha   90.00159914
_cell_angle_beta   89.99516608
_cell_angle_gamma   120.25397724
_symmetry_Int_Tables_number   1
_chemical_formula_structural   ErTm3Al7Ga5
_chemical_formula_sum   'Er1 Tm3 Al7 Ga5'
_cell_volume   302.03428495
_cell_formula_units_Z   1
loop_
 _symmetry_equiv_pos_site_id
 _symmetry_equiv_pos_as_xyz
  1  'x, y, z'
loop_
 _atom_site_type_symbol
 _atom_site_label
 _atom_site_symmetry_multiplicity
 _atom_site_fract_x
 _atom_site_fract_y
 _atom_site_fract_z
 _atom_site_occupancy
  Er  Er0  1  0.000904  0.001518  0.997700  1
  Tm  Tm1  1  0.000770  0.001434  0.502171  1
  Tm  Tm2  1  0.332323  0.665841  0.249966  1
  Tm  Tm3  1  0.667173  0.333243  0.750072  1
  Al  Al4  1  0.501533  0.500922  0.499364  1
  Al  Al5  1  0.500623  0.001272  0.500120  1
  Al  Al6  1  0.999447  0.500975  0.499407  1
  Al  Al7  1  0.501540  0.500889  0.000666  1
  Al  Al8  1  0.500640  0.001286  0.999891  1
  Al  Al9  1  0.999413  0.500949  0.000624  1
  Al  Al10  1  0.816047  0.632090  0.250326  1
  Ga  Ga11  1  0.363274  0.180364  0.250359  1
  Ga  Ga12  1  0.816545  0.180727  0.250355  1
  Ga  Ga13  1  0.183407  0.366525  0.749648  1
  Ga  Ga14  1  0.633179  0.816174  0.749684  1
  Ga  Ga15  1  0.183182  0.815790  0.749648  1
