# generated using pymatgen
data_Ta3Co2B6Mo2W
_symmetry_space_group_name_H-M   'P 1'
_cell_length_a   3.21928600
_cell_length_b   4.57652841
_cell_length_c   10.94281700
_cell_angle_alpha   89.97674554
_cell_angle_beta   90.00000000
_cell_angle_gamma   110.59237261
_symmetry_Int_Tables_number   1
_chemical_formula_structural   Ta3Co2B6Mo2W
_chemical_formula_sum   'Ta3 Co2 B6 Mo2 W1'
_cell_volume   150.92111953
_cell_formula_units_Z   1
loop_
 _symmetry_equiv_pos_site_id
 _symmetry_equiv_pos_as_xyz
  1  'x, y, z'
loop_
 _atom_site_type_symbol
 _atom_site_label
 _atom_site_symmetry_multiplicity
 _atom_site_fract_x
 _atom_site_fract_y
 _atom_site_fract_z
 _atom_site_occupancy
  Ta  Ta0  1  0.207686  0.415373  0.393599  1
  Ta  Ta1  1  0.792910  0.585820  0.607486  1
  Ta  Ta2  1  0.208762  0.417526  0.103146  1
  Co  Co3  1  0.500188  0.000376  0.500791  1
  Co  Co4  1  0.498756  0.997511  0.997988  1
  B  B5  1  0.912574  0.825149  0.393953  1
  B  B6  1  0.088362  0.176725  0.606597  1
  B  B7  1  0.914228  0.828456  0.103690  1
  B  B8  1  0.086655  0.173312  0.895982  1
  B  B9  1  0.794129  0.588259  0.248503  1
  B  B10  1  0.207199  0.414395  0.752114  1
  Mo  Mo11  1  0.498274  0.996546  0.249825  1
  Mo  Mo12  1  0.501964  0.003929  0.752403  1
  W  W13  1  0.788312  0.576624  0.893921  1
