# generated using pymatgen
data_Ho4TmOs2
_symmetry_space_group_name_H-M   'P 1'
_cell_length_a   6.31900840
_cell_length_b   7.33059925
_cell_length_c   8.37054666
_cell_angle_alpha   96.87362245
_cell_angle_beta   112.17612565
_cell_angle_gamma   90.00000784
_symmetry_Int_Tables_number   1
_chemical_formula_structural   Ho4TmOs2
_chemical_formula_sum   'Ho8 Tm2 Os4'
_cell_volume   356.04811317
_cell_formula_units_Z   2
loop_
 _symmetry_equiv_pos_site_id
 _symmetry_equiv_pos_as_xyz
  1  'x, y, z'
loop_
 _atom_site_type_symbol
 _atom_site_label
 _atom_site_symmetry_multiplicity
 _atom_site_fract_x
 _atom_site_fract_y
 _atom_site_fract_z
 _atom_site_occupancy
  Ho  Ho0  1  0.792740  0.083485  0.817508  1
  Ho  Ho1  1  0.975232  0.416515  0.182492  1
  Ho  Ho2  1  0.207260  0.916515  0.182492  1
  Ho  Ho3  1  0.024768  0.583485  0.817508  1
  Ho  Ho4  1  0.204025  0.182755  0.564908  1
  Ho  Ho5  1  0.639119  0.317245  0.435092  1
  Ho  Ho6  1  0.795975  0.817245  0.435092  1
  Ho  Ho7  1  0.360881  0.682755  0.564908  1
  Tm  Tm8  1  0.421472  0.250000  0.000000  1
  Tm  Tm9  1  0.578528  0.750000  0.000000  1
  Os  Os10  1  0.602582  0.422454  0.782341  1
  Os  Os11  1  0.820239  0.077546  0.217659  1
  Os  Os12  1  0.397418  0.577546  0.217659  1
  Os  Os13  1  0.179761  0.922454  0.782341  1
