# generated using pymatgen
data_Ho5Tm3(P3Ir4)4
_symmetry_space_group_name_H-M   'P 1'
_cell_length_a   12.94397800
_cell_length_b   12.94397820
_cell_length_c   3.98954800
_cell_angle_alpha   90.00000000
_cell_angle_beta   90.00000000
_cell_angle_gamma   119.99999950
_symmetry_Int_Tables_number   1
_chemical_formula_structural   Ho5Tm3(P3Ir4)4
_chemical_formula_sum   'Ho5 Tm3 P12 Ir16'
_cell_volume   578.88176233
_cell_formula_units_Z   1
loop_
 _symmetry_equiv_pos_site_id
 _symmetry_equiv_pos_as_xyz
  1  'x, y, z'
loop_
 _atom_site_type_symbol
 _atom_site_label
 _atom_site_symmetry_multiplicity
 _atom_site_fract_x
 _atom_site_fract_y
 _atom_site_fract_z
 _atom_site_occupancy
  Ho  Ho0  1  0.333333  0.666667  0.500000  1
  Ho  Ho1  1  0.666667  0.333333  0.500000  1
  Ho  Ho2  1  0.000000  0.814301  0.000000  1
  Ho  Ho3  1  0.185699  0.185699  0.000000  1
  Ho  Ho4  1  0.814301  0.000000  0.000000  1
  Tm  Tm5  1  0.000000  0.446185  0.500000  1
  Tm  Tm6  1  0.553815  0.553815  0.500000  1
  Tm  Tm7  1  0.446185  0.000000  0.500000  1
  P  P8  1  0.000000  0.652139  0.500000  1
  P  P9  1  0.347861  0.347861  0.500000  1
  P  P10  1  0.652139  0.000000  0.500000  1
  P  P11  1  0.516644  0.688268  0.000000  1
  P  P12  1  0.311732  0.828376  0.000000  1
  P  P13  1  0.171624  0.483356  0.000000  1
  P  P14  1  0.483356  0.171624  0.000000  1
  P  P15  1  0.688268  0.516644  0.000000  1
  P  P16  1  0.828376  0.311732  0.000000  1
  P  P17  1  0.000000  0.176372  0.500000  1
  P  P18  1  0.823628  0.823628  0.500000  1
  P  P19  1  0.176372  0.000000  0.500000  1
  Ir  Ir20  1  0.509196  0.865898  0.000000  1
  Ir  Ir21  1  0.134102  0.643298  0.000000  1
  Ir  Ir22  1  0.356702  0.490804  0.000000  1
  Ir  Ir23  1  0.490804  0.356702  0.000000  1
  Ir  Ir24  1  0.865898  0.509196  0.000000  1
  Ir  Ir25  1  0.643298  0.134102  0.000000  1
  Ir  Ir26  1  0.000000  0.274992  0.000000  1
  Ir  Ir27  1  0.725008  0.725008  0.000000  1
  Ir  Ir28  1  0.274992  0.000000  0.000000  1
  Ir  Ir29  1  0.630182  0.809066  0.500000  1
  Ir  Ir30  1  0.190934  0.821116  0.500000  1
  Ir  Ir31  1  0.178884  0.369818  0.500000  1
  Ir  Ir32  1  0.369818  0.178884  0.500000  1
  Ir  Ir33  1  0.809066  0.630182  0.500000  1
  Ir  Ir34  1  0.821116  0.190934  0.500000  1
  Ir  Ir35  1  0.000000  0.000000  0.500000  1
