# generated using pymatgen
data_Ce2ZnSi3
_symmetry_space_group_name_H-M   'P 1'
_cell_length_a   8.19301200
_cell_length_b   8.19301241
_cell_length_c   8.43596200
_cell_angle_alpha   90.00000000
_cell_angle_beta   90.00000000
_cell_angle_gamma   119.99999834
_symmetry_Int_Tables_number   1
_chemical_formula_structural   Ce2ZnSi3
_chemical_formula_sum   'Ce8 Zn4 Si12'
_cell_volume   490.40225377
_cell_formula_units_Z   4
loop_
 _symmetry_equiv_pos_site_id
 _symmetry_equiv_pos_as_xyz
  1  'x, y, z'
loop_
 _atom_site_type_symbol
 _atom_site_label
 _atom_site_symmetry_multiplicity
 _atom_site_fract_x
 _atom_site_fract_y
 _atom_site_fract_z
 _atom_site_occupancy
  Ce  Ce0  1  0.000000  0.000000  0.250000  1
  Ce  Ce1  1  0.000000  0.000000  0.750000  1
  Ce  Ce2  1  0.499265  0.500735  0.250000  1
  Ce  Ce3  1  0.499265  0.998529  0.250000  1
  Ce  Ce4  1  0.001471  0.500735  0.250000  1
  Ce  Ce5  1  0.500735  0.499265  0.750000  1
  Ce  Ce6  1  0.500735  0.001471  0.750000  1
  Ce  Ce7  1  0.998529  0.499265  0.750000  1
  Zn  Zn8  1  0.333333  0.666667  0.502315  1
  Zn  Zn9  1  0.666667  0.333333  0.497685  1
  Zn  Zn10  1  0.666667  0.333333  0.002315  1
  Zn  Zn11  1  0.333333  0.666667  0.997685  1
  Si  Si12  1  0.165675  0.834325  0.500912  1
  Si  Si13  1  0.165675  0.331350  0.500912  1
  Si  Si14  1  0.668650  0.834325  0.500912  1
  Si  Si15  1  0.834325  0.165675  0.499088  1
  Si  Si16  1  0.834325  0.668650  0.499088  1
  Si  Si17  1  0.331350  0.165675  0.499088  1
  Si  Si18  1  0.834325  0.165675  0.000912  1
  Si  Si19  1  0.834325  0.668650  0.000912  1
  Si  Si20  1  0.331350  0.165675  0.000912  1
  Si  Si21  1  0.165675  0.834325  0.999088  1
  Si  Si22  1  0.165675  0.331350  0.999088  1
  Si  Si23  1  0.668650  0.834325  0.999088  1
