# generated using pymatgen
data_Rb3Fe2(Co2As3)2
_symmetry_space_group_name_H-M   'P 1'
_cell_length_a   9.42392641
_cell_length_b   9.42392782
_cell_length_c   7.70297993
_cell_angle_alpha   59.02332484
_cell_angle_beta   59.02331917
_cell_angle_gamma   33.43426978
_symmetry_Int_Tables_number   1
_chemical_formula_structural   Rb3Fe2(Co2As3)2
_chemical_formula_sum   'Rb3 Fe2 Co4 As6'
_cell_volume   317.87337592
_cell_formula_units_Z   1
loop_
 _symmetry_equiv_pos_site_id
 _symmetry_equiv_pos_as_xyz
  1  'x, y, z'
loop_
 _atom_site_type_symbol
 _atom_site_label
 _atom_site_symmetry_multiplicity
 _atom_site_fract_x
 _atom_site_fract_y
 _atom_site_fract_z
 _atom_site_occupancy
  Rb  Rb0  1  0.001622  0.998378  0.000000  1
  Rb  Rb1  1  0.664584  0.667197  0.666519  1
  Rb  Rb2  1  0.332803  0.335416  0.333481  1
  Fe  Fe3  1  0.582627  0.082372  0.834372  1
  Fe  Fe4  1  0.917628  0.417373  0.165628  1
  Co  Co5  1  0.083113  0.583188  0.833315  1
  Co  Co6  1  0.416812  0.916887  0.166685  1
  Co  Co7  1  0.750503  0.249497  0.500000  1
  Co  Co8  1  0.249863  0.750137  0.500000  1
  As  As9  1  0.883674  0.887571  0.549334  1
  As  As10  1  0.219334  0.219637  0.878732  1
  As  As11  1  0.557283  0.552636  0.211735  1
  As  As12  1  0.447364  0.442717  0.788265  1
  As  As13  1  0.780363  0.780666  0.121268  1
  As  As14  1  0.112429  0.116326  0.450666  1
