# generated using pymatgen
data_Li2FeRh4W
_symmetry_space_group_name_H-M   'P 1'
_cell_length_a   4.26723900
_cell_length_b   6.00511900
_cell_length_c   12.70070001
_cell_angle_alpha   90.00000000
_cell_angle_beta   89.99494892
_cell_angle_gamma   90.00000000
_symmetry_Int_Tables_number   1
_chemical_formula_structural   Li2FeRh4W
_chemical_formula_sum   'Li6 Fe3 Rh12 W3'
_cell_volume   325.45896762
_cell_formula_units_Z   3
loop_
 _symmetry_equiv_pos_site_id
 _symmetry_equiv_pos_as_xyz
  1  'x, y, z'
loop_
 _atom_site_type_symbol
 _atom_site_label
 _atom_site_symmetry_multiplicity
 _atom_site_fract_x
 _atom_site_fract_y
 _atom_site_fract_z
 _atom_site_occupancy
  Li  Li0  1  0.999967  0.500000  0.996497  1
  Li  Li1  1  0.499880  0.000000  0.166643  1
  Li  Li2  1  0.999905  0.500000  0.336922  1
  Li  Li3  1  0.499927  0.000000  0.505015  1
  Li  Li4  1  0.000156  0.500000  0.666594  1
  Li  Li5  1  0.500140  0.000000  0.828330  1
  Fe  Fe6  1  0.499924  0.500000  0.507216  1
  Fe  Fe7  1  0.000115  0.000000  0.666686  1
  Fe  Fe8  1  0.500175  0.500000  0.826109  1
  Rh  Rh9  1  0.500024  0.251017  0.999421  1
  Rh  Rh10  1  0.500024  0.748983  0.999421  1
  Rh  Rh11  1  0.999895  0.249559  0.166682  1
  Rh  Rh12  1  0.999895  0.750440  0.166682  1
  Rh  Rh13  1  0.499883  0.251012  0.333893  1
  Rh  Rh14  1  0.499883  0.748987  0.333893  1
  Rh  Rh15  1  0.999836  0.252749  0.500100  1
  Rh  Rh16  1  0.999836  0.747251  0.500100  1
  Rh  Rh17  1  0.500116  0.248577  0.666651  1
  Rh  Rh18  1  0.500116  0.751422  0.666651  1
  Rh  Rh19  1  0.000245  0.252734  0.833248  1
  Rh  Rh20  1  0.000245  0.747265  0.833248  1
  W  W21  1  0.000007  0.000000  0.990622  1
  W  W22  1  0.499893  0.500000  0.166662  1
  W  W23  1  0.999902  0.000000  0.342719  1
