# generated using pymatgen
data_Lu4TaOs6W
_symmetry_space_group_name_H-M   'P 1'
_cell_length_a   5.47131500
_cell_length_b   5.47131580
_cell_length_c   8.47574800
_cell_angle_alpha   90.00000000
_cell_angle_beta   90.00000000
_cell_angle_gamma   119.99998909
_symmetry_Int_Tables_number   1
_chemical_formula_structural   Lu4TaOs6W
_chemical_formula_sum   'Lu4 Ta1 Os6 W1'
_cell_volume   219.73144788
_cell_formula_units_Z   1
loop_
 _symmetry_equiv_pos_site_id
 _symmetry_equiv_pos_as_xyz
  1  'x, y, z'
loop_
 _atom_site_type_symbol
 _atom_site_label
 _atom_site_symmetry_multiplicity
 _atom_site_fract_x
 _atom_site_fract_y
 _atom_site_fract_z
 _atom_site_occupancy
  Lu  Lu0  1  0.333333  0.666667  0.434924  1
  Lu  Lu1  1  0.666667  0.333333  0.565076  1
  Lu  Lu2  1  0.666667  0.333333  0.936716  1
  Lu  Lu3  1  0.333333  0.666667  0.063284  1
  Ta  Ta4  1  0.000000  0.000000  0.500000  1
  Os  Os5  1  0.173626  0.347254  0.752402  1
  Os  Os6  1  0.173626  0.826374  0.752402  1
  Os  Os7  1  0.347254  0.173626  0.247598  1
  Os  Os8  1  0.826374  0.652746  0.247598  1
  Os  Os9  1  0.652746  0.826374  0.752402  1
  Os  Os10  1  0.826374  0.173626  0.247598  1
  W  W11  1  0.000000  0.000000  0.000000  1
