# generated using pymatgen
data_YbSm4Y3(B6Ru)4
_symmetry_space_group_name_H-M   'P 1'
_cell_length_a   3.70130000
_cell_length_b   9.18938135
_cell_length_c   11.58978144
_cell_angle_alpha   90.03167870
_cell_angle_beta   90.00000000
_cell_angle_gamma   90.00000000
_symmetry_Int_Tables_number   1
_chemical_formula_structural   YbSm4Y3(B6Ru)4
_chemical_formula_sum   'Yb1 Sm4 Y3 B24 Ru4'
_cell_volume   394.19920293
_cell_formula_units_Z   1
loop_
 _symmetry_equiv_pos_site_id
 _symmetry_equiv_pos_as_xyz
  1  'x, y, z'
loop_
 _atom_site_type_symbol
 _atom_site_label
 _atom_site_symmetry_multiplicity
 _atom_site_fract_x
 _atom_site_fract_y
 _atom_site_fract_z
 _atom_site_occupancy
  Yb  Yb0  1  0.000000  0.557564  0.870344  1
  Sm  Sm1  1  0.000000  0.322960  0.415482  1
  Sm  Sm2  1  0.000000  0.676573  0.587783  1
  Sm  Sm3  1  0.000000  0.821745  0.083578  1
  Sm  Sm4  1  0.000000  0.178269  0.913367  1
  Y  Y5  1  0.000000  0.942774  0.371707  1
  Y  Y6  1  0.000000  0.056931  0.628807  1
  Y  Y7  1  0.000000  0.443525  0.126990  1
  B  B8  1  0.500000  0.554657  0.431669  1
  B  B9  1  0.500000  0.445315  0.569379  1
  B  B10  1  0.500000  0.055125  0.068208  1
  B  B11  1  0.500000  0.944683  0.931139  1
  B  B12  1  0.500000  0.748084  0.418397  1
  B  B13  1  0.500000  0.251976  0.582233  1
  B  B14  1  0.500000  0.248740  0.081352  1
  B  B15  1  0.500000  0.750750  0.917451  1
  B  B16  1  0.500000  0.789033  0.266097  1
  B  B17  1  0.500000  0.211652  0.733758  1
  B  B18  1  0.500000  0.289710  0.233420  1
  B  B19  1  0.500000  0.709789  0.767091  1
  B  B20  1  0.500000  0.630378  0.184635  1
  B  B21  1  0.500000  0.371159  0.814721  1
  B  B22  1  0.500000  0.130537  0.314517  1
  B  B23  1  0.500000  0.869196  0.686330  1
  B  B24  1  0.500000  0.984211  0.212693  1
  B  B25  1  0.500000  0.015679  0.787498  1
  B  B26  1  0.500000  0.484250  0.286907  1
  B  B27  1  0.500000  0.515858  0.713761  1
  B  B28  1  0.500000  0.603153  0.028168  1
  B  B29  1  0.500000  0.397132  0.971257  1
  B  B30  1  0.500000  0.105298  0.471061  1
  B  B31  1  0.500000  0.894310  0.529151  1
  Ru  Ru32  1  0.000000  0.637558  0.320988  1
  Ru  Ru33  1  0.000000  0.362023  0.679785  1
  Ru  Ru34  1  0.000000  0.138094  0.180115  1
  Ru  Ru35  1  0.000000  0.861308  0.820161  1
