# generated using pymatgen
data_DyTm5VFeB14
_symmetry_space_group_name_H-M   'P 1'
_cell_length_a   7.99087412
_cell_length_b   7.99087480
_cell_length_c   9.28122800
_cell_angle_alpha   90.00000000
_cell_angle_beta   90.00000000
_cell_angle_gamma   155.42610357
_symmetry_Int_Tables_number   1
_chemical_formula_structural   DyTm5VFeB14
_chemical_formula_sum   'Dy1 Tm5 V1 Fe1 B14'
_cell_volume   246.46088376
_cell_formula_units_Z   1
loop_
 _symmetry_equiv_pos_site_id
 _symmetry_equiv_pos_as_xyz
  1  'x, y, z'
loop_
 _atom_site_type_symbol
 _atom_site_label
 _atom_site_symmetry_multiplicity
 _atom_site_fract_x
 _atom_site_fract_y
 _atom_site_fract_z
 _atom_site_occupancy
  Dy  Dy0  1  0.245216  0.754784  0.250000  1
  Tm  Tm1  1  0.894017  0.105983  0.443496  1
  Tm  Tm2  1  0.105334  0.894666  0.562657  1
  Tm  Tm3  1  0.894017  0.105983  0.056504  1
  Tm  Tm4  1  0.105334  0.894666  0.937343  1
  Tm  Tm5  1  0.758364  0.241636  0.750000  1
  V  V6  1  0.051756  0.948244  0.250000  1
  Fe  Fe7  1  0.945899  0.054101  0.750000  1
  B  B8  1  0.727941  0.272059  0.470957  1
  B  B9  1  0.273074  0.726926  0.536990  1
  B  B10  1  0.727941  0.272059  0.029043  1
  B  B11  1  0.273074  0.726926  0.963010  1
  B  B12  1  0.632759  0.367241  0.147963  1
  B  B13  1  0.370474  0.629526  0.846871  1
  B  B14  1  0.632759  0.367241  0.352037  1
  B  B15  1  0.370474  0.629526  0.653129  1
  B  B16  1  0.519579  0.480421  0.092761  1
  B  B17  1  0.478829  0.521171  0.902740  1
  B  B18  1  0.519579  0.480421  0.407239  1
  B  B19  1  0.478829  0.521171  0.597260  1
  B  B20  1  0.454331  0.545669  0.250000  1
  B  B21  1  0.540422  0.459578  0.750000  1
