# generated using pymatgen
data_Sc4Ga3SiP2Ir7
_symmetry_space_group_name_H-M   'P 1'
_cell_length_a   6.99691027
_cell_length_b   7.00864803
_cell_length_c   7.09019046
_cell_angle_alpha   109.61071416
_cell_angle_beta   109.78979065
_cell_angle_gamma   109.31659540
_symmetry_Int_Tables_number   1
_chemical_formula_structural   Sc4Ga3SiP2Ir7
_chemical_formula_sum   'Sc4 Ga3 Si1 P2 Ir7'
_cell_volume   266.64523505
_cell_formula_units_Z   1
loop_
 _symmetry_equiv_pos_site_id
 _symmetry_equiv_pos_as_xyz
  1  'x, y, z'
loop_
 _atom_site_type_symbol
 _atom_site_label
 _atom_site_symmetry_multiplicity
 _atom_site_fract_x
 _atom_site_fract_y
 _atom_site_fract_z
 _atom_site_occupancy
  Sc  Sc0  1  0.000000  0.998582  0.542121  1
  Sc  Sc1  1  0.000000  0.474828  0.003097  1
  Sc  Sc2  1  0.481992  0.000274  0.003142  1
  Sc  Sc3  1  0.518008  0.518282  0.521150  1
  Ga  Ga4  1  0.720102  0.717212  0.015583  1
  Ga  Ga5  1  0.279898  0.997110  0.295481  1
  Ga  Ga6  1  0.000000  0.289177  0.307647  1
  Si  Si7  1  0.000000  0.666458  0.675052  1
  P  P8  1  0.335104  0.334014  0.002570  1
  P  P9  1  0.664896  0.998910  0.667466  1
  Ir  Ir10  1  0.742981  0.246180  0.501107  1
  Ir  Ir11  1  0.749859  0.498296  0.251630  1
  Ir  Ir12  1  0.501758  0.251959  0.752914  1
  Ir  Ir13  1  0.257019  0.503199  0.758125  1
  Ir  Ir14  1  0.250141  0.748436  0.501771  1
  Ir  Ir15  1  0.498242  0.750201  0.251156  1
  Ir  Ir16  1  0.000000  0.006883  0.949991  1
