# generated using pymatgen
data_Ba10Si17Au
_symmetry_space_group_name_H-M   'P 1'
_cell_length_a   6.67580780
_cell_length_b   6.67580781
_cell_length_c   18.03755068
_cell_angle_alpha   81.73802994
_cell_angle_beta   81.73802832
_cell_angle_gamma   100.34030444
_symmetry_Int_Tables_number   1
_chemical_formula_structural   Ba10Si17Au
_chemical_formula_sum   'Ba10 Si17 Au1'
_cell_volume   770.65406075
_cell_formula_units_Z   1
loop_
 _symmetry_equiv_pos_site_id
 _symmetry_equiv_pos_as_xyz
  1  'x, y, z'
loop_
 _atom_site_type_symbol
 _atom_site_label
 _atom_site_symmetry_multiplicity
 _atom_site_fract_x
 _atom_site_fract_y
 _atom_site_fract_z
 _atom_site_occupancy
  Ba  Ba0  1  0.751171  0.255957  0.997342  1
  Ba  Ba1  1  0.112773  0.578759  0.790359  1
  Ba  Ba2  1  0.286278  0.708191  0.500106  1
  Ba  Ba3  1  0.758458  0.758458  0.647883  1
  Ba  Ba4  1  0.242002  0.242002  0.350919  1
  Ba  Ba5  1  0.578759  0.112773  0.790359  1
  Ba  Ba6  1  0.255957  0.751171  0.997342  1
  Ba  Ba7  1  0.708191  0.286278  0.500106  1
  Ba  Ba8  1  0.419333  0.887363  0.211465  1
  Ba  Ba9  1  0.887363  0.419333  0.211465  1
  Si  Si10  1  0.917069  0.917069  0.262787  1
  Si  Si11  1  0.071966  0.071966  0.735966  1
  Si  Si12  1  0.779918  0.779918  0.932165  1
  Si  Si13  1  0.346313  0.346313  0.647400  1
  Si  Si14  1  0.295219  0.295219  0.928763  1
  Si  Si15  1  0.936992  0.936992  0.130499  1
  Si  Si16  1  0.648131  0.648131  0.356874  1
  Si  Si17  1  0.438447  0.438447  0.143954  1
  Si  Si18  1  0.065180  0.065180  0.867293  1
  Si  Si19  1  0.817344  0.817344  0.450425  1
  Si  Si20  1  0.326965  0.971358  0.643564  1
  Si  Si21  1  0.665754  0.022529  0.357954  1
  Si  Si22  1  0.182331  0.182331  0.550377  1
  Si  Si23  1  0.971358  0.326965  0.643564  1
  Si  Si24  1  0.022529  0.665754  0.357954  1
  Si  Si25  1  0.710099  0.710099  0.069446  1
  Si  Si26  1  0.579092  0.579092  0.853514  1
  Au  Au27  1  0.225004  0.225004  0.070157  1
