# generated using pymatgen
data_TbYAl20Ru3Rh
_symmetry_space_group_name_H-M   'P 1'
_cell_length_a   6.85317345
_cell_length_b   6.86070141
_cell_length_c   9.15440001
_cell_angle_alpha   90.14012057
_cell_angle_beta   90.14279570
_cell_angle_gamma   96.79768233
_symmetry_Int_Tables_number   1
_chemical_formula_structural   TbYAl20Ru3Rh
_chemical_formula_sum   'Tb1 Y1 Al20 Ru3 Rh1'
_cell_volume   427.38904099
_cell_formula_units_Z   1
loop_
 _symmetry_equiv_pos_site_id
 _symmetry_equiv_pos_as_xyz
  1  'x, y, z'
loop_
 _atom_site_type_symbol
 _atom_site_label
 _atom_site_symmetry_multiplicity
 _atom_site_fract_x
 _atom_site_fract_y
 _atom_site_fract_z
 _atom_site_occupancy
  Tb  Tb0  1  0.128014  0.873607  0.249503  1
  Y  Y1  1  0.871798  0.126547  0.750516  1
  Al  Al2  1  0.620883  0.376135  0.550957  1
  Al  Al3  1  0.379146  0.623835  0.449007  1
  Al  Al4  1  0.377308  0.623220  0.049855  1
  Al  Al5  1  0.622727  0.376746  0.950174  1
  Al  Al6  1  0.227511  0.225776  0.499311  1
  Al  Al7  1  0.772510  0.774206  0.500712  1
  Al  Al8  1  0.773698  0.774116  0.999868  1
  Al  Al9  1  0.226319  0.225863  0.000105  1
  Al  Al10  1  0.843806  0.156768  0.099937  1
  Al  Al11  1  0.156176  0.843254  0.900067  1
  Al  Al12  1  0.157721  0.844461  0.601334  1
  Al  Al13  1  0.842259  0.155571  0.398661  1
  Al  Al14  1  0.858427  0.587349  0.750808  1
  Al  Al15  1  0.141598  0.412576  0.249201  1
  Al  Al16  1  0.412803  0.140679  0.750424  1
  Al  Al17  1  0.587263  0.859290  0.249581  1
  Al  Al18  1  0.222738  0.480705  0.752254  1
  Al  Al19  1  0.777245  0.519221  0.247753  1
  Al  Al20  1  0.519143  0.779032  0.749779  1
  Al  Al21  1  0.480928  0.220985  0.250228  1
  Ru  Ru22  1  0.000012  0.500031  0.999920  1
  Ru  Ru23  1  0.499956  0.999978  0.999920  1
  Ru  Ru24  1  0.499980  0.999991  0.500093  1
  Rh  Rh25  1  0.000030  0.500057  0.500032  1
