# generated using pymatgen
data_YTa3Sn2(B2Ru5)2
_symmetry_space_group_name_H-M   'P 1'
_cell_length_a   9.52078309
_cell_length_b   9.52078309
_cell_length_c   3.08750200
_cell_angle_alpha   90.00000000
_cell_angle_beta   90.00000000
_cell_angle_gamma   91.16152406
_symmetry_Int_Tables_number   1
_chemical_formula_structural   YTa3Sn2(B2Ru5)2
_chemical_formula_sum   'Y1 Ta3 Sn2 B4 Ru10'
_cell_volume   279.81007124
_cell_formula_units_Z   1
loop_
 _symmetry_equiv_pos_site_id
 _symmetry_equiv_pos_as_xyz
  1  'x, y, z'
loop_
 _atom_site_type_symbol
 _atom_site_label
 _atom_site_symmetry_multiplicity
 _atom_site_fract_x
 _atom_site_fract_y
 _atom_site_fract_z
 _atom_site_occupancy
  Y  Y0  1  0.823316  0.676684  0.000000  1
  Ta  Ta1  1  0.176904  0.323096  0.000000  1
  Ta  Ta2  1  0.323812  0.825226  0.000000  1
  Ta  Ta3  1  0.674774  0.176188  0.000000  1
  Sn  Sn4  1  0.508486  0.503003  0.000000  1
  Sn  Sn5  1  0.996997  0.991514  0.000000  1
  B  B6  1  0.615084  0.884916  0.000000  1
  B  B7  1  0.373440  0.126560  0.000000  1
  B  B8  1  0.129191  0.616622  0.000000  1
  B  B9  1  0.883378  0.370809  0.000000  1
  Ru  Ru10  1  0.551380  0.733285  0.500000  1
  Ru  Ru11  1  0.425557  0.282678  0.500000  1
  Ru  Ru12  1  0.091053  0.778194  0.500000  1
  Ru  Ru13  1  0.934026  0.215873  0.500000  1
  Ru  Ru14  1  0.284127  0.565974  0.500000  1
  Ru  Ru15  1  0.721806  0.408947  0.500000  1
  Ru  Ru16  1  0.217322  0.074443  0.500000  1
  Ru  Ru17  1  0.766715  0.948620  0.500000  1
  Ru  Ru18  1  0.493062  0.006938  0.500000  1
  Ru  Ru19  1  0.009569  0.490431  0.500000  1
