# generated using pymatgen
data_Dy19Er(Sn3Pb5)2
_symmetry_space_group_name_H-M   'P 1'
_cell_length_a   8.15381300
_cell_length_b   8.22710436
_cell_length_c   15.59596600
_cell_angle_alpha   90.00000000
_cell_angle_beta   90.00000000
_cell_angle_gamma   90.01560884
_symmetry_Int_Tables_number   1
_chemical_formula_structural   Dy19Er(Sn3Pb5)2
_chemical_formula_sum   'Dy19 Er1 Sn6 Pb10'
_cell_volume   1046.21277117
_cell_formula_units_Z   1
loop_
 _symmetry_equiv_pos_site_id
 _symmetry_equiv_pos_as_xyz
  1  'x, y, z'
loop_
 _atom_site_type_symbol
 _atom_site_label
 _atom_site_symmetry_multiplicity
 _atom_site_fract_x
 _atom_site_fract_y
 _atom_site_fract_z
 _atom_site_occupancy
  Dy  Dy0  1  0.377882  0.840316  0.877283  1
  Dy  Dy1  1  0.877907  0.659695  0.622886  1
  Dy  Dy2  1  0.622137  0.160738  0.377850  1
  Dy  Dy3  1  0.122497  0.338990  0.122142  1
  Dy  Dy4  1  0.622137  0.160738  0.122150  1
  Dy  Dy5  1  0.122497  0.338990  0.377858  1
  Dy  Dy6  1  0.377882  0.840316  0.622717  1
  Dy  Dy7  1  0.877907  0.659695  0.877114  1
  Dy  Dy8  1  0.534821  0.323522  0.897091  1
  Dy  Dy9  1  0.034796  0.176451  0.602768  1
  Dy  Dy10  1  0.465136  0.675168  0.399443  1
  Dy  Dy11  1  0.965381  0.825140  0.100568  1
  Dy  Dy12  1  0.465136  0.675168  0.100557  1
  Dy  Dy13  1  0.965381  0.825140  0.399432  1
  Dy  Dy14  1  0.534821  0.323522  0.602909  1
  Dy  Dy15  1  0.034796  0.176451  0.897232  1
  Dy  Dy16  1  0.209952  0.503516  0.750000  1
  Dy  Dy17  1  0.709932  0.996519  0.750000  1
  Dy  Dy18  1  0.789720  0.493130  0.250000  1
  Er  Er19  1  0.289471  0.007293  0.250000  1
  Sn  Sn20  1  0.575132  0.623044  0.750000  1
  Sn  Sn21  1  0.075248  0.877112  0.750000  1
  Sn  Sn22  1  0.425652  0.375100  0.250000  1
  Sn  Sn23  1  0.926574  0.124062  0.250000  1
  Sn  Sn24  1  0.342991  0.148789  0.750000  1
  Sn  Sn25  1  0.843166  0.351071  0.750000  1
  Pb  Pb26  1  0.282028  0.033097  0.042470  1
  Pb  Pb27  1  0.782019  0.466722  0.457921  1
  Pb  Pb28  1  0.718146  0.966371  0.542188  1
  Pb  Pb29  1  0.218072  0.533480  0.957797  1
  Pb  Pb30  1  0.718146  0.966371  0.957812  1
  Pb  Pb31  1  0.218072  0.533480  0.542203  1
  Pb  Pb32  1  0.282028  0.033097  0.457530  1
  Pb  Pb33  1  0.782019  0.466722  0.042079  1
  Pb  Pb34  1  0.654975  0.848655  0.250000  1
  Pb  Pb35  1  0.155536  0.652330  0.250000  1
