# generated using pymatgen
data_Tb3Cd3Hg2Pb
_symmetry_space_group_name_H-M   'P 1'
_cell_length_a   7.67132400
_cell_length_b   7.67132446
_cell_length_c   4.47894100
_cell_angle_alpha   90.00000000
_cell_angle_beta   90.00000000
_cell_angle_gamma   119.99999800
_symmetry_Int_Tables_number   1
_chemical_formula_structural   Tb3Cd3Hg2Pb
_chemical_formula_sum   'Tb3 Cd3 Hg2 Pb1'
_cell_volume   228.26885459
_cell_formula_units_Z   1
loop_
 _symmetry_equiv_pos_site_id
 _symmetry_equiv_pos_as_xyz
  1  'x, y, z'
loop_
 _atom_site_type_symbol
 _atom_site_label
 _atom_site_symmetry_multiplicity
 _atom_site_fract_x
 _atom_site_fract_y
 _atom_site_fract_z
 _atom_site_occupancy
  Tb  Tb0  1  0.413338  0.989413  0.000000  1
  Tb  Tb1  1  0.010587  0.423925  0.000000  1
  Tb  Tb2  1  0.576075  0.586662  0.000000  1
  Cd  Cd3  1  0.748996  0.989406  0.500000  1
  Cd  Cd4  1  0.240410  0.251004  0.500000  1
  Cd  Cd5  1  0.010594  0.759590  0.500000  1
  Hg  Hg6  1  0.000000  0.000000  0.000000  1
  Hg  Hg7  1  0.333334  0.666667  0.500000  1
  Pb  Pb8  1  0.666666  0.333333  0.500000  1
