# generated using pymatgen
data_Rb2Zr3VSe8
_symmetry_space_group_name_H-M   'P 1'
_cell_length_a   6.55817600
_cell_length_b   7.63356900
_cell_length_c   17.01676500
_cell_angle_alpha   90.00000000
_cell_angle_beta   90.00000000
_cell_angle_gamma   90.00000000
_symmetry_Int_Tables_number   1
_chemical_formula_structural   Rb2Zr3VSe8
_chemical_formula_sum   'Rb4 Zr6 V2 Se16'
_cell_volume   851.89820745
_cell_formula_units_Z   2
loop_
 _symmetry_equiv_pos_site_id
 _symmetry_equiv_pos_as_xyz
  1  'x, y, z'
loop_
 _atom_site_type_symbol
 _atom_site_label
 _atom_site_symmetry_multiplicity
 _atom_site_fract_x
 _atom_site_fract_y
 _atom_site_fract_z
 _atom_site_occupancy
  Rb  Rb0  1  0.350834  0.000000  0.000000  1
  Rb  Rb1  1  0.656591  0.500000  0.500000  1
  Rb  Rb2  1  0.023228  0.000000  0.500000  1
  Rb  Rb3  1  0.976344  0.500000  0.000000  1
  Zr  Zr4  1  0.998640  0.500000  0.251242  1
  Zr  Zr5  1  0.998640  0.500000  0.748758  1
  Zr  Zr6  1  0.499494  0.241297  0.249470  1
  Zr  Zr7  1  0.499494  0.758703  0.750530  1
  Zr  Zr8  1  0.499494  0.758703  0.249470  1
  Zr  Zr9  1  0.499494  0.241297  0.750530  1
  V  V10  1  0.001527  0.000000  0.249711  1
  V  V11  1  0.001527  0.000000  0.750289  1
  Se  Se12  1  0.836960  0.243608  0.342066  1
  Se  Se13  1  0.836960  0.756392  0.657934  1
  Se  Se14  1  0.161089  0.754765  0.158064  1
  Se  Se15  1  0.161089  0.245235  0.841936  1
  Se  Se16  1  0.161089  0.245235  0.158064  1
  Se  Se17  1  0.161089  0.754765  0.841936  1
  Se  Se18  1  0.836960  0.756392  0.342066  1
  Se  Se19  1  0.836960  0.243608  0.657934  1
  Se  Se20  1  0.679110  0.000000  0.157225  1
  Se  Se21  1  0.679110  0.000000  0.842775  1
  Se  Se22  1  0.331716  0.500000  0.342765  1
  Se  Se23  1  0.331716  0.500000  0.657235  1
  Se  Se24  1  0.327991  0.000000  0.341988  1
  Se  Se25  1  0.327991  0.000000  0.658012  1
  Se  Se26  1  0.662430  0.500000  0.157916  1
  Se  Se27  1  0.662430  0.500000  0.842084  1
