# generated using pymatgen
data_Ho5Er5(SiHg)4
_symmetry_space_group_name_H-M   'P 1'
_cell_length_a   8.72781811
_cell_length_b   8.72015558
_cell_length_c   7.51843228
_cell_angle_alpha   90.00171452
_cell_angle_beta   90.02302774
_cell_angle_gamma   129.08828155
_symmetry_Int_Tables_number   1
_chemical_formula_structural   Ho5Er5(SiHg)4
_chemical_formula_sum   'Ho5 Er5 Si4 Hg4'
_cell_volume   444.13705821
_cell_formula_units_Z   1
loop_
 _symmetry_equiv_pos_site_id
 _symmetry_equiv_pos_as_xyz
  1  'x, y, z'
loop_
 _atom_site_type_symbol
 _atom_site_label
 _atom_site_symmetry_multiplicity
 _atom_site_fract_x
 _atom_site_fract_y
 _atom_site_fract_z
 _atom_site_occupancy
  Ho  Ho0  1  0.052520  0.307540  0.325546  1
  Ho  Ho1  1  0.947557  0.692569  0.674422  1
  Ho  Ho2  1  0.447370  0.192425  0.825414  1
  Ho  Ho3  1  0.807307  0.552466  0.174556  1
  Ho  Ho4  1  0.552504  0.807457  0.174515  1
  Er  Er5  1  0.193115  0.447721  0.825705  1
  Er  Er6  1  0.693127  0.947674  0.674263  1
  Er  Er7  1  0.306774  0.052240  0.325767  1
  Er  Er8  1  0.000000  0.999996  0.999992  1
  Er  Er9  1  0.499911  0.500020  0.500055  1
  Si  Si10  1  0.378902  0.378759  0.123780  1
  Si  Si11  1  0.620697  0.621101  0.875953  1
  Si  Si12  1  0.120734  0.121087  0.623780  1
  Si  Si13  1  0.879275  0.879300  0.376435  1
  Hg  Hg14  1  0.784089  0.216352  0.999483  1
  Hg  Hg15  1  0.216243  0.783526  0.000115  1
  Hg  Hg16  1  0.715760  0.283077  0.499940  1
  Hg  Hg17  1  0.284117  0.716690  0.500279  1
