# generated using pymatgen
data_TbSm2Ho7(In2Pd)4
_symmetry_space_group_name_H-M   'P 1'
_cell_length_a   3.62593700
_cell_length_b   8.18161458
_cell_length_c   18.36138130
_cell_angle_alpha   89.95685987
_cell_angle_beta   90.00000000
_cell_angle_gamma   90.00000000
_symmetry_Int_Tables_number   1
_chemical_formula_structural   TbSm2Ho7(In2Pd)4
_chemical_formula_sum   'Tb1 Sm2 Ho7 In8 Pd4'
_cell_volume   544.70893260
_cell_formula_units_Z   1
loop_
 _symmetry_equiv_pos_site_id
 _symmetry_equiv_pos_as_xyz
  1  'x, y, z'
loop_
 _atom_site_type_symbol
 _atom_site_label
 _atom_site_symmetry_multiplicity
 _atom_site_fract_x
 _atom_site_fract_y
 _atom_site_fract_z
 _atom_site_occupancy
  Tb  Tb0  1  0.000000  0.739486  0.280564  1
  Sm  Sm1  1  0.000000  0.500006  0.500000  1
  Sm  Sm2  1  0.000000  0.999992  0.999976  1
  Ho  Ho3  1  0.000000  0.260384  0.719542  1
  Ho  Ho4  1  0.000000  0.760435  0.780433  1
  Ho  Ho5  1  0.000000  0.239558  0.219556  1
  Ho  Ho6  1  0.000000  0.617463  0.083601  1
  Ho  Ho7  1  0.000000  0.382540  0.916293  1
  Ho  Ho8  1  0.000000  0.882501  0.583681  1
  Ho  Ho9  1  0.000000  0.117581  0.416386  1
  In  In10  1  0.500000  0.705706  0.931183  1
  In  In11  1  0.500000  0.294213  0.068814  1
  In  In12  1  0.500000  0.794375  0.431397  1
  In  In13  1  0.500000  0.205725  0.568815  1
  In  In14  1  0.500000  0.581842  0.651457  1
  In  In15  1  0.500000  0.417855  0.348614  1
  In  In16  1  0.500000  0.918367  0.151305  1
  In  In17  1  0.500000  0.081832  0.848530  1
  Pd  Pd18  1  0.500000  0.522921  0.195727  1
  Pd  Pd19  1  0.500000  0.476434  0.804050  1
  Pd  Pd20  1  0.500000  0.976463  0.695964  1
  Pd  Pd21  1  0.500000  0.024323  0.304110  1
