# generated using pymatgen
data_Dy5Tm2P12Ir14Rh3
_symmetry_space_group_name_H-M   'P 1'
_cell_length_a   12.72621467
_cell_length_b   12.99900368
_cell_length_c   3.97415700
_cell_angle_alpha   90.00000000
_cell_angle_beta   90.00000000
_cell_angle_gamma   119.36688728
_symmetry_Int_Tables_number   1
_chemical_formula_structural   Dy5Tm2P12Ir14Rh3
_chemical_formula_sum   'Dy5 Tm2 P12 Ir14 Rh3'
_cell_volume   572.95486730
_cell_formula_units_Z   1
loop_
 _symmetry_equiv_pos_site_id
 _symmetry_equiv_pos_as_xyz
  1  'x, y, z'
loop_
 _atom_site_type_symbol
 _atom_site_label
 _atom_site_symmetry_multiplicity
 _atom_site_fract_x
 _atom_site_fract_y
 _atom_site_fract_z
 _atom_site_occupancy
  Dy  Dy0  1  0.329662  0.661621  0.500000  1
  Dy  Dy1  1  0.667805  0.338150  0.500000  1
  Dy  Dy2  1  0.002089  0.816424  0.000000  1
  Dy  Dy3  1  0.185739  0.183415  0.000000  1
  Dy  Dy4  1  0.810031  0.999894  0.000000  1
  Tm  Tm5  1  0.996722  0.444075  0.500000  1
  Tm  Tm6  1  0.552279  0.556343  0.500000  1
  P  P7  1  0.008618  0.657238  0.500000  1
  P  P8  1  0.352102  0.342153  0.500000  1
  P  P9  1  0.641889  0.999387  0.500000  1
  P  P10  1  0.516801  0.690964  0.000000  1
  P  P11  1  0.310247  0.825868  0.000000  1
  P  P12  1  0.167159  0.480000  0.000000  1
  P  P13  1  0.484385  0.173595  0.000000  1
  P  P14  1  0.686093  0.519367  0.000000  1
  P  P15  1  0.826270  0.310057  0.000000  1
  P  P16  1  0.999434  0.174509  0.500000  1
  P  P17  1  0.824993  0.825406  0.500000  1
  P  P18  1  0.182195  0.999205  0.500000  1
  Ir  Ir19  1  0.358131  0.501203  0.000000  1
  Ir  Ir20  1  0.476610  0.354343  0.000000  1
  Ir  Ir21  1  0.857116  0.499656  0.000000  1
  Ir  Ir22  1  0.639451  0.134013  0.000000  1
  Ir  Ir23  1  0.996738  0.272015  0.000000  1
  Ir  Ir24  1  0.724555  0.728079  0.000000  1
  Ir  Ir25  1  0.285404  0.999990  0.000000  1
  Ir  Ir26  1  0.624199  0.810492  0.500000  1
  Ir  Ir27  1  0.207398  0.827028  0.500000  1
  Ir  Ir28  1  0.180763  0.364483  0.500000  1
  Ir  Ir29  1  0.380034  0.172188  0.500000  1
  Ir  Ir30  1  0.814987  0.635088  0.500000  1
  Ir  Ir31  1  0.813658  0.189353  0.500000  1
  Ir  Ir32  1  0.004159  0.000089  0.500000  1
  Rh  Rh33  1  0.506275  0.867351  0.000000  1
  Rh  Rh34  1  0.122108  0.646204  0.000000  1
  Rh  Rh35  1  0.463899  0.000750  0.500000  1
