# generated using pymatgen
data_Th3Be2(SiPd5)4
_symmetry_space_group_name_H-M   'P 1'
_cell_length_a   8.78420281
_cell_length_b   8.68241575
_cell_length_c   8.68241574
_cell_angle_alpha   60.77712529
_cell_angle_beta   59.61143859
_cell_angle_gamma   59.61143498
_symmetry_Int_Tables_number   1
_chemical_formula_structural   Th3Be2(SiPd5)4
_chemical_formula_sum   'Th3 Be2 Si4 Pd20'
_cell_volume   468.10976235
_cell_formula_units_Z   1
loop_
 _symmetry_equiv_pos_site_id
 _symmetry_equiv_pos_as_xyz
  1  'x, y, z'
loop_
 _atom_site_type_symbol
 _atom_site_label
 _atom_site_symmetry_multiplicity
 _atom_site_fract_x
 _atom_site_fract_y
 _atom_site_fract_z
 _atom_site_occupancy
  Th  Th0  1  0.250000  0.250000  0.250000  1
  Th  Th1  1  0.750000  0.750000  0.750000  1
  Th  Th2  1  0.000000  0.000000  0.000000  1
  Be  Be3  1  0.728824  0.271176  0.271176  1
  Be  Be4  1  0.271176  0.728824  0.728824  1
  Si  Si5  1  0.269898  0.730102  0.269898  1
  Si  Si6  1  0.730102  0.269898  0.730102  1
  Si  Si7  1  0.269898  0.269898  0.730102  1
  Si  Si8  1  0.730102  0.730102  0.269898  1
  Pd  Pd9  1  0.387828  0.381816  0.381816  1
  Pd  Pd10  1  0.612172  0.618184  0.618184  1
  Pd  Pd11  1  0.381816  0.387828  0.848542  1
  Pd  Pd12  1  0.381816  0.848542  0.387828  1
  Pd  Pd13  1  0.618184  0.612172  0.151458  1
  Pd  Pd14  1  0.618184  0.151458  0.612172  1
  Pd  Pd15  1  0.848542  0.381816  0.381816  1
  Pd  Pd16  1  0.151458  0.618184  0.618184  1
  Pd  Pd17  1  0.346402  0.000000  0.000000  1
  Pd  Pd18  1  0.653598  0.000000  0.000000  1
  Pd  Pd19  1  0.000000  0.346402  0.653598  1
  Pd  Pd20  1  0.000000  0.653598  0.346402  1
  Pd  Pd21  1  0.994650  0.343660  0.005350  1
  Pd  Pd22  1  0.656340  0.005350  0.343660  1
  Pd  Pd23  1  0.005350  0.656340  0.994650  1
  Pd  Pd24  1  0.343660  0.994650  0.656340  1
  Pd  Pd25  1  0.994650  0.005350  0.343660  1
  Pd  Pd26  1  0.005350  0.994650  0.656340  1
  Pd  Pd27  1  0.656340  0.343660  0.005350  1
  Pd  Pd28  1  0.343660  0.656340  0.994650  1
