# generated using pymatgen
data_Lu4TcMo3Os4
_symmetry_space_group_name_H-M   'P 1'
_cell_length_a   5.35493288
_cell_length_b   5.31199967
_cell_length_c   8.89408900
_cell_angle_alpha   90.00000000
_cell_angle_beta   90.00000000
_cell_angle_gamma   120.00938028
_symmetry_Int_Tables_number   1
_chemical_formula_structural   Lu4TcMo3Os4
_chemical_formula_sum   'Lu4 Tc1 Mo3 Os4'
_cell_volume   219.08019317
_cell_formula_units_Z   1
loop_
 _symmetry_equiv_pos_site_id
 _symmetry_equiv_pos_as_xyz
  1  'x, y, z'
loop_
 _atom_site_type_symbol
 _atom_site_label
 _atom_site_symmetry_multiplicity
 _atom_site_fract_x
 _atom_site_fract_y
 _atom_site_fract_z
 _atom_site_occupancy
  Lu  Lu0  1  0.334496  0.665416  0.440998  1
  Lu  Lu1  1  0.669459  0.332417  0.563775  1
  Lu  Lu2  1  0.669459  0.332417  0.936225  1
  Lu  Lu3  1  0.334496  0.665416  0.059002  1
  Tc  Tc4  1  0.170191  0.341734  0.750000  1
  Mo  Mo5  1  0.168977  0.827548  0.750000  1
  Mo  Mo6  1  0.338989  0.171971  0.250000  1
  Mo  Mo7  1  0.830776  0.664064  0.250000  1
  Os  Os8  1  0.650574  0.826394  0.750000  1
  Os  Os9  1  0.005047  0.997578  0.999908  1
  Os  Os10  1  0.822489  0.177468  0.250000  1
  Os  Os11  1  0.005047  0.997578  0.500092  1
