# generated using pymatgen
data_Al3V12Ga3(CuN2)2
_symmetry_space_group_name_H-M   'P 1'
_cell_length_a   6.57743044
_cell_length_b   6.57536756
_cell_length_c   6.58301137
_cell_angle_alpha   89.96832217
_cell_angle_beta   90.02169354
_cell_angle_gamma   90.14404633
_symmetry_Int_Tables_number   1
_chemical_formula_structural   Al3V12Ga3(CuN2)2
_chemical_formula_sum   'Al3 V12 Ga3 Cu2 N4'
_cell_volume   284.70784523
_cell_formula_units_Z   1
loop_
 _symmetry_equiv_pos_site_id
 _symmetry_equiv_pos_as_xyz
  1  'x, y, z'
loop_
 _atom_site_type_symbol
 _atom_site_label
 _atom_site_symmetry_multiplicity
 _atom_site_fract_x
 _atom_site_fract_y
 _atom_site_fract_z
 _atom_site_occupancy
  Al  Al0  1  0.823409  0.319842  0.177938  1
  Al  Al1  1  0.677156  0.680183  0.677112  1
  Al  Al2  1  0.561126  0.419713  0.925480  1
  V  V3  1  0.789173  0.959344  0.376164  1
  V  V4  1  0.711286  0.040463  0.875492  1
  V  V5  1  0.206150  0.458875  0.125935  1
  V  V6  1  0.293836  0.541603  0.626665  1
  V  V7  1  0.958584  0.377270  0.790844  1
  V  V8  1  0.039863  0.871866  0.709757  1
  V  V9  1  0.461048  0.129238  0.210078  1
  V  V10  1  0.540541  0.621353  0.289650  1
  V  V11  1  0.377826  0.789671  0.958790  1
  V  V12  1  0.871978  0.708492  0.040040  1
  V  V13  1  0.122758  0.210207  0.458491  1
  V  V14  1  0.626911  0.291454  0.541324  1
  Ga  Ga15  1  0.418619  0.934748  0.570718  1
  Ga  Ga16  1  0.938234  0.578800  0.426664  1
  Ga  Ga17  1  0.081659  0.065314  0.070547  1
  Cu  Cu18  1  0.182907  0.821452  0.318497  1
  Cu  Cu19  1  0.317645  0.179208  0.818732  1
  N  N20  1  0.877680  0.124247  0.627085  1
  N  N21  1  0.622521  0.876198  0.127582  1
  N  N22  1  0.126273  0.625097  0.877969  1
  N  N23  1  0.372820  0.375361  0.378446  1
