# generated using pymatgen
data_Yb5YSi24Ru7Pt
_symmetry_space_group_name_H-M   'P 1'
_cell_length_a   10.15469088
_cell_length_b   10.15469069
_cell_length_c   8.16188640
_cell_angle_alpha   90.03750956
_cell_angle_beta   90.03751439
_cell_angle_gamma   132.59075077
_symmetry_Int_Tables_number   1
_chemical_formula_structural   Yb5YSi24Ru7Pt
_chemical_formula_sum   'Yb5 Y1 Si24 Ru7 Pt1'
_cell_volume   619.61644182
_cell_formula_units_Z   1
loop_
 _symmetry_equiv_pos_site_id
 _symmetry_equiv_pos_as_xyz
  1  'x, y, z'
loop_
 _atom_site_type_symbol
 _atom_site_label
 _atom_site_symmetry_multiplicity
 _atom_site_fract_x
 _atom_site_fract_y
 _atom_site_fract_z
 _atom_site_occupancy
  Yb  Yb0  1  0.000565  0.999435  0.000000  1
  Yb  Yb1  1  0.001285  0.500147  0.249792  1
  Yb  Yb2  1  0.499853  0.998715  0.750208  1
  Yb  Yb3  1  0.998447  0.497184  0.748998  1
  Yb  Yb4  1  0.502816  0.001553  0.251002  1
  Y  Y5  1  0.499173  0.500827  0.500000  1
  Si  Si6  1  0.298022  0.701978  0.000000  1
  Si  Si7  1  0.794657  0.205343  0.500000  1
  Si  Si8  1  0.707109  0.292891  0.000000  1
  Si  Si9  1  0.207559  0.792441  0.500000  1
  Si  Si10  1  0.832835  0.836827  0.331825  1
  Si  Si11  1  0.163173  0.167165  0.668175  1
  Si  Si12  1  0.665160  0.671206  0.833997  1
  Si  Si13  1  0.328794  0.334840  0.166003  1
  Si  Si14  1  0.623017  0.389692  0.229867  1
  Si  Si15  1  0.610308  0.376983  0.770133  1
  Si  Si16  1  0.112915  0.881335  0.719304  1
  Si  Si17  1  0.118665  0.887085  0.280696  1
  Si  Si18  1  0.377542  0.611304  0.771943  1
  Si  Si19  1  0.388696  0.622458  0.228057  1
  Si  Si20  1  0.890926  0.123783  0.270131  1
  Si  Si21  1  0.876217  0.109074  0.729869  1
  Si  Si22  1  0.834460  0.603820  0.000808  1
  Si  Si23  1  0.396180  0.165540  0.999192  1
  Si  Si24  1  0.887899  0.653558  0.505235  1
  Si  Si25  1  0.346442  0.112101  0.494765  1
  Si  Si26  1  0.153310  0.385235  0.995988  1
  Si  Si27  1  0.614765  0.846690  0.004012  1
  Si  Si28  1  0.109586  0.344157  0.494997  1
  Si  Si29  1  0.655843  0.890414  0.505003  1
  Ru  Ru30  1  0.668956  0.331044  0.500000  1
  Ru  Ru31  1  0.830822  0.169178  0.000000  1
  Ru  Ru32  1  0.331793  0.668207  0.500000  1
  Ru  Ru33  1  0.626807  0.624804  0.127428  1
  Ru  Ru34  1  0.375196  0.373193  0.872572  1
  Ru  Ru35  1  0.873520  0.871657  0.624787  1
  Ru  Ru36  1  0.128343  0.126480  0.375213  1
  Pt  Pt37  1  0.168345  0.831655  0.000000  1
