# generated using pymatgen
data_Rb5TiBi3
_symmetry_space_group_name_H-M   'P 1'
_cell_length_a   9.41053800
_cell_length_b   10.07157025
_cell_length_c   19.71851335
_cell_angle_alpha   60.66955693
_cell_angle_beta   90.00000000
_cell_angle_gamma   90.00000000
_symmetry_Int_Tables_number   1
_chemical_formula_structural   Rb5TiBi3
_chemical_formula_sum   'Rb20 Ti4 Bi12'
_cell_volume   1629.32311255
_cell_formula_units_Z   4
loop_
 _symmetry_equiv_pos_site_id
 _symmetry_equiv_pos_as_xyz
  1  'x, y, z'
loop_
 _atom_site_type_symbol
 _atom_site_label
 _atom_site_symmetry_multiplicity
 _atom_site_fract_x
 _atom_site_fract_y
 _atom_site_fract_z
 _atom_site_occupancy
  Rb  Rb0  1  0.177533  0.155138  0.259833  1
  Rb  Rb1  1  0.677533  0.844862  0.240167  1
  Rb  Rb2  1  0.822467  0.844862  0.740167  1
  Rb  Rb3  1  0.322467  0.155138  0.759833  1
  Rb  Rb4  1  0.163555  0.841263  0.579374  1
  Rb  Rb5  1  0.663555  0.158737  0.920626  1
  Rb  Rb6  1  0.836445  0.158737  0.420626  1
  Rb  Rb7  1  0.336445  0.841263  0.079374  1
  Rb  Rb8  1  0.002274  0.899278  0.912005  1
  Rb  Rb9  1  0.502274  0.100722  0.587995  1
  Rb  Rb10  1  0.997726  0.100722  0.087995  1
  Rb  Rb11  1  0.497726  0.899278  0.412005  1
  Rb  Rb12  1  0.507332  0.724338  0.922947  1
  Rb  Rb13  1  0.007332  0.275662  0.577053  1
  Rb  Rb14  1  0.492668  0.275662  0.077053  1
  Rb  Rb15  1  0.992668  0.724338  0.422947  1
  Rb  Rb16  1  0.983085  0.457616  0.750474  1
  Rb  Rb17  1  0.483085  0.542384  0.749526  1
  Rb  Rb18  1  0.016915  0.542384  0.249526  1
  Rb  Rb19  1  0.516915  0.457616  0.250474  1
  Ti  Ti20  1  0.369862  0.506368  0.420767  1
  Ti  Ti21  1  0.869862  0.493632  0.079233  1
  Ti  Ti22  1  0.630138  0.493632  0.579233  1
  Ti  Ti23  1  0.130138  0.506368  0.920767  1
  Bi  Bi24  1  0.253189  0.251691  0.922313  1
  Bi  Bi25  1  0.753189  0.748309  0.577687  1
  Bi  Bi26  1  0.746811  0.748309  0.077687  1
  Bi  Bi27  1  0.246811  0.251691  0.422313  1
  Bi  Bi28  1  0.171327  0.511298  0.062673  1
  Bi  Bi29  1  0.671327  0.488702  0.437327  1
  Bi  Bi30  1  0.828673  0.488702  0.937327  1
  Bi  Bi31  1  0.328673  0.511298  0.562673  1
  Bi  Bi32  1  0.292340  0.772975  0.285076  1
  Bi  Bi33  1  0.792340  0.227025  0.214924  1
  Bi  Bi34  1  0.707660  0.227025  0.714924  1
  Bi  Bi35  1  0.207660  0.772975  0.785076  1
