# generated using pymatgen
data_Cs4K9Rb3(SnSe4)4
_symmetry_space_group_name_H-M   'P 1'
_cell_length_a   8.40371788
_cell_length_b   10.65045000
_cell_length_c   15.96773561
_cell_angle_alpha   90.00000000
_cell_angle_beta   90.10794664
_cell_angle_gamma   90.00000000
_symmetry_Int_Tables_number   1
_chemical_formula_structural   Cs4K9Rb3(SnSe4)4
_chemical_formula_sum   'Cs4 K9 Rb3 Sn4 Se16'
_cell_volume   1429.16372546
_cell_formula_units_Z   1
loop_
 _symmetry_equiv_pos_site_id
 _symmetry_equiv_pos_as_xyz
  1  'x, y, z'
loop_
 _atom_site_type_symbol
 _atom_site_label
 _atom_site_symmetry_multiplicity
 _atom_site_fract_x
 _atom_site_fract_y
 _atom_site_fract_z
 _atom_site_occupancy
  Cs  Cs0  1  0.000959  0.999366  0.999874  1
  Cs  Cs1  1  0.499462  0.000532  0.500483  1
  Cs  Cs2  1  0.000959  0.500634  0.999874  1
  Cs  Cs3  1  0.499462  0.499468  0.500483  1
  K  K4  1  0.528729  0.750000  0.929101  1
  K  K5  1  0.832719  0.049571  0.263130  1
  K  K6  1  0.332270  0.949704  0.234048  1
  K  K7  1  0.166838  0.551151  0.737311  1
  K  K8  1  0.667831  0.449643  0.765714  1
  K  K9  1  0.166838  0.948849  0.737311  1
  K  K10  1  0.667831  0.050357  0.765714  1
  K  K11  1  0.832719  0.450429  0.263130  1
  K  K12  1  0.332270  0.550296  0.234048  1
  Rb  Rb13  1  0.981921  0.750000  0.427659  1
  Rb  Rb14  1  0.483464  0.250000  0.073302  1
  Rb  Rb15  1  0.017426  0.250000  0.573181  1
  Sn  Sn16  1  0.772727  0.750000  0.673015  1
  Sn  Sn17  1  0.225088  0.250000  0.327183  1
  Sn  Sn18  1  0.723720  0.750000  0.171152  1
  Sn  Sn19  1  0.276792  0.250000  0.828315  1
  Se  Se20  1  0.971178  0.250000  0.820698  1
  Se  Se21  1  0.530586  0.250000  0.319928  1
  Se  Se22  1  0.467447  0.750000  0.679070  1
  Se  Se23  1  0.029151  0.750000  0.179572  1
  Se  Se24  1  0.619411  0.557199  0.093908  1
  Se  Se25  1  0.121347  0.444492  0.402449  1
  Se  Se26  1  0.380255  0.054633  0.903864  1
  Se  Se27  1  0.878004  0.944137  0.597989  1
  Se  Se28  1  0.380255  0.445367  0.903864  1
  Se  Se29  1  0.878004  0.555863  0.597989  1
  Se  Se30  1  0.619411  0.942801  0.093908  1
  Se  Se31  1  0.121347  0.055508  0.402449  1
  Se  Se32  1  0.610627  0.750000  0.322280  1
  Se  Se33  1  0.111708  0.250000  0.175882  1
  Se  Se34  1  0.388607  0.250000  0.677014  1
  Se  Se35  1  0.882641  0.750000  0.825109  1
