# generated using pymatgen
data_YbSmZn19Au3
_symmetry_space_group_name_H-M   'P 1'
_cell_length_a   8.40007478
_cell_length_b   8.40538543
_cell_length_c   8.40538500
_cell_angle_alpha   99.73396214
_cell_angle_beta   99.56252214
_cell_angle_gamma   131.70751001
_symmetry_Int_Tables_number   1
_chemical_formula_structural   YbSmZn19Au3
_chemical_formula_sum   'Yb1 Sm1 Zn19 Au3'
_cell_volume   404.16144985
_cell_formula_units_Z   1
loop_
 _symmetry_equiv_pos_site_id
 _symmetry_equiv_pos_as_xyz
  1  'x, y, z'
loop_
 _atom_site_type_symbol
 _atom_site_label
 _atom_site_symmetry_multiplicity
 _atom_site_fract_x
 _atom_site_fract_y
 _atom_site_fract_z
 _atom_site_occupancy
  Yb  Yb0  1  0.750326  0.251056  0.499270  1
  Sm  Sm1  1  0.503916  0.500802  0.003115  1
  Zn  Zn2  1  0.401988  0.076418  0.085295  1
  Zn  Zn3  1  0.997454  0.322934  0.916275  1
  Zn  Zn4  1  0.254422  0.666910  0.829611  1
  Zn  Zn5  1  0.841808  0.430273  0.171313  1
  Zn  Zn6  1  0.922067  0.596456  0.918523  1
  Zn  Zn7  1  0.676876  0.003479  0.084934  1
  Zn  Zn8  1  0.329787  0.747223  0.172155  1
  Zn  Zn9  1  0.575631  0.163221  0.829877  1
  Zn  Zn10  1  0.841808  0.670496  0.411536  1
  Zn  Zn11  1  0.254422  0.424809  0.587511  1
  Zn  Zn12  1  0.997454  0.081180  0.674521  1
  Zn  Zn13  1  0.401988  0.316693  0.325568  1
  Zn  Zn14  1  0.329787  0.157631  0.582565  1
  Zn  Zn15  1  0.575631  0.745752  0.412410  1
  Zn  Zn16  1  0.922067  0.003545  0.325612  1
  Zn  Zn17  1  0.676876  0.591943  0.673399  1
  Zn  Zn18  1  0.247783  0.747726  0.500059  1
  Zn  Zn19  1  0.001071  0.001846  0.999223  1
  Zn  Zn20  1  0.126905  0.875177  0.251728  1
  Au  Au21  1  0.123624  0.868830  0.744967  1
  Au  Au22  1  0.123624  0.378656  0.254794  1
  Au  Au23  1  0.622688  0.876945  0.745743  1
