# generated using pymatgen
data_YPF36
_symmetry_space_group_name_H-M   'P 1'
_cell_length_a   6.44031705
_cell_length_b   10.62489978
_cell_length_c   10.71937658
_cell_angle_alpha   89.42486029
_cell_angle_beta   100.52640633
_cell_angle_gamma   74.74971565
_symmetry_Int_Tables_number   1
_chemical_formula_structural   YPF36
_chemical_formula_sum   'Y1 P1 F36'
_cell_volume   694.45742027
_cell_formula_units_Z   1
loop_
 _symmetry_equiv_pos_site_id
 _symmetry_equiv_pos_as_xyz
  1  'x, y, z'
loop_
 _atom_site_type_symbol
 _atom_site_label
 _atom_site_symmetry_multiplicity
 _atom_site_fract_x
 _atom_site_fract_y
 _atom_site_fract_z
 _atom_site_occupancy
  Y  Y0  1  0.764774  0.815296  0.832027  1
  P  P1  1  0.309650  0.168061  0.168978  1
  F  F2  1  0.303515  0.416654  0.887736  1
  F  F3  1  0.691245  0.615557  0.118315  1
  F  F4  1  0.322182  0.248915  0.569462  1
  F  F5  1  0.661576  0.756553  0.427320  1
  F  F6  1  0.914916  0.215346  0.808490  1
  F  F7  1  0.143028  0.770326  0.186902  1
  F  F8  1  0.705516  0.859557  0.021852  1
  F  F9  1  0.354091  0.120082  0.032815  1
  F  F10  1  0.776884  0.612838  0.878335  1
  F  F11  1  0.233681  0.313399  0.112883  1
  F  F12  1  0.438184  0.444519  0.805289  1
  F  F13  1  0.550198  0.567618  0.182917  1
  F  F14  1  0.757993  0.661706  0.693057  1
  F  F15  1  0.264004  0.219074  0.304456  1
  F  F16  1  0.771083  0.948165  0.608409  1
  F  F17  1  0.221385  0.993396  0.472751  1
  F  F18  1  0.322562  0.199808  0.693830  1
  F  F19  1  0.693543  0.823269  0.319179  1
  F  F20  1  0.821632  0.065823  0.655661  1
  F  F21  1  0.165139  0.906429  0.379742  1
  F  F22  1  0.787974  0.998229  0.924676  1
  F  F23  1  0.143307  0.084055  0.166881  1
  F  F24  1  0.892890  0.349644  0.778328  1
  F  F25  1  0.109241  0.645265  0.208182  1
  F  F26  1  0.133647  0.759117  0.876879  1
  F  F27  1  0.763441  0.354976  0.035584  1
  F  F28  1  0.426194  0.924665  0.731893  1
  F  F29  1  0.555552  0.102617  0.230244  1
  F  F30  1  0.113003  0.731903  0.557256  1
  F  F31  1  0.857233  0.235407  0.430877  1
  F  F32  1  0.215682  0.622090  0.646081  1
  F  F33  1  0.824706  0.358222  0.364894  1
  F  F34  1  0.279297  0.842872  0.805586  1
  F  F35  1  0.718541  0.253711  0.105670  1
  F  F36  1  0.497363  0.438795  0.521736  1
  F  F37  1  0.495151  0.556042  0.454826  1
