# generated using pymatgen
data_OsCl14
_symmetry_space_group_name_H-M   'P 1'
_cell_length_a   7.54596650
_cell_length_b   6.29016252
_cell_length_c   13.57378020
_cell_angle_alpha   71.99697836
_cell_angle_beta   77.80008705
_cell_angle_gamma   72.43673148
_symmetry_Int_Tables_number   1
_chemical_formula_structural   OsCl14
_chemical_formula_sum   'Os1 Cl14'
_cell_volume   579.20377984
_cell_formula_units_Z   1
loop_
 _symmetry_equiv_pos_site_id
 _symmetry_equiv_pos_as_xyz
  1  'x, y, z'
loop_
 _atom_site_type_symbol
 _atom_site_label
 _atom_site_symmetry_multiplicity
 _atom_site_fract_x
 _atom_site_fract_y
 _atom_site_fract_z
 _atom_site_occupancy
  Os  Os0  1  0.000000  0.000000  0.000000  1
  Cl  Cl1  1  0.724263  0.810759  0.668233  1
  Cl  Cl2  1  0.275737  0.189241  0.331767  1
  Cl  Cl3  1  0.146459  0.498712  0.622001  1
  Cl  Cl4  1  0.853541  0.501288  0.377999  1
  Cl  Cl5  1  0.602289  0.564491  0.672025  1
  Cl  Cl6  1  0.319552  0.857935  0.991332  1
  Cl  Cl7  1  0.680448  0.142065  0.008668  1
  Cl  Cl8  1  0.990733  0.066999  0.158202  1
  Cl  Cl9  1  0.009267  0.933001  0.841798  1
  Cl  Cl10  1  0.038108  0.362848  0.915002  1
  Cl  Cl11  1  0.961892  0.637152  0.084998  1
  Cl  Cl12  1  0.611646  0.750284  0.369024  1
  Cl  Cl13  1  0.388354  0.249716  0.630976  1
  Cl  Cl14  1  0.397711  0.435509  0.327975  1
