# generated using pymatgen
data_Er9Th3Tc3Ni
_symmetry_space_group_name_H-M   'P 1'
_cell_length_a   6.32051650
_cell_length_b   7.20530799
_cell_length_c   9.40625900
_cell_angle_alpha   90.00000000
_cell_angle_beta   90.00000000
_cell_angle_gamma   90.57267110
_symmetry_Int_Tables_number   1
_chemical_formula_structural   Er9Th3Tc3Ni
_chemical_formula_sum   'Er9 Th3 Tc3 Ni1'
_cell_volume   428.35156572
_cell_formula_units_Z   1
loop_
 _symmetry_equiv_pos_site_id
 _symmetry_equiv_pos_as_xyz
  1  'x, y, z'
loop_
 _atom_site_type_symbol
 _atom_site_label
 _atom_site_symmetry_multiplicity
 _atom_site_fract_x
 _atom_site_fract_y
 _atom_site_fract_z
 _atom_site_occupancy
  Er  Er0  1  0.326224  0.677395  0.065163  1
  Er  Er1  1  0.165086  0.175680  0.437647  1
  Er  Er2  1  0.666318  0.325663  0.567001  1
  Er  Er3  1  0.832464  0.822421  0.931958  1
  Er  Er4  1  0.666318  0.325663  0.932999  1
  Er  Er5  1  0.832464  0.822421  0.568042  1
  Er  Er6  1  0.326224  0.677395  0.434837  1
  Er  Er7  1  0.165086  0.175680  0.062353  1
  Er  Er8  1  0.374369  0.960318  0.750000  1
  Th  Th9  1  0.856573  0.547915  0.250000  1
  Th  Th10  1  0.632575  0.047114  0.250000  1
  Th  Th11  1  0.150039  0.450471  0.750000  1
  Tc  Tc12  1  0.016550  0.873728  0.250000  1
  Tc  Tc13  1  0.475618  0.372860  0.250000  1
  Tc  Tc14  1  0.968595  0.127600  0.750000  1
  Ni  Ni15  1  0.545498  0.617676  0.750000  1
