# generated using pymatgen
data_SrCaTbGa8Ag3
_symmetry_space_group_name_H-M   'P 1'
_cell_length_a   4.38084840
_cell_length_b   8.50931696
_cell_length_c   8.50931755
_cell_angle_alpha   69.87301423
_cell_angle_beta   75.08328093
_cell_angle_gamma   75.08326376
_symmetry_Int_Tables_number   1
_chemical_formula_structural   SrCaTbGa8Ag3
_chemical_formula_sum   'Sr1 Ca1 Tb1 Ga8 Ag3'
_cell_volume   282.77521892
_cell_formula_units_Z   1
loop_
 _symmetry_equiv_pos_site_id
 _symmetry_equiv_pos_as_xyz
  1  'x, y, z'
loop_
 _atom_site_type_symbol
 _atom_site_label
 _atom_site_symmetry_multiplicity
 _atom_site_fract_x
 _atom_site_fract_y
 _atom_site_fract_z
 _atom_site_occupancy
  Sr  Sr0  1  0.499144  0.500856  0.500856  1
  Ca  Ca1  1  0.197600  0.802400  0.802400  1
  Tb  Tb2  1  0.799004  0.200996  0.200996  1
  Ga  Ga3  1  0.357079  0.358184  0.927657  1
  Ga  Ga4  1  0.645604  0.634509  0.074285  1
  Ga  Ga5  1  0.357079  0.927657  0.358184  1
  Ga  Ga6  1  0.645604  0.074285  0.634509  1
  Ga  Ga7  1  0.162904  0.469014  0.205178  1
  Ga  Ga8  1  0.836074  0.528439  0.799413  1
  Ga  Ga9  1  0.162904  0.205178  0.469014  1
  Ga  Ga10  1  0.836074  0.799413  0.528439  1
  Ag  Ag11  1  0.499779  0.000221  0.000221  1
  Ag  Ag12  1  0.000577  0.804562  0.194284  1
  Ag  Ag13  1  0.000577  0.194284  0.804562  1
