# generated using pymatgen
data_Si12P12PdRh3
_symmetry_space_group_name_H-M   'P 1'
_cell_length_a   5.86652061
_cell_length_b   6.11320945
_cell_length_c   13.08904400
_cell_angle_alpha   89.97937123
_cell_angle_beta   90.02623301
_cell_angle_gamma   90.54844696
_symmetry_Int_Tables_number   1
_chemical_formula_structural   Si12P12PdRh3
_chemical_formula_sum   'Si12 P12 Pd1 Rh3'
_cell_volume   469.39432519
_cell_formula_units_Z   1
loop_
 _symmetry_equiv_pos_site_id
 _symmetry_equiv_pos_as_xyz
  1  'x, y, z'
loop_
 _atom_site_type_symbol
 _atom_site_label
 _atom_site_symmetry_multiplicity
 _atom_site_fract_x
 _atom_site_fract_y
 _atom_site_fract_z
 _atom_site_occupancy
  Si  Si0  1  0.966243  0.153936  0.315721  1
  Si  Si1  1  0.466629  0.840807  0.682403  1
  Si  Si2  1  0.931117  0.624911  0.210378  1
  Si  Si3  1  0.433450  0.374550  0.786797  1
  Si  Si4  1  0.341955  0.914774  0.950439  1
  Si  Si5  1  0.841271  0.081763  0.048290  1
  Si  Si6  1  0.913431  0.532972  0.674553  1
  Si  Si7  1  0.420974  0.467553  0.325097  1
  Si  Si8  1  0.992307  0.064176  0.571423  1
  Si  Si9  1  0.494708  0.940173  0.430628  1
  Si  Si10  1  0.914506  0.626500  0.928012  1
  Si  Si11  1  0.413046  0.370522  0.071655  1
  P  P12  1  0.580017  0.031322  0.825239  1
  P  P13  1  0.080542  0.967082  0.173429  1
  P  P14  1  0.521532  0.563172  0.930881  1
  P  P15  1  0.022186  0.432365  0.069000  1
  P  P16  1  0.606017  0.115258  0.574529  1
  P  P17  1  0.106419  0.893855  0.427293  1
  P  P18  1  0.544091  0.642526  0.180301  1
  P  P19  1  0.045023  0.358082  0.819003  1
  P  P20  1  0.576437  0.130945  0.288644  1
  P  P21  1  0.077993  0.869952  0.710922  1
  P  P22  1  0.152162  0.402370  0.556122  1
  P  P23  1  0.645827  0.601789  0.448762  1
  Pd  Pd24  1  0.035836  0.514575  0.380620  1
  Rh  Rh25  1  0.967416  0.987092  0.879335  1
  Rh  Rh26  1  0.467248  0.011089  0.120256  1
  Rh  Rh27  1  0.535418  0.485883  0.620266  1
