# generated using pymatgen
data_Tb2InCl7
_symmetry_space_group_name_H-M   'P 1'
_cell_length_a   12.67340900
_cell_length_b   6.97551102
_cell_length_c   13.58142900
_cell_angle_alpha   89.20585986
_cell_angle_beta   90.00000000
_cell_angle_gamma   90.00000000
_symmetry_Int_Tables_number   1
_chemical_formula_structural   Tb2InCl7
_chemical_formula_sum   'Tb8 In4 Cl28'
_cell_volume   1200.53058898
_cell_formula_units_Z   4
loop_
 _symmetry_equiv_pos_site_id
 _symmetry_equiv_pos_as_xyz
  1  'x, y, z'
loop_
 _atom_site_type_symbol
 _atom_site_label
 _atom_site_symmetry_multiplicity
 _atom_site_fract_x
 _atom_site_fract_y
 _atom_site_fract_z
 _atom_site_occupancy
  Tb  Tb0  1  0.538121  0.776134  0.237436  1
  Tb  Tb1  1  0.461879  0.223866  0.762564  1
  Tb  Tb2  1  0.038121  0.223866  0.262564  1
  Tb  Tb3  1  0.961879  0.776134  0.737436  1
  Tb  Tb4  1  0.840728  0.727904  0.247443  1
  Tb  Tb5  1  0.159272  0.272096  0.752557  1
  Tb  Tb6  1  0.340728  0.272096  0.252557  1
  Tb  Tb7  1  0.659272  0.727904  0.747443  1
  In  In8  1  0.200437  0.755213  0.037070  1
  In  In9  1  0.799563  0.244787  0.962930  1
  In  In10  1  0.700437  0.244787  0.462930  1
  In  In11  1  0.299563  0.755213  0.537070  1
  Cl  Cl12  1  0.974806  0.945908  0.135539  1
  Cl  Cl13  1  0.025194  0.054092  0.864461  1
  Cl  Cl14  1  0.474806  0.054092  0.364461  1
  Cl  Cl15  1  0.525194  0.945908  0.635539  1
  Cl  Cl16  1  0.686162  0.746740  0.388396  1
  Cl  Cl17  1  0.313838  0.253260  0.611604  1
  Cl  Cl18  1  0.186162  0.253260  0.111604  1
  Cl  Cl19  1  0.813838  0.746740  0.888396  1
  Cl  Cl20  1  0.679440  0.516148  0.174016  1
  Cl  Cl21  1  0.320560  0.483852  0.825984  1
  Cl  Cl22  1  0.179440  0.483852  0.325984  1
  Cl  Cl23  1  0.820560  0.516148  0.674016  1
  Cl  Cl24  1  0.925441  0.978058  0.376878  1
  Cl  Cl25  1  0.074559  0.021942  0.623122  1
  Cl  Cl26  1  0.425441  0.021942  0.123122  1
  Cl  Cl27  1  0.574559  0.978058  0.876878  1
  Cl  Cl28  1  0.942876  0.465596  0.131543  1
  Cl  Cl29  1  0.057124  0.534404  0.868457  1
  Cl  Cl30  1  0.442876  0.534404  0.368457  1
  Cl  Cl31  1  0.557124  0.465596  0.631543  1
  Cl  Cl32  1  0.703509  0.998309  0.174853  1
  Cl  Cl33  1  0.296491  0.001691  0.825147  1
  Cl  Cl34  1  0.203509  0.001691  0.325147  1
  Cl  Cl35  1  0.796491  0.998309  0.674853  1
  Cl  Cl36  1  0.912563  0.456947  0.375441  1
  Cl  Cl37  1  0.087437  0.543053  0.624559  1
  Cl  Cl38  1  0.412563  0.543053  0.124559  1
  Cl  Cl39  1  0.587437  0.456947  0.875441  1
