# generated using pymatgen
data_Sc2Sn2Ru3Rh
_symmetry_space_group_name_H-M   'P 1'
_cell_length_a   4.55008601
_cell_length_b   6.41327111
_cell_length_c   13.65049922
_cell_angle_alpha   90.02025919
_cell_angle_beta   90.00299638
_cell_angle_gamma   90.00621903
_symmetry_Int_Tables_number   1
_chemical_formula_structural   Sc2Sn2Ru3Rh
_chemical_formula_sum   'Sc6 Sn6 Ru9 Rh3'
_cell_volume   398.33430456
_cell_formula_units_Z   3
loop_
 _symmetry_equiv_pos_site_id
 _symmetry_equiv_pos_as_xyz
  1  'x, y, z'
loop_
 _atom_site_type_symbol
 _atom_site_label
 _atom_site_symmetry_multiplicity
 _atom_site_fract_x
 _atom_site_fract_y
 _atom_site_fract_z
 _atom_site_occupancy
  Sc  Sc0  1  0.000001  0.000052  0.002274  1
  Sc  Sc1  1  0.500180  0.500485  0.167171  1
  Sc  Sc2  1  0.000150  0.000294  0.333023  1
  Sc  Sc3  1  0.499963  0.498921  0.498506  1
  Sc  Sc4  1  0.999805  0.001807  0.664550  1
  Sc  Sc5  1  0.499789  0.499228  0.834555  1
  Sn  Sn6  1  0.999997  0.499517  0.003010  1
  Sn  Sn7  1  0.500156  0.000232  0.166689  1
  Sn  Sn8  1  0.000217  0.499516  0.333324  1
  Sn  Sn9  1  0.500018  0.002285  0.498491  1
  Sn  Sn10  1  0.999788  0.496823  0.663731  1
  Sn  Sn11  1  0.499843  0.001887  0.834840  1
  Ru  Ru12  1  0.499961  0.250375  0.998292  1
  Ru  Ru13  1  0.500066  0.749871  0.997859  1
  Ru  Ru14  1  0.000340  0.248777  0.166050  1
  Ru  Ru15  1  0.000142  0.751115  0.166072  1
  Ru  Ru16  1  0.500145  0.250983  0.333354  1
  Ru  Ru17  1  0.500291  0.749243  0.333853  1
  Ru  Ru18  1  0.000050  0.248878  0.501375  1
  Ru  Ru19  1  0.999941  0.750968  0.501221  1
  Ru  Ru20  1  0.499810  0.248410  0.668513  1
  Rh  Rh21  1  0.499793  0.750636  0.668146  1
  Rh  Rh22  1  0.999772  0.252155  0.832636  1
  Rh  Rh23  1  0.999781  0.747537  0.832463  1
