# generated using pymatgen
data_YHo9(NiTe)4
_symmetry_space_group_name_H-M   'P 1'
_cell_length_a   7.73466513
_cell_length_b   7.73466450
_cell_length_c   14.86907202
_cell_angle_alpha   90.00670829
_cell_angle_beta   89.99329162
_cell_angle_gamma   149.92175909
_symmetry_Int_Tables_number   1
_chemical_formula_structural   YHo9(NiTe)4
_chemical_formula_sum   'Y1 Ho9 Ni4 Te4'
_cell_volume   445.82297781
_cell_formula_units_Z   1
loop_
 _symmetry_equiv_pos_site_id
 _symmetry_equiv_pos_as_xyz
  1  'x, y, z'
loop_
 _atom_site_type_symbol
 _atom_site_label
 _atom_site_symmetry_multiplicity
 _atom_site_fract_x
 _atom_site_fract_y
 _atom_site_fract_z
 _atom_site_occupancy
  Y  Y0  1  0.741825  0.258175  0.872991  1
  Ho  Ho1  1  0.959482  0.040518  0.126128  1
  Ho  Ho2  1  0.040394  0.959606  0.873674  1
  Ho  Ho3  1  0.040115  0.959885  0.625720  1
  Ho  Ho4  1  0.959740  0.040260  0.374150  1
  Ho  Ho5  1  0.739906  0.260094  0.629082  1
  Ho  Ho6  1  0.259492  0.740508  0.370945  1
  Ho  Ho7  1  0.259789  0.740211  0.128960  1
  Ho  Ho8  1  0.605909  0.394091  0.249924  1
  Ho  Ho9  1  0.394381  0.605619  0.749582  1
  Ni  Ni10  1  0.412449  0.587551  0.250423  1
  Ni  Ni11  1  0.586415  0.413585  0.749467  1
  Ni  Ni12  1  0.814224  0.185776  0.250334  1
  Ni  Ni13  1  0.185407  0.814593  0.748500  1
  Te  Te14  1  0.615165  0.384835  0.040626  1
  Te  Te15  1  0.385829  0.614171  0.959970  1
  Te  Te16  1  0.384296  0.615704  0.539981  1
  Te  Te17  1  0.615183  0.384817  0.459545  1
