# generated using pymatgen
data_Dy6Al24IrRu4Pt3
_symmetry_space_group_name_H-M   'P 1'
_cell_length_a   8.82919688
_cell_length_b   8.81747888
_cell_length_c   9.56189504
_cell_angle_alpha   89.93521537
_cell_angle_beta   89.98089737
_cell_angle_gamma   119.64727089
_symmetry_Int_Tables_number   1
_chemical_formula_structural   Dy6Al24IrRu4Pt3
_chemical_formula_sum   'Dy6 Al24 Ir1 Ru4 Pt3'
_cell_volume   646.95251663
_cell_formula_units_Z   1
loop_
 _symmetry_equiv_pos_site_id
 _symmetry_equiv_pos_as_xyz
  1  'x, y, z'
loop_
 _atom_site_type_symbol
 _atom_site_label
 _atom_site_symmetry_multiplicity
 _atom_site_fract_x
 _atom_site_fract_y
 _atom_site_fract_z
 _atom_site_occupancy
  Dy  Dy0  1  0.191514  0.807495  0.250011  1
  Dy  Dy1  1  0.189839  0.384682  0.248608  1
  Dy  Dy2  1  0.615841  0.809504  0.250663  1
  Dy  Dy3  1  0.808486  0.192505  0.749989  1
  Dy  Dy4  1  0.810161  0.615318  0.751392  1
  Dy  Dy5  1  0.384159  0.190496  0.749337  1
  Al  Al6  1  0.563907  0.436347  0.249989  1
  Al  Al7  1  0.562013  0.125299  0.246033  1
  Al  Al8  1  0.876216  0.439102  0.251816  1
  Al  Al9  1  0.436093  0.563653  0.750011  1
  Al  Al10  1  0.437987  0.874701  0.753967  1
  Al  Al11  1  0.123784  0.560898  0.748184  1
  Al  Al12  1  0.323916  0.162919  0.422828  1
  Al  Al13  1  0.841703  0.168224  0.421312  1
  Al  Al14  1  0.841924  0.674604  0.423840  1
  Al  Al15  1  0.676084  0.837081  0.577172  1
  Al  Al16  1  0.158297  0.831776  0.578688  1
  Al  Al17  1  0.158076  0.325396  0.576160  1
  Al  Al18  1  0.674770  0.842086  0.925464  1
  Al  Al19  1  0.165956  0.838353  0.922778  1
  Al  Al20  1  0.160398  0.325629  0.924284  1
  Al  Al21  1  0.325230  0.157914  0.074536  1
  Al  Al22  1  0.834044  0.161647  0.077222  1
  Al  Al23  1  0.839602  0.674371  0.075716  1
  Al  Al24  1  0.672552  0.336186  0.532207  1
  Al  Al25  1  0.327448  0.663814  0.467793  1
  Al  Al26  1  0.333164  0.671098  0.031377  1
  Al  Al27  1  0.666836  0.328902  0.968623  1
  Al  Al28  1  0.997085  0.001316  0.249854  1
  Al  Al29  1  0.002915  0.998684  0.750146  1
  Ir  Ir30  1  0.000000  0.500000  0.000000  1
  Ru  Ru31  1  0.000000  0.000000  0.500000  1
  Ru  Ru32  1  0.000000  0.000000  0.000000  1
  Ru  Ru33  1  0.000000  0.500000  0.500000  1
  Ru  Ru34  1  0.500000  0.000000  0.000000  1
  Pt  Pt35  1  0.500000  0.500000  0.500000  1
  Pt  Pt36  1  0.500000  0.000000  0.500000  1
  Pt  Pt37  1  0.500000  0.500000  0.000000  1
