# generated using pymatgen
data_PrAlCuSi
_symmetry_space_group_name_H-M   'P 1'
_cell_length_a   9.10138914
_cell_length_b   9.10138849
_cell_length_c   4.08902000
_cell_angle_alpha   90.00000000
_cell_angle_beta   90.00000000
_cell_angle_gamma   153.28629902
_symmetry_Int_Tables_number   1
_chemical_formula_structural   PrAlCuSi
_chemical_formula_sum   'Pr2 Al2 Cu2 Si2'
_cell_volume   152.26348921
_cell_formula_units_Z   2
loop_
 _symmetry_equiv_pos_site_id
 _symmetry_equiv_pos_as_xyz
  1  'x, y, z'
loop_
 _atom_site_type_symbol
 _atom_site_label
 _atom_site_symmetry_multiplicity
 _atom_site_fract_x
 _atom_site_fract_y
 _atom_site_fract_z
 _atom_site_occupancy
  Pr  Pr0  1  0.902546  0.097454  0.750000  1
  Pr  Pr1  1  0.097454  0.902546  0.250000  1
  Al  Al2  1  0.248300  0.751700  0.750000  1
  Al  Al3  1  0.751700  0.248300  0.250000  1
  Cu  Cu4  1  0.668885  0.331115  0.750000  1
  Cu  Cu5  1  0.331115  0.668885  0.250000  1
  Si  Si6  1  0.536248  0.463752  0.750000  1
  Si  Si7  1  0.463752  0.536248  0.250000  1
