# generated using pymatgen
data_Zr6PSe2
_symmetry_space_group_name_H-M   'P 1'
_cell_length_a   3.68211300
_cell_length_b   12.53306500
_cell_length_c   15.62092700
_cell_angle_alpha   90.00000000
_cell_angle_beta   90.00000000
_cell_angle_gamma   90.00000000
_symmetry_Int_Tables_number   1
_chemical_formula_structural   Zr6PSe2
_chemical_formula_sum   'Zr24 P4 Se8'
_cell_volume   720.87706301
_cell_formula_units_Z   4
loop_
 _symmetry_equiv_pos_site_id
 _symmetry_equiv_pos_as_xyz
  1  'x, y, z'
loop_
 _atom_site_type_symbol
 _atom_site_label
 _atom_site_symmetry_multiplicity
 _atom_site_fract_x
 _atom_site_fract_y
 _atom_site_fract_z
 _atom_site_occupancy
  Zr  Zr0  1  0.000000  0.341177  0.482464  1
  Zr  Zr1  1  0.000000  0.658823  0.517536  1
  Zr  Zr2  1  0.500000  0.158823  0.982464  1
  Zr  Zr3  1  0.500000  0.841177  0.017536  1
  Zr  Zr4  1  0.000000  0.088054  0.578202  1
  Zr  Zr5  1  0.000000  0.911946  0.421798  1
  Zr  Zr6  1  0.500000  0.411946  0.078202  1
  Zr  Zr7  1  0.500000  0.588054  0.921798  1
  Zr  Zr8  1  0.000000  0.696101  0.297825  1
  Zr  Zr9  1  0.000000  0.303899  0.702175  1
  Zr  Zr10  1  0.500000  0.803899  0.797825  1
  Zr  Zr11  1  0.500000  0.196101  0.202175  1
  Zr  Zr12  1  0.000000  0.032890  0.107662  1
  Zr  Zr13  1  0.000000  0.967110  0.892338  1
  Zr  Zr14  1  0.500000  0.467110  0.607662  1
  Zr  Zr15  1  0.500000  0.532890  0.392339  1
  Zr  Zr16  1  0.000000  0.619022  0.075553  1
  Zr  Zr17  1  0.000000  0.380978  0.924447  1
  Zr  Zr18  1  0.500000  0.880978  0.575553  1
  Zr  Zr19  1  0.500000  0.119022  0.424447  1
  Zr  Zr20  1  0.000000  0.411141  0.242733  1
  Zr  Zr21  1  0.000000  0.588859  0.757267  1
  Zr  Zr22  1  0.500000  0.088859  0.742733  1
  Zr  Zr23  1  0.500000  0.911141  0.257267  1
  P  P24  1  0.000000  0.256483  0.086985  1
  P  P25  1  0.000000  0.743517  0.913015  1
  P  P26  1  0.500000  0.243517  0.586985  1
  P  P27  1  0.500000  0.756483  0.413015  1
  Se  Se28  1  0.000000  0.815022  0.150580  1
  Se  Se29  1  0.000000  0.184978  0.849420  1
  Se  Se30  1  0.500000  0.684978  0.650580  1
  Se  Se31  1  0.500000  0.315022  0.349420  1
  Se  Se32  1  0.000000  0.071018  0.292808  1
  Se  Se33  1  0.000000  0.928982  0.707192  1
  Se  Se34  1  0.500000  0.428982  0.792808  1
  Se  Se35  1  0.500000  0.571018  0.207192  1
