# generated using pymatgen
data_Y12Co11Si8Rh
_symmetry_space_group_name_H-M   'P 1'
_cell_length_a   5.52755100
_cell_length_b   7.24951167
_cell_length_c   14.17263600
_cell_angle_alpha   90.00000000
_cell_angle_beta   90.00000000
_cell_angle_gamma   90.04919076
_symmetry_Int_Tables_number   1
_chemical_formula_structural   Y12Co11Si8Rh
_chemical_formula_sum   'Y12 Co11 Si8 Rh1'
_cell_volume   567.92630521
_cell_formula_units_Z   1
loop_
 _symmetry_equiv_pos_site_id
 _symmetry_equiv_pos_as_xyz
  1  'x, y, z'
loop_
 _atom_site_type_symbol
 _atom_site_label
 _atom_site_symmetry_multiplicity
 _atom_site_fract_x
 _atom_site_fract_y
 _atom_site_fract_z
 _atom_site_occupancy
  Y  Y0  1  0.142906  0.479055  0.891979  1
  Y  Y1  1  0.357428  0.977842  0.891141  1
  Y  Y2  1  0.618148  0.339248  0.750000  1
  Y  Y3  1  0.385709  0.659535  0.250000  1
  Y  Y4  1  0.642024  0.024499  0.395192  1
  Y  Y5  1  0.858800  0.517958  0.104343  1
  Y  Y6  1  0.858800  0.517958  0.395657  1
  Y  Y7  1  0.357428  0.977842  0.608859  1
  Y  Y8  1  0.881821  0.840123  0.750000  1
  Y  Y9  1  0.142906  0.479055  0.608021  1
  Y  Y10  1  0.642024  0.024499  0.104808  1
  Y  Y11  1  0.120504  0.162806  0.250000  1
  Co  Co12  1  0.594399  0.337675  0.961674  1
  Co  Co13  1  0.406513  0.661995  0.036970  1
  Co  Co14  1  0.576595  0.315732  0.250000  1
  Co  Co15  1  0.406513  0.661995  0.463030  1
  Co  Co16  1  0.075571  0.187657  0.750000  1
  Co  Co17  1  0.098205  0.162075  0.463214  1
  Co  Co18  1  0.425125  0.684979  0.750000  1
  Co  Co19  1  0.098205  0.162075  0.036786  1
  Co  Co20  1  0.594399  0.337675  0.538326  1
  Co  Co21  1  0.900913  0.838589  0.538087  1
  Co  Co22  1  0.900913  0.838589  0.961913  1
  Si  Si23  1  0.367384  0.369999  0.098191  1
  Si  Si24  1  0.633183  0.630688  0.900919  1
  Si  Si25  1  0.867294  0.131542  0.901220  1
  Si  Si26  1  0.367384  0.369999  0.401809  1
  Si  Si27  1  0.867294  0.131542  0.598780  1
  Si  Si28  1  0.633183  0.630688  0.599081  1
  Si  Si29  1  0.136727  0.869380  0.405335  1
  Si  Si30  1  0.136727  0.869380  0.094665  1
  Rh  Rh31  1  0.904971  0.807326  0.250000  1
