# generated using pymatgen
data_Tb3Dy3Y4(CoSb2)2
_symmetry_space_group_name_H-M   'P 1'
_cell_length_a   7.95189600
_cell_length_b   8.75156016
_cell_length_c   12.22657522
_cell_angle_alpha   90.02173325
_cell_angle_beta   90.00000000
_cell_angle_gamma   90.00000000
_symmetry_Int_Tables_number   1
_chemical_formula_structural   Tb3Dy3Y4(CoSb2)2
_chemical_formula_sum   'Tb6 Dy6 Y8 Co4 Sb8'
_cell_volume   850.86560186
_cell_formula_units_Z   2
loop_
 _symmetry_equiv_pos_site_id
 _symmetry_equiv_pos_as_xyz
  1  'x, y, z'
loop_
 _atom_site_type_symbol
 _atom_site_label
 _atom_site_symmetry_multiplicity
 _atom_site_fract_x
 _atom_site_fract_y
 _atom_site_fract_z
 _atom_site_occupancy
  Tb  Tb0  1  0.622974  0.750134  0.305687  1
  Tb  Tb1  1  0.122974  0.249866  0.194313  1
  Tb  Tb2  1  0.377404  0.249760  0.694401  1
  Tb  Tb3  1  0.877404  0.750240  0.805599  1
  Tb  Tb4  1  0.821466  0.534273  0.064892  1
  Tb  Tb5  1  0.321466  0.465727  0.435108  1
  Dy  Dy6  1  0.822442  0.965688  0.064887  1
  Dy  Dy7  1  0.322442  0.034312  0.435113  1
  Dy  Dy8  1  0.177804  0.465388  0.934961  1
  Dy  Dy9  1  0.677804  0.534612  0.565039  1
  Dy  Dy10  1  0.177586  0.034636  0.934979  1
  Dy  Dy11  1  0.677586  0.965364  0.565021  1
  Y  Y12  1  0.155203  0.750170  0.203702  1
  Y  Y13  1  0.655203  0.249830  0.296298  1
  Y  Y14  1  0.844943  0.249895  0.796230  1
  Y  Y15  1  0.344943  0.750105  0.703770  1
  Y  Y16  1  0.455905  0.750149  0.998289  1
  Y  Y17  1  0.955905  0.249851  0.501711  1
  Y  Y18  1  0.543416  0.249791  0.001637  1
  Y  Y19  1  0.043416  0.750209  0.498363  1
  Co  Co20  1  0.437233  0.750209  0.489941  1
  Co  Co21  1  0.937233  0.249791  0.010059  1
  Co  Co22  1  0.563656  0.249642  0.510234  1
  Co  Co23  1  0.063656  0.750358  0.989766  1
  Sb  Sb24  1  0.928383  0.991668  0.327084  1
  Sb  Sb25  1  0.428383  0.008332  0.172916  1
  Sb  Sb26  1  0.071823  0.491664  0.672894  1
  Sb  Sb27  1  0.571823  0.508336  0.827106  1
  Sb  Sb28  1  0.071749  0.008355  0.672833  1
  Sb  Sb29  1  0.571749  0.991645  0.827167  1
  Sb  Sb30  1  0.928012  0.508393  0.327177  1
  Sb  Sb31  1  0.428012  0.491607  0.172823  1
