# generated using pymatgen
data_Sc22Co3Ir5
_symmetry_space_group_name_H-M   'P 1'
_cell_length_a   9.40782040
_cell_length_b   9.39670705
_cell_length_c   9.39670658
_cell_angle_alpha   60.16927657
_cell_angle_beta   59.96086034
_cell_angle_gamma   59.96087070
_symmetry_Int_Tables_number   1
_chemical_formula_structural   Sc22Co3Ir5
_chemical_formula_sum   'Sc22 Co3 Ir5'
_cell_volume   587.78714539
_cell_formula_units_Z   1
loop_
 _symmetry_equiv_pos_site_id
 _symmetry_equiv_pos_as_xyz
  1  'x, y, z'
loop_
 _atom_site_type_symbol
 _atom_site_label
 _atom_site_symmetry_multiplicity
 _atom_site_fract_x
 _atom_site_fract_y
 _atom_site_fract_z
 _atom_site_occupancy
  Sc  Sc0  1  0.804959  0.807423  0.192577  1
  Sc  Sc1  1  0.195041  0.807423  0.192577  1
  Sc  Sc2  1  0.806316  0.193684  0.193684  1
  Sc  Sc3  1  0.195041  0.192577  0.807423  1
  Sc  Sc4  1  0.804959  0.192577  0.807423  1
  Sc  Sc5  1  0.193684  0.806316  0.806316  1
  Sc  Sc6  1  0.616841  0.613884  0.152433  1
  Sc  Sc7  1  0.616841  0.152433  0.613884  1
  Sc  Sc8  1  0.151968  0.615282  0.615282  1
  Sc  Sc9  1  0.617468  0.615282  0.615282  1
  Sc  Sc10  1  0.383159  0.386116  0.847567  1
  Sc  Sc11  1  0.383159  0.847567  0.386116  1
  Sc  Sc12  1  0.848032  0.384718  0.384718  1
  Sc  Sc13  1  0.382532  0.384718  0.384718  1
  Sc  Sc14  1  0.845221  0.836621  0.472936  1
  Sc  Sc15  1  0.845221  0.472936  0.836621  1
  Sc  Sc16  1  0.474786  0.841589  0.841589  1
  Sc  Sc17  1  0.842035  0.841589  0.841589  1
  Sc  Sc18  1  0.154779  0.163379  0.527064  1
  Sc  Sc19  1  0.154779  0.527064  0.163379  1
  Sc  Sc20  1  0.525214  0.158411  0.158411  1
  Sc  Sc21  1  0.157965  0.158411  0.158411  1
  Co  Co22  1  0.000000  0.000000  0.000000  1
  Co  Co23  1  0.500000  0.500000  0.500000  1
  Co  Co24  1  0.000000  0.500000  0.500000  1
  Ir  Ir25  1  0.000000  0.000000  0.500000  1
  Ir  Ir26  1  0.500000  0.000000  0.500000  1
  Ir  Ir27  1  0.500000  0.500000  0.000000  1
  Ir  Ir28  1  0.000000  0.500000  0.000000  1
  Ir  Ir29  1  0.500000  0.000000  0.000000  1
