# generated using pymatgen
data_Y20Ir5Rh7
_symmetry_space_group_name_H-M   'P 1'
_cell_length_a   10.94502858
_cell_length_b   10.94502858
_cell_length_c   6.40892715
_cell_angle_alpha   89.98230604
_cell_angle_beta   89.98230604
_cell_angle_gamma   90.13372859
_symmetry_Int_Tables_number   1
_chemical_formula_structural   Y20Ir5Rh7
_chemical_formula_sum   'Y20 Ir5 Rh7'
_cell_volume   767.74661615
_cell_formula_units_Z   1
loop_
 _symmetry_equiv_pos_site_id
 _symmetry_equiv_pos_as_xyz
  1  'x, y, z'
loop_
 _atom_site_type_symbol
 _atom_site_label
 _atom_site_symmetry_multiplicity
 _atom_site_fract_x
 _atom_site_fract_y
 _atom_site_fract_z
 _atom_site_occupancy
  Y  Y0  1  0.290562  0.088293  0.381392  1
  Y  Y1  1  0.290810  0.908430  0.883519  1
  Y  Y2  1  0.708486  0.090982  0.882680  1
  Y  Y3  1  0.707786  0.908817  0.381448  1
  Y  Y4  1  0.588041  0.789485  0.882666  1
  Y  Y5  1  0.587482  0.210090  0.382224  1
  Y  Y6  1  0.409513  0.790098  0.383087  1
  Y  Y7  1  0.411521  0.209808  0.881876  1
  Y  Y8  1  0.210515  0.411959  0.617334  1
  Y  Y9  1  0.209902  0.590487  0.116913  1
  Y  Y10  1  0.789910  0.412518  0.117776  1
  Y  Y11  1  0.790192  0.588479  0.618124  1
  Y  Y12  1  0.911707  0.709438  0.118608  1
  Y  Y13  1  0.909018  0.291514  0.617320  1
  Y  Y14  1  0.091570  0.709190  0.616481  1
  Y  Y15  1  0.091183  0.292214  0.118552  1
  Y  Y16  1  0.999499  0.999621  0.500200  1
  Y  Y17  1  0.000379  0.000501  0.999800  1
  Y  Y18  1  0.499749  0.499298  0.000054  1
  Y  Y19  1  0.500702  0.500251  0.499946  1
  Ir  Ir20  1  0.152872  0.847128  0.250000  1
  Ir  Ir21  1  0.654452  0.345548  0.750000  1
  Ir  Ir22  1  0.655204  0.654152  0.249247  1
  Ir  Ir23  1  0.345848  0.344796  0.250753  1
  Ir  Ir24  1  0.346565  0.653435  0.750000  1
  Rh  Rh25  1  0.846723  0.153277  0.250000  1
  Rh  Rh26  1  0.845272  0.846467  0.750198  1
  Rh  Rh27  1  0.153533  0.154728  0.749802  1
  Rh  Rh28  1  0.500674  0.000122  0.129308  1
  Rh  Rh29  1  0.500501  0.000049  0.630906  1
  Rh  Rh30  1  0.999951  0.499499  0.869094  1
  Rh  Rh31  1  0.999878  0.499326  0.370692  1
