# generated using pymatgen
data_Er3Tm2InBi2
_symmetry_space_group_name_H-M   'P 1'
_cell_length_a   6.46105400
_cell_length_b   9.01238597
_cell_length_c   8.98855542
_cell_angle_alpha   120.08783757
_cell_angle_beta   89.99891284
_cell_angle_gamma   89.99904044
_symmetry_Int_Tables_number   1
_chemical_formula_structural   Er3Tm2InBi2
_chemical_formula_sum   'Er6 Tm4 In2 Bi4'
_cell_volume   452.87527067
_cell_formula_units_Z   2
loop_
 _symmetry_equiv_pos_site_id
 _symmetry_equiv_pos_as_xyz
  1  'x, y, z'
loop_
 _atom_site_type_symbol
 _atom_site_label
 _atom_site_symmetry_multiplicity
 _atom_site_fract_x
 _atom_site_fract_y
 _atom_site_fract_z
 _atom_site_occupancy
  Er  Er0  1  0.750027  0.235954  0.000033  1
  Er  Er1  1  0.749991  0.765358  0.763208  1
  Er  Er2  1  0.749970  0.002140  0.236808  1
  Er  Er3  1  0.249997  0.767204  0.999988  1
  Er  Er4  1  0.250012  0.233509  0.242568  1
  Er  Er5  1  0.250008  0.990921  0.757426  1
  Tm  Tm6  1  0.496759  0.331405  0.659847  1
  Tm  Tm7  1  0.496744  0.671561  0.340135  1
  Tm  Tm8  1  0.003246  0.671549  0.340131  1
  Tm  Tm9  1  0.003226  0.331415  0.659851  1
  In  In10  1  0.249993  0.604097  0.606072  1
  In  In11  1  0.250019  0.998032  0.393947  1
  Bi  Bi12  1  0.749995  0.606204  0.000002  1
  Bi  Bi13  1  0.749999  0.396857  0.393444  1
  Bi  Bi14  1  0.749996  0.003406  0.606543  1
  Bi  Bi15  1  0.250016  0.390389  0.999996  1
