# generated using pymatgen
data_HfZrMn11FeP7
_symmetry_space_group_name_H-M   'P 1'
_cell_length_a   9.16399486
_cell_length_b   9.15822600
_cell_length_c   3.53633600
_cell_angle_alpha   90.00000000
_cell_angle_beta   90.00000000
_cell_angle_gamma   120.18165829
_symmetry_Int_Tables_number   1
_chemical_formula_structural   HfZrMn11FeP7
_chemical_formula_sum   'Hf1 Zr1 Mn11 Fe1 P7'
_cell_volume   256.55616376
_cell_formula_units_Z   1
loop_
 _symmetry_equiv_pos_site_id
 _symmetry_equiv_pos_as_xyz
  1  'x, y, z'
loop_
 _atom_site_type_symbol
 _atom_site_label
 _atom_site_symmetry_multiplicity
 _atom_site_fract_x
 _atom_site_fract_y
 _atom_site_fract_z
 _atom_site_occupancy
  Hf  Hf0  1  0.333412  0.666712  0.500000  1
  Zr  Zr1  1  0.000604  0.000834  0.000000  1
  Mn  Mn2  1  0.095552  0.384364  0.000000  1
  Mn  Mn3  1  0.289707  0.904102  0.000000  1
  Mn  Mn4  1  0.614120  0.709416  0.000000  1
  Mn  Mn5  1  0.826378  0.612199  0.000000  1
  Mn  Mn6  1  0.785324  0.172979  0.000000  1
  Mn  Mn7  1  0.060064  0.771487  0.500000  1
  Mn  Mn8  1  0.710507  0.940465  0.500000  1
  Mn  Mn9  1  0.228696  0.290022  0.500000  1
  Mn  Mn10  1  0.897469  0.436971  0.500000  1
  Mn  Mn11  1  0.537858  0.100315  0.500000  1
  Mn  Mn12  1  0.563357  0.460802  0.500000  1
  Fe  Fe13  1  0.389479  0.215935  0.000000  1
  P  P14  1  0.082422  0.623122  0.000000  1
  P  P15  1  0.540758  0.916959  0.000000  1
  P  P16  1  0.375971  0.457594  0.000000  1
  P  P17  1  0.796613  0.746106  0.500000  1
  P  P18  1  0.948840  0.203343  0.500000  1
  P  P19  1  0.257413  0.054234  0.500000  1
  P  P20  1  0.665457  0.332037  0.000000  1
