# generated using pymatgen
data_TiNb11Al8(PtC)4
_symmetry_space_group_name_H-M   'P 1'
_cell_length_a   8.37644366
_cell_length_b   8.37644452
_cell_length_c   8.35983900
_cell_angle_alpha   60.06555979
_cell_angle_beta   60.06555641
_cell_angle_gamma   60.01608240
_symmetry_Int_Tables_number   1
_chemical_formula_structural   TiNb11Al8(PtC)4
_chemical_formula_sum   'Ti1 Nb11 Al8 Pt4 C4'
_cell_volume   415.22625145
_cell_formula_units_Z   1
loop_
 _symmetry_equiv_pos_site_id
 _symmetry_equiv_pos_as_xyz
  1  'x, y, z'
loop_
 _atom_site_type_symbol
 _atom_site_label
 _atom_site_symmetry_multiplicity
 _atom_site_fract_x
 _atom_site_fract_y
 _atom_site_fract_z
 _atom_site_occupancy
  Ti  Ti0  1  0.567784  0.567784  0.932216  1
  Nb  Nb1  1  0.932778  0.932778  0.567222  1
  Nb  Nb2  1  0.682585  0.318094  0.315860  1
  Nb  Nb3  1  0.318094  0.682585  0.683461  1
  Nb  Nb4  1  0.682881  0.682881  0.317119  1
  Nb  Nb5  1  0.682585  0.318094  0.683461  1
  Nb  Nb6  1  0.318094  0.682585  0.315860  1
  Nb  Nb7  1  0.567917  0.931910  0.565882  1
  Nb  Nb8  1  0.567917  0.931910  0.934291  1
  Nb  Nb9  1  0.931910  0.567917  0.565882  1
  Nb  Nb10  1  0.931910  0.567917  0.934291  1
  Nb  Nb11  1  0.317142  0.317142  0.682858  1
  Al  Al12  1  0.913764  0.254967  0.915635  1
  Al  Al13  1  0.334393  0.334393  0.997265  1
  Al  Al14  1  0.996713  0.334759  0.334263  1
  Al  Al15  1  0.334393  0.334393  0.333947  1
  Al  Al16  1  0.254967  0.913764  0.915635  1
  Al  Al17  1  0.915754  0.915754  0.915936  1
  Al  Al18  1  0.915754  0.915754  0.252557  1
  Al  Al19  1  0.334759  0.996713  0.334263  1
  Pt  Pt20  1  0.126577  0.624817  0.124303  1
  Pt  Pt21  1  0.124906  0.124906  0.625483  1
  Pt  Pt22  1  0.624817  0.126577  0.124303  1
  Pt  Pt23  1  0.124906  0.124906  0.124706  1
  C  C24  1  0.624302  0.124994  0.625352  1
  C  C25  1  0.623702  0.623702  0.121587  1
  C  C26  1  0.124994  0.624302  0.625352  1
  C  C27  1  0.623702  0.623702  0.631010  1
