# generated using pymatgen
data_TbHo(Be11Cu2)2
_symmetry_space_group_name_H-M   'P 1'
_cell_length_a   7.33075132
_cell_length_b   7.34077310
_cell_length_c   7.29823781
_cell_angle_alpha   60.10024816
_cell_angle_beta   60.23768031
_cell_angle_gamma   59.65401462
_symmetry_Int_Tables_number   1
_chemical_formula_structural   TbHo(Be11Cu2)2
_chemical_formula_sum   'Tb1 Ho1 Be22 Cu4'
_cell_volume   277.67851824
_cell_formula_units_Z   1
loop_
 _symmetry_equiv_pos_site_id
 _symmetry_equiv_pos_as_xyz
  1  'x, y, z'
loop_
 _atom_site_type_symbol
 _atom_site_label
 _atom_site_symmetry_multiplicity
 _atom_site_fract_x
 _atom_site_fract_y
 _atom_site_fract_z
 _atom_site_occupancy
  Tb  Tb0  1  0.250029  0.250000  0.250013  1
  Ho  Ho1  1  0.749991  0.749936  0.750050  1
  Be  Be2  1  0.499981  0.499897  0.499987  1
  Be  Be3  1  0.999974  0.000067  0.000018  1
  Be  Be4  1  0.280199  0.931014  0.720096  1
  Be  Be5  1  0.720124  0.068620  0.280177  1
  Be  Be6  1  0.931064  0.280232  0.068597  1
  Be  Be7  1  0.068593  0.720186  0.931112  1
  Be  Be8  1  0.200107  0.799787  0.560033  1
  Be  Be9  1  0.799651  0.199991  0.440201  1
  Be  Be10  1  0.440009  0.560341  0.799415  1
  Be  Be11  1  0.560155  0.439976  0.200316  1
  Be  Be12  1  0.714523  0.285656  0.933342  1
  Be  Be13  1  0.285491  0.714548  0.066605  1
  Be  Be14  1  0.066601  0.933332  0.285430  1
  Be  Be15  1  0.933204  0.066668  0.714729  1
  Be  Be16  1  0.566806  0.205021  0.794766  1
  Be  Be17  1  0.433463  0.794696  0.204919  1
  Be  Be18  1  0.794644  0.433454  0.567003  1
  Be  Be19  1  0.204990  0.566890  0.433372  1
  Be  Be20  1  0.940124  0.713297  0.286955  1
  Be  Be21  1  0.059698  0.286963  0.713326  1
  Be  Be22  1  0.286868  0.059715  0.940188  1
  Be  Be23  1  0.713359  0.940113  0.059556  1
  Cu  Cu24  1  0.804647  0.557896  0.194909  1
  Cu  Cu25  1  0.194684  0.442917  0.804170  1
  Cu  Cu26  1  0.558227  0.804451  0.442313  1
  Cu  Cu27  1  0.442792  0.194335  0.558403  1
