# generated using pymatgen
data_LuGe(AsRh2)3
_symmetry_space_group_name_H-M   'P 1'
_cell_length_a   7.29719300
_cell_length_b   7.29719454
_cell_length_c   3.77638900
_cell_angle_alpha   90.00000000
_cell_angle_beta   90.00000000
_cell_angle_gamma   119.99999757
_symmetry_Int_Tables_number   1
_chemical_formula_structural   LuGe(AsRh2)3
_chemical_formula_sum   'Lu1 Ge1 As3 Rh6'
_cell_volume   174.14825353
_cell_formula_units_Z   1
loop_
 _symmetry_equiv_pos_site_id
 _symmetry_equiv_pos_as_xyz
  1  'x, y, z'
loop_
 _atom_site_type_symbol
 _atom_site_label
 _atom_site_symmetry_multiplicity
 _atom_site_fract_x
 _atom_site_fract_y
 _atom_site_fract_z
 _atom_site_occupancy
  Lu  Lu0  1  0.333333  0.666667  0.000000  1
  Ge  Ge1  1  0.666667  0.333333  0.000000  1
  As  As2  1  0.714231  0.857116  0.500000  1
  As  As3  1  0.142884  0.285769  0.500000  1
  As  As4  1  0.142884  0.857116  0.500000  1
  Rh  Rh5  1  0.265238  0.132618  0.000000  1
  Rh  Rh6  1  0.867382  0.734762  0.000000  1
  Rh  Rh7  1  0.867382  0.132618  0.000000  1
  Rh  Rh8  1  0.942960  0.471480  0.500000  1
  Rh  Rh9  1  0.528520  0.057040  0.500000  1
  Rh  Rh10  1  0.528520  0.471480  0.500000  1
