# generated using pymatgen
data_La2Er3Ru2
_symmetry_space_group_name_H-M   'P 1'
_cell_length_a   6.47958845
_cell_length_b   7.24244533
_cell_length_c   8.72938272
_cell_angle_alpha   96.39655443
_cell_angle_beta   111.78573981
_cell_angle_gamma   90.00000404
_symmetry_Int_Tables_number   1
_chemical_formula_structural   La2Er3Ru2
_chemical_formula_sum   'La4 Er6 Ru4'
_cell_volume   377.64711900
_cell_formula_units_Z   2
loop_
 _symmetry_equiv_pos_site_id
 _symmetry_equiv_pos_as_xyz
  1  'x, y, z'
loop_
 _atom_site_type_symbol
 _atom_site_label
 _atom_site_symmetry_multiplicity
 _atom_site_fract_x
 _atom_site_fract_y
 _atom_site_fract_z
 _atom_site_occupancy
  La  La0  1  0.782947  0.087983  0.804396  1
  La  La1  1  0.978552  0.412017  0.195604  1
  La  La2  1  0.217053  0.912017  0.195604  1
  La  La3  1  0.021448  0.587983  0.804396  1
  Er  Er4  1  0.204049  0.184818  0.569430  1
  Er  Er5  1  0.634620  0.315182  0.430570  1
  Er  Er6  1  0.795951  0.815182  0.430570  1
  Er  Er7  1  0.365380  0.684818  0.569430  1
  Er  Er8  1  0.425240  0.250000  0.000000  1
  Er  Er9  1  0.574760  0.750000  0.000000  1
  Ru  Ru10  1  0.598420  0.418635  0.774984  1
  Ru  Ru11  1  0.823435  0.081365  0.225016  1
  Ru  Ru12  1  0.401580  0.581365  0.225016  1
  Ru  Ru13  1  0.176565  0.918635  0.774984  1
