# generated using pymatgen
data_Yb6Sc(CoC4)3
_symmetry_space_group_name_H-M   'P 1'
_cell_length_a   8.17491200
_cell_length_b   8.17491133
_cell_length_c   5.13700600
_cell_angle_alpha   90.00000000
_cell_angle_beta   90.00000000
_cell_angle_gamma   120.00000539
_symmetry_Int_Tables_number   1
_chemical_formula_structural   Yb6Sc(CoC4)3
_chemical_formula_sum   'Yb6 Sc1 Co3 C12'
_cell_volume   297.30815245
_cell_formula_units_Z   1
loop_
 _symmetry_equiv_pos_site_id
 _symmetry_equiv_pos_as_xyz
  1  'x, y, z'
loop_
 _atom_site_type_symbol
 _atom_site_label
 _atom_site_symmetry_multiplicity
 _atom_site_fract_x
 _atom_site_fract_y
 _atom_site_fract_z
 _atom_site_occupancy
  Yb  Yb0  1  0.612158  0.676511  0.749060  1
  Yb  Yb1  1  0.935648  0.612158  0.250940  1
  Yb  Yb2  1  0.676511  0.064352  0.250940  1
  Yb  Yb3  1  0.323489  0.935648  0.749060  1
  Yb  Yb4  1  0.064352  0.387842  0.749060  1
  Yb  Yb5  1  0.387842  0.323489  0.250940  1
  Sc  Sc6  1  0.000000  0.000000  0.500000  1
  Co  Co7  1  0.000000  0.000000  0.000000  1
  Co  Co8  1  0.666667  0.333333  0.757783  1
  Co  Co9  1  0.333333  0.666667  0.242217  1
  C  C10  1  0.962960  0.757357  0.758668  1
  C  C11  1  0.205602  0.962960  0.241332  1
  C  C12  1  0.757357  0.794398  0.241332  1
  C  C13  1  0.242643  0.205602  0.758668  1
  C  C14  1  0.794398  0.037040  0.758668  1
  C  C15  1  0.037040  0.242643  0.241332  1
  C  C16  1  0.858514  0.572502  0.759858  1
  C  C17  1  0.286011  0.858514  0.240142  1
  C  C18  1  0.572502  0.713989  0.240142  1
  C  C19  1  0.427498  0.286011  0.759858  1
  C  C20  1  0.141486  0.427498  0.240142  1
  C  C21  1  0.713989  0.141486  0.759858  1
