# generated using pymatgen
data_Er5In3Cl
_symmetry_space_group_name_H-M   'P 1'
_cell_length_a   9.03674300
_cell_length_b   9.03674275
_cell_length_c   6.63027800
_cell_angle_alpha   90.00000000
_cell_angle_beta   90.00000000
_cell_angle_gamma   119.99999727
_symmetry_Int_Tables_number   1
_chemical_formula_structural   Er5In3Cl
_chemical_formula_sum   'Er10 In6 Cl2'
_cell_volume   468.90647774
_cell_formula_units_Z   2
loop_
 _symmetry_equiv_pos_site_id
 _symmetry_equiv_pos_as_xyz
  1  'x, y, z'
loop_
 _atom_site_type_symbol
 _atom_site_label
 _atom_site_symmetry_multiplicity
 _atom_site_fract_x
 _atom_site_fract_y
 _atom_site_fract_z
 _atom_site_occupancy
  Er  Er0  1  0.740125  0.740125  0.250000  1
  Er  Er1  1  0.000000  0.740125  0.750000  1
  Er  Er2  1  0.740125  0.000000  0.750000  1
  Er  Er3  1  0.333333  0.666667  0.500000  1
  Er  Er4  1  0.259875  0.259875  0.750000  1
  Er  Er5  1  0.000000  0.259875  0.250000  1
  Er  Er6  1  0.666667  0.333333  0.500000  1
  Er  Er7  1  0.259875  0.000000  0.250000  1
  Er  Er8  1  0.333333  0.666667  0.000000  1
  Er  Er9  1  0.666667  0.333333  0.000000  1
  In  In10  1  0.392851  0.000000  0.750000  1
  In  In11  1  0.000000  0.607149  0.250000  1
  In  In12  1  0.607149  0.000000  0.250000  1
  In  In13  1  0.000000  0.392851  0.750000  1
  In  In14  1  0.392851  0.392851  0.250000  1
  In  In15  1  0.607149  0.607149  0.750000  1
  Cl  Cl16  1  0.000000  0.000000  0.500000  1
  Cl  Cl17  1  0.000000  0.000000  0.000000  1
