# generated using pymatgen
data_Ho2GaB2Rh5
_symmetry_space_group_name_H-M   'P 1'
_cell_length_a   9.45671100
_cell_length_b   9.45671100
_cell_length_c   3.21383200
_cell_angle_alpha   90.00000000
_cell_angle_beta   90.00000000
_cell_angle_gamma   90.00000000
_symmetry_Int_Tables_number   1
_chemical_formula_structural   Ho2GaB2Rh5
_chemical_formula_sum   'Ho4 Ga2 B4 Rh10'
_cell_volume   287.41101262
_cell_formula_units_Z   2
loop_
 _symmetry_equiv_pos_site_id
 _symmetry_equiv_pos_as_xyz
  1  'x, y, z'
loop_
 _atom_site_type_symbol
 _atom_site_label
 _atom_site_symmetry_multiplicity
 _atom_site_fract_x
 _atom_site_fract_y
 _atom_site_fract_z
 _atom_site_occupancy
  Ho  Ho0  1  0.825634  0.325634  0.000000  1
  Ho  Ho1  1  0.325634  0.174366  0.000000  1
  Ho  Ho2  1  0.674366  0.825634  0.000000  1
  Ho  Ho3  1  0.174366  0.674366  0.000000  1
  Ga  Ga4  1  0.000000  0.000000  0.000000  1
  Ga  Ga5  1  0.500000  0.500000  0.000000  1
  B  B6  1  0.622836  0.122836  0.000000  1
  B  B7  1  0.122836  0.377164  0.000000  1
  B  B8  1  0.877164  0.622836  0.000000  1
  B  B9  1  0.377164  0.877164  0.000000  1
  Rh  Rh10  1  0.070940  0.218549  0.500000  1
  Rh  Rh11  1  0.218549  0.929060  0.500000  1
  Rh  Rh12  1  0.781451  0.070940  0.500000  1
  Rh  Rh13  1  0.929060  0.781451  0.500000  1
  Rh  Rh14  1  0.429060  0.718549  0.500000  1
  Rh  Rh15  1  0.570940  0.281451  0.500000  1
  Rh  Rh16  1  0.718549  0.570940  0.500000  1
  Rh  Rh17  1  0.281451  0.429060  0.500000  1
  Rh  Rh18  1  0.500000  0.000000  0.500000  1
  Rh  Rh19  1  0.000000  0.500000  0.500000  1
