# generated using pymatgen
data_PrOs6Pb3O19
_symmetry_space_group_name_H-M   'P 1'
_cell_length_a   8.06743721
_cell_length_b   7.99403598
_cell_length_c   7.99403517
_cell_angle_alpha   109.28447828
_cell_angle_beta   109.65732196
_cell_angle_gamma   109.65732479
_symmetry_Int_Tables_number   1
_chemical_formula_structural   PrOs6Pb3O19
_chemical_formula_sum   'Pr1 Os6 Pb3 O19'
_cell_volume   395.95262786
_cell_formula_units_Z   1
loop_
 _symmetry_equiv_pos_site_id
 _symmetry_equiv_pos_as_xyz
  1  'x, y, z'
loop_
 _atom_site_type_symbol
 _atom_site_label
 _atom_site_symmetry_multiplicity
 _atom_site_fract_x
 _atom_site_fract_y
 _atom_site_fract_z
 _atom_site_occupancy
  Pr  Pr0  1  0.306731  0.000000  0.000000  1
  Os  Os1  1  0.635839  0.499616  0.137772  1
  Os  Os2  1  0.498067  0.862227  0.361845  1
  Os  Os3  1  0.863351  0.362438  0.501872  1
  Os  Os4  1  0.136223  0.638155  0.500384  1
  Os  Os5  1  0.500912  0.139435  0.637563  1
  Os  Os6  1  0.361479  0.498128  0.860565  1
  Pb  Pb7  1  0.999177  0.298216  0.998847  1
  Pb  Pb8  1  0.000330  0.001153  0.299371  1
  Pb  Pb9  1  0.700958  0.700628  0.701783  1
  O  O10  1  0.015455  0.000000  0.000000  1
  O  O11  1  0.330379  0.323700  0.996392  1
  O  O12  1  0.666698  0.669315  0.999636  1
  O  O13  1  0.348609  0.714850  0.060897  1
  O  O14  1  0.931835  0.644162  0.288278  1
  O  O15  1  0.633759  0.346048  0.285149  1
  O  O16  1  0.333987  0.003608  0.327308  1
  O  O17  1  0.997383  0.330322  0.330685  1
  O  O18  1  0.705155  0.064222  0.346172  1
  O  O19  1  0.643557  0.711722  0.355885  1
  O  O20  1  0.287671  0.644113  0.355837  1
  O  O21  1  0.287711  0.939102  0.653952  1
  O  O22  1  0.358365  0.292196  0.641825  1
  O  O23  1  0.716540  0.358173  0.650371  1
  O  O24  1  0.667062  0.000364  0.669678  1
  O  O25  1  0.006679  0.672692  0.676301  1
  O  O26  1  0.066169  0.349628  0.707802  1
  O  O27  1  0.358980  0.653827  0.718047  1
  O  O28  1  0.640934  0.281953  0.935779  1
