# generated using pymatgen
data_SrHo3Pt3RhO14
_symmetry_space_group_name_H-M   'P 1'
_cell_length_a   7.30636440
_cell_length_b   7.30636314
_cell_length_c   7.32922488
_cell_angle_alpha   59.82858572
_cell_angle_beta   59.82859462
_cell_angle_gamma   59.85756784
_symmetry_Int_Tables_number   1
_chemical_formula_structural   SrHo3Pt3RhO14
_chemical_formula_sum   'Sr1 Ho3 Pt3 Rh1 O14'
_cell_volume   275.64386244
_cell_formula_units_Z   1
loop_
 _symmetry_equiv_pos_site_id
 _symmetry_equiv_pos_as_xyz
  1  'x, y, z'
loop_
 _atom_site_type_symbol
 _atom_site_label
 _atom_site_symmetry_multiplicity
 _atom_site_fract_x
 _atom_site_fract_y
 _atom_site_fract_z
 _atom_site_occupancy
  Sr  Sr0  1  0.625000  0.625000  0.625000  1
  Ho  Ho1  1  0.625000  0.625000  0.125000  1
  Ho  Ho2  1  0.625000  0.125000  0.625000  1
  Ho  Ho3  1  0.125000  0.625000  0.625000  1
  Pt  Pt4  1  0.125000  0.125000  0.125000  1
  Pt  Pt5  1  0.625000  0.125000  0.125000  1
  Pt  Pt6  1  0.125000  0.625000  0.125000  1
  Rh  Rh7  1  0.125000  0.125000  0.625000  1
  O  O8  1  0.058634  0.455757  0.457134  1
  O  O9  1  0.789980  0.789980  0.195405  1
  O  O10  1  0.787113  0.214082  0.213527  1
  O  O11  1  0.455757  0.058634  0.457134  1
  O  O12  1  0.757843  0.757843  0.757105  1
  O  O13  1  0.039600  0.039600  0.459098  1
  O  O14  1  0.035918  0.462887  0.036473  1
  O  O15  1  0.794243  0.191366  0.792866  1
  O  O16  1  0.214082  0.787113  0.213527  1
  O  O17  1  0.210400  0.210400  0.790902  1
  O  O18  1  0.492157  0.492157  0.492895  1
  O  O19  1  0.462887  0.035918  0.036473  1
  O  O20  1  0.460020  0.460020  0.054595  1
  O  O21  1  0.191366  0.794243  0.792866  1
