# generated using pymatgen
data_Hf8Nb11Si16Ru
_symmetry_space_group_name_H-M   'P 1'
_cell_length_a   6.85562335
_cell_length_b   6.85412215
_cell_length_c   12.66200539
_cell_angle_alpha   89.73296136
_cell_angle_beta   89.98748497
_cell_angle_gamma   89.85169902
_symmetry_Int_Tables_number   1
_chemical_formula_structural   Hf8Nb11Si16Ru
_chemical_formula_sum   'Hf8 Nb11 Si16 Ru1'
_cell_volume   594.97004712
_cell_formula_units_Z   1
loop_
 _symmetry_equiv_pos_site_id
 _symmetry_equiv_pos_as_xyz
  1  'x, y, z'
loop_
 _atom_site_type_symbol
 _atom_site_label
 _atom_site_symmetry_multiplicity
 _atom_site_fract_x
 _atom_site_fract_y
 _atom_site_fract_z
 _atom_site_occupancy
  Hf  Hf0  1  0.999117  0.346517  0.217748  1
  Hf  Hf1  1  0.998705  0.660334  0.718249  1
  Hf  Hf2  1  0.158234  0.507275  0.468329  1
  Hf  Hf3  1  0.498351  0.838430  0.032222  1
  Hf  Hf4  1  0.838876  0.498591  0.969686  1
  Hf  Hf5  1  0.506417  0.159649  0.531079  1
  Hf  Hf6  1  0.338794  0.999393  0.779823  1
  Hf  Hf7  1  0.663059  0.996280  0.277728  1
  Nb  Nb8  1  0.168122  0.166352  0.001365  1
  Nb  Nb9  1  0.827820  0.832190  0.499603  1
  Nb  Nb10  1  0.328082  0.666778  0.250364  1
  Nb  Nb11  1  0.668716  0.330034  0.749117  1
  Nb  Nb12  1  0.846115  0.002624  0.875252  1
  Nb  Nb13  1  0.498274  0.654192  0.625398  1
  Nb  Nb14  1  0.346864  0.496015  0.873593  1
  Nb  Nb15  1  0.494535  0.339340  0.127451  1
  Nb  Nb16  1  0.654232  0.499282  0.372500  1
  Nb  Nb17  1  0.997279  0.151520  0.623987  1
  Nb  Nb18  1  0.000530  0.841310  0.120963  1
  Si  Si19  1  0.291661  0.037667  0.193142  1
  Si  Si20  1  0.700641  0.954961  0.685772  1
  Si  Si21  1  0.453557  0.801650  0.434158  1
  Si  Si22  1  0.202332  0.540942  0.063356  1
  Si  Si23  1  0.542063  0.199350  0.936881  1
  Si  Si24  1  0.798140  0.456827  0.562079  1
  Si  Si25  1  0.043117  0.299382  0.813717  1
  Si  Si26  1  0.963604  0.719363  0.315695  1
  Si  Si27  1  0.363793  0.290750  0.324625  1
  Si  Si28  1  0.634095  0.707763  0.823086  1
  Si  Si29  1  0.204028  0.866103  0.569551  1
  Si  Si30  1  0.135888  0.791286  0.926989  1
  Si  Si31  1  0.791093  0.133212  0.074069  1
  Si  Si32  1  0.874003  0.202384  0.424978  1
  Si  Si33  1  0.290761  0.363609  0.676032  1
  Si  Si34  1  0.707558  0.629840  0.177096  1
  Ru  Ru35  1  0.171543  0.018806  0.384320  1
