# generated using pymatgen
data_Er4TmReMoC7
_symmetry_space_group_name_H-M   'P 1'
_cell_length_a   8.29743442
_cell_length_b   8.29743339
_cell_length_c   3.38839500
_cell_angle_alpha   90.00000000
_cell_angle_beta   90.00000000
_cell_angle_gamma   122.26548052
_symmetry_Int_Tables_number   1
_chemical_formula_structural   Er4TmReMoC7
_chemical_formula_sum   'Er4 Tm1 Re1 Mo1 C7'
_cell_volume   197.25962108
_cell_formula_units_Z   1
loop_
 _symmetry_equiv_pos_site_id
 _symmetry_equiv_pos_as_xyz
  1  'x, y, z'
loop_
 _atom_site_type_symbol
 _atom_site_label
 _atom_site_symmetry_multiplicity
 _atom_site_fract_x
 _atom_site_fract_y
 _atom_site_fract_z
 _atom_site_occupancy
  Er  Er0  1  0.077294  0.335363  0.500000  1
  Er  Er1  1  0.924622  0.665641  0.500000  1
  Er  Er2  1  0.664637  0.922706  0.500000  1
  Er  Er3  1  0.334359  0.075378  0.500000  1
  Tm  Tm4  1  0.499048  0.500952  0.000000  1
  Re  Re5  1  0.286131  0.713869  0.000000  1
  Mo  Mo6  1  0.713957  0.286043  0.000000  1
  C  C7  1  0.622005  0.377995  0.500000  1
  C  C8  1  0.375832  0.624168  0.500000  1
  C  C9  1  0.999836  0.000164  0.000000  1
  C  C10  1  0.169708  0.168757  0.000000  1
  C  C11  1  0.831243  0.830292  0.000000  1
  C  C12  1  0.002011  0.500682  0.000000  1
  C  C13  1  0.499318  0.997989  0.000000  1
