# generated using pymatgen
data_KBa(AsRu)4
_symmetry_space_group_name_H-M   'P 1'
_cell_length_a   6.94136597
_cell_length_b   6.94136567
_cell_length_c   5.89112900
_cell_angle_alpha   90.00000000
_cell_angle_beta   90.00000000
_cell_angle_gamma   129.88894688
_symmetry_Int_Tables_number   1
_chemical_formula_structural   KBa(AsRu)4
_chemical_formula_sum   'K1 Ba1 As4 Ru4'
_cell_volume   217.79469838
_cell_formula_units_Z   1
loop_
 _symmetry_equiv_pos_site_id
 _symmetry_equiv_pos_as_xyz
  1  'x, y, z'
loop_
 _atom_site_type_symbol
 _atom_site_label
 _atom_site_symmetry_multiplicity
 _atom_site_fract_x
 _atom_site_fract_y
 _atom_site_fract_z
 _atom_site_occupancy
  K  K0  1  0.000000  0.000000  0.000000  1
  Ba  Ba1  1  0.500000  0.500000  0.500000  1
  As  As2  1  0.649659  0.350341  0.000000  1
  As  As3  1  0.148678  0.851322  0.500000  1
  As  As4  1  0.851322  0.148678  0.500000  1
  As  As5  1  0.350341  0.649659  0.000000  1
  Ru  Ru6  1  0.500000  0.000000  0.749322  1
  Ru  Ru7  1  0.000000  0.500000  0.250678  1
  Ru  Ru8  1  0.000000  0.500000  0.749322  1
  Ru  Ru9  1  0.500000  0.000000  0.250678  1
