# generated using pymatgen
data_DyU5(Ni3Sn4)2
_symmetry_space_group_name_H-M   'P 1'
_cell_length_a   8.12729518
_cell_length_b   8.12729560
_cell_length_c   8.12729528
_cell_angle_alpha   109.26806424
_cell_angle_beta   109.26807045
_cell_angle_gamma   109.87829429
_symmetry_Int_Tables_number   1
_chemical_formula_structural   DyU5(Ni3Sn4)2
_chemical_formula_sum   'Dy1 U5 Ni6 Sn8'
_cell_volume   413.23756065
_cell_formula_units_Z   1
loop_
 _symmetry_equiv_pos_site_id
 _symmetry_equiv_pos_as_xyz
  1  'x, y, z'
loop_
 _atom_site_type_symbol
 _atom_site_label
 _atom_site_symmetry_multiplicity
 _atom_site_fract_x
 _atom_site_fract_y
 _atom_site_fract_z
 _atom_site_occupancy
  Dy  Dy0  1  0.875000  0.125000  0.750000  1
  U  U1  1  0.125608  0.750867  0.876281  1
  U  U2  1  0.374586  0.249327  0.623719  1
  U  U3  1  0.625000  0.375000  0.250000  1
  U  U4  1  0.249133  0.625414  0.374741  1
  U  U5  1  0.750673  0.874392  0.125259  1
  Ni  Ni6  1  0.873524  0.254161  0.137534  1
  Ni  Ni7  1  0.745839  0.383373  0.619363  1
  Ni  Ni8  1  0.264009  0.126476  0.880637  1
  Ni  Ni9  1  0.616627  0.735991  0.362466  1
  Ni  Ni10  1  0.125000  0.875000  0.250000  1
  Ni  Ni11  1  0.375000  0.625000  0.750000  1
  Sn  Sn12  1  0.503720  0.000352  0.834825  1
  Sn  Sn13  1  0.162720  0.165632  0.161341  1
  Sn  Sn14  1  0.504292  0.001379  0.338659  1
  Sn  Sn15  1  0.834368  0.495708  0.997088  1
  Sn  Sn16  1  0.999648  0.334473  0.503369  1
  Sn  Sn17  1  0.331104  0.496280  0.996631  1
  Sn  Sn18  1  0.998621  0.837280  0.502912  1
  Sn  Sn19  1  0.665527  0.668896  0.665175  1
