# generated using pymatgen
data_Ho2NiIr2Rh
_symmetry_space_group_name_H-M   'P 1'
_cell_length_a   5.17982510
_cell_length_b   5.18088676
_cell_length_c   5.17982375
_cell_angle_alpha   62.60249621
_cell_angle_beta   62.48634492
_cell_angle_gamma   62.60248650
_symmetry_Int_Tables_number   1
_chemical_formula_structural   Ho2NiIr2Rh
_chemical_formula_sum   'Ho2 Ni1 Ir2 Rh1'
_cell_volume   103.90514515
_cell_formula_units_Z   1
loop_
 _symmetry_equiv_pos_site_id
 _symmetry_equiv_pos_as_xyz
  1  'x, y, z'
loop_
 _atom_site_type_symbol
 _atom_site_label
 _atom_site_symmetry_multiplicity
 _atom_site_fract_x
 _atom_site_fract_y
 _atom_site_fract_z
 _atom_site_occupancy
  Ho  Ho0  1  0.750667  0.752030  0.750667  1
  Ho  Ho1  1  0.499333  0.497970  0.499333  1
  Ni  Ni2  1  0.125000  0.125000  0.125000  1
  Ir  Ir3  1  0.125000  0.125000  0.625000  1
  Ir  Ir4  1  0.625000  0.125000  0.125000  1
  Rh  Rh5  1  0.125000  0.625000  0.125000  1
