# generated using pymatgen
data_MgZr3(Pd5Pt)2
_symmetry_space_group_name_H-M   'P 1'
_cell_length_a   5.69964100
_cell_length_b   5.70388922
_cell_length_c   9.28176900
_cell_angle_alpha   90.00000000
_cell_angle_beta   90.00000000
_cell_angle_gamma   119.97535969
_symmetry_Int_Tables_number   1
_chemical_formula_structural   MgZr3(Pd5Pt)2
_chemical_formula_sum   'Mg1 Zr3 Pd10 Pt2'
_cell_volume   261.38926634
_cell_formula_units_Z   1
loop_
 _symmetry_equiv_pos_site_id
 _symmetry_equiv_pos_as_xyz
  1  'x, y, z'
loop_
 _atom_site_type_symbol
 _atom_site_label
 _atom_site_symmetry_multiplicity
 _atom_site_fract_x
 _atom_site_fract_y
 _atom_site_fract_z
 _atom_site_occupancy
  Mg  Mg0  1  0.333400  0.666800  0.250000  1
  Zr  Zr1  1  0.999325  0.998651  0.499796  1
  Zr  Zr2  1  0.999325  0.998651  0.000204  1
  Zr  Zr3  1  0.667376  0.334751  0.750000  1
  Pd  Pd4  1  0.499959  0.499213  0.499219  1
  Pd  Pd5  1  0.500266  0.000531  0.499504  1
  Pd  Pd6  1  0.999254  0.499213  0.499219  1
  Pd  Pd7  1  0.499959  0.499213  0.000781  1
  Pd  Pd8  1  0.500266  0.000531  0.000496  1
  Pd  Pd9  1  0.999254  0.499213  0.000781  1
  Pd  Pd10  1  0.830809  0.661617  0.250000  1
  Pd  Pd11  1  0.339945  0.170036  0.250000  1
  Pd  Pd12  1  0.830093  0.170036  0.250000  1
  Pd  Pd13  1  0.169563  0.339126  0.750000  1
  Pt  Pt14  1  0.661443  0.831208  0.750000  1
  Pt  Pt15  1  0.169765  0.831208  0.750000  1
