# generated using pymatgen
data_La6Pr7Y3(MgIr)4
_symmetry_space_group_name_H-M   'P 1'
_cell_length_a   10.02517450
_cell_length_b   10.08488616
_cell_length_c   10.04750931
_cell_angle_alpha   59.73020493
_cell_angle_beta   60.32013970
_cell_angle_gamma   60.32182722
_symmetry_Int_Tables_number   1
_chemical_formula_structural   La6Pr7Y3(MgIr)4
_chemical_formula_sum   'La6 Pr7 Y3 Mg4 Ir4'
_cell_volume   720.26892355
_cell_formula_units_Z   1
loop_
 _symmetry_equiv_pos_site_id
 _symmetry_equiv_pos_as_xyz
  1  'x, y, z'
loop_
 _atom_site_type_symbol
 _atom_site_label
 _atom_site_symmetry_multiplicity
 _atom_site_fract_x
 _atom_site_fract_y
 _atom_site_fract_z
 _atom_site_occupancy
  La  La0  1  0.341366  0.350523  0.348856  1
  La  La1  1  0.350523  0.341366  0.959255  1
  La  La2  1  0.346749  0.959781  0.342469  1
  La  La3  1  0.959781  0.346749  0.351001  1
  La  La4  1  0.817044  0.184620  0.182649  1
  La  La5  1  0.184620  0.817044  0.815687  1
  Pr  Pr6  1  0.811625  0.811625  0.188375  1
  Pr  Pr7  1  0.937709  0.560856  0.565100  1
  Pr  Pr8  1  0.560856  0.937709  0.936336  1
  Pr  Pr9  1  0.558605  0.940874  0.562472  1
  Pr  Pr10  1  0.940874  0.558605  0.938050  1
  Pr  Pr11  1  0.561558  0.561558  0.938442  1
  Pr  Pr12  1  0.939365  0.939365  0.560635  1
  Y  Y13  1  0.190750  0.811556  0.187592  1
  Y  Y14  1  0.811556  0.190750  0.810103  1
  Y  Y15  1  0.187952  0.187952  0.812048  1
  Mg  Mg16  1  0.581731  0.576357  0.579617  1
  Mg  Mg17  1  0.576357  0.581731  0.262294  1
  Mg  Mg18  1  0.577675  0.261633  0.582684  1
  Mg  Mg19  1  0.261633  0.577675  0.578008  1
  Ir  Ir20  1  0.138433  0.140328  0.140897  1
  Ir  Ir21  1  0.140328  0.138433  0.580342  1
  Ir  Ir22  1  0.145658  0.577255  0.137722  1
  Ir  Ir23  1  0.577255  0.145658  0.139365  1
