# generated using pymatgen
data_Lu12TlCdFe2Ru
_symmetry_space_group_name_H-M   'P 1'
_cell_length_a   8.16889769
_cell_length_b   8.16890023
_cell_length_c   8.16889872
_cell_angle_alpha   108.82703163
_cell_angle_beta   108.10926716
_cell_angle_gamma   111.49729911
_symmetry_Int_Tables_number   1
_chemical_formula_structural   Lu12TlCdFe2Ru
_chemical_formula_sum   'Lu12 Tl1 Cd1 Fe2 Ru1'
_cell_volume   419.22117605
_cell_formula_units_Z   1
loop_
 _symmetry_equiv_pos_site_id
 _symmetry_equiv_pos_as_xyz
  1  'x, y, z'
loop_
 _atom_site_type_symbol
 _atom_site_label
 _atom_site_symmetry_multiplicity
 _atom_site_fract_x
 _atom_site_fract_y
 _atom_site_fract_z
 _atom_site_occupancy
  Lu  Lu0  1  0.307851  0.308622  0.616475  1
  Lu  Lu1  1  0.692149  0.691378  0.383525  1
  Lu  Lu2  1  0.692148  0.308622  0.000771  1
  Lu  Lu3  1  0.307852  0.691378  0.999229  1
  Lu  Lu4  1  0.192139  0.430688  0.238548  1
  Lu  Lu5  1  0.807861  0.569312  0.761452  1
  Lu  Lu6  1  0.192136  0.953586  0.761451  1
  Lu  Lu7  1  0.955163  0.193155  0.762008  1
  Lu  Lu8  1  0.807864  0.046414  0.238549  1
  Lu  Lu9  1  0.044837  0.806845  0.237992  1
  Lu  Lu10  1  0.431148  0.193155  0.237991  1
  Lu  Lu11  1  0.568852  0.806845  0.762009  1
  Tl  Tl12  1  0.500000  0.000000  0.500000  1
  Cd  Cd13  1  0.000000  0.500000  0.500000  1
  Fe  Fe14  1  0.382854  0.382850  0.999996  1
  Fe  Fe15  1  0.617146  0.617150  0.000004  1
  Ru  Ru16  1  0.000000  0.000000  0.000000  1
