# generated using pymatgen
data_Ho5Co(P2Ru3)6
_symmetry_space_group_name_H-M   'P 1'
_cell_length_a   12.47633800
_cell_length_b   12.47633743
_cell_length_c   3.96392400
_cell_angle_alpha   90.00000000
_cell_angle_beta   90.00000000
_cell_angle_gamma   120.00000150
_symmetry_Int_Tables_number   1
_chemical_formula_structural   Ho5Co(P2Ru3)6
_chemical_formula_sum   'Ho5 Co1 P12 Ru18'
_cell_volume   534.35538242
_cell_formula_units_Z   1
loop_
 _symmetry_equiv_pos_site_id
 _symmetry_equiv_pos_as_xyz
  1  'x, y, z'
loop_
 _atom_site_type_symbol
 _atom_site_label
 _atom_site_symmetry_multiplicity
 _atom_site_fract_x
 _atom_site_fract_y
 _atom_site_fract_z
 _atom_site_occupancy
  Ho  Ho0  1  0.666667  0.333333  0.000000  1
  Ho  Ho1  1  0.333333  0.666667  0.000000  1
  Ho  Ho2  1  0.818132  0.818132  0.500000  1
  Ho  Ho3  1  0.181868  0.000000  0.500000  1
  Ho  Ho4  1  0.000000  0.181868  0.500000  1
  Co  Co5  1  0.000000  0.000000  0.000000  1
  P  P6  1  0.691704  0.168941  0.500000  1
  P  P7  1  0.831059  0.522764  0.500000  1
  P  P8  1  0.477236  0.308296  0.500000  1
  P  P9  1  0.168941  0.691704  0.500000  1
  P  P10  1  0.522764  0.831059  0.500000  1
  P  P11  1  0.308296  0.477236  0.500000  1
  P  P12  1  0.177205  0.177205  0.000000  1
  P  P13  1  0.822795  0.000000  0.000000  1
  P  P14  1  0.000000  0.822795  0.000000  1
  P  P15  1  0.628963  0.628963  0.000000  1
  P  P16  1  0.371037  0.000000  0.000000  1
  P  P17  1  0.000000  0.371037  0.000000  1
  Ru  Ru18  1  0.873488  0.363757  0.500000  1
  Ru  Ru19  1  0.636243  0.509732  0.500000  1
  Ru  Ru20  1  0.490268  0.126512  0.500000  1
  Ru  Ru21  1  0.363757  0.873488  0.500000  1
  Ru  Ru22  1  0.509732  0.636243  0.500000  1
  Ru  Ru23  1  0.126512  0.490268  0.500000  1
  Ru  Ru24  1  0.445506  0.445506  0.000000  1
  Ru  Ru25  1  0.554494  0.000000  0.000000  1
  Ru  Ru26  1  0.000000  0.554494  0.000000  1
  Ru  Ru27  1  0.808224  0.183362  0.000000  1
  Ru  Ru28  1  0.816638  0.624861  0.000000  1
  Ru  Ru29  1  0.375139  0.191776  0.000000  1
  Ru  Ru30  1  0.183362  0.808224  0.000000  1
  Ru  Ru31  1  0.624861  0.816638  0.000000  1
  Ru  Ru32  1  0.191776  0.375139  0.000000  1
  Ru  Ru33  1  0.280151  0.280151  0.500000  1
  Ru  Ru34  1  0.719849  0.000000  0.500000  1
  Ru  Ru35  1  0.000000  0.719849  0.500000  1
