# generated using pymatgen
data_Y2Lu2ScGa4
_symmetry_space_group_name_H-M   'P 1'
_cell_length_a   7.37395000
_cell_length_b   7.72696500
_cell_length_c   14.62990100
_cell_angle_alpha   90.00000000
_cell_angle_beta   90.00000000
_cell_angle_gamma   90.00000000
_symmetry_Int_Tables_number   1
_chemical_formula_structural   Y2Lu2ScGa4
_chemical_formula_sum   'Y8 Lu8 Sc4 Ga16'
_cell_volume   833.58620876
_cell_formula_units_Z   4
loop_
 _symmetry_equiv_pos_site_id
 _symmetry_equiv_pos_as_xyz
  1  'x, y, z'
loop_
 _atom_site_type_symbol
 _atom_site_label
 _atom_site_symmetry_multiplicity
 _atom_site_fract_x
 _atom_site_fract_y
 _atom_site_fract_z
 _atom_site_occupancy
  Y  Y0  1  0.014366  0.180576  0.095330  1
  Y  Y1  1  0.985634  0.819424  0.904670  1
  Y  Y2  1  0.485634  0.680576  0.904670  1
  Y  Y3  1  0.985634  0.819424  0.595330  1
  Y  Y4  1  0.514366  0.319424  0.095330  1
  Y  Y5  1  0.014366  0.180576  0.404670  1
  Y  Y6  1  0.514366  0.319424  0.404670  1
  Y  Y7  1  0.485634  0.680576  0.595330  1
  Lu  Lu8  1  0.328232  0.175634  0.624768  1
  Lu  Lu9  1  0.671768  0.824366  0.375232  1
  Lu  Lu10  1  0.171768  0.675634  0.375232  1
  Lu  Lu11  1  0.671768  0.824366  0.124768  1
  Lu  Lu12  1  0.828232  0.324366  0.624768  1
  Lu  Lu13  1  0.328232  0.175634  0.875232  1
  Lu  Lu14  1  0.828232  0.324366  0.875232  1
  Lu  Lu15  1  0.171768  0.675634  0.124768  1
  Sc  Sc16  1  0.160582  0.509106  0.750000  1
  Sc  Sc17  1  0.839418  0.490894  0.250000  1
  Sc  Sc18  1  0.339418  0.009106  0.250000  1
  Sc  Sc19  1  0.660582  0.990894  0.750000  1
  Ga  Ga20  1  0.026944  0.104326  0.750000  1
  Ga  Ga21  1  0.973056  0.895674  0.250000  1
  Ga  Ga22  1  0.473056  0.604326  0.250000  1
  Ga  Ga23  1  0.526944  0.395674  0.750000  1
  Ga  Ga24  1  0.282489  0.867966  0.750000  1
  Ga  Ga25  1  0.717511  0.132034  0.250000  1
  Ga  Ga26  1  0.217511  0.367966  0.250000  1
  Ga  Ga27  1  0.782489  0.632034  0.750000  1
  Ga  Ga28  1  0.159492  0.469418  0.541199  1
  Ga  Ga29  1  0.840508  0.530582  0.458801  1
  Ga  Ga30  1  0.340508  0.969418  0.458801  1
  Ga  Ga31  1  0.840508  0.530582  0.041199  1
  Ga  Ga32  1  0.659492  0.030582  0.541199  1
  Ga  Ga33  1  0.159492  0.469418  0.958801  1
  Ga  Ga34  1  0.659492  0.030582  0.958801  1
  Ga  Ga35  1  0.340508  0.969418  0.041199  1
