# generated using pymatgen
data_CaEuAl3O7
_symmetry_space_group_name_H-M   'P 1'
_cell_length_a   7.79209283
_cell_length_b   7.79209318
_cell_length_c   5.14212600
_cell_angle_alpha   90.00000000
_cell_angle_beta   90.00000000
_cell_angle_gamma   89.52160021
_symmetry_Int_Tables_number   1
_chemical_formula_structural   CaEuAl3O7
_chemical_formula_sum   'Ca2 Eu2 Al6 O14'
_cell_volume   312.20210726
_cell_formula_units_Z   2
loop_
 _symmetry_equiv_pos_site_id
 _symmetry_equiv_pos_as_xyz
  1  'x, y, z'
loop_
 _atom_site_type_symbol
 _atom_site_label
 _atom_site_symmetry_multiplicity
 _atom_site_fract_x
 _atom_site_fract_y
 _atom_site_fract_z
 _atom_site_occupancy
  Ca  Ca0  1  0.339783  0.660217  0.516314  1
  Ca  Ca1  1  0.660217  0.339783  0.516314  1
  Eu  Eu2  1  0.162790  0.162790  0.488830  1
  Eu  Eu3  1  0.837210  0.837210  0.488830  1
  Al  Al4  1  0.500000  0.000000  0.996102  1
  Al  Al5  1  0.000000  0.500000  0.996102  1
  Al  Al6  1  0.145232  0.854768  0.957698  1
  Al  Al7  1  0.356609  0.356609  0.043279  1
  Al  Al8  1  0.854768  0.145232  0.957698  1
  Al  Al9  1  0.643391  0.643391  0.043279  1
  O  O10  1  0.339315  0.908728  0.800657  1
  O  O11  1  0.158063  0.404832  0.197583  1
  O  O12  1  0.660685  0.091272  0.800657  1
  O  O13  1  0.841937  0.595168  0.197583  1
  O  O14  1  0.595168  0.841937  0.197583  1
  O  O15  1  0.908728  0.339315  0.800657  1
  O  O16  1  0.404832  0.158063  0.197583  1
  O  O17  1  0.091272  0.660685  0.800657  1
  O  O18  1  0.136666  0.863334  0.298720  1
  O  O19  1  0.352660  0.352660  0.703392  1
  O  O20  1  0.863334  0.136666  0.298720  1
  O  O21  1  0.647340  0.647340  0.703392  1
  O  O22  1  0.500000  0.500000  0.186339  1
  O  O23  1  0.000000  0.000000  0.812053  1
