# generated using pymatgen
data_Dy20(Ir3Os)3
_symmetry_space_group_name_H-M   'P 1'
_cell_length_a   10.86941000
_cell_length_b   10.86941000
_cell_length_c   6.41425400
_cell_angle_alpha   90.00000000
_cell_angle_beta   90.00000000
_cell_angle_gamma   90.00000000
_symmetry_Int_Tables_number   1
_chemical_formula_structural   Dy20(Ir3Os)3
_chemical_formula_sum   'Dy20 Ir9 Os3'
_cell_volume   757.80609762
_cell_formula_units_Z   1
loop_
 _symmetry_equiv_pos_site_id
 _symmetry_equiv_pos_as_xyz
  1  'x, y, z'
loop_
 _atom_site_type_symbol
 _atom_site_label
 _atom_site_symmetry_multiplicity
 _atom_site_fract_x
 _atom_site_fract_y
 _atom_site_fract_z
 _atom_site_occupancy
  Dy  Dy0  1  0.294209  0.086709  0.378005  1
  Dy  Dy1  1  0.294210  0.913400  0.877888  1
  Dy  Dy2  1  0.705790  0.086600  0.877888  1
  Dy  Dy3  1  0.705791  0.913291  0.378005  1
  Dy  Dy4  1  0.586600  0.794210  0.877888  1
  Dy  Dy5  1  0.586709  0.205791  0.378005  1
  Dy  Dy6  1  0.413291  0.794209  0.378005  1
  Dy  Dy7  1  0.413400  0.205790  0.877888  1
  Dy  Dy8  1  0.207440  0.412686  0.623294  1
  Dy  Dy9  1  0.207225  0.587311  0.120076  1
  Dy  Dy10  1  0.792775  0.412689  0.120076  1
  Dy  Dy11  1  0.792560  0.587314  0.623294  1
  Dy  Dy12  1  0.912689  0.707225  0.120076  1
  Dy  Dy13  1  0.912686  0.292560  0.623294  1
  Dy  Dy14  1  0.087314  0.707440  0.623294  1
  Dy  Dy15  1  0.087311  0.292775  0.120076  1
  Dy  Dy16  1  0.000000  0.000000  0.499837  1
  Dy  Dy17  1  0.000000  0.000000  0.999932  1
  Dy  Dy18  1  0.500000  0.500000  0.999932  1
  Dy  Dy19  1  0.500000  0.500000  0.499837  1
  Ir  Ir20  1  0.847881  0.153080  0.250370  1
  Ir  Ir21  1  0.847793  0.846928  0.750007  1
  Ir  Ir22  1  0.152207  0.153072  0.750007  1
  Ir  Ir23  1  0.152119  0.846920  0.250370  1
  Ir  Ir24  1  0.653072  0.347793  0.750007  1
  Ir  Ir25  1  0.653080  0.652119  0.250370  1
  Ir  Ir26  1  0.346920  0.347881  0.250370  1
  Ir  Ir27  1  0.346928  0.652207  0.750007  1
  Ir  Ir28  1  0.000000  0.500000  0.377180  1
  Os  Os29  1  0.500000  0.000000  0.124321  1
  Os  Os30  1  0.500000  0.000000  0.624267  1
  Os  Os31  1  0.000000  0.500000  0.876132  1
