# generated using pymatgen
data_Hf4Ti2Ge3Mo2P
_symmetry_space_group_name_H-M   'P 1'
_cell_length_a   3.57548500
_cell_length_b   6.90053772
_cell_length_c   8.33413706
_cell_angle_alpha   90.36378699
_cell_angle_beta   90.00000000
_cell_angle_gamma   90.00000000
_symmetry_Int_Tables_number   1
_chemical_formula_structural   Hf4Ti2Ge3Mo2P
_chemical_formula_sum   'Hf4 Ti2 Ge3 Mo2 P1'
_cell_volume   205.62209471
_cell_formula_units_Z   1
loop_
 _symmetry_equiv_pos_site_id
 _symmetry_equiv_pos_as_xyz
  1  'x, y, z'
loop_
 _atom_site_type_symbol
 _atom_site_label
 _atom_site_symmetry_multiplicity
 _atom_site_fract_x
 _atom_site_fract_y
 _atom_site_fract_z
 _atom_site_occupancy
  Hf  Hf0  1  0.250000  0.553775  0.161139  1
  Hf  Hf1  1  0.250000  0.055478  0.337364  1
  Hf  Hf2  1  0.750000  0.465952  0.835679  1
  Hf  Hf3  1  0.750000  0.949765  0.671229  1
  Ti  Ti4  1  0.250000  0.625647  0.562151  1
  Ti  Ti5  1  0.250000  0.118889  0.940561  1
  Ge  Ge6  1  0.250000  0.251346  0.645192  1
  Ge  Ge7  1  0.750000  0.246961  0.137167  1
  Ge  Ge8  1  0.750000  0.749952  0.360926  1
  Mo  Mo9  1  0.750000  0.367911  0.441784  1
  Mo  Mo10  1  0.750000  0.861185  0.051931  1
  P  P11  1  0.250000  0.753137  0.854877  1
