# generated using pymatgen
data_Y3Zr5(Nb3Si4)4
_symmetry_space_group_name_H-M   'P 1'
_cell_length_a   6.95745591
_cell_length_b   6.95805879
_cell_length_c   12.90188647
_cell_angle_alpha   89.97910115
_cell_angle_beta   90.06785834
_cell_angle_gamma   89.86707999
_symmetry_Int_Tables_number   1
_chemical_formula_structural   Y3Zr5(Nb3Si4)4
_chemical_formula_sum   'Y3 Zr5 Nb12 Si16'
_cell_volume   624.58315963
_cell_formula_units_Z   1
loop_
 _symmetry_equiv_pos_site_id
 _symmetry_equiv_pos_as_xyz
  1  'x, y, z'
loop_
 _atom_site_type_symbol
 _atom_site_label
 _atom_site_symmetry_multiplicity
 _atom_site_fract_x
 _atom_site_fract_y
 _atom_site_fract_z
 _atom_site_occupancy
  Y  Y0  1  0.997669  0.658775  0.032282  1
  Y  Y1  1  0.003035  0.339884  0.531299  1
  Y  Y2  1  0.658983  0.997781  0.967956  1
  Zr  Zr3  1  0.158282  0.497694  0.782511  1
  Zr  Zr4  1  0.841940  0.501915  0.284015  1
  Zr  Zr5  1  0.497983  0.158866  0.217919  1
  Zr  Zr6  1  0.501928  0.842603  0.716857  1
  Zr  Zr7  1  0.345317  0.995572  0.466770  1
  Nb  Nb8  1  0.347845  0.506917  0.375800  1
  Nb  Nb9  1  0.845035  0.996592  0.373601  1
  Nb  Nb10  1  0.005052  0.154751  0.128608  1
  Nb  Nb11  1  0.995366  0.848093  0.625421  1
  Nb  Nb12  1  0.651506  0.493083  0.874077  1
  Nb  Nb13  1  0.503862  0.348321  0.623521  1
  Nb  Nb14  1  0.493387  0.651738  0.126222  1
  Nb  Nb15  1  0.155035  0.004134  0.871821  1
  Nb  Nb16  1  0.668891  0.672541  0.499972  1
  Nb  Nb17  1  0.829282  0.170460  0.749003  1
  Nb  Nb18  1  0.171141  0.830206  0.251331  1
  Nb  Nb19  1  0.329528  0.329657  0.000228  1
  Si  Si20  1  0.045925  0.707267  0.436688  1
  Si  Si21  1  0.956273  0.294618  0.936316  1
  Si  Si22  1  0.700835  0.045136  0.563007  1
  Si  Si23  1  0.203741  0.453369  0.188439  1
  Si  Si24  1  0.796327  0.545710  0.687044  1
  Si  Si25  1  0.453528  0.203907  0.812099  1
  Si  Si26  1  0.545108  0.797596  0.313243  1
  Si  Si27  1  0.295172  0.956200  0.063720  1
  Si  Si28  1  0.866565  0.791920  0.817469  1
  Si  Si29  1  0.137085  0.205151  0.320910  1
  Si  Si30  1  0.792082  0.866674  0.182760  1
  Si  Si31  1  0.295673  0.639110  0.572250  1
  Si  Si32  1  0.704197  0.364355  0.073156  1
  Si  Si33  1  0.632029  0.293165  0.426727  1
  Si  Si34  1  0.364363  0.703827  0.927132  1
  Si  Si35  1  0.210027  0.132414  0.679827  1
