# generated using pymatgen
data_PrSm3(OsO4)4
_symmetry_space_group_name_H-M   'P 1'
_cell_length_a   5.43369079
_cell_length_b   7.70580051
_cell_length_c   7.50787000
_cell_angle_alpha   79.52541197
_cell_angle_beta   90.88677864
_cell_angle_gamma   93.56041371
_symmetry_Int_Tables_number   1
_chemical_formula_structural   PrSm3(OsO4)4
_chemical_formula_sum   'Pr1 Sm3 Os4 O16'
_cell_volume   308.52346468
_cell_formula_units_Z   1
loop_
 _symmetry_equiv_pos_site_id
 _symmetry_equiv_pos_as_xyz
  1  'x, y, z'
loop_
 _atom_site_type_symbol
 _atom_site_label
 _atom_site_symmetry_multiplicity
 _atom_site_fract_x
 _atom_site_fract_y
 _atom_site_fract_z
 _atom_site_occupancy
  Pr  Pr0  1  0.260012  0.631505  0.605739  1
  Sm  Sm1  1  0.190666  0.675239  0.098048  1
  Sm  Sm2  1  0.802806  0.321933  0.902171  1
  Sm  Sm3  1  0.733093  0.375128  0.394134  1
  Os  Os4  1  0.758678  0.838864  0.795305  1
  Os  Os5  1  0.713926  0.837801  0.298284  1
  Os  Os6  1  0.284677  0.163643  0.703292  1
  Os  Os7  1  0.241177  0.162503  0.208925  1
  O  O8  1  0.065469  0.959095  0.704158  1
  O  O9  1  0.405081  0.940119  0.206051  1
  O  O10  1  0.638799  0.827838  0.551133  1
  O  O11  1  0.840309  0.838396  0.050041  1
  O  O12  1  0.460151  0.703676  0.871671  1
  O  O13  1  0.942115  0.612783  0.832557  1
  O  O14  1  0.966661  0.661977  0.372823  1
  O  O15  1  0.495677  0.614094  0.317464  1
  O  O16  1  0.507916  0.388413  0.675526  1
  O  O17  1  0.024731  0.331972  0.622445  1
  O  O18  1  0.050697  0.382993  0.176249  1
  O  O19  1  0.540798  0.298626  0.134772  1
  O  O20  1  0.168274  0.170766  0.948067  1
  O  O21  1  0.369290  0.167937  0.451372  1
  O  O22  1  0.596801  0.061013  0.791842  1
  O  O23  1  0.942199  0.033687  0.287930  1
