# generated using pymatgen
data_Ta3Ga2BIr
_symmetry_space_group_name_H-M   'P 1'
_cell_length_a   8.38108457
_cell_length_b   8.38108486
_cell_length_c   8.38116300
_cell_angle_alpha   60.00137331
_cell_angle_beta   60.00137202
_cell_angle_gamma   60.00051878
_symmetry_Int_Tables_number   1
_chemical_formula_structural   Ta3Ga2BIr
_chemical_formula_sum   'Ta12 Ga8 B4 Ir4'
_cell_volume   416.29429911
_cell_formula_units_Z   4
loop_
 _symmetry_equiv_pos_site_id
 _symmetry_equiv_pos_as_xyz
  1  'x, y, z'
loop_
 _atom_site_type_symbol
 _atom_site_label
 _atom_site_symmetry_multiplicity
 _atom_site_fract_x
 _atom_site_fract_y
 _atom_site_fract_z
 _atom_site_occupancy
  Ta  Ta0  1  0.556879  0.943115  0.556888  1
  Ta  Ta1  1  0.306885  0.693121  0.693112  1
  Ta  Ta2  1  0.693110  0.306889  0.306885  1
  Ta  Ta3  1  0.306889  0.693110  0.306885  1
  Ta  Ta4  1  0.693114  0.693114  0.306886  1
  Ta  Ta5  1  0.306884  0.306884  0.693108  1
  Ta  Ta6  1  0.556886  0.556886  0.943114  1
  Ta  Ta7  1  0.943115  0.556879  0.556888  1
  Ta  Ta8  1  0.556890  0.943111  0.943115  1
  Ta  Ta9  1  0.943116  0.943116  0.556892  1
  Ta  Ta10  1  0.693121  0.306885  0.693112  1
  Ta  Ta11  1  0.943111  0.556890  0.943115  1
  Ga  Ga12  1  0.913191  0.913191  0.913201  1
  Ga  Ga13  1  0.989594  0.336803  0.336792  1
  Ga  Ga14  1  0.336803  0.989594  0.336792  1
  Ga  Ga15  1  0.336800  0.336800  0.989591  1
  Ga  Ga16  1  0.913197  0.260406  0.913208  1
  Ga  Ga17  1  0.913200  0.913200  0.260409  1
  Ga  Ga18  1  0.260406  0.913197  0.913208  1
  Ga  Ga19  1  0.336809  0.336809  0.336799  1
  B  B20  1  0.625000  0.625000  0.625000  1
  B  B21  1  0.125000  0.625000  0.625000  1
  B  B22  1  0.625000  0.125000  0.625000  1
  B  B23  1  0.625000  0.625000  0.125000  1
  Ir  Ir24  1  0.125000  0.125000  0.125000  1
  Ir  Ir25  1  0.625000  0.125000  0.125000  1
  Ir  Ir26  1  0.125000  0.625000  0.125000  1
  Ir  Ir27  1  0.125000  0.125000  0.625000  1
