# generated using pymatgen
data_Pr8Be3Si12Ir
_symmetry_space_group_name_H-M   'P 1'
_cell_length_a   8.07262600
_cell_length_b   8.07262670
_cell_length_c   8.67850000
_cell_angle_alpha   90.00000000
_cell_angle_beta   90.00000000
_cell_angle_gamma   119.99999713
_symmetry_Int_Tables_number   1
_chemical_formula_structural   Pr8Be3Si12Ir
_chemical_formula_sum   'Pr8 Be3 Si12 Ir1'
_cell_volume   489.78447445
_cell_formula_units_Z   1
loop_
 _symmetry_equiv_pos_site_id
 _symmetry_equiv_pos_as_xyz
  1  'x, y, z'
loop_
 _atom_site_type_symbol
 _atom_site_label
 _atom_site_symmetry_multiplicity
 _atom_site_fract_x
 _atom_site_fract_y
 _atom_site_fract_z
 _atom_site_occupancy
  Pr  Pr0  1  0.499596  0.500404  0.751426  1
  Pr  Pr1  1  0.499688  0.500312  0.248652  1
  Pr  Pr2  1  0.000807  0.500404  0.751426  1
  Pr  Pr3  1  0.000626  0.500312  0.248652  1
  Pr  Pr4  1  0.499596  0.999193  0.751426  1
  Pr  Pr5  1  0.499688  0.999374  0.248652  1
  Pr  Pr6  1  0.000000  0.000000  0.750267  1
  Pr  Pr7  1  0.000000  0.000000  0.249752  1
  Be  Be8  1  0.666667  0.333333  0.998932  1
  Be  Be9  1  0.333333  0.666667  0.001108  1
  Be  Be10  1  0.333333  0.666667  0.499438  1
  Si  Si11  1  0.827404  0.172596  0.000127  1
  Si  Si12  1  0.172017  0.827983  0.000014  1
  Si  Si13  1  0.345191  0.172596  0.000127  1
  Si  Si14  1  0.169464  0.830536  0.499897  1
  Si  Si15  1  0.655966  0.827983  0.000014  1
  Si  Si16  1  0.831903  0.168097  0.500124  1
  Si  Si17  1  0.827404  0.654809  0.000127  1
  Si  Si18  1  0.661071  0.830536  0.499897  1
  Si  Si19  1  0.172017  0.344034  0.000014  1
  Si  Si20  1  0.336195  0.168097  0.500124  1
  Si  Si21  1  0.169464  0.338929  0.499897  1
  Si  Si22  1  0.831903  0.663805  0.500124  1
  Ir  Ir23  1  0.666667  0.333333  0.499787  1
