# generated using pymatgen
data_Dy2ErAl12CuRu3
_symmetry_space_group_name_H-M   'P 1'
_cell_length_a   8.81735745
_cell_length_b   8.81887080
_cell_length_c   9.46241600
_cell_angle_alpha   90.00000000
_cell_angle_beta   90.00000000
_cell_angle_gamma   119.53889979
_symmetry_Int_Tables_number   1
_chemical_formula_structural   Dy2ErAl12CuRu3
_chemical_formula_sum   'Dy4 Er2 Al24 Cu2 Ru6'
_cell_volume   640.15226603
_cell_formula_units_Z   2
loop_
 _symmetry_equiv_pos_site_id
 _symmetry_equiv_pos_as_xyz
  1  'x, y, z'
loop_
 _atom_site_type_symbol
 _atom_site_label
 _atom_site_symmetry_multiplicity
 _atom_site_fract_x
 _atom_site_fract_y
 _atom_site_fract_z
 _atom_site_occupancy
  Dy  Dy0  1  0.616119  0.811543  0.250000  1
  Dy  Dy1  1  0.806721  0.193420  0.750000  1
  Dy  Dy2  1  0.811930  0.616394  0.750000  1
  Dy  Dy3  1  0.383215  0.188162  0.750000  1
  Er  Er4  1  0.194723  0.805202  0.250000  1
  Er  Er5  1  0.188650  0.385554  0.250000  1
  Al  Al6  1  0.559951  0.439348  0.250000  1
  Al  Al7  1  0.559701  0.121980  0.250000  1
  Al  Al8  1  0.878321  0.440371  0.250000  1
  Al  Al9  1  0.439379  0.560707  0.750000  1
  Al  Al10  1  0.440019  0.877677  0.750000  1
  Al  Al11  1  0.122545  0.560157  0.750000  1
  Al  Al12  1  0.323666  0.157162  0.421455  1
  Al  Al13  1  0.836568  0.164082  0.422500  1
  Al  Al14  1  0.842901  0.676122  0.421614  1
  Al  Al15  1  0.675596  0.842216  0.577433  1
  Al  Al16  1  0.164142  0.836133  0.576163  1
  Al  Al17  1  0.157526  0.324258  0.577239  1
  Al  Al18  1  0.675596  0.842216  0.922567  1
  Al  Al19  1  0.164142  0.836133  0.923837  1
  Al  Al20  1  0.157526  0.324258  0.922761  1
  Al  Al21  1  0.323666  0.157162  0.078545  1
  Al  Al22  1  0.836568  0.164082  0.077500  1
  Al  Al23  1  0.842901  0.676122  0.078386  1
  Al  Al24  1  0.667534  0.332159  0.520404  1
  Al  Al25  1  0.331931  0.667656  0.478029  1
  Al  Al26  1  0.331931  0.667656  0.021971  1
  Al  Al27  1  0.667534  0.332159  0.979596  1
  Al  Al28  1  0.999349  0.002759  0.250000  1
  Al  Al29  1  0.001984  0.997863  0.750000  1
  Cu  Cu30  1  0.499086  0.499880  0.499868  1
  Cu  Cu31  1  0.499086  0.499880  0.000132  1
  Ru  Ru32  1  0.999965  0.999801  0.499799  1
  Ru  Ru33  1  0.999965  0.999801  0.000201  1
  Ru  Ru34  1  0.499731  0.999770  0.499581  1
  Ru  Ru35  1  0.000052  0.500192  0.499536  1
  Ru  Ru36  1  0.499731  0.999770  0.000419  1
  Ru  Ru37  1  0.000052  0.500192  0.000464  1
