# generated using pymatgen
data_Tb2PrAl7Cu2
_symmetry_space_group_name_H-M   'P 1'
_cell_length_a   9.13968398
_cell_length_b   9.13968543
_cell_length_c   9.13968401
_cell_angle_alpha   35.17692895
_cell_angle_beta   35.17692706
_cell_angle_gamma   35.17692428
_symmetry_Int_Tables_number   1
_chemical_formula_structural   Tb2PrAl7Cu2
_chemical_formula_sum   'Tb2 Pr1 Al7 Cu2'
_cell_volume   226.31805281
_cell_formula_units_Z   1
loop_
 _symmetry_equiv_pos_site_id
 _symmetry_equiv_pos_as_xyz
  1  'x, y, z'
loop_
 _atom_site_type_symbol
 _atom_site_label
 _atom_site_symmetry_multiplicity
 _atom_site_fract_x
 _atom_site_fract_y
 _atom_site_fract_z
 _atom_site_occupancy
  Tb  Tb0  1  0.857805  0.857805  0.857805  1
  Tb  Tb1  1  0.142195  0.142195  0.142195  1
  Pr  Pr2  1  0.000000  0.000000  0.000000  1
  Al  Al3  1  0.417619  0.417619  0.926383  1
  Al  Al4  1  0.926383  0.417619  0.417619  1
  Al  Al5  1  0.417619  0.926383  0.417619  1
  Al  Al6  1  0.500000  0.500000  0.500000  1
  Al  Al7  1  0.582381  0.073617  0.582381  1
  Al  Al8  1  0.073617  0.582381  0.582381  1
  Al  Al9  1  0.582381  0.582381  0.073617  1
  Cu  Cu10  1  0.664584  0.664584  0.664584  1
  Cu  Cu11  1  0.335416  0.335416  0.335416  1
