# generated using pymatgen
data_Nd15Er(CdCo)4
_symmetry_space_group_name_H-M   'P 1'
_cell_length_a   9.80300124
_cell_length_b   9.80300017
_cell_length_c   9.80888000
_cell_angle_alpha   59.98015684
_cell_angle_beta   59.98016042
_cell_angle_gamma   60.07944796
_symmetry_Int_Tables_number   1
_chemical_formula_structural   Nd15Er(CdCo)4
_chemical_formula_sum   'Nd15 Er1 Cd4 Co4'
_cell_volume   666.73324059
_cell_formula_units_Z   1
loop_
 _symmetry_equiv_pos_site_id
 _symmetry_equiv_pos_as_xyz
  1  'x, y, z'
loop_
 _atom_site_type_symbol
 _atom_site_label
 _atom_site_symmetry_multiplicity
 _atom_site_fract_x
 _atom_site_fract_y
 _atom_site_fract_z
 _atom_site_occupancy
  Nd  Nd0  1  0.151398  0.540905  0.153848  1
  Nd  Nd1  1  0.686194  0.310970  0.689192  1
  Nd  Nd2  1  0.686194  0.310970  0.313644  1
  Nd  Nd3  1  0.940119  0.559769  0.562525  1
  Nd  Nd4  1  0.540905  0.151398  0.153848  1
  Nd  Nd5  1  0.155769  0.155769  0.540039  1
  Nd  Nd6  1  0.941023  0.941023  0.558977  1
  Nd  Nd7  1  0.310970  0.686194  0.313644  1
  Nd  Nd8  1  0.559769  0.940119  0.937588  1
  Nd  Nd9  1  0.559769  0.940119  0.562525  1
  Nd  Nd10  1  0.690818  0.690818  0.309182  1
  Nd  Nd11  1  0.559869  0.559869  0.940131  1
  Nd  Nd12  1  0.940119  0.559769  0.937588  1
  Nd  Nd13  1  0.310970  0.686194  0.689192  1
  Nd  Nd14  1  0.155769  0.155769  0.148424  1
  Er  Er15  1  0.308609  0.308609  0.691391  1
  Cd  Cd16  1  0.922498  0.239513  0.918994  1
  Cd  Cd17  1  0.920530  0.920530  0.920241  1
  Cd  Cd18  1  0.920530  0.920530  0.238700  1
  Cd  Cd19  1  0.239513  0.922498  0.918994  1
  Co  Co20  1  0.359042  0.359042  0.919990  1
  Co  Co21  1  0.358546  0.922038  0.359708  1
  Co  Co22  1  0.922038  0.358546  0.359708  1
  Co  Co23  1  0.359042  0.359042  0.361927  1
