# generated using pymatgen
data_CeYSc3Si7Pt9
_symmetry_space_group_name_H-M   'P 1'
_cell_length_a   10.07283100
_cell_length_b   10.07283029
_cell_length_c   4.00127500
_cell_angle_alpha   90.00000000
_cell_angle_beta   90.00000000
_cell_angle_gamma   119.99999906
_symmetry_Int_Tables_number   1
_chemical_formula_structural   CeYSc3Si7Pt9
_chemical_formula_sum   'Ce1 Y1 Sc3 Si7 Pt9'
_cell_volume   351.58642698
_cell_formula_units_Z   1
loop_
 _symmetry_equiv_pos_site_id
 _symmetry_equiv_pos_as_xyz
  1  'x, y, z'
loop_
 _atom_site_type_symbol
 _atom_site_label
 _atom_site_symmetry_multiplicity
 _atom_site_fract_x
 _atom_site_fract_y
 _atom_site_fract_z
 _atom_site_occupancy
  Ce  Ce0  1  0.333333  0.666667  0.500000  1
  Y  Y1  1  0.000000  0.000000  0.000000  1
  Sc  Sc2  1  0.893064  0.454302  0.500000  1
  Sc  Sc3  1  0.561238  0.106936  0.500000  1
  Sc  Sc4  1  0.545698  0.438762  0.500000  1
  Si  Si5  1  0.245674  0.194945  0.500000  1
  Si  Si6  1  0.805055  0.050730  0.500000  1
  Si  Si7  1  0.949270  0.754326  0.500000  1
  Si  Si8  1  0.560700  0.647635  0.000000  1
  Si  Si9  1  0.352365  0.913066  0.000000  1
  Si  Si10  1  0.086934  0.439300  0.000000  1
  Si  Si11  1  0.666667  0.333333  0.000000  1
  Pt  Pt12  1  0.217969  0.936036  0.500000  1
  Pt  Pt13  1  0.063964  0.281934  0.500000  1
  Pt  Pt14  1  0.718066  0.782031  0.500000  1
  Pt  Pt15  1  0.314721  0.413840  0.000000  1
  Pt  Pt16  1  0.586160  0.900881  0.000000  1
  Pt  Pt17  1  0.099119  0.685279  0.000000  1
  Pt  Pt18  1  0.383941  0.173259  0.000000  1
  Pt  Pt19  1  0.826741  0.210682  0.000000  1
  Pt  Pt20  1  0.789318  0.616059  0.000000  1
