# generated using pymatgen
data_Tb20IrRu6Pt5
_symmetry_space_group_name_H-M   'P 1'
_cell_length_a   10.94565499
_cell_length_b   10.93021570
_cell_length_c   6.48028595
_cell_angle_alpha   90.00697798
_cell_angle_beta   89.91269036
_cell_angle_gamma   90.20006848
_symmetry_Int_Tables_number   1
_chemical_formula_structural   Tb20IrRu6Pt5
_chemical_formula_sum   'Tb20 Ir1 Ru6 Pt5'
_cell_volume   775.28521587
_cell_formula_units_Z   1
loop_
 _symmetry_equiv_pos_site_id
 _symmetry_equiv_pos_as_xyz
  1  'x, y, z'
loop_
 _atom_site_type_symbol
 _atom_site_label
 _atom_site_symmetry_multiplicity
 _atom_site_fract_x
 _atom_site_fract_y
 _atom_site_fract_z
 _atom_site_occupancy
  Tb  Tb0  1  0.296798  0.085386  0.376328  1
  Tb  Tb1  1  0.296602  0.909994  0.876665  1
  Tb  Tb2  1  0.708433  0.083983  0.878886  1
  Tb  Tb3  1  0.708270  0.915332  0.378492  1
  Tb  Tb4  1  0.587967  0.795293  0.873843  1
  Tb  Tb5  1  0.591057  0.203930  0.375859  1
  Tb  Tb6  1  0.414178  0.794756  0.379422  1
  Tb  Tb7  1  0.415482  0.201969  0.874389  1
  Tb  Tb8  1  0.203940  0.418610  0.626316  1
  Tb  Tb9  1  0.204730  0.586255  0.119912  1
  Tb  Tb10  1  0.795455  0.409889  0.124568  1
  Tb  Tb11  1  0.796825  0.590747  0.625144  1
  Tb  Tb12  1  0.912135  0.705405  0.119621  1
  Tb  Tb13  1  0.912368  0.294820  0.619440  1
  Tb  Tb14  1  0.085317  0.707088  0.625836  1
  Tb  Tb15  1  0.081685  0.293063  0.126220  1
  Tb  Tb16  1  0.995518  0.001028  0.500387  1
  Tb  Tb17  1  0.995324  0.998796  0.999631  1
  Tb  Tb18  1  0.498501  0.501499  0.999066  1
  Tb  Tb19  1  0.498925  0.501731  0.500669  1
  Ir  Ir20  1  0.348681  0.651771  0.750205  1
  Ru  Ru21  1  0.847982  0.153538  0.249576  1
  Ru  Ru22  1  0.847982  0.846213  0.748977  1
  Ru  Ru23  1  0.498963  0.000571  0.125451  1
  Ru  Ru24  1  0.498905  0.000375  0.624062  1
  Ru  Ru25  1  0.999494  0.500165  0.876204  1
  Ru  Ru26  1  0.999625  0.499824  0.374808  1
  Pt  Pt27  1  0.154357  0.153805  0.750284  1
  Pt  Pt28  1  0.153784  0.846958  0.250397  1
  Pt  Pt29  1  0.651348  0.348615  0.749757  1
  Pt  Pt30  1  0.652579  0.652265  0.249709  1
  Pt  Pt31  1  0.346791  0.346325  0.249876  1
