# generated using pymatgen
data_V5In(AsO4)6
_symmetry_space_group_name_H-M   'P 1'
_cell_length_a   9.47581397
_cell_length_b   9.47581355
_cell_length_c   9.49930498
_cell_angle_alpha   138.62488920
_cell_angle_beta   109.64782784
_cell_angle_gamma   84.87493285
_symmetry_Int_Tables_number   1
_chemical_formula_structural   V5In(AsO4)6
_chemical_formula_sum   'V5 In1 As6 O24'
_cell_volume   512.44266335
_cell_formula_units_Z   1
loop_
 _symmetry_equiv_pos_site_id
 _symmetry_equiv_pos_as_xyz
  1  'x, y, z'
loop_
 _atom_site_type_symbol
 _atom_site_label
 _atom_site_symmetry_multiplicity
 _atom_site_fract_x
 _atom_site_fract_y
 _atom_site_fract_z
 _atom_site_occupancy
  V  V0  1  0.999170  0.500800  0.502802  1
  V  V1  1  0.497998  0.996369  0.497198  1
  V  V2  1  0.884943  0.884943  0.500000  1
  V  V3  1  0.619432  0.119432  0.000000  1
  V  V4  1  0.114176  0.114176  0.500000  1
  In  In5  1  0.387773  0.887773  0.000000  1
  As  As6  1  0.250493  0.817513  0.565095  1
  As  As7  1  0.752418  0.185398  0.434905  1
  As  As8  1  0.824685  0.324685  0.000000  1
  As  As9  1  0.677372  0.677372  0.500000  1
  As  As10  1  0.171704  0.671704  0.000000  1
  As  As11  1  0.322325  0.322325  0.500000  1
  O  O12  1  0.119394  0.971766  0.592013  1
  O  O13  1  0.383433  0.983821  0.850824  1
  O  O14  1  0.632997  0.032608  0.149176  1
  O  O15  1  0.879756  0.027383  0.407987  1
  O  O16  1  0.151496  0.588813  0.449762  1
  O  O17  1  0.352054  0.783324  0.428117  1
  O  O18  1  0.855207  0.423937  0.571883  1
  O  O19  1  0.639051  0.201733  0.550238  1
  O  O20  1  0.138188  0.400670  0.826119  1
  O  O21  1  0.345187  0.196495  0.262038  1
  O  O22  1  0.434455  0.583148  0.737962  1
  O  O23  1  0.074551  0.812070  0.173881  1
  O  O24  1  0.652882  0.810338  0.430173  1
  O  O25  1  0.850405  0.279308  0.157499  1
  O  O26  1  0.621809  0.192907  0.842501  1
  O  O27  1  0.880165  0.722710  0.569827  1
  O  O28  1  0.344988  0.183691  0.563873  1
  O  O29  1  0.142005  0.718325  0.843446  1
  O  O30  1  0.374878  0.798559  0.156554  1
  O  O31  1  0.119819  0.281115  0.436127  1
  O  O32  1  0.921959  0.185888  0.826527  1
  O  O33  1  0.580501  0.407132  0.264163  1
  O  O34  1  0.642968  0.816338  0.735837  1
  O  O35  1  0.859361  0.595432  0.173473  1
