# generated using pymatgen
data_Hf2Zr16Re8NiIr
_symmetry_space_group_name_H-M   'P 1'
_cell_length_a   8.68594640
_cell_length_b   8.68594752
_cell_length_c   8.63109773
_cell_angle_alpha   90.07960227
_cell_angle_beta   89.92039750
_cell_angle_gamma   120.02836255
_symmetry_Int_Tables_number   1
_chemical_formula_structural   Hf2Zr16Re8NiIr
_chemical_formula_sum   'Hf2 Zr16 Re8 Ni1 Ir1'
_cell_volume   563.77558015
_cell_formula_units_Z   1
loop_
 _symmetry_equiv_pos_site_id
 _symmetry_equiv_pos_as_xyz
  1  'x, y, z'
loop_
 _atom_site_type_symbol
 _atom_site_label
 _atom_site_symmetry_multiplicity
 _atom_site_fract_x
 _atom_site_fract_y
 _atom_site_fract_z
 _atom_site_occupancy
  Hf  Hf0  1  0.194079  0.388009  0.055714  1
  Hf  Hf1  1  0.611991  0.805921  0.055714  1
  Zr  Zr2  1  0.195811  0.804189  0.445334  1
  Zr  Zr3  1  0.195994  0.391589  0.445403  1
  Zr  Zr4  1  0.608411  0.804006  0.445403  1
  Zr  Zr5  1  0.802355  0.197645  0.558082  1
  Zr  Zr6  1  0.802303  0.605163  0.557921  1
  Zr  Zr7  1  0.394837  0.197697  0.557921  1
  Zr  Zr8  1  0.802363  0.197637  0.942572  1
  Zr  Zr9  1  0.802476  0.605831  0.941932  1
  Zr  Zr10  1  0.394169  0.197524  0.941932  1
  Zr  Zr11  1  0.196070  0.803930  0.053530  1
  Zr  Zr12  1  0.542765  0.457235  0.247582  1
  Zr  Zr13  1  0.543107  0.085520  0.248811  1
  Zr  Zr14  1  0.914480  0.456893  0.248811  1
  Zr  Zr15  1  0.456812  0.543188  0.752979  1
  Zr  Zr16  1  0.457896  0.914665  0.751000  1
  Zr  Zr17  1  0.085335  0.542104  0.751000  1
  Re  Re18  1  0.891482  0.108518  0.249607  1
  Re  Re19  1  0.891316  0.783223  0.249693  1
  Re  Re20  1  0.216777  0.108684  0.249693  1
  Re  Re21  1  0.107520  0.892480  0.749777  1
  Re  Re22  1  0.107730  0.216453  0.750950  1
  Re  Re23  1  0.783547  0.892270  0.750950  1
  Re  Re24  1  0.999906  0.000094  0.499726  1
  Re  Re25  1  0.999840  0.000160  0.000850  1
  Ni  Ni26  1  0.666279  0.333721  0.750317  1
  Ir  Ir27  1  0.334350  0.665650  0.246799  1
