# generated using pymatgen
data_Er3Tm(Ga5Co3)2
_symmetry_space_group_name_H-M   'P 1'
_cell_length_a   8.30663702
_cell_length_b   8.30656231
_cell_length_c   5.46961600
_cell_angle_alpha   70.78203662
_cell_angle_beta   70.78198688
_cell_angle_gamma   97.02883155
_symmetry_Int_Tables_number   1
_chemical_formula_structural   Er3Tm(Ga5Co3)2
_chemical_formula_sum   'Er3 Tm1 Ga10 Co6'
_cell_volume   325.05016988
_cell_formula_units_Z   1
loop_
 _symmetry_equiv_pos_site_id
 _symmetry_equiv_pos_as_xyz
  1  'x, y, z'
loop_
 _atom_site_type_symbol
 _atom_site_label
 _atom_site_symmetry_multiplicity
 _atom_site_fract_x
 _atom_site_fract_y
 _atom_site_fract_z
 _atom_site_occupancy
  Er  Er0  1  0.130614  0.424480  0.222084  1
  Er  Er1  1  0.575513  0.869401  0.277913  1
  Er  Er2  1  0.869382  0.575520  0.777915  1
  Tm  Tm3  1  0.424525  0.130625  0.722054  1
  Ga  Ga4  1  0.264399  0.101731  0.316691  1
  Ga  Ga5  1  0.898286  0.735639  0.183281  1
  Ga  Ga6  1  0.735639  0.898288  0.683291  1
  Ga  Ga7  1  0.101755  0.264349  0.816696  1
  Ga  Ga8  1  0.202194  0.797855  0.750003  1
  Ga  Ga9  1  0.797800  0.202173  0.250024  1
  Ga  Ga10  1  0.500008  0.499951  0.749999  1
  Ga  Ga11  1  0.499966  0.499994  0.250041  1
  Ga  Ga12  1  0.797921  0.202051  0.750003  1
  Ga  Ga13  1  0.202077  0.797970  0.249948  1
  Co  Co14  1  0.000035  0.999975  0.749999  1
  Co  Co15  1  0.999976  0.000035  0.249989  1
  Co  Co16  1  0.733977  0.431706  0.417388  1
  Co  Co17  1  0.431753  0.734057  0.917324  1
  Co  Co18  1  0.265967  0.568259  0.582657  1
  Co  Co19  1  0.568212  0.265939  0.082697  1
