# generated using pymatgen
data_YLu5(Al3Os)8
_symmetry_space_group_name_H-M   'P 1'
_cell_length_a   8.76296278
_cell_length_b   8.76296258
_cell_length_c   9.57743400
_cell_angle_alpha   90.00000000
_cell_angle_beta   90.00000000
_cell_angle_gamma   119.95168167
_symmetry_Int_Tables_number   1
_chemical_formula_structural   YLu5(Al3Os)8
_chemical_formula_sum   'Y1 Lu5 Al24 Os8'
_cell_volume   637.22524165
_cell_formula_units_Z   1
loop_
 _symmetry_equiv_pos_site_id
 _symmetry_equiv_pos_as_xyz
  1  'x, y, z'
loop_
 _atom_site_type_symbol
 _atom_site_label
 _atom_site_symmetry_multiplicity
 _atom_site_fract_x
 _atom_site_fract_y
 _atom_site_fract_z
 _atom_site_occupancy
  Y  Y0  1  0.806723  0.193277  0.750000  1
  Lu  Lu1  1  0.195404  0.391227  0.250000  1
  Lu  Lu2  1  0.804308  0.608896  0.750000  1
  Lu  Lu3  1  0.608773  0.804596  0.250000  1
  Lu  Lu4  1  0.391104  0.195692  0.750000  1
  Lu  Lu5  1  0.195545  0.804455  0.250000  1
  Al  Al6  1  0.333256  0.666744  0.021158  1
  Al  Al7  1  0.666553  0.333447  0.980031  1
  Al  Al8  1  0.666553  0.333447  0.519969  1
  Al  Al9  1  0.333256  0.666744  0.478842  1
  Al  Al10  1  0.164157  0.327312  0.576230  1
  Al  Al11  1  0.836683  0.673533  0.422895  1
  Al  Al12  1  0.672688  0.835843  0.576230  1
  Al  Al13  1  0.836683  0.673533  0.077105  1
  Al  Al14  1  0.326467  0.163317  0.422895  1
  Al  Al15  1  0.164157  0.327312  0.923770  1
  Al  Al16  1  0.163270  0.836730  0.576453  1
  Al  Al17  1  0.326467  0.163317  0.077105  1
  Al  Al18  1  0.836526  0.163474  0.422015  1
  Al  Al19  1  0.672688  0.835843  0.923770  1
  Al  Al20  1  0.836526  0.163474  0.077985  1
  Al  Al21  1  0.163270  0.836730  0.923547  1
  Al  Al22  1  0.561148  0.122822  0.250000  1
  Al  Al23  1  0.437433  0.876363  0.750000  1
  Al  Al24  1  0.877178  0.438852  0.250000  1
  Al  Al25  1  0.123637  0.562567  0.750000  1
  Al  Al26  1  0.561284  0.438716  0.250000  1
  Al  Al27  1  0.438637  0.561363  0.750000  1
  Al  Al28  1  0.999922  0.000078  0.250000  1
  Al  Al29  1  0.001854  0.998146  0.750000  1
  Os  Os30  1  0.498789  0.999402  0.000909  1
  Os  Os31  1  0.000598  0.501211  0.000909  1
  Os  Os32  1  0.498789  0.999402  0.499091  1
  Os  Os33  1  0.499809  0.500191  0.000204  1
  Os  Os34  1  0.000598  0.501211  0.499091  1
  Os  Os35  1  0.499809  0.500191  0.499796  1
  Os  Os36  1  0.999728  0.000272  0.000050  1
  Os  Os37  1  0.999728  0.000272  0.499950  1
