# generated using pymatgen
data_LuU(FeB4)2
_symmetry_space_group_name_H-M   'P 1'
_cell_length_a   3.33953500
_cell_length_b   5.84653642
_cell_length_c   11.33921033
_cell_angle_alpha   89.83059842
_cell_angle_beta   90.00000000
_cell_angle_gamma   90.00000000
_symmetry_Int_Tables_number   1
_chemical_formula_structural   LuU(FeB4)2
_chemical_formula_sum   'Lu2 U2 Fe4 B16'
_cell_volume   221.39385970
_cell_formula_units_Z   2
loop_
 _symmetry_equiv_pos_site_id
 _symmetry_equiv_pos_as_xyz
  1  'x, y, z'
loop_
 _atom_site_type_symbol
 _atom_site_label
 _atom_site_symmetry_multiplicity
 _atom_site_fract_x
 _atom_site_fract_y
 _atom_site_fract_z
 _atom_site_occupancy
  Lu  Lu0  1  0.000000  0.127528  0.148340  1
  Lu  Lu1  1  0.000000  0.872472  0.851660  1
  U  U2  1  0.000000  0.627034  0.348738  1
  U  U3  1  0.000000  0.372966  0.651262  1
  Fe  Fe4  1  0.000000  0.634261  0.090648  1
  Fe  Fe5  1  0.000000  0.365739  0.909352  1
  Fe  Fe6  1  0.000000  0.134412  0.410006  1
  Fe  Fe7  1  0.000000  0.865588  0.589994  1
  B  B8  1  0.500000  0.784726  0.184538  1
  B  B9  1  0.500000  0.215274  0.815462  1
  B  B10  1  0.500000  0.284057  0.313996  1
  B  B11  1  0.500000  0.715943  0.686004  1
  B  B12  1  0.500000  0.862614  0.031795  1
  B  B13  1  0.500000  0.137386  0.968205  1
  B  B14  1  0.500000  0.364177  0.465935  1
  B  B15  1  0.500000  0.635823  0.534065  1
  B  B16  1  0.500000  0.887713  0.453316  1
  B  B17  1  0.500000  0.112287  0.546684  1
  B  B18  1  0.500000  0.386488  0.045582  1
  B  B19  1  0.500000  0.613512  0.954418  1
  B  B20  1  0.500000  0.977342  0.307915  1
  B  B21  1  0.500000  0.022658  0.692085  1
  B  B22  1  0.500000  0.475007  0.189973  1
  B  B23  1  0.500000  0.524993  0.810027  1
