# generated using pymatgen
data_Nd10ZnSiSn6
_symmetry_space_group_name_H-M   'P 1'
_cell_length_a   9.50267700
_cell_length_b   9.50267616
_cell_length_c   6.85213700
_cell_angle_alpha   90.00000000
_cell_angle_beta   90.00000000
_cell_angle_gamma   119.99999946
_symmetry_Int_Tables_number   1
_chemical_formula_structural   Nd10ZnSiSn6
_chemical_formula_sum   'Nd10 Zn1 Si1 Sn6'
_cell_volume   535.85658052
_cell_formula_units_Z   1
loop_
 _symmetry_equiv_pos_site_id
 _symmetry_equiv_pos_as_xyz
  1  'x, y, z'
loop_
 _atom_site_type_symbol
 _atom_site_label
 _atom_site_symmetry_multiplicity
 _atom_site_fract_x
 _atom_site_fract_y
 _atom_site_fract_z
 _atom_site_occupancy
  Nd  Nd0  1  0.666667  0.333333  0.000000  1
  Nd  Nd1  1  0.333333  0.666667  0.000000  1
  Nd  Nd2  1  0.333333  0.666667  0.500000  1
  Nd  Nd3  1  0.666667  0.333333  0.500000  1
  Nd  Nd4  1  0.741754  0.741754  0.736805  1
  Nd  Nd5  1  0.258246  0.000000  0.736805  1
  Nd  Nd6  1  0.000000  0.258246  0.736805  1
  Nd  Nd7  1  0.258246  0.258246  0.263195  1
  Nd  Nd8  1  0.741754  0.000000  0.263195  1
  Nd  Nd9  1  0.000000  0.741754  0.263195  1
  Zn  Zn10  1  0.000000  0.000000  0.000000  1
  Si  Si11  1  0.000000  0.000000  0.500000  1
  Sn  Sn12  1  0.386523  0.386523  0.751258  1
  Sn  Sn13  1  0.613477  0.000000  0.751258  1
  Sn  Sn14  1  0.000000  0.613477  0.751258  1
  Sn  Sn15  1  0.613477  0.613477  0.248742  1
  Sn  Sn16  1  0.386523  0.000000  0.248742  1
  Sn  Sn17  1  0.000000  0.386523  0.248742  1
