# generated using pymatgen
data_NaCa3NbN4
_symmetry_space_group_name_H-M   'P 1'
_cell_length_a   6.09048516
_cell_length_b   6.03051005
_cell_length_c   9.16995400
_cell_angle_alpha   71.00656177
_cell_angle_beta   81.16463310
_cell_angle_gamma   68.15133100
_symmetry_Int_Tables_number   1
_chemical_formula_structural   NaCa3NbN4
_chemical_formula_sum   'Na2 Ca6 Nb2 N8'
_cell_volume   295.38628290
_cell_formula_units_Z   2
loop_
 _symmetry_equiv_pos_site_id
 _symmetry_equiv_pos_as_xyz
  1  'x, y, z'
loop_
 _atom_site_type_symbol
 _atom_site_label
 _atom_site_symmetry_multiplicity
 _atom_site_fract_x
 _atom_site_fract_y
 _atom_site_fract_z
 _atom_site_occupancy
  Na  Na0  1  0.237950  0.949781  0.603791  1
  Na  Na1  1  0.739405  0.621729  0.182284  1
  Ca  Ca2  1  0.756188  0.239078  0.995066  1
  Ca  Ca3  1  0.263739  0.522075  0.427307  1
  Ca  Ca4  1  0.755518  0.060215  0.398052  1
  Ca  Ca5  1  0.260407  0.400303  0.810316  1
  Ca  Ca6  1  0.734068  0.480709  0.566483  1
  Ca  Ca7  1  0.253085  0.752543  0.015705  1
  Nb  Nb8  1  0.717076  0.846288  0.758309  1
  Nb  Nb9  1  0.275840  0.148349  0.244817  1
  N  N10  1  0.966579  0.694986  0.615998  1
  N  N11  1  0.525592  0.186024  0.627751  1
  N  N12  1  0.018766  0.297729  0.382152  1
  N  N13  1  0.523619  0.622216  0.814197  1
  N  N14  1  0.154212  0.145678  0.054513  1
  N  N15  1  0.475780  0.819785  0.372106  1
  N  N16  1  0.476774  0.357528  0.201478  1
  N  N17  1  0.865401  0.854987  0.929677  1
