# generated using pymatgen
data_Tb8Hf10Nb2Si15Ge
_symmetry_space_group_name_H-M   'P 1'
_cell_length_a   7.26295318
_cell_length_b   7.26897599
_cell_length_c   13.35192084
_cell_angle_alpha   89.94011596
_cell_angle_beta   89.99367180
_cell_angle_gamma   90.08264124
_symmetry_Int_Tables_number   1
_chemical_formula_structural   Tb8Hf10Nb2Si15Ge
_chemical_formula_sum   'Tb8 Hf10 Nb2 Si15 Ge1'
_cell_volume   704.90328807
_cell_formula_units_Z   1
loop_
 _symmetry_equiv_pos_site_id
 _symmetry_equiv_pos_as_xyz
  1  'x, y, z'
loop_
 _atom_site_type_symbol
 _atom_site_label
 _atom_site_symmetry_multiplicity
 _atom_site_fract_x
 _atom_site_fract_y
 _atom_site_fract_z
 _atom_site_occupancy
  Tb  Tb0  1  0.995839  0.343262  0.213780  1
  Tb  Tb1  1  0.003125  0.656820  0.714287  1
  Tb  Tb2  1  0.154227  0.498603  0.466509  1
  Tb  Tb3  1  0.503072  0.844168  0.034073  1
  Tb  Tb4  1  0.844621  0.502764  0.965577  1
  Tb  Tb5  1  0.497668  0.154929  0.534955  1
  Tb  Tb6  1  0.343037  0.996979  0.785820  1
  Tb  Tb7  1  0.657686  0.002119  0.285553  1
  Hf  Hf8  1  0.324568  0.677791  0.249524  1
  Hf  Hf9  1  0.675451  0.324502  0.750017  1
  Hf  Hf10  1  0.145537  0.994145  0.376034  1
  Hf  Hf11  1  0.853276  0.004465  0.875942  1
  Hf  Hf12  1  0.506238  0.650451  0.623355  1
  Hf  Hf13  1  0.349518  0.493728  0.876684  1
  Hf  Hf14  1  0.493725  0.349478  0.122342  1
  Hf  Hf15  1  0.652638  0.508209  0.377295  1
  Hf  Hf16  1  0.995575  0.146884  0.624032  1
  Hf  Hf17  1  0.004053  0.852865  0.123835  1
  Nb  Nb18  1  0.174921  0.175101  0.999938  1
  Nb  Nb19  1  0.825066  0.824993  0.500066  1
  Si  Si20  1  0.637201  0.704628  0.816683  1
  Si  Si21  1  0.203790  0.862579  0.566497  1
  Si  Si22  1  0.137529  0.796185  0.933516  1
  Si  Si23  1  0.796182  0.137578  0.066303  1
  Si  Si24  1  0.862456  0.203744  0.433552  1
  Si  Si25  1  0.295461  0.362776  0.683289  1
  Si  Si26  1  0.704250  0.637002  0.183231  1
  Si  Si27  1  0.294959  0.047101  0.183075  1
  Si  Si28  1  0.705034  0.950157  0.684790  1
  Si  Si29  1  0.451986  0.795966  0.435721  1
  Si  Si30  1  0.204090  0.547865  0.064292  1
  Si  Si31  1  0.547952  0.203960  0.935541  1
  Si  Si32  1  0.795762  0.451940  0.564454  1
  Si  Si33  1  0.049679  0.295039  0.815294  1
  Si  Si34  1  0.950640  0.704563  0.315142  1
  Ge  Ge35  1  0.363186  0.296662  0.319001  1
