# generated using pymatgen
data_Dy5Ho3Sc12Si15Ge
_symmetry_space_group_name_H-M   'P 1'
_cell_length_a   7.10041718
_cell_length_b   7.39154658
_cell_length_c   14.00383845
_cell_angle_alpha   90.00363494
_cell_angle_beta   89.86093583
_cell_angle_gamma   90.06346173
_symmetry_Int_Tables_number   1
_chemical_formula_structural   Dy5Ho3Sc12Si15Ge
_chemical_formula_sum   'Dy5 Ho3 Sc12 Si15 Ge1'
_cell_volume   734.96173686
_cell_formula_units_Z   1
loop_
 _symmetry_equiv_pos_site_id
 _symmetry_equiv_pos_as_xyz
  1  'x, y, z'
loop_
 _atom_site_type_symbol
 _atom_site_label
 _atom_site_symmetry_multiplicity
 _atom_site_fract_x
 _atom_site_fract_y
 _atom_site_fract_z
 _atom_site_occupancy
  Dy  Dy0  1  0.011282  0.175541  0.096540  1
  Dy  Dy1  1  0.988811  0.824764  0.903465  1
  Dy  Dy2  1  0.489193  0.675435  0.903530  1
  Dy  Dy3  1  0.988932  0.824869  0.596641  1
  Dy  Dy4  1  0.510954  0.324800  0.096704  1
  Ho  Ho5  1  0.009671  0.175467  0.402684  1
  Ho  Ho6  1  0.511164  0.323050  0.402320  1
  Ho  Ho7  1  0.492127  0.677116  0.597086  1
  Sc  Sc8  1  0.162468  0.502365  0.751261  1
  Sc  Sc9  1  0.837507  0.497580  0.250240  1
  Sc  Sc10  1  0.337734  0.002475  0.250123  1
  Sc  Sc11  1  0.662183  0.997575  0.749984  1
  Sc  Sc12  1  0.334838  0.174003  0.626347  1
  Sc  Sc13  1  0.666417  0.824049  0.374100  1
  Sc  Sc14  1  0.165964  0.677051  0.374308  1
  Sc  Sc15  1  0.667694  0.822980  0.125240  1
  Sc  Sc16  1  0.831539  0.324093  0.625126  1
  Sc  Sc17  1  0.332016  0.176484  0.874728  1
  Sc  Sc18  1  0.831983  0.323247  0.874835  1
  Sc  Sc19  1  0.167778  0.676917  0.125260  1
  Si  Si20  1  0.034832  0.116653  0.750093  1
  Si  Si21  1  0.964971  0.884499  0.249631  1
  Si  Si22  1  0.464333  0.616056  0.249746  1
  Si  Si23  1  0.534924  0.384232  0.750266  1
  Si  Si24  1  0.286744  0.872349  0.750228  1
  Si  Si25  1  0.713572  0.127031  0.249819  1
  Si  Si26  1  0.212841  0.373142  0.250232  1
  Si  Si27  1  0.787081  0.626762  0.750028  1
  Si  Si28  1  0.834699  0.536526  0.459645  1
  Si  Si29  1  0.340225  0.964495  0.460683  1
  Si  Si30  1  0.841706  0.535205  0.039444  1
  Si  Si31  1  0.659561  0.036050  0.538961  1
  Si  Si32  1  0.158206  0.464760  0.960828  1
  Si  Si33  1  0.658132  0.035474  0.960827  1
  Si  Si34  1  0.341782  0.964639  0.039331  1
  Ge  Ge35  1  0.166138  0.462264  0.539719  1
