# generated using pymatgen
data_Ac8Ho12Si15Ag
_symmetry_space_group_name_H-M   'P 1'
_cell_length_a   7.71519574
_cell_length_b   7.98931723
_cell_length_c   15.24368500
_cell_angle_alpha   89.86755572
_cell_angle_beta   89.45600393
_cell_angle_gamma   90.22605662
_symmetry_Int_Tables_number   1
_chemical_formula_structural   Ac8Ho12Si15Ag
_chemical_formula_sum   'Ac8 Ho12 Si15 Ag1'
_cell_volume   939.55547347
_cell_formula_units_Z   1
loop_
 _symmetry_equiv_pos_site_id
 _symmetry_equiv_pos_as_xyz
  1  'x, y, z'
loop_
 _atom_site_type_symbol
 _atom_site_label
 _atom_site_symmetry_multiplicity
 _atom_site_fract_x
 _atom_site_fract_y
 _atom_site_fract_z
 _atom_site_occupancy
  Ac  Ac0  1  0.011110  0.173232  0.400307  1
  Ac  Ac1  1  0.515273  0.323672  0.399840  1
  Ac  Ac2  1  0.482771  0.675400  0.903358  1
  Ac  Ac3  1  0.488983  0.677673  0.599854  1
  Ac  Ac4  1  0.987700  0.829995  0.597307  1
  Ac  Ac5  1  0.983108  0.826147  0.903018  1
  Ac  Ac6  1  0.516541  0.324944  0.096897  1
  Ac  Ac7  1  0.016824  0.176142  0.098824  1
  Ho  Ho8  1  0.337401  0.173375  0.626685  1
  Ho  Ho9  1  0.667754  0.823445  0.374635  1
  Ho  Ho10  1  0.662767  0.995609  0.750950  1
  Ho  Ho11  1  0.168765  0.675406  0.372069  1
  Ho  Ho12  1  0.827171  0.321298  0.877016  1
  Ho  Ho13  1  0.824909  0.325918  0.624455  1
  Ho  Ho14  1  0.840407  0.496778  0.251559  1
  Ho  Ho15  1  0.341780  0.000295  0.248814  1
  Ho  Ho16  1  0.325405  0.175773  0.876230  1
  Ho  Ho17  1  0.172382  0.677485  0.123912  1
  Ho  Ho18  1  0.674579  0.823963  0.124059  1
  Ho  Ho19  1  0.159536  0.501511  0.752087  1
  Si  Si20  1  0.282783  0.886810  0.750957  1
  Si  Si21  1  0.466290  0.624199  0.248249  1
  Si  Si22  1  0.034105  0.129485  0.751604  1
  Si  Si23  1  0.535555  0.375875  0.752234  1
  Si  Si24  1  0.966514  0.874220  0.249058  1
  Si  Si25  1  0.714378  0.114668  0.248113  1
  Si  Si26  1  0.855363  0.535296  0.039192  1
  Si  Si27  1  0.354668  0.965556  0.040196  1
  Si  Si28  1  0.143458  0.464912  0.961511  1
  Si  Si29  1  0.650048  0.036075  0.539211  1
  Si  Si30  1  0.348136  0.961191  0.460301  1
  Si  Si31  1  0.843992  0.540967  0.457120  1
  Si  Si32  1  0.785765  0.614808  0.752043  1
  Si  Si33  1  0.217422  0.384063  0.248460  1
  Si  Si34  1  0.644446  0.033860  0.960081  1
  Ag  Ag35  1  0.151907  0.459959  0.539796  1
