# generated using pymatgen
data_Ca3Yb2Dy(Si3Os)8
_symmetry_space_group_name_H-M   'P 1'
_cell_length_a   10.19015257
_cell_length_b   10.19036460
_cell_length_c   8.17989835
_cell_angle_alpha   90.04968627
_cell_angle_beta   89.94825294
_cell_angle_gamma   132.65505349
_symmetry_Int_Tables_number   1
_chemical_formula_structural   Ca3Yb2Dy(Si3Os)8
_chemical_formula_sum   'Ca3 Yb2 Dy1 Si24 Os8'
_cell_volume   624.69656316
_cell_formula_units_Z   1
loop_
 _symmetry_equiv_pos_site_id
 _symmetry_equiv_pos_as_xyz
  1  'x, y, z'
loop_
 _atom_site_type_symbol
 _atom_site_label
 _atom_site_symmetry_multiplicity
 _atom_site_fract_x
 _atom_site_fract_y
 _atom_site_fract_z
 _atom_site_occupancy
  Ca  Ca0  1  0.499774  0.999937  0.749998  1
  Ca  Ca1  1  0.999619  0.499787  0.249988  1
  Ca  Ca2  1  0.000221  0.000389  0.999993  1
  Yb  Yb3  1  0.001038  0.500875  0.749996  1
  Yb  Yb4  1  0.500329  0.500332  0.500043  1
  Dy  Dy5  1  0.502046  0.001903  0.249965  1
  Si  Si6  1  0.796937  0.206195  0.502233  1
  Si  Si7  1  0.706002  0.297129  0.997717  1
  Si  Si8  1  0.204381  0.794036  0.500405  1
  Si  Si9  1  0.294237  0.704151  0.999562  1
  Si  Si10  1  0.665129  0.667891  0.167996  1
  Si  Si11  1  0.167910  0.164924  0.331930  1
  Si  Si12  1  0.837070  0.831152  0.668531  1
  Si  Si13  1  0.331115  0.336920  0.831569  1
  Si  Si14  1  0.848384  0.614036  0.990035  1
  Si  Si15  1  0.114136  0.348221  0.509794  1
  Si  Si16  1  0.652841  0.886416  0.489830  1
  Si  Si17  1  0.386528  0.152709  0.010362  1
  Si  Si18  1  0.150930  0.386351  0.007915  1
  Si  Si19  1  0.886250  0.651072  0.492118  1
  Si  Si20  1  0.125465  0.890968  0.731247  1
  Si  Si21  1  0.391697  0.625866  0.768560  1
  Si  Si22  1  0.373618  0.607031  0.230339  1
  Si  Si23  1  0.107845  0.874072  0.269875  1
  Si  Si24  1  0.873690  0.107137  0.270184  1
  Si  Si25  1  0.606476  0.373358  0.230109  1
  Si  Si26  1  0.626574  0.392884  0.768616  1
  Si  Si27  1  0.892173  0.126241  0.731093  1
  Si  Si28  1  0.612875  0.847010  0.991114  1
  Si  Si29  1  0.346849  0.112974  0.508825  1
  Os  Os30  1  0.627085  0.626613  0.874435  1
  Os  Os31  1  0.127140  0.127739  0.625017  1
  Os  Os32  1  0.372878  0.373219  0.125124  1
  Os  Os33  1  0.872584  0.872307  0.375468  1
  Os  Os34  1  0.171221  0.830694  0.001540  1
  Os  Os35  1  0.330943  0.670877  0.498452  1
  Os  Os36  1  0.827302  0.168967  0.001415  1
  Os  Os37  1  0.668711  0.327614  0.498609  1
