# generated using pymatgen
data_Ca3CrTcC6
_symmetry_space_group_name_H-M   'P 1'
_cell_length_a   8.35037600
_cell_length_b   8.35037572
_cell_length_c   5.08581000
_cell_angle_alpha   90.00000000
_cell_angle_beta   90.00000000
_cell_angle_gamma   119.99999319
_symmetry_Int_Tables_number   1
_chemical_formula_structural   Ca3CrTcC6
_chemical_formula_sum   'Ca6 Cr2 Tc2 C12'
_cell_volume   307.11628156
_cell_formula_units_Z   2
loop_
 _symmetry_equiv_pos_site_id
 _symmetry_equiv_pos_as_xyz
  1  'x, y, z'
loop_
 _atom_site_type_symbol
 _atom_site_label
 _atom_site_symmetry_multiplicity
 _atom_site_fract_x
 _atom_site_fract_y
 _atom_site_fract_z
 _atom_site_occupancy
  Ca  Ca0  1  0.610819  0.696610  0.750000  1
  Ca  Ca1  1  0.914210  0.610819  0.250000  1
  Ca  Ca2  1  0.696610  0.085790  0.250000  1
  Ca  Ca3  1  0.303390  0.914210  0.750000  1
  Ca  Ca4  1  0.085790  0.389181  0.750000  1
  Ca  Ca5  1  0.389181  0.303390  0.250000  1
  Cr  Cr6  1  0.000000  0.000000  0.500000  1
  Cr  Cr7  1  0.000000  0.000000  0.000000  1
  Tc  Tc8  1  0.666667  0.333333  0.750000  1
  Tc  Tc9  1  0.333333  0.666667  0.250000  1
  C  C10  1  0.948933  0.778486  0.750000  1
  C  C11  1  0.170447  0.948933  0.250000  1
  C  C12  1  0.778486  0.829553  0.250000  1
  C  C13  1  0.221514  0.170447  0.750000  1
  C  C14  1  0.829553  0.051067  0.750000  1
  C  C15  1  0.051067  0.221514  0.250000  1
  C  C16  1  0.856165  0.592217  0.750000  1
  C  C17  1  0.263947  0.856165  0.250000  1
  C  C18  1  0.592217  0.736053  0.250000  1
  C  C19  1  0.407783  0.263947  0.750000  1
  C  C20  1  0.143835  0.407783  0.250000  1
  C  C21  1  0.736053  0.143835  0.750000  1
