# generated using pymatgen
data_Mg4InSbPd10
_symmetry_space_group_name_H-M   'P 1'
_cell_length_a   4.20245100
_cell_length_b   5.61632549
_cell_length_c   11.06721235
_cell_angle_alpha   89.75898039
_cell_angle_beta   90.00000000
_cell_angle_gamma   90.00000000
_symmetry_Int_Tables_number   1
_chemical_formula_structural   Mg4InSbPd10
_chemical_formula_sum   'Mg4 In1 Sb1 Pd10'
_cell_volume   261.20971646
_cell_formula_units_Z   1
loop_
 _symmetry_equiv_pos_site_id
 _symmetry_equiv_pos_as_xyz
  1  'x, y, z'
loop_
 _atom_site_type_symbol
 _atom_site_label
 _atom_site_symmetry_multiplicity
 _atom_site_fract_x
 _atom_site_fract_y
 _atom_site_fract_z
 _atom_site_occupancy
  Mg  Mg0  1  0.500000  0.314798  0.861032  1
  Mg  Mg1  1  0.500000  0.818624  0.643019  1
  Mg  Mg2  1  0.500000  0.685202  0.138968  1
  Mg  Mg3  1  0.500000  0.181376  0.356981  1
  In  In4  1  0.000000  0.000000  0.000000  1
  Sb  Sb5  1  0.000000  0.500000  0.500000  1
  Pd  Pd6  1  0.500000  0.703060  0.387878  1
  Pd  Pd7  1  0.500000  0.296940  0.612122  1
  Pd  Pd8  1  0.000000  0.062402  0.753597  1
  Pd  Pd9  1  0.500000  0.794012  0.884380  1
  Pd  Pd10  1  0.000000  0.438763  0.255476  1
  Pd  Pd11  1  0.000000  0.937598  0.246403  1
  Pd  Pd12  1  0.000000  0.561237  0.744524  1
  Pd  Pd13  1  0.000000  0.500000  0.000000  1
  Pd  Pd14  1  0.000000  0.000000  0.500000  1
  Pd  Pd15  1  0.500000  0.205988  0.115620  1
