# generated using pymatgen
data_CsLu(SO4)2
_symmetry_space_group_name_H-M   'P 1'
_cell_length_a   5.42139700
_cell_length_b   5.42139716
_cell_length_c   8.71620100
_cell_angle_alpha   90.00000000
_cell_angle_beta   90.00000000
_cell_angle_gamma   119.99999292
_symmetry_Int_Tables_number   1
_chemical_formula_structural   CsLu(SO4)2
_chemical_formula_sum   'Cs1 Lu1 S2 O8'
_cell_volume   221.86067732
_cell_formula_units_Z   1
loop_
 _symmetry_equiv_pos_site_id
 _symmetry_equiv_pos_as_xyz
  1  'x, y, z'
loop_
 _atom_site_type_symbol
 _atom_site_label
 _atom_site_symmetry_multiplicity
 _atom_site_fract_x
 _atom_site_fract_y
 _atom_site_fract_z
 _atom_site_occupancy
  Cs  Cs0  1  0.000000  0.000000  0.500000  1
  Lu  Lu1  1  0.000000  0.000000  0.000000  1
  S  S2  1  0.666667  0.333334  0.211536  1
  S  S3  1  0.333334  0.666667  0.788464  1
  O  O4  1  0.368712  0.184357  0.151190  1
  O  O5  1  0.815644  0.184357  0.151190  1
  O  O6  1  0.815643  0.631287  0.151190  1
  O  O7  1  0.666667  0.333334  0.378927  1
  O  O8  1  0.333334  0.666667  0.621073  1
  O  O9  1  0.184356  0.368712  0.848810  1
  O  O10  1  0.184356  0.815643  0.848810  1
  O  O11  1  0.631288  0.815643  0.848810  1
