# generated using pymatgen
data_Tb19Sc(Cd3Ni)2
_symmetry_space_group_name_H-M   'P 1'
_cell_length_a   9.57420700
_cell_length_b   9.57420720
_cell_length_c   9.82216500
_cell_angle_alpha   90.00000000
_cell_angle_beta   90.00000000
_cell_angle_gamma   119.99999586
_symmetry_Int_Tables_number   1
_chemical_formula_structural   Tb19Sc(Cd3Ni)2
_chemical_formula_sum   'Tb19 Sc1 Cd6 Ni2'
_cell_volume   779.72868248
_cell_formula_units_Z   1
loop_
 _symmetry_equiv_pos_site_id
 _symmetry_equiv_pos_as_xyz
  1  'x, y, z'
loop_
 _atom_site_type_symbol
 _atom_site_label
 _atom_site_symmetry_multiplicity
 _atom_site_fract_x
 _atom_site_fract_y
 _atom_site_fract_z
 _atom_site_occupancy
  Tb  Tb0  1  0.000000  0.000000  0.000000  1
  Tb  Tb1  1  0.543396  0.456604  0.250393  1
  Tb  Tb2  1  0.543396  0.086791  0.250393  1
  Tb  Tb3  1  0.913209  0.456604  0.250393  1
  Tb  Tb4  1  0.456604  0.543396  0.749607  1
  Tb  Tb5  1  0.456604  0.913209  0.749607  1
  Tb  Tb6  1  0.086791  0.543396  0.749607  1
  Tb  Tb7  1  0.208743  0.791257  0.435712  1
  Tb  Tb8  1  0.208743  0.417487  0.435712  1
  Tb  Tb9  1  0.582513  0.791257  0.435712  1
  Tb  Tb10  1  0.791257  0.208743  0.564288  1
  Tb  Tb11  1  0.791257  0.582513  0.564288  1
  Tb  Tb12  1  0.417487  0.208743  0.564288  1
  Tb  Tb13  1  0.789873  0.210127  0.938477  1
  Tb  Tb14  1  0.789873  0.579744  0.938477  1
  Tb  Tb15  1  0.420256  0.210127  0.938477  1
  Tb  Tb16  1  0.210127  0.789873  0.061523  1
  Tb  Tb17  1  0.210127  0.420256  0.061523  1
  Tb  Tb18  1  0.579744  0.789873  0.061523  1
  Sc  Sc19  1  0.000000  0.000000  0.500000  1
  Cd  Cd20  1  0.887145  0.112855  0.255687  1
  Cd  Cd21  1  0.887145  0.774290  0.255687  1
  Cd  Cd22  1  0.225710  0.112855  0.255687  1
  Cd  Cd23  1  0.112855  0.887145  0.744313  1
  Cd  Cd24  1  0.112855  0.225710  0.744313  1
  Cd  Cd25  1  0.774290  0.887145  0.744313  1
  Ni  Ni26  1  0.333333  0.666667  0.250583  1
  Ni  Ni27  1  0.666667  0.333333  0.749417  1
