# generated using pymatgen
data_Y3Mg2InGa2Pt
_symmetry_space_group_name_H-M   'P 1'
_cell_length_a   7.30425793
_cell_length_b   7.35098410
_cell_length_c   4.35717100
_cell_angle_alpha   90.00000000
_cell_angle_beta   90.00000000
_cell_angle_gamma   120.21184731
_symmetry_Int_Tables_number   1
_chemical_formula_structural   Y3Mg2InGa2Pt
_chemical_formula_sum   'Y3 Mg2 In1 Ga2 Pt1'
_cell_volume   202.17421323
_cell_formula_units_Z   1
loop_
 _symmetry_equiv_pos_site_id
 _symmetry_equiv_pos_as_xyz
  1  'x, y, z'
loop_
 _atom_site_type_symbol
 _atom_site_label
 _atom_site_symmetry_multiplicity
 _atom_site_fract_x
 _atom_site_fract_y
 _atom_site_fract_z
 _atom_site_occupancy
  Y  Y0  1  0.408526  0.000439  0.500000  1
  Y  Y1  1  0.000000  0.410129  0.500000  1
  Y  Y2  1  0.591474  0.591913  0.500000  1
  Mg  Mg3  1  0.762667  0.001775  0.000000  1
  Mg  Mg4  1  0.237333  0.239108  0.000000  1
  In  In5  1  0.000000  0.753632  0.000000  1
  Ga  Ga6  1  0.662093  0.327799  0.000000  1
  Ga  Ga7  1  0.337907  0.665707  0.000000  1
  Pt  Pt8  1  0.000000  0.009497  0.500000  1
