# generated using pymatgen
data_K3B2Pd6Au
_symmetry_space_group_name_H-M   'P 1'
_cell_length_a   8.51270059
_cell_length_b   8.51270055
_cell_length_c   8.51269900
_cell_angle_alpha   38.97455857
_cell_angle_beta   38.97455891
_cell_angle_gamma   38.97456128
_symmetry_Int_Tables_number   1
_chemical_formula_structural   K3B2Pd6Au
_chemical_formula_sum   'K3 B2 Pd6 Au1'
_cell_volume   219.46259835
_cell_formula_units_Z   1
loop_
 _symmetry_equiv_pos_site_id
 _symmetry_equiv_pos_as_xyz
  1  'x, y, z'
loop_
 _atom_site_type_symbol
 _atom_site_label
 _atom_site_symmetry_multiplicity
 _atom_site_fract_x
 _atom_site_fract_y
 _atom_site_fract_z
 _atom_site_occupancy
  K  K0  1  0.857979  0.857979  0.857979  1
  K  K1  1  0.142021  0.142021  0.142021  1
  K  K2  1  0.000000  0.000000  0.000000  1
  B  B3  1  0.668694  0.668694  0.668694  1
  B  B4  1  0.331306  0.331306  0.331306  1
  Pd  Pd5  1  0.441697  0.934180  0.441697  1
  Pd  Pd6  1  0.441697  0.441697  0.934180  1
  Pd  Pd7  1  0.934180  0.441697  0.441697  1
  Pd  Pd8  1  0.558303  0.065820  0.558303  1
  Pd  Pd9  1  0.558303  0.558303  0.065820  1
  Pd  Pd10  1  0.065820  0.558303  0.558303  1
  Au  Au11  1  0.500000  0.500000  0.500000  1
