# generated using pymatgen
data_Nd3Nb(Ni4As3)2
_symmetry_space_group_name_H-M   'P 1'
_cell_length_a   3.98876500
_cell_length_b   11.24207300
_cell_length_c   12.91759400
_cell_angle_alpha   90.00000000
_cell_angle_beta   90.00000000
_cell_angle_gamma   90.00000000
_symmetry_Int_Tables_number   1
_chemical_formula_structural   Nd3Nb(Ni4As3)2
_chemical_formula_sum   'Nd6 Nb2 Ni16 As12'
_cell_volume   579.25058622
_cell_formula_units_Z   2
loop_
 _symmetry_equiv_pos_site_id
 _symmetry_equiv_pos_as_xyz
  1  'x, y, z'
loop_
 _atom_site_type_symbol
 _atom_site_label
 _atom_site_symmetry_multiplicity
 _atom_site_fract_x
 _atom_site_fract_y
 _atom_site_fract_z
 _atom_site_occupancy
  Nd  Nd0  1  0.000000  0.500000  0.521757  1
  Nd  Nd1  1  0.500000  0.000000  0.478243  1
  Nd  Nd2  1  0.500000  0.817918  0.206784  1
  Nd  Nd3  1  0.500000  0.182082  0.206784  1
  Nd  Nd4  1  0.000000  0.682082  0.793216  1
  Nd  Nd5  1  0.000000  0.317918  0.793216  1
  Nb  Nb6  1  0.500000  0.500000  0.143945  1
  Nb  Nb7  1  0.000000  0.000000  0.856055  1
  Ni  Ni8  1  0.500000  0.500000  0.696790  1
  Ni  Ni9  1  0.000000  0.000000  0.303210  1
  Ni  Ni10  1  0.000000  0.500000  0.981414  1
  Ni  Ni11  1  0.500000  0.000000  0.018586  1
  Ni  Ni12  1  0.500000  0.335845  0.990086  1
  Ni  Ni13  1  0.500000  0.664155  0.990086  1
  Ni  Ni14  1  0.000000  0.164155  0.009914  1
  Ni  Ni15  1  0.000000  0.835845  0.009914  1
  Ni  Ni16  1  0.500000  0.305154  0.421189  1
  Ni  Ni17  1  0.500000  0.694846  0.421189  1
  Ni  Ni18  1  0.000000  0.194846  0.578811  1
  Ni  Ni19  1  0.000000  0.805154  0.578811  1
  Ni  Ni20  1  0.500000  0.882430  0.712336  1
  Ni  Ni21  1  0.500000  0.117570  0.712336  1
  Ni  Ni22  1  0.000000  0.617570  0.287664  1
  Ni  Ni23  1  0.000000  0.382430  0.287664  1
  As  As24  1  0.500000  0.500000  0.877536  1
  As  As25  1  0.000000  0.000000  0.122464  1
  As  As26  1  0.500000  0.500000  0.343908  1
  As  As27  1  0.000000  0.000000  0.656092  1
  As  As28  1  0.500000  0.310256  0.610404  1
  As  As29  1  0.500000  0.689744  0.610404  1
  As  As30  1  0.000000  0.189744  0.389596  1
  As  As31  1  0.000000  0.810256  0.389596  1
  As  As32  1  0.500000  0.842476  0.895964  1
  As  As33  1  0.500000  0.157524  0.895964  1
  As  As34  1  0.000000  0.657524  0.104036  1
  As  As35  1  0.000000  0.342476  0.104036  1
