# generated using pymatgen
data_Ho3Tm3Th2(MgRu)2
_symmetry_space_group_name_H-M   'P 1'
_cell_length_a   9.70468993
_cell_length_b   9.70468963
_cell_length_c   9.70469000
_cell_angle_alpha   59.99999875
_cell_angle_beta   59.99999978
_cell_angle_gamma   60.00000276
_symmetry_Int_Tables_number   1
_chemical_formula_structural   Ho3Tm3Th2(MgRu)2
_chemical_formula_sum   'Ho6 Tm6 Th4 Mg4 Ru4'
_cell_volume   646.29379822
_cell_formula_units_Z   2
loop_
 _symmetry_equiv_pos_site_id
 _symmetry_equiv_pos_as_xyz
  1  'x, y, z'
loop_
 _atom_site_type_symbol
 _atom_site_label
 _atom_site_symmetry_multiplicity
 _atom_site_fract_x
 _atom_site_fract_y
 _atom_site_fract_z
 _atom_site_occupancy
  Ho  Ho0  1  0.935354  0.564646  0.564646  1
  Ho  Ho1  1  0.564646  0.935354  0.935354  1
  Ho  Ho2  1  0.564646  0.935354  0.564646  1
  Ho  Ho3  1  0.935354  0.564646  0.935354  1
  Ho  Ho4  1  0.564646  0.564646  0.935354  1
  Ho  Ho5  1  0.935354  0.935354  0.564646  1
  Tm  Tm6  1  0.814522  0.185478  0.185478  1
  Tm  Tm7  1  0.185478  0.814522  0.814522  1
  Tm  Tm8  1  0.185478  0.814522  0.185478  1
  Tm  Tm9  1  0.814522  0.185478  0.814522  1
  Tm  Tm10  1  0.185478  0.185478  0.814522  1
  Tm  Tm11  1  0.814522  0.814522  0.185478  1
  Th  Th12  1  0.346555  0.346555  0.346555  1
  Th  Th13  1  0.346555  0.346555  0.960335  1
  Th  Th14  1  0.346555  0.960335  0.346555  1
  Th  Th15  1  0.960335  0.346555  0.346555  1
  Mg  Mg16  1  0.579915  0.579915  0.579915  1
  Mg  Mg17  1  0.579915  0.579915  0.260256  1
  Mg  Mg18  1  0.579915  0.260256  0.579915  1
  Mg  Mg19  1  0.260256  0.579915  0.579915  1
  Ru  Ru20  1  0.142948  0.142948  0.142948  1
  Ru  Ru21  1  0.142948  0.142948  0.571156  1
  Ru  Ru22  1  0.142948  0.571156  0.142948  1
  Ru  Ru23  1  0.571156  0.142948  0.142948  1
