# generated using pymatgen
data_Cs3Mg2H9Ru
_symmetry_space_group_name_H-M   'P 1'
_cell_length_a   8.07098279
_cell_length_b   8.07098237
_cell_length_c   8.07098247
_cell_angle_alpha   46.03582664
_cell_angle_beta   46.03583449
_cell_angle_gamma   46.03583665
_symmetry_Int_Tables_number   1
_chemical_formula_structural   Cs3Mg2H9Ru
_chemical_formula_sum   'Cs3 Mg2 H9 Ru1'
_cell_volume   248.46194528
_cell_formula_units_Z   1
loop_
 _symmetry_equiv_pos_site_id
 _symmetry_equiv_pos_as_xyz
  1  'x, y, z'
loop_
 _atom_site_type_symbol
 _atom_site_label
 _atom_site_symmetry_multiplicity
 _atom_site_fract_x
 _atom_site_fract_y
 _atom_site_fract_z
 _atom_site_occupancy
  Cs  Cs0  1  0.000000  0.000000  0.000000  1
  Cs  Cs1  1  0.789117  0.789117  0.789117  1
  Cs  Cs2  1  0.210883  0.210883  0.210883  1
  Mg  Mg3  1  0.618368  0.618368  0.618368  1
  Mg  Mg4  1  0.381632  0.381632  0.381632  1
  H  H5  1  0.000000  0.500000  0.500000  1
  H  H6  1  0.500000  0.000000  0.500000  1
  H  H7  1  0.500000  0.500000  0.000000  1
  H  H8  1  0.708168  0.323731  0.323731  1
  H  H9  1  0.323731  0.708168  0.323731  1
  H  H10  1  0.323731  0.323731  0.708168  1
  H  H11  1  0.676269  0.676269  0.291832  1
  H  H12  1  0.676269  0.291832  0.676269  1
  H  H13  1  0.291832  0.676269  0.676269  1
  Ru  Ru14  1  0.500000  0.500000  0.500000  1
