# generated using pymatgen
data_Er4FeB16Ir3
_symmetry_space_group_name_H-M   'P 1'
_cell_length_a   3.51244600
_cell_length_b   5.93390177
_cell_length_c   11.50228203
_cell_angle_alpha   89.85271433
_cell_angle_beta   90.00000000
_cell_angle_gamma   90.00000000
_symmetry_Int_Tables_number   1
_chemical_formula_structural   Er4FeB16Ir3
_chemical_formula_sum   'Er4 Fe1 B16 Ir3'
_cell_volume   239.73563073
_cell_formula_units_Z   1
loop_
 _symmetry_equiv_pos_site_id
 _symmetry_equiv_pos_as_xyz
  1  'x, y, z'
loop_
 _atom_site_type_symbol
 _atom_site_label
 _atom_site_symmetry_multiplicity
 _atom_site_fract_x
 _atom_site_fract_y
 _atom_site_fract_z
 _atom_site_occupancy
  Er  Er0  1  0.500000  0.372487  0.147581  1
  Er  Er1  1  0.500000  0.630690  0.855217  1
  Er  Er2  1  0.500000  0.131578  0.649309  1
  Er  Er3  1  0.500000  0.868253  0.345243  1
  Fe  Fe4  1  0.500000  0.859791  0.093925  1
  B  B5  1  0.000000  0.110392  0.048152  1
  B  B6  1  0.000000  0.885612  0.956144  1
  B  B7  1  0.000000  0.387284  0.546859  1
  B  B8  1  0.000000  0.613302  0.451295  1
  B  B9  1  0.000000  0.135187  0.468939  1
  B  B10  1  0.000000  0.864665  0.529107  1
  B  B11  1  0.000000  0.364880  0.971125  1
  B  B12  1  0.000000  0.638306  0.032966  1
  B  B13  1  0.000000  0.020776  0.190394  1
  B  B14  1  0.000000  0.972394  0.809235  1
  B  B15  1  0.000000  0.472794  0.693638  1
  B  B16  1  0.000000  0.526378  0.305003  1
  B  B17  1  0.000000  0.208218  0.310031  1
  B  B18  1  0.000000  0.792323  0.688914  1
  B  B19  1  0.000000  0.291916  0.814416  1
  B  B20  1  0.000000  0.713799  0.183926  1
  Ir  Ir21  1  0.500000  0.356296  0.403810  1
  Ir  Ir22  1  0.500000  0.645177  0.597531  1
  Ir  Ir23  1  0.500000  0.137500  0.907239  1
