# generated using pymatgen
data_Rb3Tl5(CoCl4)4
_symmetry_space_group_name_H-M   'P 1'
_cell_length_a   7.20475400
_cell_length_b   9.45004592
_cell_length_c   12.63957500
_cell_angle_alpha   90.18055691
_cell_angle_beta   90.00000000
_cell_angle_gamma   90.00000000
_symmetry_Int_Tables_number   1
_chemical_formula_structural   Rb3Tl5(CoCl4)4
_chemical_formula_sum   'Rb3 Tl5 Co4 Cl16'
_cell_volume   860.56442863
_cell_formula_units_Z   1
loop_
 _symmetry_equiv_pos_site_id
 _symmetry_equiv_pos_as_xyz
  1  'x, y, z'
loop_
 _atom_site_type_symbol
 _atom_site_label
 _atom_site_symmetry_multiplicity
 _atom_site_fract_x
 _atom_site_fract_y
 _atom_site_fract_z
 _atom_site_occupancy
  Rb  Rb0  1  0.250000  0.982586  0.174301  1
  Rb  Rb1  1  0.750000  0.018499  0.826333  1
  Rb  Rb2  1  0.750000  0.517969  0.673665  1
  Tl  Tl3  1  0.250000  0.481633  0.326792  1
  Tl  Tl4  1  0.250000  0.624463  0.931665  1
  Tl  Tl5  1  0.750000  0.377794  0.071028  1
  Tl  Tl6  1  0.750000  0.870773  0.429819  1
  Tl  Tl7  1  0.250000  0.129030  0.569926  1
  Co  Co8  1  0.250000  0.726843  0.573628  1
  Co  Co9  1  0.750000  0.272518  0.425439  1
  Co  Co10  1  0.750000  0.771891  0.076347  1
  Co  Co11  1  0.250000  0.228500  0.925208  1
  Cl  Cl12  1  0.994123  0.824844  0.644276  1
  Cl  Cl13  1  0.008153  0.176661  0.355540  1
  Cl  Cl14  1  0.006130  0.674099  0.146889  1
  Cl  Cl15  1  0.491847  0.176661  0.355540  1
  Cl  Cl16  1  0.994714  0.326764  0.854160  1
  Cl  Cl17  1  0.505877  0.824844  0.644276  1
  Cl  Cl18  1  0.505286  0.326764  0.854160  1
  Cl  Cl19  1  0.493870  0.674099  0.146889  1
  Cl  Cl20  1  0.250000  0.489266  0.587260  1
  Cl  Cl21  1  0.750000  0.509020  0.407492  1
  Cl  Cl22  1  0.750000  0.008709  0.092455  1
  Cl  Cl23  1  0.250000  0.991767  0.908074  1
  Cl  Cl24  1  0.250000  0.315607  0.092315  1
  Cl  Cl25  1  0.750000  0.685033  0.909203  1
  Cl  Cl26  1  0.750000  0.184795  0.591678  1
  Cl  Cl27  1  0.250000  0.808568  0.405642  1
