# generated using pymatgen
data_Zr10Zn2Sn5Bi
_symmetry_space_group_name_H-M   'P 1'
_cell_length_a   8.73936125
_cell_length_b   8.73936061
_cell_length_c   5.90982300
_cell_angle_alpha   90.00000000
_cell_angle_beta   90.00000000
_cell_angle_gamma   119.93874310
_symmetry_Int_Tables_number   1
_chemical_formula_structural   Zr10Zn2Sn5Bi
_chemical_formula_sum   'Zr10 Zn2 Sn5 Bi1'
_cell_volume   391.13997295
_cell_formula_units_Z   1
loop_
 _symmetry_equiv_pos_site_id
 _symmetry_equiv_pos_as_xyz
  1  'x, y, z'
loop_
 _atom_site_type_symbol
 _atom_site_label
 _atom_site_symmetry_multiplicity
 _atom_site_fract_x
 _atom_site_fract_y
 _atom_site_fract_z
 _atom_site_occupancy
  Zr  Zr0  1  0.669115  0.332865  0.001336  1
  Zr  Zr1  1  0.332865  0.669115  0.001336  1
  Zr  Zr2  1  0.332865  0.669115  0.498664  1
  Zr  Zr3  1  0.669115  0.332865  0.498664  1
  Zr  Zr4  1  0.734807  0.734807  0.750000  1
  Zr  Zr5  1  0.265772  0.995328  0.750000  1
  Zr  Zr6  1  0.995328  0.265772  0.750000  1
  Zr  Zr7  1  0.267235  0.267235  0.250000  1
  Zr  Zr8  1  0.731780  0.000619  0.250000  1
  Zr  Zr9  1  0.000619  0.731780  0.250000  1
  Zn  Zn10  1  0.999623  0.999623  0.001341  1
  Zn  Zn11  1  0.999623  0.999623  0.498659  1
  Sn  Sn12  1  0.614637  0.999313  0.750000  1
  Sn  Sn13  1  0.999313  0.614637  0.750000  1
  Sn  Sn14  1  0.616869  0.616869  0.250000  1
  Sn  Sn15  1  0.384621  0.001007  0.250000  1
  Sn  Sn16  1  0.001007  0.384621  0.250000  1
  Bi  Bi17  1  0.384804  0.384804  0.750000  1
