# generated using pymatgen
data_Nd3Ta(Ni4P3)2
_symmetry_space_group_name_H-M   'P 1'
_cell_length_a   3.86034000
_cell_length_b   10.84403600
_cell_length_c   12.54295500
_cell_angle_alpha   90.00000000
_cell_angle_beta   90.00000000
_cell_angle_gamma   90.00000000
_symmetry_Int_Tables_number   1
_chemical_formula_structural   Nd3Ta(Ni4P3)2
_chemical_formula_sum   'Nd6 Ta2 Ni16 P12'
_cell_volume   525.06899201
_cell_formula_units_Z   2
loop_
 _symmetry_equiv_pos_site_id
 _symmetry_equiv_pos_as_xyz
  1  'x, y, z'
loop_
 _atom_site_type_symbol
 _atom_site_label
 _atom_site_symmetry_multiplicity
 _atom_site_fract_x
 _atom_site_fract_y
 _atom_site_fract_z
 _atom_site_occupancy
  Nd  Nd0  1  0.000000  0.500000  0.521863  1
  Nd  Nd1  1  0.500000  0.000000  0.478137  1
  Nd  Nd2  1  0.500000  0.818067  0.205917  1
  Nd  Nd3  1  0.500000  0.181933  0.205917  1
  Nd  Nd4  1  0.000000  0.681933  0.794083  1
  Nd  Nd5  1  0.000000  0.318067  0.794083  1
  Ta  Ta6  1  0.500000  0.500000  0.148990  1
  Ta  Ta7  1  0.000000  0.000000  0.851010  1
  Ni  Ni8  1  0.500000  0.500000  0.700295  1
  Ni  Ni9  1  0.000000  0.000000  0.299705  1
  Ni  Ni10  1  0.000000  0.500000  0.983397  1
  Ni  Ni11  1  0.500000  0.000000  0.016603  1
  Ni  Ni12  1  0.500000  0.333450  0.989237  1
  Ni  Ni13  1  0.500000  0.666550  0.989237  1
  Ni  Ni14  1  0.000000  0.166550  0.010763  1
  Ni  Ni15  1  0.000000  0.833450  0.010763  1
  Ni  Ni16  1  0.500000  0.301120  0.425985  1
  Ni  Ni17  1  0.500000  0.698880  0.425985  1
  Ni  Ni18  1  0.000000  0.198880  0.574015  1
  Ni  Ni19  1  0.000000  0.801120  0.574015  1
  Ni  Ni20  1  0.500000  0.882009  0.711920  1
  Ni  Ni21  1  0.500000  0.117991  0.711920  1
  Ni  Ni22  1  0.000000  0.617991  0.288080  1
  Ni  Ni23  1  0.000000  0.382009  0.288080  1
  P  P24  1  0.500000  0.500000  0.881101  1
  P  P25  1  0.000000  0.000000  0.118899  1
  P  P26  1  0.500000  0.500000  0.345936  1
  P  P27  1  0.000000  0.000000  0.654064  1
  P  P28  1  0.500000  0.309475  0.611985  1
  P  P29  1  0.500000  0.690525  0.611985  1
  P  P30  1  0.000000  0.190525  0.388015  1
  P  P31  1  0.000000  0.809475  0.388015  1
  P  P32  1  0.500000  0.844540  0.897030  1
  P  P33  1  0.500000  0.155460  0.897030  1
  P  P34  1  0.000000  0.655460  0.102970  1
  P  P35  1  0.000000  0.344540  0.102970  1
