# generated using pymatgen
data_Ac3CuGeS7
_symmetry_space_group_name_H-M   'P 1'
_cell_length_a   10.67214100
_cell_length_b   10.67200009
_cell_length_c   6.03858400
_cell_angle_alpha   90.00003034
_cell_angle_beta   89.99993932
_cell_angle_gamma   120.00053347
_symmetry_Int_Tables_number   1
_chemical_formula_structural   Ac3CuGeS7
_chemical_formula_sum   'Ac6 Cu2 Ge2 S14'
_cell_volume   595.60835816
_cell_formula_units_Z   2
loop_
 _symmetry_equiv_pos_site_id
 _symmetry_equiv_pos_as_xyz
  1  'x, y, z'
loop_
 _atom_site_type_symbol
 _atom_site_label
 _atom_site_symmetry_multiplicity
 _atom_site_fract_x
 _atom_site_fract_y
 _atom_site_fract_z
 _atom_site_occupancy
  Ac  Ac0  1  0.126497  0.356719  0.249082  1
  Ac  Ac1  1  0.230220  0.873506  0.249083  1
  Ac  Ac2  1  0.643296  0.769785  0.249087  1
  Ac  Ac3  1  0.873501  0.643282  0.749082  1
  Ac  Ac4  1  0.769781  0.126493  0.749084  1
  Ac  Ac5  1  0.356702  0.230215  0.749085  1
  Cu  Cu6  1  0.000001  0.999997  0.276294  1
  Cu  Cu7  1  0.999997  0.999998  0.776254  1
  Ge  Ge8  1  0.666652  0.333327  0.167398  1
  Ge  Ge9  1  0.333349  0.666674  0.667393  1
  S  S10  1  0.524522  0.111614  0.023891  1
  S  S11  1  0.587085  0.475469  0.023896  1
  S  S12  1  0.888369  0.412905  0.023916  1
  S  S13  1  0.333350  0.666675  0.033799  1
  S  S14  1  0.842197  0.086441  0.265528  1
  S  S15  1  0.244245  0.157810  0.265523  1
  S  S16  1  0.913564  0.755749  0.265524  1
  S  S17  1  0.412915  0.524532  0.523895  1
  S  S18  1  0.475477  0.888386  0.523892  1
  S  S19  1  0.111633  0.587096  0.523916  1
  S  S20  1  0.666649  0.333323  0.533799  1
  S  S21  1  0.086435  0.244245  0.765523  1
  S  S22  1  0.755759  0.842194  0.765526  1
  S  S23  1  0.157801  0.913560  0.765526  1
