# generated using pymatgen
data_Hf2Mn3Ni9P7
_symmetry_space_group_name_H-M   'P 1'
_cell_length_a   9.03146400
_cell_length_b   9.03146428
_cell_length_c   3.58675300
_cell_angle_alpha   90.00000000
_cell_angle_beta   90.00000000
_cell_angle_gamma   119.99999997
_symmetry_Int_Tables_number   1
_chemical_formula_structural   Hf2Mn3Ni9P7
_chemical_formula_sum   'Hf2 Mn3 Ni9 P7'
_cell_volume   253.36605285
_cell_formula_units_Z   1
loop_
 _symmetry_equiv_pos_site_id
 _symmetry_equiv_pos_as_xyz
  1  'x, y, z'
loop_
 _atom_site_type_symbol
 _atom_site_label
 _atom_site_symmetry_multiplicity
 _atom_site_fract_x
 _atom_site_fract_y
 _atom_site_fract_z
 _atom_site_occupancy
  Hf  Hf0  1  0.000000  0.000000  0.000000  1
  Hf  Hf1  1  0.666667  0.333333  0.500000  1
  Mn  Mn2  1  0.460906  0.569070  0.500000  1
  Mn  Mn3  1  0.430930  0.891836  0.500000  1
  Mn  Mn4  1  0.108164  0.539094  0.500000  1
  Ni  Ni5  1  0.707891  0.602582  0.000000  1
  Ni  Ni6  1  0.397418  0.105309  0.000000  1
  Ni  Ni7  1  0.894691  0.292109  0.000000  1
  Ni  Ni8  1  0.210113  0.385415  0.000000  1
  Ni  Ni9  1  0.614585  0.824698  0.000000  1
  Ni  Ni10  1  0.175302  0.789887  0.000000  1
  Ni  Ni11  1  0.278605  0.225762  0.500000  1
  Ni  Ni12  1  0.774238  0.052842  0.500000  1
  Ni  Ni13  1  0.947158  0.721395  0.500000  1
  P  P14  1  0.453579  0.374177  0.000000  1
  P  P15  1  0.625823  0.079403  0.000000  1
  P  P16  1  0.920597  0.546421  0.000000  1
  P  P17  1  0.042855  0.254829  0.500000  1
  P  P18  1  0.745171  0.788027  0.500000  1
  P  P19  1  0.211973  0.957145  0.500000  1
  P  P20  1  0.333333  0.666667  0.000000  1
