# generated using pymatgen
data_Tm6Co14Re(P4Rh)3
_symmetry_space_group_name_H-M   'P 1'
_cell_length_a   3.70503000
_cell_length_b   10.64919600
_cell_length_c   12.31515700
_cell_angle_alpha   90.00000000
_cell_angle_beta   90.00000000
_cell_angle_gamma   90.00000000
_symmetry_Int_Tables_number   1
_chemical_formula_structural   Tm6Co14Re(P4Rh)3
_chemical_formula_sum   'Tm6 Co14 Re1 P12 Rh3'
_cell_volume   485.90179345
_cell_formula_units_Z   1
loop_
 _symmetry_equiv_pos_site_id
 _symmetry_equiv_pos_as_xyz
  1  'x, y, z'
loop_
 _atom_site_type_symbol
 _atom_site_label
 _atom_site_symmetry_multiplicity
 _atom_site_fract_x
 _atom_site_fract_y
 _atom_site_fract_z
 _atom_site_occupancy
  Tm  Tm0  1  0.000000  0.500000  0.519887  1
  Tm  Tm1  1  0.500000  0.000000  0.479266  1
  Tm  Tm2  1  0.500000  0.814047  0.205731  1
  Tm  Tm3  1  0.500000  0.185953  0.205731  1
  Tm  Tm4  1  0.000000  0.684912  0.795904  1
  Tm  Tm5  1  0.000000  0.315088  0.795904  1
  Co  Co6  1  0.000000  0.500000  0.990303  1
  Co  Co7  1  0.500000  0.000000  0.012126  1
  Co  Co8  1  0.500000  0.333382  0.992955  1
  Co  Co9  1  0.500000  0.666618  0.992955  1
  Co  Co10  1  0.000000  0.169694  0.007981  1
  Co  Co11  1  0.000000  0.830306  0.007981  1
  Co  Co12  1  0.500000  0.299554  0.429651  1
  Co  Co13  1  0.500000  0.700446  0.429651  1
  Co  Co14  1  0.000000  0.200820  0.569094  1
  Co  Co15  1  0.000000  0.799180  0.569094  1
  Co  Co16  1  0.500000  0.878934  0.709284  1
  Co  Co17  1  0.500000  0.121066  0.709284  1
  Co  Co18  1  0.000000  0.619457  0.290515  1
  Co  Co19  1  0.000000  0.380543  0.290515  1
  Re  Re20  1  0.500000  0.500000  0.157798  1
  P  P21  1  0.500000  0.500000  0.887932  1
  P  P22  1  0.000000  0.000000  0.110278  1
  P  P23  1  0.500000  0.500000  0.350010  1
  P  P24  1  0.000000  0.000000  0.648542  1
  P  P25  1  0.500000  0.303907  0.613945  1
  P  P26  1  0.500000  0.696093  0.613945  1
  P  P27  1  0.000000  0.196254  0.385595  1
  P  P28  1  0.000000  0.803746  0.385595  1
  P  P29  1  0.500000  0.844266  0.893726  1
  P  P30  1  0.500000  0.155734  0.893726  1
  P  P31  1  0.000000  0.655241  0.108420  1
  P  P32  1  0.000000  0.344759  0.108420  1
  Rh  Rh33  1  0.000000  0.000000  0.839454  1
  Rh  Rh34  1  0.500000  0.500000  0.701881  1
  Rh  Rh35  1  0.000000  0.000000  0.296920  1
