# generated using pymatgen
data_Rb2TbF5
_symmetry_space_group_name_H-M   'P 1'
_cell_length_a   6.97228500
_cell_length_b   7.47841900
_cell_length_c   11.55638700
_cell_angle_alpha   90.00000000
_cell_angle_beta   90.00000000
_cell_angle_gamma   90.00000000
_symmetry_Int_Tables_number   1
_chemical_formula_structural   Rb2TbF5
_chemical_formula_sum   'Rb8 Tb4 F20'
_cell_volume   602.56930137
_cell_formula_units_Z   4
loop_
 _symmetry_equiv_pos_site_id
 _symmetry_equiv_pos_as_xyz
  1  'x, y, z'
loop_
 _atom_site_type_symbol
 _atom_site_label
 _atom_site_symmetry_multiplicity
 _atom_site_fract_x
 _atom_site_fract_y
 _atom_site_fract_z
 _atom_site_occupancy
  Rb  Rb0  1  0.531337  0.498421  0.828380  1
  Rb  Rb1  1  0.468663  0.501579  0.171620  1
  Rb  Rb2  1  0.031337  0.501579  0.671620  1
  Rb  Rb3  1  0.468663  0.998421  0.171620  1
  Rb  Rb4  1  0.968663  0.498421  0.328380  1
  Rb  Rb5  1  0.531337  0.001579  0.828380  1
  Rb  Rb6  1  0.968663  0.001579  0.328380  1
  Rb  Rb7  1  0.031337  0.998421  0.671620  1
  Tb  Tb8  1  0.560096  0.750000  0.500934  1
  Tb  Tb9  1  0.439904  0.250000  0.499066  1
  Tb  Tb10  1  0.060096  0.250000  0.999066  1
  Tb  Tb11  1  0.939904  0.750000  0.000934  1
  F  F12  1  0.844615  0.750000  0.816466  1
  F  F13  1  0.155385  0.250000  0.183534  1
  F  F14  1  0.344615  0.250000  0.683534  1
  F  F15  1  0.655385  0.750000  0.316466  1
  F  F16  1  0.374620  0.750000  0.658080  1
  F  F17  1  0.625380  0.250000  0.341920  1
  F  F18  1  0.874620  0.250000  0.841920  1
  F  F19  1  0.125380  0.750000  0.158080  1
  F  F20  1  0.877185  0.750000  0.515291  1
  F  F21  1  0.122815  0.250000  0.484709  1
  F  F22  1  0.377185  0.250000  0.984709  1
  F  F23  1  0.622815  0.750000  0.015291  1
  F  F24  1  0.638903  0.033404  0.572731  1
  F  F25  1  0.361097  0.966596  0.427269  1
  F  F26  1  0.138903  0.966596  0.927269  1
  F  F27  1  0.361097  0.533404  0.427269  1
  F  F28  1  0.861097  0.033404  0.072731  1
  F  F29  1  0.638903  0.466596  0.572731  1
  F  F30  1  0.861097  0.466596  0.072731  1
  F  F31  1  0.138903  0.533404  0.927269  1
