# generated using pymatgen
data_La2YTm3Ta2O14
_symmetry_space_group_name_H-M   'P 1'
_cell_length_a   6.48699122
_cell_length_b   6.49675269
_cell_length_c   7.60364900
_cell_angle_alpha   90.00000000
_cell_angle_beta   90.00000000
_cell_angle_gamma   108.97028322
_symmetry_Int_Tables_number   1
_chemical_formula_structural   La2YTm3Ta2O14
_chemical_formula_sum   'La2 Y1 Tm3 Ta2 O14'
_cell_volume   303.04649487
_cell_formula_units_Z   1
loop_
 _symmetry_equiv_pos_site_id
 _symmetry_equiv_pos_as_xyz
  1  'x, y, z'
loop_
 _atom_site_type_symbol
 _atom_site_label
 _atom_site_symmetry_multiplicity
 _atom_site_fract_x
 _atom_site_fract_y
 _atom_site_fract_z
 _atom_site_occupancy
  La  La0  1  0.501124  0.500637  0.499203  1
  La  La1  1  0.501124  0.500637  0.000797  1
  Y  Y2  1  0.999269  0.467032  0.750000  1
  Tm  Tm3  1  0.531040  0.001854  0.750000  1
  Tm  Tm4  1  0.001810  0.532427  0.250000  1
  Tm  Tm5  1  0.468515  0.998150  0.250000  1
  Ta  Ta6  1  0.000004  0.000111  0.499079  1
  Ta  Ta7  1  0.000004  0.000111  0.000921  1
  O  O8  1  0.679596  0.935469  0.466184  1
  O  O9  1  0.931705  0.679420  0.529293  1
  O  O10  1  0.679596  0.935469  0.033816  1
  O  O11  1  0.931705  0.679420  0.970707  1
  O  O12  1  0.319594  0.064843  0.533923  1
  O  O13  1  0.066516  0.319230  0.463845  1
  O  O14  1  0.319594  0.064843  0.966077  1
  O  O15  1  0.066516  0.319230  0.036155  1
  O  O16  1  0.935059  0.062652  0.750000  1
  O  O17  1  0.066176  0.936172  0.250000  1
  O  O18  1  0.365246  0.642741  0.750000  1
  O  O19  1  0.640198  0.359038  0.250000  1
  O  O20  1  0.642656  0.352402  0.750000  1
  O  O21  1  0.352951  0.648111  0.250000  1
