# generated using pymatgen
data_KAsPbO4
_symmetry_space_group_name_H-M   'P 1'
_cell_length_a   6.09938500
_cell_length_b   7.90184400
_cell_length_c   10.28561300
_cell_angle_alpha   90.00000000
_cell_angle_beta   90.00000000
_cell_angle_gamma   90.00000000
_symmetry_Int_Tables_number   1
_chemical_formula_structural   KAsPbO4
_chemical_formula_sum   'K4 As4 Pb4 O16'
_cell_volume   495.72940284
_cell_formula_units_Z   4
loop_
 _symmetry_equiv_pos_site_id
 _symmetry_equiv_pos_as_xyz
  1  'x, y, z'
loop_
 _atom_site_type_symbol
 _atom_site_label
 _atom_site_symmetry_multiplicity
 _atom_site_fract_x
 _atom_site_fract_y
 _atom_site_fract_z
 _atom_site_occupancy
  K  K0  1  0.250000  0.836967  0.427635  1
  K  K1  1  0.250000  0.336967  0.072365  1
  K  K2  1  0.750000  0.163033  0.572365  1
  K  K3  1  0.750000  0.663033  0.927635  1
  As  As4  1  0.250000  0.300806  0.415806  1
  As  As5  1  0.250000  0.800806  0.084194  1
  As  As6  1  0.750000  0.699194  0.584194  1
  As  As7  1  0.750000  0.199194  0.915806  1
  Pb  Pb8  1  0.250000  0.512860  0.704330  1
  Pb  Pb9  1  0.250000  0.012860  0.795670  1
  Pb  Pb10  1  0.750000  0.487140  0.295670  1
  Pb  Pb11  1  0.750000  0.987140  0.204330  1
  O  O12  1  0.250000  0.158768  0.541763  1
  O  O13  1  0.250000  0.658768  0.958237  1
  O  O14  1  0.750000  0.841232  0.458237  1
  O  O15  1  0.750000  0.341232  0.041763  1
  O  O16  1  0.020891  0.270217  0.317341  1
  O  O17  1  0.479109  0.770217  0.182659  1
  O  O18  1  0.520891  0.729783  0.682659  1
  O  O19  1  0.979109  0.229783  0.817341  1
  O  O20  1  0.979109  0.729783  0.682659  1
  O  O21  1  0.520891  0.229783  0.817341  1
  O  O22  1  0.479109  0.270217  0.317341  1
  O  O23  1  0.020891  0.770217  0.182659  1
  O  O24  1  0.250000  0.506339  0.472635  1
  O  O25  1  0.250000  0.006339  0.027365  1
  O  O26  1  0.750000  0.493661  0.527365  1
  O  O27  1  0.750000  0.993661  0.972635  1
