# generated using pymatgen
data_Er2HfB2Ir5
_symmetry_space_group_name_H-M   'P 1'
_cell_length_a   9.67239400
_cell_length_b   9.67239400
_cell_length_c   3.25522500
_cell_angle_alpha   90.00000000
_cell_angle_beta   90.00000000
_cell_angle_gamma   90.00000000
_symmetry_Int_Tables_number   1
_chemical_formula_structural   Er2HfB2Ir5
_chemical_formula_sum   'Er4 Hf2 B4 Ir10'
_cell_volume   304.54324445
_cell_formula_units_Z   2
loop_
 _symmetry_equiv_pos_site_id
 _symmetry_equiv_pos_as_xyz
  1  'x, y, z'
loop_
 _atom_site_type_symbol
 _atom_site_label
 _atom_site_symmetry_multiplicity
 _atom_site_fract_x
 _atom_site_fract_y
 _atom_site_fract_z
 _atom_site_occupancy
  Er  Er0  1  0.175514  0.675514  0.000000  1
  Er  Er1  1  0.324486  0.175514  0.000000  1
  Er  Er2  1  0.824486  0.324486  0.000000  1
  Er  Er3  1  0.675514  0.824486  0.000000  1
  Hf  Hf4  1  0.500000  0.500000  0.000000  1
  Hf  Hf5  1  0.000000  0.000000  0.000000  1
  B  B6  1  0.380347  0.880347  0.000000  1
  B  B7  1  0.119653  0.380347  0.000000  1
  B  B8  1  0.880347  0.619653  0.000000  1
  B  B9  1  0.619653  0.119653  0.000000  1
  Ir  Ir10  1  0.223810  0.929138  0.500000  1
  Ir  Ir11  1  0.929138  0.776190  0.500000  1
  Ir  Ir12  1  0.429138  0.723810  0.500000  1
  Ir  Ir13  1  0.570862  0.276190  0.500000  1
  Ir  Ir14  1  0.723810  0.570862  0.500000  1
  Ir  Ir15  1  0.276190  0.429138  0.500000  1
  Ir  Ir16  1  0.070862  0.223810  0.500000  1
  Ir  Ir17  1  0.000000  0.500000  0.500000  1
  Ir  Ir18  1  0.500000  0.000000  0.500000  1
  Ir  Ir19  1  0.776190  0.070862  0.500000  1
