# generated using pymatgen
data_Dy3TmAl17GeIr6
_symmetry_space_group_name_H-M   'P 1'
_cell_length_a   7.54796302
_cell_length_b   7.54792790
_cell_length_c   9.45407600
_cell_angle_alpha   90.00000000
_cell_angle_beta   90.00000000
_cell_angle_gamma   119.57926057
_symmetry_Int_Tables_number   1
_chemical_formula_structural   Dy3TmAl17GeIr6
_chemical_formula_sum   'Dy3 Tm1 Al17 Ge1 Ir6'
_cell_volume   468.41728813
_cell_formula_units_Z   1
loop_
 _symmetry_equiv_pos_site_id
 _symmetry_equiv_pos_as_xyz
  1  'x, y, z'
loop_
 _atom_site_type_symbol
 _atom_site_label
 _atom_site_symmetry_multiplicity
 _atom_site_fract_x
 _atom_site_fract_y
 _atom_site_fract_z
 _atom_site_occupancy
  Dy  Dy0  1  0.994722  0.676888  0.250000  1
  Dy  Dy1  1  0.003438  0.328414  0.750000  1
  Dy  Dy2  1  0.677158  0.994569  0.250000  1
  Tm  Tm3  1  0.328408  0.003144  0.750000  1
  Al  Al4  1  0.871997  0.871528  0.750000  1
  Al  Al5  1  0.000476  0.338212  0.074302  1
  Al  Al6  1  0.998494  0.665080  0.924430  1
  Al  Al7  1  0.998494  0.665080  0.575570  1
  Al  Al8  1  0.338011  0.000412  0.426368  1
  Al  Al9  1  0.000476  0.338212  0.425698  1
  Al  Al10  1  0.663992  0.997994  0.575704  1
  Al  Al11  1  0.663992  0.997994  0.924296  1
  Al  Al12  1  0.338011  0.000412  0.073632  1
  Al  Al13  1  0.332480  0.331984  0.559982  1
  Al  Al14  1  0.663464  0.663456  0.448402  1
  Al  Al15  1  0.663464  0.663456  0.051598  1
  Al  Al16  1  0.332480  0.331984  0.940018  1
  Al  Al17  1  0.337345  0.554276  0.250000  1
  Al  Al18  1  0.660598  0.450490  0.750000  1
  Al  Al19  1  0.554201  0.337346  0.250000  1
  Al  Al20  1  0.450885  0.661364  0.750000  1
  Ge  Ge21  1  0.136900  0.136568  0.250000  1
  Ir  Ir22  1  0.669312  0.326279  0.999749  1
  Ir  Ir23  1  0.326562  0.669833  0.999743  1
  Ir  Ir24  1  0.326562  0.669833  0.500257  1
  Ir  Ir25  1  0.669312  0.326279  0.500251  1
  Ir  Ir26  1  0.999385  0.999455  0.000780  1
  Ir  Ir27  1  0.999385  0.999455  0.499220  1
