# generated using pymatgen
data_Tb3Gd2Si3
_symmetry_space_group_name_H-M   'P 1'
_cell_length_a   8.49474900
_cell_length_b   8.49697849
_cell_length_c   6.40495000
_cell_angle_alpha   90.00000000
_cell_angle_beta   90.00000000
_cell_angle_gamma   119.99131683
_symmetry_Int_Tables_number   1
_chemical_formula_structural   Tb3Gd2Si3
_chemical_formula_sum   'Tb6 Gd4 Si6'
_cell_volume   400.40495040
_cell_formula_units_Z   2
loop_
 _symmetry_equiv_pos_site_id
 _symmetry_equiv_pos_as_xyz
  1  'x, y, z'
loop_
 _atom_site_type_symbol
 _atom_site_label
 _atom_site_symmetry_multiplicity
 _atom_site_fract_x
 _atom_site_fract_y
 _atom_site_fract_z
 _atom_site_occupancy
  Tb  Tb0  1  0.000191  0.753462  0.750000  1
  Tb  Tb1  1  0.999957  0.246435  0.250000  1
  Tb  Tb2  1  0.753521  0.753565  0.250000  1
  Tb  Tb3  1  0.753493  0.000000  0.750000  1
  Tb  Tb4  1  0.246729  0.246538  0.750000  1
  Tb  Tb5  1  0.246796  0.000000  0.250000  1
  Gd  Gd6  1  0.666558  0.333344  0.000024  1
  Gd  Gd7  1  0.333214  0.666656  0.499976  1
  Gd  Gd8  1  0.333214  0.666656  0.000024  1
  Gd  Gd9  1  0.666558  0.333344  0.499976  1
  Si  Si10  1  0.392648  0.392721  0.250000  1
  Si  Si11  1  0.999927  0.607279  0.250000  1
  Si  Si12  1  0.999841  0.392545  0.750000  1
  Si  Si13  1  0.607297  0.607455  0.750000  1
  Si  Si14  1  0.607553  0.000000  0.250000  1
  Si  Si15  1  0.392501  0.000000  0.750000  1
