# generated using pymatgen
data_Gd4Tl2Cu4S9
_symmetry_space_group_name_H-M   'P 1'
_cell_length_a   4.03985854
_cell_length_b   7.37926673
_cell_length_c   15.61857500
_cell_angle_alpha   94.00605841
_cell_angle_beta   97.43079285
_cell_angle_gamma   105.88637263
_symmetry_Int_Tables_number   1
_chemical_formula_structural   Gd4Tl2Cu4S9
_chemical_formula_sum   'Gd4 Tl2 Cu4 S9'
_cell_volume   441.35121765
_cell_formula_units_Z   1
loop_
 _symmetry_equiv_pos_site_id
 _symmetry_equiv_pos_as_xyz
  1  'x, y, z'
loop_
 _atom_site_type_symbol
 _atom_site_label
 _atom_site_symmetry_multiplicity
 _atom_site_fract_x
 _atom_site_fract_y
 _atom_site_fract_z
 _atom_site_occupancy
  Gd  Gd0  1  0.399949  0.746091  0.054075  1
  Gd  Gd1  1  0.628116  0.860072  0.396988  1
  Gd  Gd2  1  0.371885  0.139929  0.603012  1
  Gd  Gd3  1  0.600051  0.253908  0.945925  1
  Tl  Tl4  1  0.256615  0.282855  0.230745  1
  Tl  Tl5  1  0.743385  0.717145  0.769255  1
  Cu  Cu6  1  0.980018  0.732296  0.229286  1
  Cu  Cu7  1  0.890840  0.321345  0.460740  1
  Cu  Cu8  1  0.109160  0.678655  0.539260  1
  Cu  Cu9  1  0.019983  0.267705  0.770714  1
  S  S10  1  0.000000  0.000000  0.000000  1
  S  S11  1  0.806137  0.511815  0.101384  1
  S  S12  1  0.564421  0.904746  0.223705  1
  S  S13  1  0.986659  0.595132  0.378608  1
  S  S14  1  0.288049  0.150709  0.425101  1
  S  S15  1  0.711951  0.849290  0.574899  1
  S  S16  1  0.013342  0.404869  0.621392  1
  S  S17  1  0.435579  0.095254  0.776295  1
  S  S18  1  0.193863  0.488184  0.898616  1
