# generated using pymatgen
data_Ca2(Al3Ni)3
_symmetry_space_group_name_H-M   'P 1'
_cell_length_a   7.46520635
_cell_length_b   7.46520690
_cell_length_c   9.31994900
_cell_angle_alpha   90.00000000
_cell_angle_beta   90.00000000
_cell_angle_gamma   119.27196316
_symmetry_Int_Tables_number   1
_chemical_formula_structural   Ca2(Al3Ni)3
_chemical_formula_sum   'Ca4 Al18 Ni6'
_cell_volume   453.07215885
_cell_formula_units_Z   2
loop_
 _symmetry_equiv_pos_site_id
 _symmetry_equiv_pos_as_xyz
  1  'x, y, z'
loop_
 _atom_site_type_symbol
 _atom_site_label
 _atom_site_symmetry_multiplicity
 _atom_site_fract_x
 _atom_site_fract_y
 _atom_site_fract_z
 _atom_site_occupancy
  Ca  Ca0  1  0.993798  0.671871  0.250000  1
  Ca  Ca1  1  0.006202  0.328129  0.750000  1
  Ca  Ca2  1  0.671871  0.993798  0.250000  1
  Ca  Ca3  1  0.328129  0.006202  0.750000  1
  Al  Al4  1  0.126375  0.126375  0.250000  1
  Al  Al5  1  0.873625  0.873625  0.750000  1
  Al  Al6  1  0.997038  0.334886  0.072767  1
  Al  Al7  1  0.002962  0.665114  0.927233  1
  Al  Al8  1  0.002962  0.665114  0.572767  1
  Al  Al9  1  0.334886  0.997038  0.427233  1
  Al  Al10  1  0.997038  0.334886  0.427233  1
  Al  Al11  1  0.665114  0.002962  0.572767  1
  Al  Al12  1  0.665114  0.002962  0.927233  1
  Al  Al13  1  0.334886  0.997038  0.072767  1
  Al  Al14  1  0.331274  0.331274  0.544346  1
  Al  Al15  1  0.668726  0.668726  0.455654  1
  Al  Al16  1  0.668726  0.668726  0.044346  1
  Al  Al17  1  0.331274  0.331274  0.955654  1
  Al  Al18  1  0.339914  0.551342  0.250000  1
  Al  Al19  1  0.660086  0.448658  0.750000  1
  Al  Al20  1  0.551342  0.339914  0.250000  1
  Al  Al21  1  0.448658  0.660086  0.750000  1
  Ni  Ni22  1  0.669901  0.330099  0.000000  1
  Ni  Ni23  1  0.330099  0.669901  0.000000  1
  Ni  Ni24  1  0.330099  0.669901  0.500000  1
  Ni  Ni25  1  0.669901  0.330099  0.500000  1
  Ni  Ni26  1  0.000000  0.000000  0.000000  1
  Ni  Ni27  1  0.000000  0.000000  0.500000  1
