# generated using pymatgen
data_Sr3InCoO6
_symmetry_space_group_name_H-M   'P 1'
_cell_length_a   6.72131059
_cell_length_b   6.71888978
_cell_length_c   6.71969028
_cell_angle_alpha   92.18619758
_cell_angle_beta   92.18179711
_cell_angle_gamma   92.17426679
_symmetry_Int_Tables_number   1
_chemical_formula_structural   Sr3InCoO6
_chemical_formula_sum   'Sr6 In2 Co2 O12'
_cell_volume   302.78292405
_cell_formula_units_Z   2
loop_
 _symmetry_equiv_pos_site_id
 _symmetry_equiv_pos_as_xyz
  1  'x, y, z'
loop_
 _atom_site_type_symbol
 _atom_site_label
 _atom_site_symmetry_multiplicity
 _atom_site_fract_x
 _atom_site_fract_y
 _atom_site_fract_z
 _atom_site_occupancy
  Sr  Sr0  1  0.881739  0.249889  0.618264  1
  Sr  Sr1  1  0.249961  0.618367  0.881649  1
  Sr  Sr2  1  0.618281  0.881725  0.250122  1
  Sr  Sr3  1  0.750018  0.381650  0.118355  1
  Sr  Sr4  1  0.381727  0.118273  0.749884  1
  Sr  Sr5  1  0.118275  0.750096  0.381740  1
  In  In6  1  0.749944  0.749811  0.750175  1
  In  In7  1  0.250003  0.250138  0.249793  1
  Co  Co8  1  0.999936  0.999990  0.999957  1
  Co  Co9  1  0.499998  0.499931  0.499956  1
  O  O10  1  0.219801  0.412265  0.541852  1
  O  O11  1  0.412388  0.542228  0.219714  1
  O  O12  1  0.542096  0.219764  0.412114  1
  O  O13  1  0.912374  0.719746  0.042262  1
  O  O14  1  0.719688  0.041873  0.912387  1
  O  O15  1  0.041931  0.912178  0.719787  1
  O  O16  1  0.780314  0.587719  0.458167  1
  O  O17  1  0.587676  0.457728  0.780304  1
  O  O18  1  0.457922  0.780218  0.587899  1
  O  O19  1  0.087603  0.280377  0.957759  1
  O  O20  1  0.280295  0.958149  0.087622  1
  O  O21  1  0.958030  0.087887  0.280236  1
