# generated using pymatgen
data_TbGd5Er2(MoO6)4
_symmetry_space_group_name_H-M   'P 1'
_cell_length_a   10.01959174
_cell_length_b   10.01959133
_cell_length_c   5.42802407
_cell_angle_alpha   75.04070664
_cell_angle_beta   75.04071245
_cell_angle_gamma   68.26244113
_symmetry_Int_Tables_number   1
_chemical_formula_structural   TbGd5Er2(MoO6)4
_chemical_formula_sum   'Tb1 Gd5 Er2 Mo4 O24'
_cell_volume   480.93923496
_cell_formula_units_Z   1
loop_
 _symmetry_equiv_pos_site_id
 _symmetry_equiv_pos_as_xyz
  1  'x, y, z'
loop_
 _atom_site_type_symbol
 _atom_site_label
 _atom_site_symmetry_multiplicity
 _atom_site_fract_x
 _atom_site_fract_y
 _atom_site_fract_z
 _atom_site_occupancy
  Tb  Tb0  1  0.137083  0.862917  0.750000  1
  Gd  Gd1  1  0.215678  0.448601  0.878588  1
  Gd  Gd2  1  0.448062  0.215714  0.378849  1
  Gd  Gd3  1  0.784286  0.551938  0.121151  1
  Gd  Gd4  1  0.551399  0.784322  0.621412  1
  Gd  Gd5  1  0.863025  0.136975  0.250000  1
  Er  Er6  1  0.395544  0.604456  0.250000  1
  Er  Er7  1  0.603906  0.396094  0.750000  1
  Mo  Mo8  1  0.989916  0.703567  0.435964  1
  Mo  Mo9  1  0.296433  0.010084  0.064036  1
  Mo  Mo10  1  0.010539  0.296314  0.563910  1
  Mo  Mo11  1  0.703686  0.989461  0.936090  1
  O  O12  1  0.429092  0.392691  0.576082  1
  O  O13  1  0.607309  0.570908  0.923918  1
  O  O14  1  0.570777  0.607441  0.423677  1
  O  O15  1  0.392559  0.429223  0.076323  1
  O  O16  1  0.194667  0.663233  0.571387  1
  O  O17  1  0.336767  0.805333  0.928613  1
  O  O18  1  0.805450  0.337587  0.429818  1
  O  O19  1  0.662413  0.194550  0.070182  1
  O  O20  1  0.113680  0.673920  0.122441  1
  O  O21  1  0.326080  0.886320  0.377559  1
  O  O22  1  0.886284  0.327445  0.875855  1
  O  O23  1  0.672555  0.113716  0.624145  1
  O  O24  1  0.710975  0.817788  0.864655  1
  O  O25  1  0.182212  0.289025  0.635345  1
  O  O26  1  0.288876  0.181973  0.135306  1
  O  O27  1  0.818027  0.711124  0.364694  1
  O  O28  1  0.888224  0.952635  0.982342  1
  O  O29  1  0.047365  0.111776  0.517658  1
  O  O30  1  0.976471  0.569309  0.740270  1
  O  O31  1  0.953681  0.887083  0.485006  1
  O  O32  1  0.569479  0.976112  0.240715  1
  O  O33  1  0.023888  0.430521  0.259285  1
  O  O34  1  0.430691  0.023529  0.759730  1
  O  O35  1  0.112917  0.046319  0.014994  1
