# generated using pymatgen
data_AcY(Ni4B)2
_symmetry_space_group_name_H-M   'P 1'
_cell_length_a   5.06916600
_cell_length_b   5.06177791
_cell_length_c   7.03084900
_cell_angle_alpha   90.00000000
_cell_angle_beta   90.00000000
_cell_angle_gamma   120.04828134
_symmetry_Int_Tables_number   1
_chemical_formula_structural   AcY(Ni4B)2
_chemical_formula_sum   'Ac1 Y1 Ni8 B2'
_cell_volume   156.15881524
_cell_formula_units_Z   1
loop_
 _symmetry_equiv_pos_site_id
 _symmetry_equiv_pos_as_xyz
  1  'x, y, z'
loop_
 _atom_site_type_symbol
 _atom_site_label
 _atom_site_symmetry_multiplicity
 _atom_site_fract_x
 _atom_site_fract_y
 _atom_site_fract_z
 _atom_site_occupancy
  Ac  Ac0  1  0.999985  0.000000  0.000000  1
  Y  Y1  1  0.999982  0.000000  0.500000  1
  Ni  Ni2  1  0.333570  0.667176  0.000000  1
  Ni  Ni3  1  0.666396  0.332824  0.000000  1
  Ni  Ni4  1  0.499979  0.000000  0.298509  1
  Ni  Ni5  1  0.499984  0.500001  0.298209  1
  Ni  Ni6  1  0.999983  0.499999  0.298209  1
  Ni  Ni7  1  0.499979  0.000000  0.701491  1
  Ni  Ni8  1  0.499984  0.500001  0.701791  1
  Ni  Ni9  1  0.999983  0.499999  0.701791  1
  B  B10  1  0.333025  0.666079  0.500000  1
  B  B11  1  0.666945  0.333921  0.500000  1
