# generated using pymatgen
data_TbTm2Lu5(CdPt)2
_symmetry_space_group_name_H-M   'P 1'
_cell_length_a   9.54335383
_cell_length_b   9.54335341
_cell_length_c   9.53424200
_cell_angle_alpha   60.03157750
_cell_angle_beta   60.03157895
_cell_angle_gamma   59.93683634
_symmetry_Int_Tables_number   1
_chemical_formula_structural   TbTm2Lu5(CdPt)2
_chemical_formula_sum   'Tb2 Tm4 Lu10 Cd4 Pt4'
_cell_volume   614.00568437
_cell_formula_units_Z   2
loop_
 _symmetry_equiv_pos_site_id
 _symmetry_equiv_pos_as_xyz
  1  'x, y, z'
loop_
 _atom_site_type_symbol
 _atom_site_label
 _atom_site_symmetry_multiplicity
 _atom_site_fract_x
 _atom_site_fract_y
 _atom_site_fract_z
 _atom_site_occupancy
  Tb  Tb0  1  0.565431  0.565431  0.934569  1
  Tb  Tb1  1  0.934569  0.934569  0.565431  1
  Tm  Tm2  1  0.936882  0.563118  0.563118  1
  Tm  Tm3  1  0.563118  0.936882  0.936882  1
  Tm  Tm4  1  0.563118  0.936882  0.563118  1
  Tm  Tm5  1  0.936882  0.563118  0.936882  1
  Lu  Lu6  1  0.352271  0.352271  0.352417  1
  Lu  Lu7  1  0.352271  0.352271  0.943042  1
  Lu  Lu8  1  0.352417  0.943042  0.352271  1
  Lu  Lu9  1  0.943042  0.352417  0.352271  1
  Lu  Lu10  1  0.810628  0.189372  0.189372  1
  Lu  Lu11  1  0.189372  0.810628  0.810628  1
  Lu  Lu12  1  0.189372  0.810628  0.189372  1
  Lu  Lu13  1  0.810628  0.189372  0.810628  1
  Lu  Lu14  1  0.189188  0.189188  0.810812  1
  Lu  Lu15  1  0.810812  0.810812  0.189188  1
  Cd  Cd16  1  0.582241  0.582241  0.580726  1
  Cd  Cd17  1  0.582241  0.582241  0.254792  1
  Cd  Cd18  1  0.580726  0.254792  0.582241  1
  Cd  Cd19  1  0.254792  0.580726  0.582241  1
  Pt  Pt20  1  0.143513  0.143513  0.142233  1
  Pt  Pt21  1  0.143513  0.143513  0.570743  1
  Pt  Pt22  1  0.142233  0.570743  0.143513  1
  Pt  Pt23  1  0.570743  0.142233  0.143513  1
