# generated using pymatgen
data_LaTb2Y(Mo2O7)2
_symmetry_space_group_name_H-M   'P 1'
_cell_length_a   7.49546943
_cell_length_b   7.47886188
_cell_length_c   7.47886086
_cell_angle_alpha   58.98603642
_cell_angle_beta   59.24361635
_cell_angle_gamma   59.24361936
_symmetry_Int_Tables_number   1
_chemical_formula_structural   LaTb2Y(Mo2O7)2
_chemical_formula_sum   'La1 Tb2 Y1 Mo4 O14'
_cell_volume   290.75812397
_cell_formula_units_Z   1
loop_
 _symmetry_equiv_pos_site_id
 _symmetry_equiv_pos_as_xyz
  1  'x, y, z'
loop_
 _atom_site_type_symbol
 _atom_site_label
 _atom_site_symmetry_multiplicity
 _atom_site_fract_x
 _atom_site_fract_y
 _atom_site_fract_z
 _atom_site_occupancy
  La  La0  1  0.125000  0.125000  0.125000  1
  Tb  Tb1  1  0.125000  0.125000  0.625000  1
  Tb  Tb2  1  0.125000  0.625000  0.125000  1
  Y  Y3  1  0.625000  0.125000  0.125000  1
  Mo  Mo4  1  0.625000  0.625000  0.625000  1
  Mo  Mo5  1  0.125000  0.625000  0.625000  1
  Mo  Mo6  1  0.625000  0.625000  0.125000  1
  Mo  Mo7  1  0.625000  0.125000  0.625000  1
  O  O8  1  0.994302  0.999262  0.999262  1
  O  O9  1  0.255698  0.250738  0.250738  1
  O  O10  1  0.291565  0.289207  0.703595  1
  O  O11  1  0.533907  0.541753  0.961005  1
  O  O12  1  0.716093  0.288995  0.708247  1
  O  O13  1  0.699071  0.288645  0.288645  1
  O  O14  1  0.279817  0.717326  0.717326  1
  O  O15  1  0.291565  0.703595  0.289207  1
  O  O16  1  0.716093  0.708247  0.288995  1
  O  O17  1  0.970183  0.532674  0.532674  1
  O  O18  1  0.550929  0.961355  0.961355  1
  O  O19  1  0.958435  0.960793  0.546405  1
  O  O20  1  0.958435  0.546405  0.960793  1
  O  O21  1  0.533907  0.961005  0.541753  1
