# generated using pymatgen
data_Tb7Dy(OsI4)2
_symmetry_space_group_name_H-M   'P 1'
_cell_length_a   11.69727354
_cell_length_b   11.69807619
_cell_length_c   6.21601305
_cell_angle_alpha   90.04085131
_cell_angle_beta   90.04577352
_cell_angle_gamma   89.91716477
_symmetry_Int_Tables_number   1
_chemical_formula_structural   Tb7Dy(OsI4)2
_chemical_formula_sum   'Tb7 Dy1 Os2 I8'
_cell_volume   850.57048104
_cell_formula_units_Z   1
loop_
 _symmetry_equiv_pos_site_id
 _symmetry_equiv_pos_as_xyz
  1  'x, y, z'
loop_
 _atom_site_type_symbol
 _atom_site_label
 _atom_site_symmetry_multiplicity
 _atom_site_fract_x
 _atom_site_fract_y
 _atom_site_fract_z
 _atom_site_occupancy
  Tb  Tb0  1  0.807532  0.079396  0.001130  1
  Tb  Tb1  1  0.079330  0.807573  0.501139  1
  Tb  Tb2  1  0.078773  0.192465  0.001188  1
  Tb  Tb3  1  0.192456  0.078793  0.501208  1
  Tb  Tb4  1  0.921139  0.807527  0.998795  1
  Tb  Tb5  1  0.920490  0.192351  0.498870  1
  Tb  Tb6  1  0.192402  0.920550  0.998854  1
  Dy  Dy7  1  0.808235  0.921479  0.498773  1
  Os  Os8  1  0.000039  0.999776  0.250110  1
  Os  Os9  1  0.999692  0.000118  0.749885  1
  I  I10  1  0.653766  0.143243  0.487204  1
  I  I11  1  0.854936  0.656094  0.507422  1
  I  I12  1  0.344078  0.144960  0.992574  1
  I  I13  1  0.144959  0.344075  0.492571  1
  I  I14  1  0.655902  0.855033  0.007472  1
  I  I15  1  0.346276  0.856567  0.512808  1
  I  I16  1  0.143436  0.653711  0.987188  1
  I  I17  1  0.856559  0.346289  0.012808  1
