# generated using pymatgen
data_Na2P7(Ru5Rh)2
_symmetry_space_group_name_H-M   'P 1'
_cell_length_a   9.40783330
_cell_length_b   9.48100967
_cell_length_c   3.93028700
_cell_angle_alpha   90.00000000
_cell_angle_beta   90.00000000
_cell_angle_gamma   120.30175006
_symmetry_Int_Tables_number   1
_chemical_formula_structural   Na2P7(Ru5Rh)2
_chemical_formula_sum   'Na2 P7 Ru10 Rh2'
_cell_volume   302.67079841
_cell_formula_units_Z   1
loop_
 _symmetry_equiv_pos_site_id
 _symmetry_equiv_pos_as_xyz
  1  'x, y, z'
loop_
 _atom_site_type_symbol
 _atom_site_label
 _atom_site_symmetry_multiplicity
 _atom_site_fract_x
 _atom_site_fract_y
 _atom_site_fract_z
 _atom_site_occupancy
  Na  Na0  1  0.667353  0.333159  0.500000  1
  Na  Na1  1  0.331329  0.665745  0.000000  1
  P  P2  1  0.603103  0.713349  0.500000  1
  P  P3  1  0.998877  0.002080  0.000000  1
  P  P4  1  0.281857  0.885700  0.500000  1
  P  P5  1  0.108340  0.398143  0.500000  1
  P  P6  1  0.888189  0.580157  0.000000  1
  P  P7  1  0.421868  0.303762  0.000000  1
  P  P8  1  0.696039  0.113945  0.000000  1
  Ru  Ru9  1  0.917127  0.119673  0.500000  1
  Ru  Ru10  1  0.210271  0.087415  0.500000  1
  Ru  Ru11  1  0.879583  0.795931  0.500000  1
  Ru  Ru12  1  0.724936  0.886836  0.000000  1
  Ru  Ru13  1  0.110767  0.843301  0.000000  1
  Ru  Ru14  1  0.162474  0.273192  0.000000  1
  Ru  Ru15  1  0.427930  0.063915  0.000000  1
  Ru  Ru16  1  0.936645  0.360617  0.000000  1
  Ru  Ru17  1  0.639589  0.572592  0.000000  1
  Ru  Ru18  1  0.044802  0.608700  0.500000  1
  Rh  Rh19  1  0.556684  0.949881  0.500000  1
  Rh  Rh20  1  0.392237  0.441904  0.500000  1
