# generated using pymatgen
data_Tb6P13Ir9Rh11
_symmetry_space_group_name_H-M   'P 1'
_cell_length_a   13.34751928
_cell_length_b   13.34171757
_cell_length_c   3.95947198
_cell_angle_alpha   89.95889057
_cell_angle_beta   89.88356640
_cell_angle_gamma   119.98939796
_symmetry_Int_Tables_number   1
_chemical_formula_structural   Tb6P13Ir9Rh11
_chemical_formula_sum   'Tb6 P13 Ir9 Rh11'
_cell_volume   610.69564991
_cell_formula_units_Z   1
loop_
 _symmetry_equiv_pos_site_id
 _symmetry_equiv_pos_as_xyz
  1  'x, y, z'
loop_
 _atom_site_type_symbol
 _atom_site_label
 _atom_site_symmetry_multiplicity
 _atom_site_fract_x
 _atom_site_fract_y
 _atom_site_fract_z
 _atom_site_occupancy
  Tb  Tb0  1  0.529096  0.717264  0.246921  1
  Tb  Tb1  1  0.282690  0.811903  0.246848  1
  Tb  Tb2  1  0.188418  0.471107  0.245502  1
  Tb  Tb3  1  0.472441  0.284058  0.751778  1
  Tb  Tb4  1  0.716019  0.187390  0.751725  1
  Tb  Tb5  1  0.812734  0.528647  0.752143  1
  P  P6  1  0.524397  0.139130  0.250218  1
  P  P7  1  0.860217  0.385005  0.249632  1
  P  P8  1  0.615195  0.475533  0.250427  1
  P  P9  1  0.946171  0.714245  0.256087  1
  P  P10  1  0.287643  0.232762  0.255168  1
  P  P11  1  0.766540  0.052908  0.255515  1
  P  P12  1  0.387828  0.526597  0.748573  1
  P  P13  1  0.473695  0.860852  0.748626  1
  P  P14  1  0.138553  0.612632  0.748802  1
  P  P15  1  0.715224  0.769728  0.744784  1
  P  P16  1  0.229912  0.945301  0.744650  1
  P  P17  1  0.055413  0.284798  0.741543  1
  P  P18  1  0.999945  0.000437  0.020870  1
  Ir  Ir19  1  0.333005  0.666402  0.750028  1
  Ir  Ir20  1  0.917133  0.246197  0.253159  1
  Ir  Ir21  1  0.752281  0.671466  0.255199  1
  Ir  Ir22  1  0.327668  0.080458  0.253388  1
  Ir  Ir23  1  0.437456  0.022797  0.751489  1
  Ir  Ir24  1  0.977528  0.414252  0.750724  1
  Ir  Ir25  1  0.585185  0.562406  0.751916  1
  Ir  Ir26  1  0.666274  0.333004  0.247901  1
  Ir  Ir27  1  0.096526  0.189207  0.246420  1
  Rh  Rh28  1  0.813218  0.908346  0.247624  1
  Rh  Rh29  1  0.090950  0.904814  0.248399  1
  Rh  Rh30  1  0.023405  0.583678  0.247411  1
  Rh  Rh31  1  0.416214  0.439729  0.247495  1
  Rh  Rh32  1  0.559849  0.975833  0.247463  1
  Rh  Rh33  1  0.670915  0.921178  0.744627  1
  Rh  Rh34  1  0.078639  0.749650  0.744986  1
  Rh  Rh35  1  0.251437  0.329468  0.743925  1
  Rh  Rh36  1  0.905426  0.814485  0.754784  1
  Rh  Rh37  1  0.184647  0.091341  0.751614  1
  Rh  Rh38  1  0.910113  0.094991  0.751633  1
