# generated using pymatgen
data_Y2Si2NiRu
_symmetry_space_group_name_H-M   'P 1'
_cell_length_a   4.23471100
_cell_length_b   6.92323047
_cell_length_c   7.22195329
_cell_angle_alpha   88.54103053
_cell_angle_beta   90.00000000
_cell_angle_gamma   90.00000000
_symmetry_Int_Tables_number   1
_chemical_formula_structural   Y2Si2NiRu
_chemical_formula_sum   'Y4 Si4 Ni2 Ru2'
_cell_volume   211.66372092
_cell_formula_units_Z   2
loop_
 _symmetry_equiv_pos_site_id
 _symmetry_equiv_pos_as_xyz
  1  'x, y, z'
loop_
 _atom_site_type_symbol
 _atom_site_label
 _atom_site_symmetry_multiplicity
 _atom_site_fract_x
 _atom_site_fract_y
 _atom_site_fract_z
 _atom_site_occupancy
  Y  Y0  1  0.250000  0.491675  0.201022  1
  Y  Y1  1  0.750000  0.508325  0.798978  1
  Y  Y2  1  0.250000  0.991201  0.316318  1
  Y  Y3  1  0.750000  0.008799  0.683682  1
  Si  Si4  1  0.250000  0.800764  0.903699  1
  Si  Si5  1  0.750000  0.199236  0.096301  1
  Si  Si6  1  0.250000  0.304781  0.600746  1
  Si  Si7  1  0.750000  0.695219  0.399254  1
  Ni  Ni8  1  0.750000  0.334206  0.424320  1
  Ni  Ni9  1  0.250000  0.665794  0.575680  1
  Ru  Ru10  1  0.750000  0.844142  0.070300  1
  Ru  Ru11  1  0.250000  0.155858  0.929700  1
