# generated using pymatgen
data_Pr2Al19CuRh4
_symmetry_space_group_name_H-M   'P 1'
_cell_length_a   6.87977900
_cell_length_b   6.90060576
_cell_length_c   9.19930100
_cell_angle_alpha   90.00000000
_cell_angle_beta   90.00000000
_cell_angle_gamma   97.50121606
_symmetry_Int_Tables_number   1
_chemical_formula_structural   Pr2Al19CuRh4
_chemical_formula_sum   'Pr2 Al19 Cu1 Rh4'
_cell_volume   432.99600107
_cell_formula_units_Z   1
loop_
 _symmetry_equiv_pos_site_id
 _symmetry_equiv_pos_as_xyz
  1  'x, y, z'
loop_
 _atom_site_type_symbol
 _atom_site_label
 _atom_site_symmetry_multiplicity
 _atom_site_fract_x
 _atom_site_fract_y
 _atom_site_fract_z
 _atom_site_occupancy
  Pr  Pr0  1  0.877906  0.122421  0.750000  1
  Pr  Pr1  1  0.121996  0.875104  0.250000  1
  Al  Al2  1  0.628007  0.390528  0.574392  1
  Al  Al3  1  0.383473  0.618169  0.446562  1
  Al  Al4  1  0.383473  0.618169  0.053438  1
  Al  Al5  1  0.628007  0.390528  0.925608  1
  Al  Al6  1  0.228946  0.226157  0.502036  1
  Al  Al7  1  0.776704  0.771048  0.505718  1
  Al  Al8  1  0.776704  0.771048  0.994282  1
  Al  Al9  1  0.228946  0.226157  0.997964  1
  Al  Al10  1  0.833106  0.163044  0.101133  1
  Al  Al11  1  0.157654  0.833208  0.896801  1
  Al  Al12  1  0.157654  0.833208  0.603199  1
  Al  Al13  1  0.833106  0.163044  0.398867  1
  Al  Al14  1  0.138460  0.403213  0.250000  1
  Al  Al15  1  0.401720  0.130290  0.750000  1
  Al  Al16  1  0.596828  0.860787  0.250000  1
  Al  Al17  1  0.207705  0.482993  0.750000  1
  Al  Al18  1  0.772322  0.519308  0.250000  1
  Al  Al19  1  0.520904  0.765071  0.750000  1
  Al  Al20  1  0.481397  0.225188  0.250000  1
  Cu  Cu21  1  0.861317  0.623617  0.750000  1
  Rh  Rh22  1  0.003401  0.496212  0.493213  1
  Rh  Rh23  1  0.003401  0.496212  0.006787  1
  Rh  Rh24  1  0.498430  0.997637  0.000050  1
  Rh  Rh25  1  0.498430  0.997637  0.499950  1
