# generated using pymatgen
data_YbRuI18
_symmetry_space_group_name_H-M   'P 1'
_cell_length_a   10.27188497
_cell_length_b   10.26994104
_cell_length_c   10.28848627
_cell_angle_alpha   93.39587707
_cell_angle_beta   93.61242856
_cell_angle_gamma   93.53765000
_symmetry_Int_Tables_number   1
_chemical_formula_structural   YbRuI18
_chemical_formula_sum   'Yb1 Ru1 I18'
_cell_volume   1078.95599170
_cell_formula_units_Z   1
loop_
 _symmetry_equiv_pos_site_id
 _symmetry_equiv_pos_as_xyz
  1  'x, y, z'
loop_
 _atom_site_type_symbol
 _atom_site_label
 _atom_site_symmetry_multiplicity
 _atom_site_fract_x
 _atom_site_fract_y
 _atom_site_fract_z
 _atom_site_occupancy
  Yb  Yb0  1  0.500000  0.500000  0.500000  1
  Ru  Ru1  1  0.000000  0.000000  0.000000  1
  I  I2  1  0.799983  0.465470  0.520003  1
  I  I3  1  0.519485  0.800414  0.466205  1
  I  I4  1  0.465884  0.520653  0.799792  1
  I  I5  1  0.200017  0.534530  0.479997  1
  I  I6  1  0.480515  0.199586  0.533795  1
  I  I7  1  0.534116  0.479347  0.200208  1
  I  I8  1  0.900819  0.359900  0.757686  1
  I  I9  1  0.756274  0.901415  0.359707  1
  I  I10  1  0.360492  0.757492  0.901804  1
  I  I11  1  0.099181  0.640100  0.242314  1
  I  I12  1  0.243726  0.098585  0.640293  1
  I  I13  1  0.639508  0.242508  0.098196  1
  I  I14  1  0.000455  0.973525  0.737625  1
  I  I15  1  0.736951  0.001158  0.970961  1
  I  I16  1  0.971463  0.736493  0.999914  1
  I  I17  1  0.999545  0.026475  0.262375  1
  I  I18  1  0.263049  0.998842  0.029039  1
  I  I19  1  0.028537  0.263507  0.000086  1
