# generated using pymatgen
data_Ac6Sc2Bi3Sb7
_symmetry_space_group_name_H-M   'P 1'
_cell_length_a   9.93577100
_cell_length_b   9.93577117
_cell_length_c   6.68301600
_cell_angle_alpha   90.00000000
_cell_angle_beta   90.00000000
_cell_angle_gamma   120.00000276
_symmetry_Int_Tables_number   1
_chemical_formula_structural   Ac6Sc2Bi3Sb7
_chemical_formula_sum   'Ac6 Sc2 Bi3 Sb7'
_cell_volume   571.35531871
_cell_formula_units_Z   1
loop_
 _symmetry_equiv_pos_site_id
 _symmetry_equiv_pos_as_xyz
  1  'x, y, z'
loop_
 _atom_site_type_symbol
 _atom_site_label
 _atom_site_symmetry_multiplicity
 _atom_site_fract_x
 _atom_site_fract_y
 _atom_site_fract_z
 _atom_site_occupancy
  Ac  Ac0  1  0.002645  0.623739  0.251811  1
  Ac  Ac1  1  0.376261  0.378906  0.251811  1
  Ac  Ac2  1  0.376261  0.997355  0.748189  1
  Ac  Ac3  1  0.621094  0.623739  0.748189  1
  Ac  Ac4  1  0.621094  0.997355  0.251811  1
  Ac  Ac5  1  0.002645  0.378906  0.748189  1
  Sc  Sc6  1  0.000000  0.000000  0.000000  1
  Sc  Sc7  1  0.000000  0.000000  0.500000  1
  Bi  Bi8  1  0.666667  0.333333  0.000000  1
  Bi  Bi9  1  0.333333  0.666667  0.000000  1
  Bi  Bi10  1  0.666667  0.333333  0.500000  1
  Sb  Sb11  1  0.998589  0.251981  0.249277  1
  Sb  Sb12  1  0.333333  0.666667  0.500000  1
  Sb  Sb13  1  0.253392  0.251981  0.750723  1
  Sb  Sb14  1  0.748019  0.001411  0.750723  1
  Sb  Sb15  1  0.998589  0.746608  0.750723  1
  Sb  Sb16  1  0.748019  0.746608  0.249277  1
  Sb  Sb17  1  0.253392  0.001411  0.249277  1
