# generated using pymatgen
data_Ti8Al14AsPt3Rh4
_symmetry_space_group_name_H-M   'P 1'
_cell_length_a   8.67551089
_cell_length_b   8.66590604
_cell_length_c   8.67686056
_cell_angle_alpha   119.96042566
_cell_angle_beta   119.96783261
_cell_angle_gamma   90.10916563
_symmetry_Int_Tables_number   1
_chemical_formula_structural   Ti8Al14AsPt3Rh4
_chemical_formula_sum   'Ti8 Al14 As1 Pt3 Rh4'
_cell_volume   461.33138858
_cell_formula_units_Z   1
loop_
 _symmetry_equiv_pos_site_id
 _symmetry_equiv_pos_as_xyz
  1  'x, y, z'
loop_
 _atom_site_type_symbol
 _atom_site_label
 _atom_site_symmetry_multiplicity
 _atom_site_fract_x
 _atom_site_fract_y
 _atom_site_fract_z
 _atom_site_occupancy
  Ti  Ti0  1  0.792309  0.296435  0.087217  1
  Ti  Ti1  1  0.209168  0.296440  0.504169  1
  Ti  Ti2  1  0.205551  0.707518  0.501899  1
  Ti  Ti3  1  0.208045  0.706583  0.910761  1
  Ti  Ti4  1  0.795815  0.706537  0.498526  1
  Ti  Ti5  1  0.792323  0.292679  0.500285  1
  Ti  Ti6  1  0.380470  0.120426  0.739808  1
  Ti  Ti7  1  0.377630  0.638800  0.261236  1
  Al  Al8  1  0.159879  0.339081  0.179243  1
  Al  Al9  1  0.160627  0.986356  0.825709  1
  Al  Al10  1  0.158511  0.339086  0.823416  1
  Al  Al11  1  0.515637  0.339087  0.180552  1
  Al  Al12  1  0.839147  0.660325  0.821161  1
  Al  Al13  1  0.841658  0.017547  0.175930  1
  Al  Al14  1  0.840304  0.659088  0.173588  1
  Al  Al15  1  0.485497  0.659068  0.818758  1
  Al  Al16  1  0.377360  0.122215  0.264543  1
  Al  Al17  1  0.857677  0.122177  0.744840  1
  Al  Al18  1  0.619095  0.879515  0.260410  1
  Al  Al19  1  0.621869  0.359997  0.738103  1
  Al  Al20  1  0.623419  0.877489  0.738305  1
  Al  Al21  1  0.139189  0.877478  0.254091  1
  As  As22  1  0.999096  0.498104  0.498994  1
  Pt  Pt23  1  0.997718  0.999031  0.498011  1
  Pt  Pt24  1  0.501051  0.999037  0.001246  1
  Pt  Pt25  1  0.500342  0.501751  0.001444  1
  Rh  Rh26  1  0.499873  0.499635  0.498833  1
  Rh  Rh27  1  0.000833  0.499596  0.999713  1
  Rh  Rh28  1  0.001416  0.000613  0.999358  1
  Rh  Rh29  1  0.498486  0.998306  0.499853  1
