# generated using pymatgen
data_Hf3Zn3FePd2
_symmetry_space_group_name_H-M   'P 1'
_cell_length_a   7.19438500
_cell_length_b   7.19438460
_cell_length_c   6.65983200
_cell_angle_alpha   90.00000000
_cell_angle_beta   90.00000000
_cell_angle_gamma   119.99999725
_symmetry_Int_Tables_number   1
_chemical_formula_structural   Hf3Zn3FePd2
_chemical_formula_sum   'Hf6 Zn6 Fe2 Pd4'
_cell_volume   298.52536858
_cell_formula_units_Z   2
loop_
 _symmetry_equiv_pos_site_id
 _symmetry_equiv_pos_as_xyz
  1  'x, y, z'
loop_
 _atom_site_type_symbol
 _atom_site_label
 _atom_site_symmetry_multiplicity
 _atom_site_fract_x
 _atom_site_fract_y
 _atom_site_fract_z
 _atom_site_occupancy
  Hf  Hf0  1  0.748418  0.052955  0.000000  1
  Hf  Hf1  1  0.304536  0.251582  0.000000  1
  Hf  Hf2  1  0.947045  0.695464  0.000000  1
  Hf  Hf3  1  0.307589  0.252586  0.500000  1
  Hf  Hf4  1  0.747414  0.055003  0.500000  1
  Hf  Hf5  1  0.944997  0.692411  0.500000  1
  Zn  Zn6  1  0.609024  0.667259  0.749847  1
  Zn  Zn7  1  0.058235  0.390976  0.749847  1
  Zn  Zn8  1  0.332741  0.941765  0.749847  1
  Zn  Zn9  1  0.609024  0.667259  0.250153  1
  Zn  Zn10  1  0.058235  0.390976  0.250153  1
  Zn  Zn11  1  0.332741  0.941765  0.250153  1
  Fe  Fe12  1  0.000000  0.000000  0.251622  1
  Fe  Fe13  1  0.000000  0.000000  0.748378  1
  Pd  Pd14  1  0.333333  0.666667  0.000000  1
  Pd  Pd15  1  0.333333  0.666667  0.500000  1
  Pd  Pd16  1  0.666667  0.333333  0.753804  1
  Pd  Pd17  1  0.666667  0.333333  0.246196  1
