# generated using pymatgen
data_TbPr4P12Ru18Pt
_symmetry_space_group_name_H-M   'P 1'
_cell_length_a   4.02891500
_cell_length_b   12.67867570
_cell_length_c   12.57719700
_cell_angle_alpha   119.72512148
_cell_angle_beta   90.00000000
_cell_angle_gamma   90.00000000
_symmetry_Int_Tables_number   1
_chemical_formula_structural   TbPr4P12Ru18Pt
_chemical_formula_sum   'Tb1 Pr4 P12 Ru18 Pt1'
_cell_volume   557.92108693
_cell_formula_units_Z   1
loop_
 _symmetry_equiv_pos_site_id
 _symmetry_equiv_pos_as_xyz
  1  'x, y, z'
loop_
 _atom_site_type_symbol
 _atom_site_label
 _atom_site_symmetry_multiplicity
 _atom_site_fract_x
 _atom_site_fract_y
 _atom_site_fract_z
 _atom_site_occupancy
  Tb  Tb0  1  0.000000  0.661703  0.330301  1
  Pr  Pr1  1  0.500000  0.001432  0.183585  1
  Pr  Pr2  1  0.500000  0.183701  0.998578  1
  Pr  Pr3  1  0.500000  0.815985  0.815332  1
  Pr  Pr4  1  0.000000  0.337038  0.667978  1
  P  P5  1  0.000000  0.997884  0.808515  1
  P  P6  1  0.000000  0.813211  0.002394  1
  P  P7  1  0.000000  0.188038  0.187136  1
  P  P8  1  0.500000  0.305618  0.477426  1
  P  P9  1  0.500000  0.179809  0.702100  1
  P  P10  1  0.500000  0.526720  0.831571  1
  P  P11  1  0.500000  0.815379  0.518034  1
  P  P12  1  0.500000  0.476775  0.303551  1
  P  P13  1  0.500000  0.696008  0.176632  1
  P  P14  1  0.000000  0.000914  0.367673  1
  P  P15  1  0.000000  0.375049  0.000220  1
  P  P16  1  0.000000  0.623950  0.625500  1
  Ru  Ru17  1  0.000000  0.554959  0.001772  1
  Ru  Ru18  1  0.000000  0.444940  0.446222  1
  Ru  Ru19  1  0.500000  0.997974  0.706576  1
  Ru  Ru20  1  0.500000  0.715881  0.003819  1
  Ru  Ru21  1  0.500000  0.286661  0.286033  1
  Ru  Ru22  1  0.000000  0.195128  0.379604  1
  Ru  Ru23  1  0.000000  0.183474  0.803726  1
  Ru  Ru24  1  0.000000  0.623681  0.818309  1
  Ru  Ru25  1  0.000000  0.813236  0.616389  1
  Ru  Ru26  1  0.000000  0.379166  0.193748  1
  Ru  Ru27  1  0.000000  0.805203  0.187991  1
  Ru  Ru28  1  0.500000  0.124563  0.492829  1
  Ru  Ru29  1  0.500000  0.369981  0.879323  1
  Ru  Ru30  1  0.500000  0.509517  0.634650  1
  Ru  Ru31  1  0.500000  0.627977  0.505933  1
  Ru  Ru32  1  0.500000  0.495165  0.127574  1
  Ru  Ru33  1  0.500000  0.873359  0.369879  1
  Ru  Ru34  1  0.000000  0.999593  0.997974  1
  Pt  Pt35  1  0.000000  0.000227  0.551126  1
