# generated using pymatgen
data_Tb19Nd(Bi2Te)4
_symmetry_space_group_name_H-M   'P 1'
_cell_length_a   8.21443300
_cell_length_b   9.54876700
_cell_length_c   11.99987500
_cell_angle_alpha   90.00000000
_cell_angle_beta   89.99931997
_cell_angle_gamma   90.00000000
_symmetry_Int_Tables_number   1
_chemical_formula_structural   Tb19Nd(Bi2Te)4
_chemical_formula_sum   'Tb19 Nd1 Bi8 Te4'
_cell_volume   941.24267630
_cell_formula_units_Z   1
loop_
 _symmetry_equiv_pos_site_id
 _symmetry_equiv_pos_as_xyz
  1  'x, y, z'
loop_
 _atom_site_type_symbol
 _atom_site_label
 _atom_site_symmetry_multiplicity
 _atom_site_fract_x
 _atom_site_fract_y
 _atom_site_fract_z
 _atom_site_occupancy
  Tb  Tb0  1  0.852396  0.750000  0.286916  1
  Tb  Tb1  1  0.647109  0.250000  0.786454  1
  Tb  Tb2  1  0.146065  0.250000  0.713582  1
  Tb  Tb3  1  0.689121  0.560520  0.056474  1
  Tb  Tb4  1  0.189481  0.939655  0.443583  1
  Tb  Tb5  1  0.310271  0.060518  0.942475  1
  Tb  Tb6  1  0.810810  0.439025  0.557725  1
  Tb  Tb7  1  0.310271  0.439482  0.942475  1
  Tb  Tb8  1  0.810810  0.060975  0.557725  1
  Tb  Tb9  1  0.689121  0.939480  0.056474  1
  Tb  Tb10  1  0.189481  0.560345  0.443583  1
  Tb  Tb11  1  0.477391  0.250000  0.488835  1
  Tb  Tb12  1  0.976666  0.250000  0.011479  1
  Tb  Tb13  1  0.523300  0.750000  0.513700  1
  Tb  Tb14  1  0.022536  0.750000  0.987573  1
  Tb  Tb15  1  0.320207  0.250000  0.219101  1
  Tb  Tb16  1  0.820725  0.250000  0.281832  1
  Tb  Tb17  1  0.682329  0.750000  0.780070  1
  Tb  Tb18  1  0.180619  0.750000  0.718309  1
  Nd  Nd19  1  0.353813  0.750000  0.213182  1
  Bi  Bi20  1  0.571689  0.997660  0.327377  1
  Bi  Bi21  1  0.065451  0.502662  0.174406  1
  Bi  Bi22  1  0.430906  0.494800  0.674715  1
  Bi  Bi23  1  0.930804  0.004904  0.825208  1
  Bi  Bi24  1  0.430906  0.005200  0.674715  1
  Bi  Bi25  1  0.930804  0.495096  0.825208  1
  Bi  Bi26  1  0.571689  0.502340  0.327377  1
  Bi  Bi27  1  0.065451  0.997338  0.174406  1
  Te  Te28  1  0.407541  0.750000  0.952874  1
  Te  Te29  1  0.906947  0.750000  0.542212  1
  Te  Te30  1  0.592244  0.250000  0.042070  1
  Te  Te31  1  0.093045  0.250000  0.457886  1
