# generated using pymatgen
data_Dy4Si6IrPt
_symmetry_space_group_name_H-M   'P 1'
_cell_length_a   8.17350600
_cell_length_b   8.17350651
_cell_length_c   7.96942700
_cell_angle_alpha   90.00000000
_cell_angle_beta   90.00000000
_cell_angle_gamma   119.99998984
_symmetry_Int_Tables_number   1
_chemical_formula_structural   Dy4Si6IrPt
_chemical_formula_sum   'Dy8 Si12 Ir2 Pt2'
_cell_volume   461.07818148
_cell_formula_units_Z   2
loop_
 _symmetry_equiv_pos_site_id
 _symmetry_equiv_pos_as_xyz
  1  'x, y, z'
loop_
 _atom_site_type_symbol
 _atom_site_label
 _atom_site_symmetry_multiplicity
 _atom_site_fract_x
 _atom_site_fract_y
 _atom_site_fract_z
 _atom_site_occupancy
  Dy  Dy0  1  0.000000  0.000000  0.250000  1
  Dy  Dy1  1  0.000000  0.000000  0.750000  1
  Dy  Dy2  1  0.012610  0.506305  0.250000  1
  Dy  Dy3  1  0.493695  0.506305  0.250000  1
  Dy  Dy4  1  0.509846  0.019691  0.750000  1
  Dy  Dy5  1  0.493695  0.987390  0.250000  1
  Dy  Dy6  1  0.509846  0.490154  0.750000  1
  Dy  Dy7  1  0.980309  0.490154  0.750000  1
  Si  Si8  1  0.164476  0.328951  0.000787  1
  Si  Si9  1  0.671049  0.835524  0.000787  1
  Si  Si10  1  0.164476  0.328951  0.499213  1
  Si  Si11  1  0.334550  0.167276  0.998554  1
  Si  Si12  1  0.164476  0.835524  0.000787  1
  Si  Si13  1  0.671049  0.835524  0.499213  1
  Si  Si14  1  0.832724  0.665450  0.998554  1
  Si  Si15  1  0.334550  0.167276  0.501446  1
  Si  Si16  1  0.164476  0.835524  0.499213  1
  Si  Si17  1  0.832724  0.665450  0.501446  1
  Si  Si18  1  0.832724  0.167276  0.998554  1
  Si  Si19  1  0.832724  0.167276  0.501446  1
  Ir  Ir20  1  0.666667  0.333333  0.034291  1
  Ir  Ir21  1  0.666667  0.333333  0.465709  1
  Pt  Pt22  1  0.333333  0.666667  0.975159  1
  Pt  Pt23  1  0.333333  0.666667  0.524841  1
