# generated using pymatgen
data_TmHf5(Be2Ir5)2
_symmetry_space_group_name_H-M   'P 1'
_cell_length_a   9.54174195
_cell_length_b   9.54174195
_cell_length_c   3.31907900
_cell_angle_alpha   90.00000000
_cell_angle_beta   90.00000000
_cell_angle_gamma   89.85206693
_symmetry_Int_Tables_number   1
_chemical_formula_structural   TmHf5(Be2Ir5)2
_chemical_formula_sum   'Tm1 Hf5 Be4 Ir10'
_cell_volume   302.18400748
_cell_formula_units_Z   1
loop_
 _symmetry_equiv_pos_site_id
 _symmetry_equiv_pos_as_xyz
  1  'x, y, z'
loop_
 _atom_site_type_symbol
 _atom_site_label
 _atom_site_symmetry_multiplicity
 _atom_site_fract_x
 _atom_site_fract_y
 _atom_site_fract_z
 _atom_site_occupancy
  Tm  Tm0  1  0.175192  0.675192  0.000000  1
  Hf  Hf1  1  0.324669  0.174452  0.000000  1
  Hf  Hf2  1  0.824948  0.324948  0.000000  1
  Hf  Hf3  1  0.499725  0.499828  0.000000  1
  Hf  Hf4  1  0.674452  0.824669  0.000000  1
  Hf  Hf5  1  0.999828  0.999725  0.000000  1
  Be  Be6  1  0.382324  0.882324  0.000000  1
  Be  Be7  1  0.118383  0.378754  0.000000  1
  Be  Be8  1  0.878754  0.618383  0.000000  1
  Be  Be9  1  0.619736  0.119736  0.000000  1
  Ir  Ir10  1  0.220299  0.936570  0.500000  1
  Ir  Ir11  1  0.921640  0.783847  0.500000  1
  Ir  Ir12  1  0.436570  0.720299  0.500000  1
  Ir  Ir13  1  0.573288  0.284049  0.500000  1
  Ir  Ir14  1  0.714914  0.570910  0.500000  1
  Ir  Ir15  1  0.283847  0.421640  0.500000  1
  Ir  Ir16  1  0.070910  0.214914  0.500000  1
  Ir  Ir17  1  0.994137  0.494137  0.500000  1
  Ir  Ir18  1  0.502334  0.002334  0.500000  1
  Ir  Ir19  1  0.784049  0.073288  0.500000  1
