# generated using pymatgen
data_HfZr2GaP
_symmetry_space_group_name_H-M   'P 1'
_cell_length_a   7.12676200
_cell_length_b   7.12793600
_cell_length_c   3.66129300
_cell_angle_alpha   90.00000000
_cell_angle_beta   90.00000000
_cell_angle_gamma   90.00000000
_symmetry_Int_Tables_number   1
_chemical_formula_structural   HfZr2GaP
_chemical_formula_sum   'Hf2 Zr4 Ga2 P2'
_cell_volume   185.99040177
_cell_formula_units_Z   2
loop_
 _symmetry_equiv_pos_site_id
 _symmetry_equiv_pos_as_xyz
  1  'x, y, z'
loop_
 _atom_site_type_symbol
 _atom_site_label
 _atom_site_symmetry_multiplicity
 _atom_site_fract_x
 _atom_site_fract_y
 _atom_site_fract_z
 _atom_site_occupancy
  Hf  Hf0  1  0.003032  0.006527  0.000000  1
  Hf  Hf1  1  0.503032  0.493473  0.000000  1
  Zr  Zr2  1  0.669456  0.180245  0.500000  1
  Zr  Zr3  1  0.169456  0.319755  0.500000  1
  Zr  Zr4  1  0.825469  0.659988  0.500000  1
  Zr  Zr5  1  0.325469  0.840012  0.500000  1
  Ga  Ga6  1  0.628961  0.871719  0.000000  1
  Ga  Ga7  1  0.128961  0.628281  0.000000  1
  P  P8  1  0.873083  0.373116  0.000000  1
  P  P9  1  0.373083  0.126884  0.000000  1
