# generated using pymatgen
data_Ho7Er3(In3Br)2
_symmetry_space_group_name_H-M   'P 1'
_cell_length_a   9.14049700
_cell_length_b   9.14049759
_cell_length_c   6.72309400
_cell_angle_alpha   90.00000000
_cell_angle_beta   90.00000000
_cell_angle_gamma   120.00000148
_symmetry_Int_Tables_number   1
_chemical_formula_structural   Ho7Er3(In3Br)2
_chemical_formula_sum   'Ho7 Er3 In6 Br2'
_cell_volume   486.45140009
_cell_formula_units_Z   1
loop_
 _symmetry_equiv_pos_site_id
 _symmetry_equiv_pos_as_xyz
  1  'x, y, z'
loop_
 _atom_site_type_symbol
 _atom_site_label
 _atom_site_symmetry_multiplicity
 _atom_site_fract_x
 _atom_site_fract_y
 _atom_site_fract_z
 _atom_site_occupancy
  Ho  Ho0  1  0.733723  0.733641  0.249948  1
  Ho  Ho1  1  0.999918  0.733641  0.750052  1
  Ho  Ho2  1  0.733723  0.000082  0.750052  1
  Ho  Ho3  1  0.333333  0.666667  0.500000  1
  Ho  Ho4  1  0.266359  0.266277  0.750052  1
  Ho  Ho5  1  0.999918  0.266277  0.249948  1
  Ho  Ho6  1  0.266359  0.000082  0.249948  1
  Er  Er7  1  0.666667  0.333333  0.500000  1
  Er  Er8  1  0.333333  0.666667  0.000000  1
  Er  Er9  1  0.666667  0.333333  0.000000  1
  In  In10  1  0.392870  0.000117  0.750067  1
  In  In11  1  0.999883  0.607130  0.249933  1
  In  In12  1  0.607248  0.000117  0.249933  1
  In  In13  1  0.999883  0.392752  0.750067  1
  In  In14  1  0.392870  0.392752  0.249933  1
  In  In15  1  0.607248  0.607130  0.750067  1
  Br  Br16  1  0.000000  0.000000  0.500000  1
  Br  Br17  1  0.000000  0.000000  0.000000  1
