# generated using pymatgen
data_LiHo13Er3Cd3Co4
_symmetry_space_group_name_H-M   'P 1'
_cell_length_a   9.43406736
_cell_length_b   9.42596349
_cell_length_c   9.44300359
_cell_angle_alpha   60.01690677
_cell_angle_beta   60.03314683
_cell_angle_gamma   59.97637671
_symmetry_Int_Tables_number   1
_chemical_formula_structural   LiHo13Er3Cd3Co4
_chemical_formula_sum   'Li1 Ho13 Er3 Cd3 Co4'
_cell_volume   593.89051986
_cell_formula_units_Z   1
loop_
 _symmetry_equiv_pos_site_id
 _symmetry_equiv_pos_as_xyz
  1  'x, y, z'
loop_
 _atom_site_type_symbol
 _atom_site_label
 _atom_site_symmetry_multiplicity
 _atom_site_fract_x
 _atom_site_fract_y
 _atom_site_fract_z
 _atom_site_occupancy
  Li  Li0  1  0.570814  0.570640  0.287775  1
  Ho  Ho1  1  0.937906  0.561929  0.938278  1
  Ho  Ho2  1  0.814442  0.813778  0.185352  1
  Ho  Ho3  1  0.343633  0.344090  0.347577  1
  Ho  Ho4  1  0.561871  0.938099  0.938321  1
  Ho  Ho5  1  0.564164  0.936748  0.562959  1
  Ho  Ho6  1  0.188914  0.811910  0.810063  1
  Ho  Ho7  1  0.188892  0.188854  0.810006  1
  Ho  Ho8  1  0.347818  0.348140  0.956145  1
  Ho  Ho9  1  0.343705  0.964426  0.347972  1
  Ho  Ho10  1  0.812272  0.188771  0.809928  1
  Ho  Ho11  1  0.561889  0.561783  0.938455  1
  Ho  Ho12  1  0.186353  0.813814  0.185511  1
  Ho  Ho13  1  0.964648  0.344023  0.347611  1
  Er  Er14  1  0.936298  0.936738  0.562952  1
  Er  Er15  1  0.814199  0.185957  0.185686  1
  Er  Er16  1  0.936405  0.564197  0.563106  1
  Cd  Cd17  1  0.258782  0.582260  0.576436  1
  Cd  Cd18  1  0.582543  0.582099  0.576441  1
  Cd  Cd19  1  0.582576  0.258513  0.576487  1
  Co  Co20  1  0.577043  0.142603  0.138166  1
  Co  Co21  1  0.142174  0.142548  0.138275  1
  Co  Co22  1  0.142184  0.577102  0.138555  1
  Co  Co23  1  0.140480  0.140982  0.577950  1
