# generated using pymatgen
data_PrSm2As4Pd7
_symmetry_space_group_name_H-M   'P 1'
_cell_length_a   8.25191673
_cell_length_b   8.25191716
_cell_length_c   9.75886567
_cell_angle_alpha   55.35317114
_cell_angle_beta   55.35316999
_cell_angle_gamma   29.38713382
_symmetry_Int_Tables_number   1
_chemical_formula_structural   PrSm2As4Pd7
_chemical_formula_sum   'Pr1 Sm2 As4 Pd7'
_cell_volume   263.82048367
_cell_formula_units_Z   1
loop_
 _symmetry_equiv_pos_site_id
 _symmetry_equiv_pos_as_xyz
  1  'x, y, z'
loop_
 _atom_site_type_symbol
 _atom_site_label
 _atom_site_symmetry_multiplicity
 _atom_site_fract_x
 _atom_site_fract_y
 _atom_site_fract_z
 _atom_site_occupancy
  Pr  Pr0  1  0.000000  0.000000  0.000000  1
  Sm  Sm1  1  0.677200  0.677200  0.328522  1
  Sm  Sm2  1  0.322800  0.322800  0.671478  1
  As  As3  1  0.338640  0.338640  0.257739  1
  As  As4  1  0.661360  0.661360  0.742261  1
  As  As5  1  0.893254  0.893254  0.821318  1
  As  As6  1  0.106746  0.106746  0.178682  1
  Pd  Pd7  1  0.305732  0.305732  0.026768  1
  Pd  Pd8  1  0.694268  0.694268  0.973232  1
  Pd  Pd9  1  0.511459  0.511459  0.707947  1
  Pd  Pd10  1  0.832650  0.832650  0.426444  1
  Pd  Pd11  1  0.488541  0.488541  0.292053  1
  Pd  Pd12  1  0.167350  0.167350  0.573556  1
  Pd  Pd13  1  0.000000  0.000000  0.500000  1
