# generated using pymatgen
data_Y2Ta(TiSi2)2
_symmetry_space_group_name_H-M   'P 1'
_cell_length_a   7.03673600
_cell_length_b   6.87224954
_cell_length_c   7.03290820
_cell_angle_alpha   71.22269071
_cell_angle_beta   90.00000000
_cell_angle_gamma   90.00000000
_symmetry_Int_Tables_number   1
_chemical_formula_structural   Y2Ta(TiSi2)2
_chemical_formula_sum   'Y4 Ta2 Ti4 Si8'
_cell_volume   321.99767837
_cell_formula_units_Z   2
loop_
 _symmetry_equiv_pos_site_id
 _symmetry_equiv_pos_as_xyz
  1  'x, y, z'
loop_
 _atom_site_type_symbol
 _atom_site_label
 _atom_site_symmetry_multiplicity
 _atom_site_fract_x
 _atom_site_fract_y
 _atom_site_fract_z
 _atom_site_occupancy
  Y  Y0  1  0.169730  0.933553  0.189375  1
  Y  Y1  1  0.330270  0.433553  0.189375  1
  Y  Y2  1  0.830270  0.066447  0.810625  1
  Y  Y3  1  0.669730  0.566447  0.810625  1
  Ta  Ta4  1  0.500000  0.000000  0.500000  1
  Ta  Ta5  1  0.000000  0.500000  0.500000  1
  Ti  Ti6  1  0.824673  0.250145  0.257549  1
  Ti  Ti7  1  0.324673  0.249855  0.742451  1
  Ti  Ti8  1  0.175327  0.749855  0.742451  1
  Ti  Ti9  1  0.675327  0.750145  0.257549  1
  Si  Si10  1  0.539296  0.127736  0.086163  1
  Si  Si11  1  0.374433  0.629508  0.496983  1
  Si  Si12  1  0.874433  0.870492  0.503017  1
  Si  Si13  1  0.039296  0.372264  0.913837  1
  Si  Si14  1  0.125567  0.129508  0.496983  1
  Si  Si15  1  0.625567  0.370492  0.503017  1
  Si  Si16  1  0.960704  0.627736  0.086163  1
  Si  Si17  1  0.460704  0.872264  0.913837  1
