# generated using pymatgen
data_Cs6NpScI12
_symmetry_space_group_name_H-M   'P 1'
_cell_length_a   10.59941200
_cell_length_b   10.59806303
_cell_length_c   8.78967200
_cell_angle_alpha   90.00000000
_cell_angle_beta   90.00000000
_cell_angle_gamma   89.67164960
_symmetry_Int_Tables_number   1
_chemical_formula_structural   Cs6NpScI12
_chemical_formula_sum   'Cs6 Np1 Sc1 I12'
_cell_volume   987.35608959
_cell_formula_units_Z   1
loop_
 _symmetry_equiv_pos_site_id
 _symmetry_equiv_pos_as_xyz
  1  'x, y, z'
loop_
 _atom_site_type_symbol
 _atom_site_label
 _atom_site_symmetry_multiplicity
 _atom_site_fract_x
 _atom_site_fract_y
 _atom_site_fract_z
 _atom_site_occupancy
  Cs  Cs0  1  0.000000  0.000000  0.500000  1
  Cs  Cs1  1  0.000000  0.000000  0.000000  1
  Cs  Cs2  1  0.231723  0.585465  0.500000  1
  Cs  Cs3  1  0.768277  0.414535  0.500000  1
  Cs  Cs4  1  0.414486  0.236783  0.000000  1
  Cs  Cs5  1  0.585514  0.763217  0.000000  1
  Np  Np6  1  0.500000  0.000000  0.500000  1
  Sc  Sc7  1  0.000000  0.500000  0.000000  1
  I  I8  1  0.700478  0.061121  0.749396  1
  I  I9  1  0.299522  0.938879  0.749396  1
  I  I10  1  0.943259  0.688106  0.235843  1
  I  I11  1  0.056741  0.311894  0.235843  1
  I  I12  1  0.299522  0.938879  0.250604  1
  I  I13  1  0.700478  0.061121  0.250604  1
  I  I14  1  0.056741  0.311894  0.764157  1
  I  I15  1  0.943259  0.688106  0.764157  1
  I  I16  1  0.571101  0.715776  0.500000  1
  I  I17  1  0.428899  0.284224  0.500000  1
  I  I18  1  0.264838  0.569131  0.000000  1
  I  I19  1  0.735162  0.430869  0.000000  1
