# generated using pymatgen
data_Tb8Ho2Sn5Bi3
_symmetry_space_group_name_H-M   'P 1'
_cell_length_a   8.16763500
_cell_length_b   8.21942577
_cell_length_c   15.58568400
_cell_angle_alpha   90.21106165
_cell_angle_beta   90.00000000
_cell_angle_gamma   90.00000000
_symmetry_Int_Tables_number   1
_chemical_formula_structural   Tb8Ho2Sn5Bi3
_chemical_formula_sum   'Tb16 Ho4 Sn10 Bi6'
_cell_volume   1046.31082644
_cell_formula_units_Z   2
loop_
 _symmetry_equiv_pos_site_id
 _symmetry_equiv_pos_as_xyz
  1  'x, y, z'
loop_
 _atom_site_type_symbol
 _atom_site_label
 _atom_site_symmetry_multiplicity
 _atom_site_fract_x
 _atom_site_fract_y
 _atom_site_fract_z
 _atom_site_occupancy
  Tb  Tb0  1  0.378815  0.839839  0.876157  1
  Tb  Tb1  1  0.878815  0.660161  0.623843  1
  Tb  Tb2  1  0.617254  0.160098  0.376293  1
  Tb  Tb3  1  0.117254  0.339902  0.123707  1
  Tb  Tb4  1  0.621979  0.164778  0.123241  1
  Tb  Tb5  1  0.121979  0.335222  0.376759  1
  Tb  Tb6  1  0.375761  0.843069  0.622848  1
  Tb  Tb7  1  0.875761  0.656931  0.877152  1
  Tb  Tb8  1  0.550010  0.331989  0.893073  1
  Tb  Tb9  1  0.050010  0.168011  0.606927  1
  Tb  Tb10  1  0.453924  0.678980  0.392348  1
  Tb  Tb11  1  0.953924  0.821020  0.107652  1
  Tb  Tb12  1  0.462821  0.668035  0.106780  1
  Tb  Tb13  1  0.962821  0.831965  0.393220  1
  Tb  Tb14  1  0.540455  0.323097  0.606225  1
  Tb  Tb15  1  0.040455  0.176903  0.893775  1
  Ho  Ho16  1  0.210556  0.499649  0.750002  1
  Ho  Ho17  1  0.710556  0.000351  0.749998  1
  Ho  Ho18  1  0.789581  0.500164  0.246793  1
  Ho  Ho19  1  0.289581  0.999836  0.253207  1
  Sn  Sn20  1  0.279463  0.028382  0.456026  1
  Sn  Sn21  1  0.779463  0.471618  0.043974  1
  Sn  Sn22  1  0.573493  0.625516  0.748529  1
  Sn  Sn23  1  0.073493  0.874484  0.751471  1
  Sn  Sn24  1  0.423861  0.375916  0.250144  1
  Sn  Sn25  1  0.923861  0.124084  0.249856  1
  Sn  Sn26  1  0.348939  0.147665  0.751653  1
  Sn  Sn27  1  0.848939  0.352335  0.748347  1
  Sn  Sn28  1  0.652951  0.854723  0.249694  1
  Sn  Sn29  1  0.152951  0.645277  0.250306  1
  Bi  Bi30  1  0.274720  0.023234  0.045211  1
  Bi  Bi31  1  0.774720  0.476766  0.454789  1
  Bi  Bi32  1  0.722749  0.973784  0.543861  1
  Bi  Bi33  1  0.222749  0.526216  0.956139  1
  Bi  Bi34  1  0.722671  0.973957  0.955717  1
  Bi  Bi35  1  0.222671  0.526043  0.544283  1
