# generated using pymatgen
data_Ca2SmZn9Ni5Ru
_symmetry_space_group_name_H-M   'P 1'
_cell_length_a   9.07456800
_cell_length_b   8.96155121
_cell_length_c   4.15322100
_cell_angle_alpha   90.00000000
_cell_angle_beta   90.00000000
_cell_angle_gamma   120.41805523
_symmetry_Int_Tables_number   1
_chemical_formula_structural   Ca2SmZn9Ni5Ru
_chemical_formula_sum   'Ca2 Sm1 Zn9 Ni5 Ru1'
_cell_volume   291.25933672
_cell_formula_units_Z   1
loop_
 _symmetry_equiv_pos_site_id
 _symmetry_equiv_pos_as_xyz
  1  'x, y, z'
loop_
 _atom_site_type_symbol
 _atom_site_label
 _atom_site_symmetry_multiplicity
 _atom_site_fract_x
 _atom_site_fract_y
 _atom_site_fract_z
 _atom_site_occupancy
  Ca  Ca0  1  0.330923  0.661847  0.000000  1
  Ca  Ca1  1  0.665885  0.331769  0.000000  1
  Sm  Sm2  1  0.002038  0.004076  0.500000  1
  Zn  Zn3  1  0.498524  0.997047  0.500000  1
  Zn  Zn4  1  0.507740  0.502169  0.500000  1
  Zn  Zn5  1  0.994429  0.502169  0.500000  1
  Zn  Zn6  1  0.294116  0.997722  0.000000  1
  Zn  Zn7  1  0.296411  0.289338  0.000000  1
  Zn  Zn8  1  0.999448  0.712442  0.000000  1
  Zn  Zn9  1  0.992927  0.289338  0.000000  1
  Zn  Zn10  1  0.712994  0.712442  0.000000  1
  Zn  Zn11  1  0.703606  0.997722  0.000000  1
  Ni  Ni12  1  0.812725  0.178482  0.500000  1
  Ni  Ni13  1  0.365758  0.178482  0.500000  1
  Ni  Ni14  1  0.640357  0.820102  0.500000  1
  Ni  Ni15  1  0.179744  0.820102  0.500000  1
  Ni  Ni16  1  0.819632  0.639263  0.500000  1
  Ru  Ru17  1  0.182743  0.365487  0.500000  1
