# generated using pymatgen
data_KRbZnH4
_symmetry_space_group_name_H-M   'P 1'
_cell_length_a   5.94056200
_cell_length_b   7.94414100
_cell_length_c   10.43311900
_cell_angle_alpha   90.00000000
_cell_angle_beta   90.00000000
_cell_angle_gamma   90.00000000
_symmetry_Int_Tables_number   1
_chemical_formula_structural   KRbZnH4
_chemical_formula_sum   'K4 Rb4 Zn4 H16'
_cell_volume   492.36666011
_cell_formula_units_Z   4
loop_
 _symmetry_equiv_pos_site_id
 _symmetry_equiv_pos_as_xyz
  1  'x, y, z'
loop_
 _atom_site_type_symbol
 _atom_site_label
 _atom_site_symmetry_multiplicity
 _atom_site_fract_x
 _atom_site_fract_y
 _atom_site_fract_z
 _atom_site_occupancy
  K  K0  1  0.250000  0.488002  0.313135  1
  K  K1  1  0.250000  0.988002  0.186865  1
  K  K2  1  0.750000  0.511998  0.686865  1
  K  K3  1  0.750000  0.011998  0.813135  1
  Rb  Rb4  1  0.250000  0.160404  0.591701  1
  Rb  Rb5  1  0.250000  0.660404  0.908299  1
  Rb  Rb6  1  0.750000  0.839596  0.408299  1
  Rb  Rb7  1  0.750000  0.339596  0.091701  1
  Zn  Zn8  1  0.250000  0.234557  0.918386  1
  Zn  Zn9  1  0.250000  0.734557  0.581614  1
  Zn  Zn10  1  0.750000  0.765443  0.081614  1
  Zn  Zn11  1  0.750000  0.265443  0.418386  1
  H  H12  1  0.021695  0.310298  0.846231  1
  H  H13  1  0.478305  0.810298  0.653769  1
  H  H14  1  0.521695  0.689702  0.153769  1
  H  H15  1  0.978305  0.189702  0.346231  1
  H  H16  1  0.978305  0.689702  0.153769  1
  H  H17  1  0.521695  0.189702  0.346231  1
  H  H18  1  0.478305  0.310298  0.846231  1
  H  H19  1  0.021695  0.810298  0.653769  1
  H  H20  1  0.250000  0.026809  0.913276  1
  H  H21  1  0.250000  0.526809  0.586724  1
  H  H22  1  0.750000  0.973191  0.086724  1
  H  H23  1  0.750000  0.473191  0.413276  1
  H  H24  1  0.250000  0.805573  0.430712  1
  H  H25  1  0.250000  0.305573  0.069288  1
  H  H26  1  0.750000  0.194427  0.569288  1
  H  H27  1  0.750000  0.694427  0.930712  1
