# generated using pymatgen
data_Ta6Si5Tc6B
_symmetry_space_group_name_H-M   'P 1'
_cell_length_a   7.48568367
_cell_length_b   7.48466662
_cell_length_c   7.48568345
_cell_angle_alpha   127.10347679
_cell_angle_beta   125.63100514
_cell_angle_gamma   79.29440275
_symmetry_Int_Tables_number   1
_chemical_formula_structural   Ta6Si5Tc6B
_chemical_formula_sum   'Ta6 Si5 Tc6 B1'
_cell_volume   262.84502581
_cell_formula_units_Z   1
loop_
 _symmetry_equiv_pos_site_id
 _symmetry_equiv_pos_as_xyz
  1  'x, y, z'
loop_
 _atom_site_type_symbol
 _atom_site_label
 _atom_site_symmetry_multiplicity
 _atom_site_fract_x
 _atom_site_fract_y
 _atom_site_fract_z
 _atom_site_occupancy
  Ta  Ta0  1  0.546726  0.088318  0.041593  1
  Ta  Ta1  1  0.448474  0.497305  0.548832  1
  Ta  Ta2  1  0.953269  0.494830  0.041561  1
  Ta  Ta3  1  0.051537  0.100355  0.548819  1
  Ta  Ta4  1  0.749997  0.895467  0.645469  1
  Ta  Ta5  1  0.249990  0.905943  0.155953  1
  Si  Si6  1  0.250023  0.506794  0.756771  1
  Si  Si7  1  0.332470  0.828859  0.494907  1
  Si  Si8  1  0.666019  0.162437  0.494891  1
  Si  Si9  1  0.833953  0.828859  0.996389  1
  Si  Si10  1  0.167547  0.162437  0.996418  1
  Tc  Tc11  1  0.521537  0.250780  0.772335  1
  Tc  Tc12  1  0.978445  0.250780  0.229243  1
  Tc  Tc13  1  0.096944  0.742035  0.592587  1
  Tc  Tc14  1  0.850601  0.495662  0.592641  1
  Tc  Tc15  1  0.649449  0.742035  0.145091  1
  Tc  Tc16  1  0.403021  0.495662  0.145060  1
  B  B17  1  0.749999  0.493638  0.243639  1
