# generated using pymatgen
data_Ba12Sm3Lu(Co4O15)2
_symmetry_space_group_name_H-M   'P 1'
_cell_length_a   6.08803902
_cell_length_b   8.10652114
_cell_length_c   18.61710600
_cell_angle_alpha   89.19690899
_cell_angle_beta   90.06587845
_cell_angle_gamma   90.02689067
_symmetry_Int_Tables_number   1
_chemical_formula_structural   Ba12Sm3Lu(Co4O15)2
_chemical_formula_sum   'Ba12 Sm3 Lu1 Co8 O30'
_cell_volume   918.71566998
_cell_formula_units_Z   1
loop_
 _symmetry_equiv_pos_site_id
 _symmetry_equiv_pos_as_xyz
  1  'x, y, z'
loop_
 _atom_site_type_symbol
 _atom_site_label
 _atom_site_symmetry_multiplicity
 _atom_site_fract_x
 _atom_site_fract_y
 _atom_site_fract_z
 _atom_site_occupancy
  Ba  Ba0  1  0.279227  0.997928  0.248088  1
  Ba  Ba1  1  0.720956  0.002081  0.753757  1
  Ba  Ba2  1  0.338262  0.499259  0.249857  1
  Ba  Ba3  1  0.668245  0.503912  0.752072  1
  Ba  Ba4  1  0.747536  0.977898  0.085338  1
  Ba  Ba5  1  0.752817  0.024345  0.408156  1
  Ba  Ba6  1  0.248376  0.018932  0.910511  1
  Ba  Ba7  1  0.247281  0.974447  0.592471  1
  Ba  Ba8  1  0.247762  0.496828  0.578728  1
  Ba  Ba9  1  0.243745  0.504964  0.919847  1
  Ba  Ba10  1  0.753734  0.502354  0.421647  1
  Ba  Ba11  1  0.749880  0.500236  0.075523  1
  Sm  Sm12  1  0.253101  0.755553  0.410807  1
  Sm  Sm13  1  0.250605  0.247063  0.087977  1
  Sm  Sm14  1  0.747806  0.243727  0.590475  1
  Lu  Lu15  1  0.744821  0.753130  0.911182  1
  Co  Co16  1  0.249732  0.754444  0.058911  1
  Co  Co17  1  0.254808  0.245307  0.437589  1
  Co  Co18  1  0.743034  0.247299  0.935755  1
  Co  Co19  1  0.746738  0.754051  0.563436  1
  Co  Co20  1  0.782232  0.768900  0.261951  1
  Co  Co21  1  0.781932  0.231046  0.235467  1
  Co  Co22  1  0.220381  0.230974  0.737976  1
  Co  Co23  1  0.222091  0.768921  0.766839  1
  O  O24  1  0.825732  0.000773  0.250637  1
  O  O25  1  0.176936  0.999289  0.752265  1
  O  O26  1  0.770881  0.951705  0.611055  1
  O  O27  1  0.762891  0.037214  0.895808  1
  O  O28  1  0.230002  0.046935  0.390529  1
  O  O29  1  0.228350  0.953988  0.104734  1
  O  O30  1  0.242118  0.535994  0.086148  1
  O  O31  1  0.242047  0.465562  0.411514  1
  O  O32  1  0.750542  0.471388  0.911165  1
  O  O33  1  0.758433  0.534269  0.590162  1
  O  O34  1  0.046757  0.716273  0.305009  1
  O  O35  1  0.046965  0.283527  0.193203  1
  O  O36  1  0.953552  0.282817  0.696837  1
  O  O37  1  0.965236  0.719140  0.816407  1
  O  O38  1  0.558087  0.751490  0.336355  1
  O  O39  1  0.556251  0.248020  0.162143  1
  O  O40  1  0.441419  0.246781  0.663398  1
  O  O41  1  0.462448  0.753368  0.836427  1
  O  O42  1  0.484461  0.763774  0.506712  1
  O  O43  1  0.486161  0.236018  0.994087  1
  O  O44  1  0.517025  0.235905  0.494291  1
  O  O45  1  0.510895  0.764069  0.999766  1
  O  O46  1  0.007520  0.764626  0.990698  1
  O  O47  1  0.025255  0.231232  0.508806  1
  O  O48  1  0.978890  0.236359  0.004554  1
  O  O49  1  0.976668  0.767909  0.492543  1
  O  O50  1  0.335837  0.694038  0.684794  1
  O  O51  1  0.355123  0.299578  0.818150  1
  O  O52  1  0.656036  0.302849  0.316686  1
  O  O53  1  0.652384  0.701501  0.180761  1
