# generated using pymatgen
data_NdHoU(SnRh)3
_symmetry_space_group_name_H-M   'P 1'
_cell_length_a   7.48238110
_cell_length_b   7.63704627
_cell_length_c   3.94910900
_cell_angle_alpha   90.00000000
_cell_angle_beta   90.00000000
_cell_angle_gamma   120.49939584
_symmetry_Int_Tables_number   1
_chemical_formula_structural   NdHoU(SnRh)3
_chemical_formula_sum   'Nd1 Ho1 U1 Sn3 Rh3'
_cell_volume   194.44082423
_cell_formula_units_Z   1
loop_
 _symmetry_equiv_pos_site_id
 _symmetry_equiv_pos_as_xyz
  1  'x, y, z'
loop_
 _atom_site_type_symbol
 _atom_site_label
 _atom_site_symmetry_multiplicity
 _atom_site_fract_x
 _atom_site_fract_y
 _atom_site_fract_z
 _atom_site_occupancy
  Nd  Nd0  1  0.591236  0.999937  0.000000  1
  Ho  Ho1  1  0.407193  0.406618  0.000000  1
  U  U2  1  0.999563  0.584269  0.000000  1
  Sn  Sn3  1  0.731358  0.742312  0.500000  1
  Sn  Sn4  1  0.003531  0.244003  0.500000  1
  Sn  Sn5  1  0.267410  0.013800  0.500000  1
  Rh  Rh6  1  0.003115  0.980302  0.000000  1
  Rh  Rh7  1  0.706977  0.371141  0.500000  1
  Rh  Rh8  1  0.289617  0.657618  0.500000  1
