# generated using pymatgen
data_Lu4Zr2ReTe2
_symmetry_space_group_name_H-M   'P 1'
_cell_length_a   8.09290776
_cell_length_b   8.09290769
_cell_length_c   3.92708000
_cell_angle_alpha   90.00000000
_cell_angle_beta   90.00000000
_cell_angle_gamma   120.58441253
_symmetry_Int_Tables_number   1
_chemical_formula_structural   Lu4Zr2ReTe2
_chemical_formula_sum   'Lu4 Zr2 Re1 Te2'
_cell_volume   221.42251871
_cell_formula_units_Z   1
loop_
 _symmetry_equiv_pos_site_id
 _symmetry_equiv_pos_as_xyz
  1  'x, y, z'
loop_
 _atom_site_type_symbol
 _atom_site_label
 _atom_site_symmetry_multiplicity
 _atom_site_fract_x
 _atom_site_fract_y
 _atom_site_fract_z
 _atom_site_occupancy
  Lu  Lu0  1  0.762220  0.762220  0.500000  1
  Lu  Lu1  1  0.003994  0.606255  0.000000  1
  Lu  Lu2  1  0.606255  0.003994  0.000000  1
  Lu  Lu3  1  0.382127  0.382127  0.000000  1
  Zr  Zr4  1  0.235128  0.990435  0.500000  1
  Zr  Zr5  1  0.990435  0.235128  0.500000  1
  Re  Re6  1  0.026688  0.026688  0.000000  1
  Te  Te7  1  0.663090  0.330062  0.500000  1
  Te  Te8  1  0.330062  0.663090  0.500000  1
