# generated using pymatgen
data_Ho5Er3Mn(B8Os)3
_symmetry_space_group_name_H-M   'P 1'
_cell_length_a   3.61952100
_cell_length_b   9.10289336
_cell_length_c   11.48213602
_cell_angle_alpha   90.03441109
_cell_angle_beta   90.00000000
_cell_angle_gamma   90.00000000
_symmetry_Int_Tables_number   1
_chemical_formula_structural   Ho5Er3Mn(B8Os)3
_chemical_formula_sum   'Ho5 Er3 Mn1 B24 Os3'
_cell_volume   378.31465439
_cell_formula_units_Z   1
loop_
 _symmetry_equiv_pos_site_id
 _symmetry_equiv_pos_as_xyz
  1  'x, y, z'
loop_
 _atom_site_type_symbol
 _atom_site_label
 _atom_site_symmetry_multiplicity
 _atom_site_fract_x
 _atom_site_fract_y
 _atom_site_fract_z
 _atom_site_occupancy
  Ho  Ho0  1  0.000000  0.325183  0.412586  1
  Ho  Ho1  1  0.000000  0.676728  0.582164  1
  Ho  Ho2  1  0.000000  0.820009  0.088501  1
  Ho  Ho3  1  0.000000  0.178351  0.914944  1
  Ho  Ho4  1  0.000000  0.939611  0.371741  1
  Er  Er5  1  0.000000  0.056828  0.627027  1
  Er  Er6  1  0.000000  0.445935  0.130390  1
  Er  Er7  1  0.000000  0.556983  0.872515  1
  Mn  Mn8  1  0.000000  0.637009  0.321019  1
  B  B9  1  0.500000  0.553748  0.431569  1
  B  B10  1  0.500000  0.446956  0.566323  1
  B  B11  1  0.500000  0.053602  0.067192  1
  B  B12  1  0.500000  0.946893  0.933283  1
  B  B13  1  0.500000  0.745531  0.417649  1
  B  B14  1  0.500000  0.251962  0.579926  1
  B  B15  1  0.500000  0.249225  0.081061  1
  B  B16  1  0.500000  0.751896  0.919878  1
  B  B17  1  0.500000  0.788726  0.266577  1
  B  B18  1  0.500000  0.209139  0.733710  1
  B  B19  1  0.500000  0.291594  0.234204  1
  B  B20  1  0.500000  0.709195  0.766013  1
  B  B21  1  0.500000  0.631158  0.187003  1
  B  B22  1  0.500000  0.369073  0.814912  1
  B  B23  1  0.500000  0.130879  0.314454  1
  B  B24  1  0.500000  0.868676  0.684925  1
  B  B25  1  0.500000  0.981906  0.212736  1
  B  B26  1  0.500000  0.017797  0.787236  1
  B  B27  1  0.500000  0.484923  0.288173  1
  B  B28  1  0.500000  0.517746  0.712548  1
  B  B29  1  0.500000  0.606283  0.029924  1
  B  B30  1  0.500000  0.394528  0.971200  1
  B  B31  1  0.500000  0.106261  0.470229  1
  B  B32  1  0.500000  0.892930  0.529415  1
  Os  Os33  1  0.000000  0.362219  0.679316  1
  Os  Os34  1  0.000000  0.137632  0.178484  1
  Os  Os35  1  0.000000  0.862879  0.821172  1
