# generated using pymatgen
data_Mo2SI2
_symmetry_space_group_name_H-M   'P 1'
_cell_length_a   6.84209700
_cell_length_b   10.50903268
_cell_length_c   12.21518400
_cell_angle_alpha   90.00000000
_cell_angle_beta   90.00000000
_cell_angle_gamma   108.99793355
_symmetry_Int_Tables_number   1
_chemical_formula_structural   Mo2SI2
_chemical_formula_sum   'Mo12 S6 I12'
_cell_volume   830.47667837
_cell_formula_units_Z   6
loop_
 _symmetry_equiv_pos_site_id
 _symmetry_equiv_pos_as_xyz
  1  'x, y, z'
loop_
 _atom_site_type_symbol
 _atom_site_label
 _atom_site_symmetry_multiplicity
 _atom_site_fract_x
 _atom_site_fract_y
 _atom_site_fract_z
 _atom_site_occupancy
  Mo  Mo0  1  0.251392  0.000000  0.064707  1
  Mo  Mo1  1  0.978701  0.134543  0.099913  1
  Mo  Mo2  1  0.844155  0.865457  0.099913  1
  Mo  Mo3  1  0.978701  0.134543  0.400087  1
  Mo  Mo4  1  0.844155  0.865457  0.400087  1
  Mo  Mo5  1  0.251392  0.000000  0.435293  1
  Mo  Mo6  1  0.748609  0.000000  0.564707  1
  Mo  Mo7  1  0.155844  0.134543  0.599913  1
  Mo  Mo8  1  0.021301  0.865457  0.599913  1
  Mo  Mo9  1  0.155844  0.134543  0.900088  1
  Mo  Mo10  1  0.021301  0.865457  0.900088  1
  Mo  Mo11  1  0.748609  0.000000  0.935292  1
  S  S12  1  0.618583  0.000000  0.121858  1
  S  S13  1  0.072867  0.000000  0.250000  1
  S  S14  1  0.618583  0.000000  0.378142  1
  S  S15  1  0.381417  0.000000  0.621858  1
  S  S16  1  0.927134  0.000000  0.750000  1
  S  S17  1  0.381417  0.000000  0.878143  1
  I  I18  1  0.398066  0.281816  0.073738  1
  I  I19  1  0.116250  0.718184  0.073738  1
  I  I20  1  0.935803  0.334904  0.250000  1
  I  I21  1  0.600900  0.665096  0.250000  1
  I  I22  1  0.398066  0.281816  0.426262  1
  I  I23  1  0.116250  0.718184  0.426262  1
  I  I24  1  0.883751  0.281816  0.573737  1
  I  I25  1  0.601933  0.718184  0.573737  1
  I  I26  1  0.399099  0.334904  0.750000  1
  I  I27  1  0.064197  0.665096  0.750000  1
  I  I28  1  0.883751  0.281816  0.926261  1
  I  I29  1  0.601933  0.718184  0.926261  1
