# generated using pymatgen
data_MgFe3P3Ir2
_symmetry_space_group_name_H-M   'P 1'
_cell_length_a   3.73633100
_cell_length_b   10.17750000
_cell_length_c   12.15027900
_cell_angle_alpha   90.00000000
_cell_angle_beta   90.00000000
_cell_angle_gamma   90.00000000
_symmetry_Int_Tables_number   1
_chemical_formula_structural   MgFe3P3Ir2
_chemical_formula_sum   'Mg4 Fe12 P12 Ir8'
_cell_volume   462.03269074
_cell_formula_units_Z   4
loop_
 _symmetry_equiv_pos_site_id
 _symmetry_equiv_pos_as_xyz
  1  'x, y, z'
loop_
 _atom_site_type_symbol
 _atom_site_label
 _atom_site_symmetry_multiplicity
 _atom_site_fract_x
 _atom_site_fract_y
 _atom_site_fract_z
 _atom_site_occupancy
  Mg  Mg0  1  0.250000  0.580521  0.712447  1
  Mg  Mg1  1  0.250000  0.919479  0.212447  1
  Mg  Mg2  1  0.750000  0.419479  0.287553  1
  Mg  Mg3  1  0.750000  0.080521  0.787553  1
  Fe  Fe4  1  0.250000  0.223582  0.172214  1
  Fe  Fe5  1  0.250000  0.276418  0.672214  1
  Fe  Fe6  1  0.750000  0.776418  0.827786  1
  Fe  Fe7  1  0.750000  0.723582  0.327786  1
  Fe  Fe8  1  0.250000  0.877828  0.698509  1
  Fe  Fe9  1  0.250000  0.622172  0.198509  1
  Fe  Fe10  1  0.750000  0.122172  0.301491  1
  Fe  Fe11  1  0.750000  0.377828  0.801491  1
  Fe  Fe12  1  0.250000  0.459567  0.935589  1
  Fe  Fe13  1  0.250000  0.040433  0.435589  1
  Fe  Fe14  1  0.750000  0.540433  0.064411  1
  Fe  Fe15  1  0.750000  0.959567  0.564411  1
  P  P16  1  0.250000  0.427348  0.114444  1
  P  P17  1  0.250000  0.072652  0.614444  1
  P  P18  1  0.750000  0.572652  0.885556  1
  P  P19  1  0.750000  0.927348  0.385556  1
  P  P20  1  0.250000  0.269828  0.852099  1
  P  P21  1  0.250000  0.230172  0.352099  1
  P  P22  1  0.750000  0.730172  0.147901  1
  P  P23  1  0.750000  0.769828  0.647901  1
  P  P24  1  0.250000  0.603154  0.374898  1
  P  P25  1  0.250000  0.896846  0.874898  1
  P  P26  1  0.750000  0.396846  0.625102  1
  P  P27  1  0.750000  0.103154  0.125102  1
  Ir  Ir28  1  0.250000  0.708953  0.983755  1
  Ir  Ir29  1  0.250000  0.791047  0.483755  1
  Ir  Ir30  1  0.750000  0.291047  0.016245  1
  Ir  Ir31  1  0.750000  0.208953  0.516245  1
  Ir  Ir32  1  0.250000  0.407006  0.471197  1
  Ir  Ir33  1  0.250000  0.092994  0.971197  1
  Ir  Ir34  1  0.750000  0.592994  0.528803  1
  Ir  Ir35  1  0.750000  0.907006  0.028803  1
