# generated using pymatgen
data_Ba3TbZrSe6
_symmetry_space_group_name_H-M   'P 1'
_cell_length_a   8.76802047
_cell_length_b   8.76801952
_cell_length_c   8.76802000
_cell_angle_alpha   92.71768758
_cell_angle_beta   92.71768075
_cell_angle_gamma   92.71767973
_symmetry_Int_Tables_number   1
_chemical_formula_structural   Ba3TbZrSe6
_chemical_formula_sum   'Ba6 Tb2 Zr2 Se12'
_cell_volume   671.72030712
_cell_formula_units_Z   2
loop_
 _symmetry_equiv_pos_site_id
 _symmetry_equiv_pos_as_xyz
  1  'x, y, z'
loop_
 _atom_site_type_symbol
 _atom_site_label
 _atom_site_symmetry_multiplicity
 _atom_site_fract_x
 _atom_site_fract_y
 _atom_site_fract_z
 _atom_site_occupancy
  Ba  Ba0  1  0.371779  0.750000  0.128221  1
  Ba  Ba1  1  0.128221  0.371779  0.750000  1
  Ba  Ba2  1  0.750000  0.128221  0.371779  1
  Ba  Ba3  1  0.628221  0.250000  0.871779  1
  Ba  Ba4  1  0.871779  0.628221  0.250000  1
  Ba  Ba5  1  0.250000  0.871779  0.628221  1
  Tb  Tb6  1  0.250000  0.250000  0.250000  1
  Tb  Tb7  1  0.750000  0.750000  0.750000  1
  Zr  Zr8  1  0.500000  0.500000  0.500000  1
  Zr  Zr9  1  0.000000  0.000000  0.000000  1
  Se  Se10  1  0.541929  0.413370  0.201149  1
  Se  Se11  1  0.201149  0.541929  0.413370  1
  Se  Se12  1  0.413370  0.201149  0.541929  1
  Se  Se13  1  0.958071  0.298851  0.086630  1
  Se  Se14  1  0.086630  0.958071  0.298851  1
  Se  Se15  1  0.298851  0.086630  0.958071  1
  Se  Se16  1  0.458071  0.586630  0.798851  1
  Se  Se17  1  0.798851  0.458071  0.586630  1
  Se  Se18  1  0.586630  0.798851  0.458071  1
  Se  Se19  1  0.041929  0.701149  0.913370  1
  Se  Se20  1  0.701149  0.913370  0.041929  1
  Se  Se21  1  0.913370  0.041929  0.701149  1
