# generated using pymatgen
data_K2CdAs2O7
_symmetry_space_group_name_H-M   'P 1'
_cell_length_a   8.74268500
_cell_length_b   8.74268500
_cell_length_c   5.78492200
_cell_angle_alpha   90.00000000
_cell_angle_beta   90.00000000
_cell_angle_gamma   90.00000000
_symmetry_Int_Tables_number   1
_chemical_formula_structural   K2CdAs2O7
_chemical_formula_sum   'K4 Cd2 As4 O14'
_cell_volume   442.16785784
_cell_formula_units_Z   2
loop_
 _symmetry_equiv_pos_site_id
 _symmetry_equiv_pos_as_xyz
  1  'x, y, z'
loop_
 _atom_site_type_symbol
 _atom_site_label
 _atom_site_symmetry_multiplicity
 _atom_site_fract_x
 _atom_site_fract_y
 _atom_site_fract_z
 _atom_site_occupancy
  K  K0  1  0.334827  0.834827  0.490484  1
  K  K1  1  0.165173  0.334827  0.509516  1
  K  K2  1  0.665173  0.165173  0.490484  1
  K  K3  1  0.834827  0.665173  0.509516  1
  Cd  Cd4  1  0.500000  0.500000  0.000000  1
  Cd  Cd5  1  0.000000  0.000000  0.000000  1
  As  As6  1  0.363520  0.136480  0.941493  1
  As  As7  1  0.136480  0.636480  0.058507  1
  As  As8  1  0.636480  0.863520  0.941493  1
  As  As9  1  0.863520  0.363520  0.058507  1
  O  O10  1  0.500000  0.000000  0.825198  1
  O  O11  1  0.000000  0.500000  0.174802  1
  O  O12  1  0.577085  0.700268  0.801311  1
  O  O13  1  0.922915  0.200268  0.198689  1
  O  O14  1  0.422915  0.299732  0.801311  1
  O  O15  1  0.077085  0.799732  0.198689  1
  O  O16  1  0.700268  0.422915  0.198689  1
  O  O17  1  0.799732  0.922915  0.801311  1
  O  O18  1  0.299732  0.577085  0.198689  1
  O  O19  1  0.200268  0.077085  0.801311  1
  O  O20  1  0.361458  0.138542  0.231694  1
  O  O21  1  0.138542  0.638542  0.768306  1
  O  O22  1  0.638542  0.861458  0.231694  1
  O  O23  1  0.861458  0.361458  0.768306  1
