# generated using pymatgen
data_Pr3Nd5Cd2PdRu
_symmetry_space_group_name_H-M   'P 1'
_cell_length_a   9.99047761
_cell_length_b   9.99047840
_cell_length_c   10.05814500
_cell_angle_alpha   59.77568998
_cell_angle_beta   59.77568731
_cell_angle_gamma   59.82047815
_symmetry_Int_Tables_number   1
_chemical_formula_structural   Pr3Nd5Cd2PdRu
_chemical_formula_sum   'Pr6 Nd10 Cd4 Pd2 Ru2'
_cell_volume   706.48988389
_cell_formula_units_Z   2
loop_
 _symmetry_equiv_pos_site_id
 _symmetry_equiv_pos_as_xyz
  1  'x, y, z'
loop_
 _atom_site_type_symbol
 _atom_site_label
 _atom_site_symmetry_multiplicity
 _atom_site_fract_x
 _atom_site_fract_y
 _atom_site_fract_z
 _atom_site_occupancy
  Pr  Pr0  1  0.936852  0.558883  0.565357  1
  Pr  Pr1  1  0.558883  0.936852  0.938909  1
  Pr  Pr2  1  0.558883  0.936852  0.565357  1
  Pr  Pr3  1  0.936852  0.558883  0.938909  1
  Pr  Pr4  1  0.562575  0.562575  0.937425  1
  Pr  Pr5  1  0.938050  0.938050  0.561950  1
  Nd  Nd6  1  0.347516  0.347516  0.356370  1
  Nd  Nd7  1  0.347516  0.347516  0.948599  1
  Nd  Nd8  1  0.343689  0.955492  0.350410  1
  Nd  Nd9  1  0.955492  0.343689  0.350410  1
  Nd  Nd10  1  0.816531  0.189838  0.190347  1
  Nd  Nd11  1  0.189838  0.816531  0.803284  1
  Nd  Nd12  1  0.189838  0.816531  0.190347  1
  Nd  Nd13  1  0.816531  0.189838  0.803284  1
  Nd  Nd14  1  0.189008  0.189008  0.810992  1
  Nd  Nd15  1  0.806916  0.806916  0.193084  1
  Cd  Cd16  1  0.579697  0.579697  0.579671  1
  Cd  Cd17  1  0.579697  0.579697  0.260933  1
  Cd  Cd18  1  0.580483  0.259494  0.580011  1
  Cd  Cd19  1  0.259494  0.580483  0.580011  1
  Pd  Pd20  1  0.146096  0.572863  0.140521  1
  Pd  Pd21  1  0.572863  0.146096  0.140521  1
  Ru  Ru22  1  0.143350  0.143350  0.138085  1
  Ru  Ru23  1  0.143350  0.143350  0.575216  1
