# generated using pymatgen
data_NdTh5(GePd)6
_symmetry_space_group_name_H-M   'P 1'
_cell_length_a   4.47213100
_cell_length_b   7.73071533
_cell_length_c   22.60755435
_cell_angle_alpha   90.14975396
_cell_angle_beta   90.00000000
_cell_angle_gamma   90.00000000
_symmetry_Int_Tables_number   1
_chemical_formula_structural   NdTh5(GePd)6
_chemical_formula_sum   'Nd2 Th10 Ge12 Pd12'
_cell_volume   781.60314533
_cell_formula_units_Z   2
loop_
 _symmetry_equiv_pos_site_id
 _symmetry_equiv_pos_as_xyz
  1  'x, y, z'
loop_
 _atom_site_type_symbol
 _atom_site_label
 _atom_site_symmetry_multiplicity
 _atom_site_fract_x
 _atom_site_fract_y
 _atom_site_fract_z
 _atom_site_occupancy
  Nd  Nd0  1  0.750000  0.229285  0.498050  1
  Nd  Nd1  1  0.250000  0.770715  0.501950  1
  Th  Th2  1  0.250000  0.723171  0.336315  1
  Th  Th3  1  0.750000  0.276829  0.663685  1
  Th  Th4  1  0.750000  0.235146  0.167909  1
  Th  Th5  1  0.250000  0.764854  0.832091  1
  Th  Th6  1  0.250000  0.765491  0.167410  1
  Th  Th7  1  0.750000  0.234509  0.832590  1
  Th  Th8  1  0.750000  0.282337  0.334151  1
  Th  Th9  1  0.250000  0.717663  0.665849  1
  Th  Th10  1  0.250000  0.733150  0.999886  1
  Th  Th11  1  0.750000  0.266850  0.000114  1
  Ge  Ge12  1  0.250000  0.085943  0.081625  1
  Ge  Ge13  1  0.750000  0.914057  0.918375  1
  Ge  Ge14  1  0.750000  0.590273  0.428051  1
  Ge  Ge15  1  0.250000  0.409727  0.571949  1
  Ge  Ge16  1  0.250000  0.086597  0.257427  1
  Ge  Ge17  1  0.750000  0.913403  0.742573  1
  Ge  Ge18  1  0.750000  0.592481  0.247985  1
  Ge  Ge19  1  0.250000  0.407519  0.752015  1
  Ge  Ge20  1  0.250000  0.086258  0.400523  1
  Ge  Ge21  1  0.750000  0.913742  0.599477  1
  Ge  Ge22  1  0.750000  0.585893  0.083646  1
  Ge  Ge23  1  0.250000  0.414107  0.916354  1
  Pd  Pd24  1  0.250000  0.419814  0.241153  1
  Pd  Pd25  1  0.750000  0.580186  0.758847  1
  Pd  Pd26  1  0.750000  0.924024  0.258859  1
  Pd  Pd27  1  0.250000  0.075976  0.741141  1
  Pd  Pd28  1  0.250000  0.417233  0.424857  1
  Pd  Pd29  1  0.750000  0.582767  0.575143  1
  Pd  Pd30  1  0.750000  0.920489  0.076264  1
  Pd  Pd31  1  0.250000  0.079511  0.923736  1
  Pd  Pd32  1  0.250000  0.418977  0.093941  1
  Pd  Pd33  1  0.750000  0.581023  0.906059  1
  Pd  Pd34  1  0.750000  0.921903  0.406312  1
  Pd  Pd35  1  0.250000  0.078097  0.593688  1
