# generated using pymatgen
data_Ho8Hf9Si16W3
_symmetry_space_group_name_H-M   'P 1'
_cell_length_a   7.17192908
_cell_length_b   7.17192967
_cell_length_c   13.12979309
_cell_angle_alpha   90.10460576
_cell_angle_beta   90.10460706
_cell_angle_gamma   90.08863541
_symmetry_Int_Tables_number   1
_chemical_formula_structural   Ho8Hf9Si16W3
_chemical_formula_sum   'Ho8 Hf9 Si16 W3'
_cell_volume   675.34847116
_cell_formula_units_Z   1
loop_
 _symmetry_equiv_pos_site_id
 _symmetry_equiv_pos_as_xyz
  1  'x, y, z'
loop_
 _atom_site_type_symbol
 _atom_site_label
 _atom_site_symmetry_multiplicity
 _atom_site_fract_x
 _atom_site_fract_y
 _atom_site_fract_z
 _atom_site_occupancy
  Ho  Ho0  1  0.999330  0.344378  0.215385  1
  Ho  Ho1  1  0.003416  0.656398  0.714748  1
  Ho  Ho2  1  0.154699  0.499877  0.464033  1
  Ho  Ho3  1  0.500123  0.845301  0.035967  1
  Ho  Ho4  1  0.846286  0.501860  0.967725  1
  Ho  Ho5  1  0.498140  0.153714  0.532275  1
  Ho  Ho6  1  0.343602  0.996584  0.785252  1
  Ho  Ho7  1  0.655622  0.000670  0.284615  1
  Hf  Hf8  1  0.675206  0.324794  0.750000  1
  Hf  Hf9  1  0.146744  0.993452  0.373537  1
  Hf  Hf10  1  0.854852  0.004176  0.876524  1
  Hf  Hf11  1  0.505240  0.649199  0.621409  1
  Hf  Hf12  1  0.350801  0.494760  0.878591  1
  Hf  Hf13  1  0.493425  0.352413  0.125534  1
  Hf  Hf14  1  0.647587  0.506575  0.374466  1
  Hf  Hf15  1  0.995824  0.145148  0.623476  1
  Hf  Hf16  1  0.006548  0.853256  0.126463  1
  Si  Si17  1  0.360099  0.298061  0.316891  1
  Si  Si18  1  0.638595  0.705162  0.817606  1
  Si  Si19  1  0.203191  0.860715  0.565965  1
  Si  Si20  1  0.139285  0.796809  0.934035  1
  Si  Si21  1  0.797538  0.139131  0.067386  1
  Si  Si22  1  0.860869  0.202462  0.432614  1
  Si  Si23  1  0.294838  0.361405  0.682394  1
  Si  Si24  1  0.701939  0.639901  0.183109  1
  Si  Si25  1  0.296672  0.050278  0.184039  1
  Si  Si26  1  0.704135  0.947721  0.682009  1
  Si  Si27  1  0.449325  0.796167  0.432177  1
  Si  Si28  1  0.203833  0.550675  0.067823  1
  Si  Si29  1  0.546902  0.202083  0.936086  1
  Si  Si30  1  0.797917  0.453098  0.563914  1
  Si  Si31  1  0.052279  0.295865  0.817991  1
  Si  Si32  1  0.949722  0.703328  0.315961  1
  W  W33  1  0.176593  0.175253  0.001518  1
  W  W34  1  0.824747  0.823407  0.498482  1
  W  W35  1  0.324075  0.675925  0.250000  1
