# generated using pymatgen
data_YbSm(NiB4)2
_symmetry_space_group_name_H-M   'P 1'
_cell_length_a   6.86232885
_cell_length_b   6.86232912
_cell_length_c   6.86232768
_cell_angle_alpha   112.80889266
_cell_angle_beta   112.80668791
_cell_angle_gamma   102.98630668
_symmetry_Int_Tables_number   1
_chemical_formula_structural   YbSm(NiB4)2
_chemical_formula_sum   'Yb2 Sm2 Ni4 B16'
_cell_volume   246.41405569
_cell_formula_units_Z   2
loop_
 _symmetry_equiv_pos_site_id
 _symmetry_equiv_pos_as_xyz
  1  'x, y, z'
loop_
 _atom_site_type_symbol
 _atom_site_label
 _atom_site_symmetry_multiplicity
 _atom_site_fract_x
 _atom_site_fract_y
 _atom_site_fract_z
 _atom_site_occupancy
  Yb  Yb0  1  0.204717  0.204717  0.000000  1
  Yb  Yb1  1  0.795283  0.795283  0.000000  1
  Sm  Sm2  1  0.750002  0.250002  0.500000  1
  Sm  Sm3  1  0.249998  0.749998  0.500000  1
  Ni  Ni4  1  0.500000  0.274284  0.774284  1
  Ni  Ni5  1  0.500000  0.725716  0.225716  1
  Ni  Ni6  1  0.725708  0.500000  0.225708  1
  Ni  Ni7  1  0.274292  0.500000  0.774292  1
  B  B8  1  0.112469  0.276092  0.388560  1
  B  B9  1  0.887531  0.723908  0.611440  1
  B  B10  1  0.887531  0.276092  0.163624  1
  B  B11  1  0.112469  0.723908  0.836376  1
  B  B12  1  0.723910  0.887532  0.611442  1
  B  B13  1  0.276090  0.112468  0.388558  1
  B  B14  1  0.723909  0.112468  0.836377  1
  B  B15  1  0.276091  0.887532  0.163623  1
  B  B16  1  0.416155  0.416155  0.529274  1
  B  B17  1  0.886881  0.886881  0.470726  1
  B  B18  1  0.583846  0.113119  0.000000  1
  B  B19  1  0.113118  0.583845  0.000000  1
  B  B20  1  0.583845  0.583845  0.470726  1
  B  B21  1  0.113119  0.113119  0.529274  1
  B  B22  1  0.886882  0.416155  0.000000  1
  B  B23  1  0.416154  0.886881  0.000000  1
