# generated using pymatgen
data_CdNi21B6Sb
_symmetry_space_group_name_H-M   'P 1'
_cell_length_a   7.48242823
_cell_length_b   7.48242731
_cell_length_c   7.48242700
_cell_angle_alpha   59.99999694
_cell_angle_beta   60.00000103
_cell_angle_gamma   59.99999660
_symmetry_Int_Tables_number   1
_chemical_formula_structural   CdNi21B6Sb
_chemical_formula_sum   'Cd1 Ni21 B6 Sb1'
_cell_volume   296.21874613
_cell_formula_units_Z   1
loop_
 _symmetry_equiv_pos_site_id
 _symmetry_equiv_pos_as_xyz
  1  'x, y, z'
loop_
 _atom_site_type_symbol
 _atom_site_label
 _atom_site_symmetry_multiplicity
 _atom_site_fract_x
 _atom_site_fract_y
 _atom_site_fract_z
 _atom_site_occupancy
  Cd  Cd0  1  0.250000  0.250000  0.250000  1
  Ni  Ni1  1  0.000983  0.000983  0.663096  1
  Ni  Ni2  1  0.617755  0.617755  0.146735  1
  Ni  Ni3  1  0.389168  0.832496  0.389168  1
  Ni  Ni4  1  0.663096  0.334938  0.000983  1
  Ni  Ni5  1  0.000983  0.334938  0.663096  1
  Ni  Ni6  1  0.663096  0.000983  0.000983  1
  Ni  Ni7  1  0.000983  0.000983  0.334938  1
  Ni  Ni8  1  0.000983  0.334938  0.000983  1
  Ni  Ni9  1  0.334938  0.000983  0.663096  1
  Ni  Ni10  1  0.663096  0.000983  0.334938  1
  Ni  Ni11  1  0.334938  0.000983  0.000983  1
  Ni  Ni12  1  0.000983  0.663096  0.000983  1
  Ni  Ni13  1  0.389168  0.389168  0.832496  1
  Ni  Ni14  1  0.000983  0.663096  0.334938  1
  Ni  Ni15  1  0.334938  0.663096  0.000983  1
  Ni  Ni16  1  0.000000  0.000000  0.000000  1
  Ni  Ni17  1  0.617755  0.146735  0.617755  1
  Ni  Ni18  1  0.146735  0.617755  0.617755  1
  Ni  Ni19  1  0.389168  0.389168  0.389168  1
  Ni  Ni20  1  0.832496  0.389168  0.389168  1
  Ni  Ni21  1  0.617755  0.617755  0.617755  1
  B  B22  1  0.727748  0.727748  0.272252  1
  B  B23  1  0.727748  0.272252  0.727748  1
  B  B24  1  0.272252  0.727748  0.272252  1
  B  B25  1  0.727748  0.272252  0.272252  1
  B  B26  1  0.272252  0.727748  0.727748  1
  B  B27  1  0.272252  0.272252  0.727748  1
  Sb  Sb28  1  0.750000  0.750000  0.750000  1
