# generated using pymatgen
data_Tb10Ag3Ru
_symmetry_space_group_name_H-M   'P 1'
_cell_length_a   9.53354700
_cell_length_b   9.53354735
_cell_length_c   9.69752100
_cell_angle_alpha   90.00000000
_cell_angle_beta   90.00000000
_cell_angle_gamma   120.00000227
_symmetry_Int_Tables_number   1
_chemical_formula_structural   Tb10Ag3Ru
_chemical_formula_sum   'Tb20 Ag6 Ru2'
_cell_volume   763.30901241
_cell_formula_units_Z   2
loop_
 _symmetry_equiv_pos_site_id
 _symmetry_equiv_pos_as_xyz
  1  'x, y, z'
loop_
 _atom_site_type_symbol
 _atom_site_label
 _atom_site_symmetry_multiplicity
 _atom_site_fract_x
 _atom_site_fract_y
 _atom_site_fract_z
 _atom_site_occupancy
  Tb  Tb0  1  0.000000  0.000000  0.500000  1
  Tb  Tb1  1  0.000000  0.000000  0.000000  1
  Tb  Tb2  1  0.208734  0.791266  0.440898  1
  Tb  Tb3  1  0.208734  0.417468  0.440898  1
  Tb  Tb4  1  0.582532  0.791266  0.440898  1
  Tb  Tb5  1  0.791266  0.208734  0.559102  1
  Tb  Tb6  1  0.791266  0.582532  0.559102  1
  Tb  Tb7  1  0.417468  0.208734  0.559102  1
  Tb  Tb8  1  0.791266  0.208734  0.940898  1
  Tb  Tb9  1  0.791266  0.582532  0.940898  1
  Tb  Tb10  1  0.417468  0.208734  0.940898  1
  Tb  Tb11  1  0.208734  0.791266  0.059102  1
  Tb  Tb12  1  0.208734  0.417468  0.059102  1
  Tb  Tb13  1  0.582532  0.791266  0.059102  1
  Tb  Tb14  1  0.541122  0.458878  0.250000  1
  Tb  Tb15  1  0.541122  0.082244  0.250000  1
  Tb  Tb16  1  0.917756  0.458878  0.250000  1
  Tb  Tb17  1  0.458878  0.541122  0.750000  1
  Tb  Tb18  1  0.458878  0.917756  0.750000  1
  Tb  Tb19  1  0.082244  0.541122  0.750000  1
  Ag  Ag20  1  0.883983  0.116017  0.250000  1
  Ag  Ag21  1  0.883983  0.767969  0.250000  1
  Ag  Ag22  1  0.232031  0.116017  0.250000  1
  Ag  Ag23  1  0.116017  0.883983  0.750000  1
  Ag  Ag24  1  0.116017  0.232031  0.750000  1
  Ag  Ag25  1  0.767969  0.883983  0.750000  1
  Ru  Ru26  1  0.333333  0.666667  0.250000  1
  Ru  Ru27  1  0.666667  0.333333  0.750000  1
