# generated using pymatgen
data_Tb11Tm9Pb16
_symmetry_space_group_name_H-M   'P 1'
_cell_length_a   8.21493897
_cell_length_b   8.26244967
_cell_length_c   15.64465402
_cell_angle_alpha   90.00574822
_cell_angle_beta   89.98205280
_cell_angle_gamma   90.04092590
_symmetry_Int_Tables_number   1
_chemical_formula_structural   Tb11Tm9Pb16
_chemical_formula_sum   'Tb11 Tm9 Pb16'
_cell_volume   1061.88869511
_cell_formula_units_Z   1
loop_
 _symmetry_equiv_pos_site_id
 _symmetry_equiv_pos_as_xyz
  1  'x, y, z'
loop_
 _atom_site_type_symbol
 _atom_site_label
 _atom_site_symmetry_multiplicity
 _atom_site_fract_x
 _atom_site_fract_y
 _atom_site_fract_z
 _atom_site_occupancy
  Tb  Tb0  1  0.122708  0.341885  0.378192  1
  Tb  Tb1  1  0.377406  0.842000  0.621705  1
  Tb  Tb2  1  0.877073  0.657979  0.878667  1
  Tb  Tb3  1  0.538504  0.323907  0.900779  1
  Tb  Tb4  1  0.038775  0.175531  0.599837  1
  Tb  Tb5  1  0.461250  0.675474  0.400029  1
  Tb  Tb6  1  0.961241  0.824813  0.099795  1
  Tb  Tb7  1  0.462032  0.675672  0.099438  1
  Tb  Tb8  1  0.961675  0.824605  0.400313  1
  Tb  Tb9  1  0.538268  0.324444  0.599509  1
  Tb  Tb10  1  0.038622  0.175728  0.900535  1
  Tm  Tm11  1  0.376303  0.842590  0.878097  1
  Tm  Tm12  1  0.876389  0.657319  0.621757  1
  Tm  Tm13  1  0.623515  0.157427  0.377967  1
  Tm  Tm14  1  0.123531  0.342858  0.121679  1
  Tm  Tm15  1  0.623123  0.157576  0.122172  1
  Tm  Tm16  1  0.208899  0.504566  0.750199  1
  Tm  Tm17  1  0.708913  0.995668  0.749940  1
  Tm  Tm18  1  0.790578  0.495224  0.249871  1
  Tm  Tm19  1  0.291184  0.004530  0.249663  1
  Pb  Pb20  1  0.283127  0.034175  0.042901  1
  Pb  Pb21  1  0.781251  0.466515  0.457170  1
  Pb  Pb22  1  0.719070  0.966547  0.542520  1
  Pb  Pb23  1  0.218852  0.533848  0.957453  1
  Pb  Pb24  1  0.716124  0.967436  0.957340  1
  Pb  Pb25  1  0.216721  0.533156  0.543545  1
  Pb  Pb26  1  0.283445  0.033361  0.456428  1
  Pb  Pb27  1  0.782762  0.464907  0.043670  1
  Pb  Pb28  1  0.571142  0.625409  0.750290  1
  Pb  Pb29  1  0.070910  0.874493  0.749811  1
  Pb  Pb30  1  0.429219  0.373494  0.249638  1
  Pb  Pb31  1  0.928261  0.125910  0.249282  1
  Pb  Pb32  1  0.350434  0.155062  0.750416  1
  Pb  Pb33  1  0.850531  0.345087  0.749840  1
  Pb  Pb34  1  0.649143  0.845517  0.250033  1
  Pb  Pb35  1  0.149023  0.655288  0.249521  1
