# generated using pymatgen
data_Tm6Pa(Mn3Co8)2
_symmetry_space_group_name_H-M   'P 1'
_cell_length_a   8.39113022
_cell_length_b   8.39113016
_cell_length_c   8.39112900
_cell_angle_alpha   60.00000062
_cell_angle_beta   60.00000087
_cell_angle_gamma   59.99999806
_symmetry_Int_Tables_number   1
_chemical_formula_structural   Tm6Pa(Mn3Co8)2
_chemical_formula_sum   'Tm6 Pa1 Mn6 Co16'
_cell_volume   417.77872179
_cell_formula_units_Z   1
loop_
 _symmetry_equiv_pos_site_id
 _symmetry_equiv_pos_as_xyz
  1  'x, y, z'
loop_
 _atom_site_type_symbol
 _atom_site_label
 _atom_site_symmetry_multiplicity
 _atom_site_fract_x
 _atom_site_fract_y
 _atom_site_fract_z
 _atom_site_occupancy
  Tm  Tm0  1  0.707224  0.292776  0.292776  1
  Tm  Tm1  1  0.292776  0.707224  0.707224  1
  Tm  Tm2  1  0.292776  0.707224  0.292776  1
  Tm  Tm3  1  0.292776  0.292776  0.707224  1
  Tm  Tm4  1  0.707224  0.292776  0.707224  1
  Tm  Tm5  1  0.707224  0.707224  0.292776  1
  Pa  Pa6  1  0.000000  0.000000  0.000000  1
  Mn  Mn7  1  0.500000  0.000000  0.000000  1
  Mn  Mn8  1  0.000000  0.500000  0.500000  1
  Mn  Mn9  1  0.000000  0.500000  0.000000  1
  Mn  Mn10  1  0.000000  0.000000  0.500000  1
  Mn  Mn11  1  0.500000  0.000000  0.500000  1
  Mn  Mn12  1  0.500000  0.500000  0.000000  1
  Co  Co13  1  0.323315  0.323315  0.323315  1
  Co  Co14  1  0.323315  0.323315  0.030057  1
  Co  Co15  1  0.030057  0.323315  0.323315  1
  Co  Co16  1  0.323315  0.030057  0.323315  1
  Co  Co17  1  0.676685  0.676685  0.676685  1
  Co  Co18  1  0.676685  0.676685  0.969943  1
  Co  Co19  1  0.676685  0.969943  0.676685  1
  Co  Co20  1  0.969943  0.676685  0.676685  1
  Co  Co21  1  0.123455  0.123455  0.123455  1
  Co  Co22  1  0.123455  0.123455  0.629635  1
  Co  Co23  1  0.629635  0.123455  0.123455  1
  Co  Co24  1  0.123455  0.629635  0.123455  1
  Co  Co25  1  0.876545  0.876545  0.876545  1
  Co  Co26  1  0.876545  0.876545  0.370365  1
  Co  Co27  1  0.876545  0.370365  0.876545  1
  Co  Co28  1  0.370365  0.876545  0.876545  1
