# generated using pymatgen
data_Ti12CoTc6Ir5
_symmetry_space_group_name_H-M   'P 1'
_cell_length_a   4.38142400
_cell_length_b   6.18091500
_cell_length_c   13.11647100
_cell_angle_alpha   90.00000000
_cell_angle_beta   89.99994327
_cell_angle_gamma   90.00000000
_symmetry_Int_Tables_number   1
_chemical_formula_structural   Ti12CoTc6Ir5
_chemical_formula_sum   'Ti12 Co1 Tc6 Ir5'
_cell_volume   355.20989673
_cell_formula_units_Z   1
loop_
 _symmetry_equiv_pos_site_id
 _symmetry_equiv_pos_as_xyz
  1  'x, y, z'
loop_
 _atom_site_type_symbol
 _atom_site_label
 _atom_site_symmetry_multiplicity
 _atom_site_fract_x
 _atom_site_fract_y
 _atom_site_fract_z
 _atom_site_occupancy
  Ti  Ti0  1  0.500000  0.254589  0.000000  1
  Ti  Ti1  1  0.500000  0.745412  0.000000  1
  Ti  Ti2  1  0.000053  0.251626  0.163607  1
  Ti  Ti3  1  0.000053  0.748374  0.163607  1
  Ti  Ti4  1  0.500052  0.249748  0.332450  1
  Ti  Ti5  1  0.500052  0.750253  0.332450  1
  Ti  Ti6  1  0.000000  0.249612  0.500000  1
  Ti  Ti7  1  0.000000  0.750387  0.500000  1
  Ti  Ti8  1  0.499947  0.249748  0.667550  1
  Ti  Ti9  1  0.499947  0.750253  0.667550  1
  Ti  Ti10  1  0.999947  0.251626  0.836392  1
  Ti  Ti11  1  0.999947  0.748374  0.836392  1
  Co  Co12  1  0.000000  0.500000  0.000000  1
  Tc  Tc13  1  0.000000  0.000000  0.000000  1
  Tc  Tc14  1  0.500057  0.500000  0.164938  1
  Tc  Tc15  1  0.000045  0.000000  0.332417  1
  Tc  Tc16  1  0.500000  0.500000  0.500000  1
  Tc  Tc17  1  0.999955  0.000000  0.667582  1
  Tc  Tc18  1  0.499943  0.500000  0.835061  1
  Ir  Ir19  1  0.500047  0.000000  0.165679  1
  Ir  Ir20  1  0.000051  0.500000  0.332531  1
  Ir  Ir21  1  0.500000  0.000000  0.500000  1
  Ir  Ir22  1  0.999948  0.500000  0.667470  1
  Ir  Ir23  1  0.499953  0.000000  0.834321  1
