# generated using pymatgen
data_Dy6Tm4Si5Bi
_symmetry_space_group_name_H-M   'P 1'
_cell_length_a   8.53959900
_cell_length_b   8.53959812
_cell_length_c   6.30742400
_cell_angle_alpha   90.00000000
_cell_angle_beta   90.00000000
_cell_angle_gamma   120.26349170
_symmetry_Int_Tables_number   1
_chemical_formula_structural   Dy6Tm4Si5Bi
_chemical_formula_sum   'Dy6 Tm4 Si5 Bi1'
_cell_volume   397.28149095
_cell_formula_units_Z   1
loop_
 _symmetry_equiv_pos_site_id
 _symmetry_equiv_pos_as_xyz
  1  'x, y, z'
loop_
 _atom_site_type_symbol
 _atom_site_label
 _atom_site_symmetry_multiplicity
 _atom_site_fract_x
 _atom_site_fract_y
 _atom_site_fract_z
 _atom_site_occupancy
  Dy  Dy0  1  0.767474  0.767474  0.250000  1
  Dy  Dy1  1  0.240261  0.984646  0.250000  1
  Dy  Dy2  1  0.984646  0.240261  0.250000  1
  Dy  Dy3  1  0.240458  0.240458  0.750000  1
  Dy  Dy4  1  0.754459  0.998443  0.750000  1
  Dy  Dy5  1  0.998443  0.754459  0.750000  1
  Tm  Tm6  1  0.677095  0.330607  0.504792  1
  Tm  Tm7  1  0.330607  0.677095  0.504792  1
  Tm  Tm8  1  0.330607  0.677095  0.995208  1
  Tm  Tm9  1  0.677095  0.330607  0.995208  1
  Si  Si10  1  0.603188  0.998435  0.250000  1
  Si  Si11  1  0.998435  0.603188  0.250000  1
  Si  Si12  1  0.606399  0.606399  0.750000  1
  Si  Si13  1  0.393992  0.002776  0.750000  1
  Si  Si14  1  0.002776  0.393992  0.750000  1
  Bi  Bi15  1  0.394068  0.394068  0.250000  1
