# generated using pymatgen
data_Pr4Nd2Al24ZnOs7
_symmetry_space_group_name_H-M   'P 1'
_cell_length_a   8.95933693
_cell_length_b   8.95933645
_cell_length_c   9.67263389
_cell_angle_alpha   90.10364617
_cell_angle_beta   89.89635370
_cell_angle_gamma   119.89594837
_symmetry_Int_Tables_number   1
_chemical_formula_structural   Pr4Nd2Al24ZnOs7
_chemical_formula_sum   'Pr4 Nd2 Al24 Zn1 Os7'
_cell_volume   673.10148613
_cell_formula_units_Z   1
loop_
 _symmetry_equiv_pos_site_id
 _symmetry_equiv_pos_as_xyz
  1  'x, y, z'
loop_
 _atom_site_type_symbol
 _atom_site_label
 _atom_site_symmetry_multiplicity
 _atom_site_fract_x
 _atom_site_fract_y
 _atom_site_fract_z
 _atom_site_occupancy
  Pr  Pr0  1  0.190940  0.382692  0.246579  1
  Pr  Pr1  1  0.809060  0.617308  0.753421  1
  Pr  Pr2  1  0.617308  0.809060  0.246579  1
  Pr  Pr3  1  0.382692  0.190940  0.753421  1
  Nd  Nd4  1  0.192361  0.807639  0.254761  1
  Nd  Nd5  1  0.807639  0.192361  0.745239  1
  Al  Al6  1  0.328484  0.671516  0.013068  1
  Al  Al7  1  0.671516  0.328484  0.986932  1
  Al  Al8  1  0.666180  0.333820  0.511645  1
  Al  Al9  1  0.333820  0.666180  0.488355  1
  Al  Al10  1  0.162618  0.326092  0.571854  1
  Al  Al11  1  0.837382  0.673908  0.428146  1
  Al  Al12  1  0.673908  0.837382  0.571854  1
  Al  Al13  1  0.850464  0.677756  0.079843  1
  Al  Al14  1  0.326092  0.162618  0.428146  1
  Al  Al15  1  0.149536  0.322244  0.920157  1
  Al  Al16  1  0.162968  0.837032  0.574865  1
  Al  Al17  1  0.322244  0.149536  0.079843  1
  Al  Al18  1  0.837032  0.162968  0.425135  1
  Al  Al19  1  0.677756  0.850464  0.920157  1
  Al  Al20  1  0.836683  0.163317  0.074221  1
  Al  Al21  1  0.163317  0.836683  0.925779  1
  Al  Al22  1  0.562121  0.122848  0.249148  1
  Al  Al23  1  0.437879  0.877152  0.750852  1
  Al  Al24  1  0.877152  0.437879  0.249148  1
  Al  Al25  1  0.122848  0.562121  0.750852  1
  Al  Al26  1  0.565174  0.434826  0.256551  1
  Al  Al27  1  0.434826  0.565174  0.743449  1
  Al  Al28  1  0.998967  0.001033  0.250675  1
  Al  Al29  1  0.001033  0.998967  0.749325  1
  Zn  Zn30  1  0.500000  0.500000  0.000000  1
  Os  Os31  1  0.500000  0.000000  0.000000  1
  Os  Os32  1  0.000000  0.500000  0.000000  1
  Os  Os33  1  0.500000  0.000000  0.500000  1
  Os  Os34  1  0.000000  0.500000  0.500000  1
  Os  Os35  1  0.500000  0.500000  0.500000  1
  Os  Os36  1  0.000000  0.000000  0.000000  1
  Os  Os37  1  0.000000  0.000000  0.500000  1
