# generated using pymatgen
data_La3Y13(CdPt)4
_symmetry_space_group_name_H-M   'P 1'
_cell_length_a   9.86070927
_cell_length_b   9.83858154
_cell_length_c   9.83858100
_cell_angle_alpha   59.99999847
_cell_angle_beta   60.07420266
_cell_angle_gamma   60.07420454
_symmetry_Int_Tables_number   1
_chemical_formula_structural   La3Y13(CdPt)4
_chemical_formula_sum   'La3 Y13 Cd4 Pt4'
_cell_volume   675.68502832
_cell_formula_units_Z   1
loop_
 _symmetry_equiv_pos_site_id
 _symmetry_equiv_pos_as_xyz
  1  'x, y, z'
loop_
 _atom_site_type_symbol
 _atom_site_label
 _atom_site_symmetry_multiplicity
 _atom_site_fract_x
 _atom_site_fract_y
 _atom_site_fract_z
 _atom_site_occupancy
  La  La0  1  0.352134  0.353917  0.353917  1
  La  La1  1  0.352134  0.353917  0.940033  1
  La  La2  1  0.352134  0.940033  0.353917  1
  Y  Y3  1  0.940150  0.353283  0.353283  1
  Y  Y4  1  0.812290  0.188622  0.188622  1
  Y  Y5  1  0.187223  0.813028  0.813028  1
  Y  Y6  1  0.187223  0.813028  0.186720  1
  Y  Y7  1  0.812290  0.188622  0.810466  1
  Y  Y8  1  0.187223  0.186720  0.813028  1
  Y  Y9  1  0.812290  0.810466  0.188622  1
  Y  Y10  1  0.932659  0.566748  0.566748  1
  Y  Y11  1  0.566644  0.932854  0.932854  1
  Y  Y12  1  0.566644  0.932854  0.567648  1
  Y  Y13  1  0.932659  0.566748  0.933845  1
  Y  Y14  1  0.566644  0.567648  0.932854  1
  Y  Y15  1  0.932659  0.933845  0.566748  1
  Cd  Cd16  1  0.587651  0.580944  0.580944  1
  Cd  Cd17  1  0.587651  0.580944  0.250460  1
  Cd  Cd18  1  0.587651  0.250460  0.580944  1
  Cd  Cd19  1  0.249956  0.583348  0.583348  1
  Pt  Pt20  1  0.138801  0.143340  0.143340  1
  Pt  Pt21  1  0.138801  0.143340  0.574520  1
  Pt  Pt22  1  0.138801  0.574520  0.143340  1
  Pt  Pt23  1  0.577691  0.140770  0.140770  1
