# generated using pymatgen
data_Mn(Zn11Pt)2
_symmetry_space_group_name_H-M   'P 1'
_cell_length_a   7.82044326
_cell_length_b   7.82044367
_cell_length_c   7.81835682
_cell_angle_alpha   72.12011899
_cell_angle_beta   72.12011740
_cell_angle_gamma   57.89186725
_symmetry_Int_Tables_number   1
_chemical_formula_structural   Mn(Zn11Pt)2
_chemical_formula_sum   'Mn1 Zn22 Pt2'
_cell_volume   379.28112939
_cell_formula_units_Z   1
loop_
 _symmetry_equiv_pos_site_id
 _symmetry_equiv_pos_as_xyz
  1  'x, y, z'
loop_
 _atom_site_type_symbol
 _atom_site_label
 _atom_site_symmetry_multiplicity
 _atom_site_fract_x
 _atom_site_fract_y
 _atom_site_fract_z
 _atom_site_occupancy
  Mn  Mn0  1  0.000000  0.000000  0.500000  1
  Zn  Zn1  1  0.336202  0.742826  0.316933  1
  Zn  Zn2  1  0.663798  0.257174  0.683067  1
  Zn  Zn3  1  0.257174  0.663798  0.683067  1
  Zn  Zn4  1  0.742826  0.336202  0.316933  1
  Zn  Zn5  1  0.682614  0.317386  0.000000  1
  Zn  Zn6  1  0.317386  0.682614  0.000000  1
  Zn  Zn7  1  0.833561  0.833561  0.776827  1
  Zn  Zn8  1  0.166439  0.166439  0.223173  1
  Zn  Zn9  1  0.976599  0.976599  0.175924  1
  Zn  Zn10  1  0.023401  0.023401  0.824076  1
  Zn  Zn11  1  0.350935  0.350935  0.279537  1
  Zn  Zn12  1  0.649065  0.649065  0.720463  1
  Zn  Zn13  1  0.683904  0.683904  0.381981  1
  Zn  Zn14  1  0.316096  0.316096  0.618019  1
  Zn  Zn15  1  0.661871  0.022038  0.461697  1
  Zn  Zn16  1  0.338129  0.977962  0.538303  1
  Zn  Zn17  1  0.977962  0.338129  0.538303  1
  Zn  Zn18  1  0.022038  0.661871  0.461697  1
  Zn  Zn19  1  0.622808  0.996539  0.106941  1
  Zn  Zn20  1  0.377192  0.003461  0.893059  1
  Zn  Zn21  1  0.003461  0.377192  0.893059  1
  Zn  Zn22  1  0.996539  0.622808  0.106941  1
  Pt  Pt23  1  0.657117  0.657117  0.054942  1
  Pt  Pt24  1  0.342883  0.342883  0.945058  1
