# generated using pymatgen
data_Nd16Cd3Ni3HgRu
_symmetry_space_group_name_H-M   'P 1'
_cell_length_a   9.90225179
_cell_length_b   9.90225075
_cell_length_c   9.90225100
_cell_angle_alpha   59.61727028
_cell_angle_beta   59.61727321
_cell_angle_gamma   59.61727135
_symmetry_Int_Tables_number   1
_chemical_formula_structural   Nd16Cd3Ni3HgRu
_chemical_formula_sum   'Nd16 Cd3 Ni3 Hg1 Ru1'
_cell_volume   680.60130425
_cell_formula_units_Z   1
loop_
 _symmetry_equiv_pos_site_id
 _symmetry_equiv_pos_as_xyz
  1  'x, y, z'
loop_
 _atom_site_type_symbol
 _atom_site_label
 _atom_site_symmetry_multiplicity
 _atom_site_fract_x
 _atom_site_fract_y
 _atom_site_fract_z
 _atom_site_occupancy
  Nd  Nd0  1  0.597379  0.597379  0.597379  1
  Nd  Nd1  1  0.599494  0.599494  0.205549  1
  Nd  Nd2  1  0.599494  0.205549  0.599494  1
  Nd  Nd3  1  0.205549  0.599494  0.599494  1
  Nd  Nd4  1  0.061316  0.438174  0.438174  1
  Nd  Nd5  1  0.438610  0.058099  0.058099  1
  Nd  Nd6  1  0.438174  0.061316  0.438174  1
  Nd  Nd7  1  0.058099  0.438610  0.058099  1
  Nd  Nd8  1  0.438174  0.438174  0.061316  1
  Nd  Nd9  1  0.058099  0.058099  0.438610  1
  Nd  Nd10  1  0.187836  0.814441  0.814441  1
  Nd  Nd11  1  0.805968  0.188880  0.188880  1
  Nd  Nd12  1  0.814441  0.187836  0.814441  1
  Nd  Nd13  1  0.188880  0.805968  0.188880  1
  Nd  Nd14  1  0.814441  0.814441  0.187836  1
  Nd  Nd15  1  0.188880  0.188880  0.805968  1
  Cd  Cd16  1  0.828673  0.828673  0.510245  1
  Cd  Cd17  1  0.828673  0.510245  0.828673  1
  Cd  Cd18  1  0.510245  0.828673  0.828673  1
  Ni  Ni19  1  0.393022  0.393022  0.825072  1
  Ni  Ni20  1  0.393022  0.825072  0.393022  1
  Ni  Ni21  1  0.825072  0.393022  0.393022  1
  Hg  Hg22  1  0.834414  0.834414  0.834414  1
  Ru  Ru23  1  0.392049  0.392049  0.392049  1
