# generated using pymatgen
data_Tm2CrCo2P6Ir7
_symmetry_space_group_name_H-M   'P 1'
_cell_length_a   3.87287700
_cell_length_b   10.70720000
_cell_length_c   12.31099300
_cell_angle_alpha   90.00000000
_cell_angle_beta   90.00000000
_cell_angle_gamma   90.00000000
_symmetry_Int_Tables_number   1
_chemical_formula_structural   Tm2CrCo2P6Ir7
_chemical_formula_sum   'Tm4 Cr2 Co4 P12 Ir14'
_cell_volume   510.50817804
_cell_formula_units_Z   2
loop_
 _symmetry_equiv_pos_site_id
 _symmetry_equiv_pos_as_xyz
  1  'x, y, z'
loop_
 _atom_site_type_symbol
 _atom_site_label
 _atom_site_symmetry_multiplicity
 _atom_site_fract_x
 _atom_site_fract_y
 _atom_site_fract_z
 _atom_site_occupancy
  Tm  Tm0  1  0.250000  0.588290  0.709713  1
  Tm  Tm1  1  0.250000  0.911710  0.209713  1
  Tm  Tm2  1  0.750000  0.419751  0.292537  1
  Tm  Tm3  1  0.750000  0.080249  0.792537  1
  Cr  Cr4  1  0.250000  0.713820  0.982822  1
  Cr  Cr5  1  0.250000  0.786180  0.482822  1
  Co  Co6  1  0.250000  0.461707  0.933299  1
  Co  Co7  1  0.250000  0.038293  0.433299  1
  Co  Co8  1  0.750000  0.535211  0.064450  1
  Co  Co9  1  0.750000  0.964789  0.564450  1
  P  P10  1  0.250000  0.426027  0.106448  1
  P  P11  1  0.250000  0.073973  0.606448  1
  P  P12  1  0.750000  0.576294  0.894278  1
  P  P13  1  0.750000  0.923706  0.394278  1
  P  P14  1  0.250000  0.267506  0.872819  1
  P  P15  1  0.250000  0.232494  0.372819  1
  P  P16  1  0.750000  0.727403  0.126717  1
  P  P17  1  0.750000  0.772597  0.626717  1
  P  P18  1  0.250000  0.603487  0.388290  1
  P  P19  1  0.250000  0.896513  0.888290  1
  P  P20  1  0.750000  0.409214  0.613476  1
  P  P21  1  0.750000  0.090786  0.113476  1
  Ir  Ir22  1  0.750000  0.276961  0.016043  1
  Ir  Ir23  1  0.750000  0.223039  0.516043  1
  Ir  Ir24  1  0.250000  0.410294  0.481728  1
  Ir  Ir25  1  0.250000  0.089706  0.981728  1
  Ir  Ir26  1  0.750000  0.597662  0.519379  1
  Ir  Ir27  1  0.750000  0.902338  0.019379  1
  Ir  Ir28  1  0.250000  0.234155  0.181509  1
  Ir  Ir29  1  0.250000  0.265845  0.681509  1
  Ir  Ir30  1  0.750000  0.767675  0.819983  1
  Ir  Ir31  1  0.750000  0.732325  0.319983  1
  Ir  Ir32  1  0.250000  0.886462  0.697025  1
  Ir  Ir33  1  0.250000  0.613538  0.197025  1
  Ir  Ir34  1  0.750000  0.109995  0.299484  1
  Ir  Ir35  1  0.750000  0.390005  0.799484  1
