# generated using pymatgen
data_Yb6CeEr(Si3Pd)4
_symmetry_space_group_name_H-M   'P 1'
_cell_length_a   8.25678500
_cell_length_b   8.25678426
_cell_length_c   8.13115000
_cell_angle_alpha   90.00000000
_cell_angle_beta   90.00000000
_cell_angle_gamma   119.99999895
_symmetry_Int_Tables_number   1
_chemical_formula_structural   Yb6CeEr(Si3Pd)4
_chemical_formula_sum   'Yb6 Ce1 Er1 Si12 Pd4'
_cell_volume   480.06995031
_cell_formula_units_Z   1
loop_
 _symmetry_equiv_pos_site_id
 _symmetry_equiv_pos_as_xyz
  1  'x, y, z'
loop_
 _atom_site_type_symbol
 _atom_site_label
 _atom_site_symmetry_multiplicity
 _atom_site_fract_x
 _atom_site_fract_y
 _atom_site_fract_z
 _atom_site_occupancy
  Yb  Yb0  1  0.501329  0.002657  0.250000  1
  Yb  Yb1  1  0.498587  0.997175  0.750000  1
  Yb  Yb2  1  0.997343  0.498671  0.250000  1
  Yb  Yb3  1  0.002825  0.501413  0.750000  1
  Yb  Yb4  1  0.501329  0.498671  0.250000  1
  Yb  Yb5  1  0.498587  0.501413  0.750000  1
  Ce  Ce6  1  0.000000  0.000000  0.750000  1
  Er  Er7  1  0.000000  0.000000  0.250000  1
  Si  Si8  1  0.164016  0.328033  0.002125  1
  Si  Si9  1  0.835966  0.671932  0.999266  1
  Si  Si10  1  0.671967  0.835984  0.002125  1
  Si  Si11  1  0.835966  0.671932  0.500734  1
  Si  Si12  1  0.328068  0.164034  0.999266  1
  Si  Si13  1  0.164016  0.328033  0.497875  1
  Si  Si14  1  0.164016  0.835984  0.002125  1
  Si  Si15  1  0.328068  0.164034  0.500734  1
  Si  Si16  1  0.835966  0.164034  0.999266  1
  Si  Si17  1  0.671967  0.835984  0.497875  1
  Si  Si18  1  0.835966  0.164034  0.500734  1
  Si  Si19  1  0.164016  0.835984  0.497875  1
  Pd  Pd20  1  0.333333  0.666667  0.004098  1
  Pd  Pd21  1  0.666667  0.333333  0.998178  1
  Pd  Pd22  1  0.666667  0.333333  0.501822  1
  Pd  Pd23  1  0.333333  0.666667  0.495902  1
