# generated using pymatgen
data_Pr4Ge8PtAu7
_symmetry_space_group_name_H-M   'P 1'
_cell_length_a   4.50034233
_cell_length_b   9.01846235
_cell_length_c   10.38806527
_cell_angle_alpha   89.80833715
_cell_angle_beta   89.99664891
_cell_angle_gamma   90.03496219
_symmetry_Int_Tables_number   1
_chemical_formula_structural   Pr4Ge8PtAu7
_chemical_formula_sum   'Pr4 Ge8 Pt1 Au7'
_cell_volume   421.60932254
_cell_formula_units_Z   1
loop_
 _symmetry_equiv_pos_site_id
 _symmetry_equiv_pos_as_xyz
  1  'x, y, z'
loop_
 _atom_site_type_symbol
 _atom_site_label
 _atom_site_symmetry_multiplicity
 _atom_site_fract_x
 _atom_site_fract_y
 _atom_site_fract_z
 _atom_site_occupancy
  Pr  Pr0  1  0.254220  0.871577  0.245850  1
  Pr  Pr1  1  0.752211  0.625214  0.757652  1
  Pr  Pr2  1  0.247621  0.376603  0.245916  1
  Pr  Pr3  1  0.746823  0.126001  0.753168  1
  Ge  Ge4  1  0.250716  0.123466  0.001111  1
  Ge  Ge5  1  0.762014  0.620290  0.357950  1
  Ge  Ge6  1  0.731249  0.119236  0.372003  1
  Ge  Ge7  1  0.252169  0.624145  0.005645  1
  Ge  Ge8  1  0.233689  0.382208  0.631077  1
  Ge  Ge9  1  0.749404  0.380230  0.004677  1
  Ge  Ge10  1  0.269842  0.879196  0.630390  1
  Ge  Ge11  1  0.750130  0.871832  0.004187  1
  Pt  Pt12  1  0.751936  0.625924  0.119834  1
  Au  Au13  1  0.262992  0.629530  0.496615  1
  Au  Au14  1  0.751526  0.125791  0.129565  1
  Au  Au15  1  0.231323  0.130643  0.502335  1
  Au  Au16  1  0.769081  0.865579  0.499274  1
  Au  Au17  1  0.250262  0.373974  0.872415  1
  Au  Au18  1  0.248724  0.873976  0.871753  1
  Au  Au19  1  0.734068  0.374586  0.498582  1
