# generated using pymatgen
data_EuTm(Co5P3)2
_symmetry_space_group_name_H-M   'P 1'
_cell_length_a   3.64710600
_cell_length_b   10.30504700
_cell_length_c   11.76089900
_cell_angle_alpha   90.00000000
_cell_angle_beta   90.00000000
_cell_angle_gamma   90.00000000
_symmetry_Int_Tables_number   1
_chemical_formula_structural   EuTm(Co5P3)2
_chemical_formula_sum   'Eu2 Tm2 Co20 P12'
_cell_volume   442.01690888
_cell_formula_units_Z   2
loop_
 _symmetry_equiv_pos_site_id
 _symmetry_equiv_pos_as_xyz
  1  'x, y, z'
loop_
 _atom_site_type_symbol
 _atom_site_label
 _atom_site_symmetry_multiplicity
 _atom_site_fract_x
 _atom_site_fract_y
 _atom_site_fract_z
 _atom_site_occupancy
  Eu  Eu0  1  0.250000  0.583577  0.703296  1
  Eu  Eu1  1  0.250000  0.916423  0.203296  1
  Tm  Tm2  1  0.750000  0.416796  0.297408  1
  Tm  Tm3  1  0.750000  0.083204  0.797408  1
  Co  Co4  1  0.250000  0.714531  0.990007  1
  Co  Co5  1  0.250000  0.785469  0.490007  1
  Co  Co6  1  0.750000  0.284605  0.009388  1
  Co  Co7  1  0.750000  0.215395  0.509388  1
  Co  Co8  1  0.250000  0.404966  0.485559  1
  Co  Co9  1  0.250000  0.095034  0.985559  1
  Co  Co10  1  0.750000  0.591910  0.508350  1
  Co  Co11  1  0.750000  0.908090  0.008350  1
  Co  Co12  1  0.250000  0.222098  0.176092  1
  Co  Co13  1  0.250000  0.277902  0.676092  1
  Co  Co14  1  0.750000  0.781025  0.824069  1
  Co  Co15  1  0.750000  0.718975  0.324069  1
  Co  Co16  1  0.250000  0.884892  0.699141  1
  Co  Co17  1  0.250000  0.615108  0.199141  1
  Co  Co18  1  0.750000  0.121387  0.302838  1
  Co  Co19  1  0.750000  0.378613  0.802838  1
  Co  Co20  1  0.250000  0.465715  0.933999  1
  Co  Co21  1  0.250000  0.034285  0.433999  1
  Co  Co22  1  0.750000  0.531260  0.069237  1
  Co  Co23  1  0.750000  0.968740  0.569237  1
  P  P24  1  0.250000  0.418447  0.113687  1
  P  P25  1  0.250000  0.081553  0.613687  1
  P  P26  1  0.750000  0.580905  0.889319  1
  P  P27  1  0.750000  0.919095  0.389319  1
  P  P28  1  0.250000  0.270078  0.869102  1
  P  P29  1  0.250000  0.229922  0.369102  1
  P  P30  1  0.750000  0.728038  0.129105  1
  P  P31  1  0.750000  0.771962  0.629105  1
  P  P32  1  0.250000  0.601414  0.391342  1
  P  P33  1  0.250000  0.898586  0.891342  1
  P  P34  1  0.750000  0.396660  0.608062  1
  P  P35  1  0.750000  0.103340  0.108062  1
