# generated using pymatgen
data_Eu4Zn4Pt3Rh
_symmetry_space_group_name_H-M   'P 1'
_cell_length_a   7.27786898
_cell_length_b   4.40581600
_cell_length_c   7.92210511
_cell_angle_alpha   90.00000000
_cell_angle_beta   90.05171755
_cell_angle_gamma   90.00000000
_symmetry_Int_Tables_number   1
_chemical_formula_structural   Eu4Zn4Pt3Rh
_chemical_formula_sum   'Eu4 Zn4 Pt3 Rh1'
_cell_volume   254.02181326
_cell_formula_units_Z   1
loop_
 _symmetry_equiv_pos_site_id
 _symmetry_equiv_pos_as_xyz
  1  'x, y, z'
loop_
 _atom_site_type_symbol
 _atom_site_label
 _atom_site_symmetry_multiplicity
 _atom_site_fract_x
 _atom_site_fract_y
 _atom_site_fract_z
 _atom_site_occupancy
  Eu  Eu0  1  0.487880  0.750000  0.193515  1
  Eu  Eu1  1  0.985428  0.750000  0.304521  1
  Eu  Eu2  1  0.013237  0.249999  0.693838  1
  Eu  Eu3  1  0.515715  0.249999  0.808580  1
  Zn  Zn4  1  0.157939  0.249999  0.076323  1
  Zn  Zn5  1  0.665322  0.249999  0.420446  1
  Zn  Zn6  1  0.337942  0.750000  0.575979  1
  Zn  Zn7  1  0.833425  0.750000  0.927973  1
  Pt  Pt8  1  0.284637  0.249999  0.395570  1
  Pt  Pt9  1  0.715241  0.750000  0.602988  1
  Pt  Pt10  1  0.215126  0.750000  0.895953  1
  Rh  Rh11  1  0.788108  0.249999  0.104316  1
