# generated using pymatgen
data_ThAl4Ga2Pd
_symmetry_space_group_name_H-M   'P 1'
_cell_length_a   4.32179400
_cell_length_b   4.32179400
_cell_length_c   8.07679600
_cell_angle_alpha   90.00000000
_cell_angle_beta   90.00000000
_cell_angle_gamma   90.00000000
_symmetry_Int_Tables_number   1
_chemical_formula_structural   ThAl4Ga2Pd
_chemical_formula_sum   'Th1 Al4 Ga2 Pd1'
_cell_volume   150.85761530
_cell_formula_units_Z   1
loop_
 _symmetry_equiv_pos_site_id
 _symmetry_equiv_pos_as_xyz
  1  'x, y, z'
loop_
 _atom_site_type_symbol
 _atom_site_label
 _atom_site_symmetry_multiplicity
 _atom_site_fract_x
 _atom_site_fract_y
 _atom_site_fract_z
 _atom_site_occupancy
  Th  Th0  1  0.000000  0.000000  0.500000  1
  Al  Al1  1  0.000000  0.500000  0.171007  1
  Al  Al2  1  0.000000  0.500000  0.828993  1
  Al  Al3  1  0.500000  0.000000  0.171007  1
  Al  Al4  1  0.500000  0.000000  0.828993  1
  Ga  Ga5  1  0.500000  0.500000  0.351135  1
  Ga  Ga6  1  0.500000  0.500000  0.648865  1
  Pd  Pd7  1  0.000000  0.000000  0.000000  1
