# generated using pymatgen
data_Ta12Os5RuW6
_symmetry_space_group_name_H-M   'P 1'
_cell_length_a   4.51635500
_cell_length_b   6.41562300
_cell_length_c   13.72292100
_cell_angle_alpha   89.99998272
_cell_angle_beta   90.00000000
_cell_angle_gamma   89.99996945
_symmetry_Int_Tables_number   1
_chemical_formula_structural   Ta12Os5RuW6
_chemical_formula_sum   'Ta12 Os5 Ru1 W6'
_cell_volume   397.62480616
_cell_formula_units_Z   1
loop_
 _symmetry_equiv_pos_site_id
 _symmetry_equiv_pos_as_xyz
  1  'x, y, z'
loop_
 _atom_site_type_symbol
 _atom_site_label
 _atom_site_symmetry_multiplicity
 _atom_site_fract_x
 _atom_site_fract_y
 _atom_site_fract_z
 _atom_site_occupancy
  Ta  Ta0  1  0.500000  0.250032  0.000166  1
  Ta  Ta1  1  0.500000  0.749969  0.000166  1
  Ta  Ta2  1  0.999992  0.249984  0.166561  1
  Ta  Ta3  1  0.999992  0.750016  0.166560  1
  Ta  Ta4  1  0.499995  0.249921  0.333334  1
  Ta  Ta5  1  0.499995  0.750079  0.333334  1
  Ta  Ta6  1  0.000000  0.249986  0.500107  1
  Ta  Ta7  1  0.000000  0.750015  0.500107  1
  Ta  Ta8  1  0.500003  0.250033  0.666501  1
  Ta  Ta9  1  0.500003  0.749967  0.666501  1
  Ta  Ta10  1  0.000008  0.250411  0.833333  1
  Ta  Ta11  1  0.000008  0.749589  0.833333  1
  Os  Os12  1  0.000000  0.500000  0.999967  1
  Os  Os13  1  0.499996  0.000000  0.166817  1
  Os  Os14  1  0.999991  0.500000  0.333332  1
  Os  Os15  1  0.500001  0.000000  0.499850  1
  Os  Os16  1  0.000006  0.500000  0.666703  1
  Ru  Ru17  1  0.500008  0.000000  0.833329  1
  W  W18  1  0.000000  0.000000  0.999819  1
  W  W19  1  0.499999  0.500000  0.166414  1
  W  W20  1  0.999990  0.000000  0.333335  1
  W  W21  1  0.500000  0.500000  0.500254  1
  W  W22  1  0.000009  0.000000  0.666845  1
  W  W23  1  0.500003  0.500000  0.833334  1
