# generated using pymatgen
data_CaTbHo2(ReN3)4
_symmetry_space_group_name_H-M   'P 1'
_cell_length_a   7.37428559
_cell_length_b   7.37428502
_cell_length_c   6.26897922
_cell_angle_alpha   73.54484892
_cell_angle_beta   73.54485058
_cell_angle_gamma   82.75006437
_symmetry_Int_Tables_number   1
_chemical_formula_structural   CaTbHo2(ReN3)4
_chemical_formula_sum   'Ca1 Tb1 Ho2 Re4 N12'
_cell_volume   313.16187242
_cell_formula_units_Z   1
loop_
 _symmetry_equiv_pos_site_id
 _symmetry_equiv_pos_as_xyz
  1  'x, y, z'
loop_
 _atom_site_type_symbol
 _atom_site_label
 _atom_site_symmetry_multiplicity
 _atom_site_fract_x
 _atom_site_fract_y
 _atom_site_fract_z
 _atom_site_occupancy
  Ca  Ca0  1  0.705265  0.294735  0.250000  1
  Tb  Tb1  1  0.292552  0.707448  0.750000  1
  Ho  Ho2  1  0.908779  0.091221  0.750000  1
  Ho  Ho3  1  0.091918  0.908082  0.250000  1
  Re  Re4  1  0.622370  0.795435  0.272061  1
  Re  Re5  1  0.204565  0.377630  0.227939  1
  Re  Re6  1  0.378461  0.201510  0.728522  1
  Re  Re7  1  0.798490  0.621539  0.771478  1
  N  N8  1  0.339737  0.360443  0.930699  1
  N  N9  1  0.012229  0.216254  0.345475  1
  N  N10  1  0.783746  0.987771  0.154525  1
  N  N11  1  0.217929  0.004228  0.842532  1
  N  N12  1  0.656480  0.648302  0.062132  1
  N  N13  1  0.878145  0.378422  0.828262  1
  N  N14  1  0.127111  0.626383  0.160630  1
  N  N15  1  0.995772  0.782071  0.657468  1
  N  N16  1  0.373617  0.872889  0.339370  1
  N  N17  1  0.639557  0.660263  0.569301  1
  N  N18  1  0.621578  0.121855  0.671738  1
  N  N19  1  0.351698  0.343520  0.437868  1
