# generated using pymatgen
data_ErTi3Fe2(B2Ru5)2
_symmetry_space_group_name_H-M   'P 1'
_cell_length_a   9.24706860
_cell_length_b   9.24706860
_cell_length_c   3.01200300
_cell_angle_alpha   90.00000000
_cell_angle_beta   90.00000000
_cell_angle_gamma   89.17335848
_symmetry_Int_Tables_number   1
_chemical_formula_structural   ErTi3Fe2(B2Ru5)2
_chemical_formula_sum   'Er1 Ti3 Fe2 B4 Ru10'
_cell_volume   257.52438415
_cell_formula_units_Z   1
loop_
 _symmetry_equiv_pos_site_id
 _symmetry_equiv_pos_as_xyz
  1  'x, y, z'
loop_
 _atom_site_type_symbol
 _atom_site_label
 _atom_site_symmetry_multiplicity
 _atom_site_fract_x
 _atom_site_fract_y
 _atom_site_fract_z
 _atom_site_occupancy
  Er  Er0  1  0.674852  0.174852  0.000000  1
  Ti  Ti1  1  0.322458  0.822458  0.000000  1
  Ti  Ti2  1  0.174007  0.324466  0.000000  1
  Ti  Ti3  1  0.824466  0.674007  0.000000  1
  Fe  Fe4  1  0.996133  0.001249  0.000000  1
  Fe  Fe5  1  0.501249  0.496133  0.000000  1
  B  B6  1  0.128359  0.628359  0.000000  1
  B  B7  1  0.881405  0.381405  0.000000  1
  B  B8  1  0.622396  0.869970  0.000000  1
  B  B9  1  0.369970  0.122396  0.000000  1
  Ru  Ru10  1  0.207913  0.069965  0.500000  1
  Ru  Ru11  1  0.788411  0.913191  0.500000  1
  Ru  Ru12  1  0.075755  0.791438  0.500000  1
  Ru  Ru13  1  0.720408  0.442659  0.500000  1
  Ru  Ru14  1  0.942659  0.220408  0.500000  1
  Ru  Ru15  1  0.291438  0.575755  0.500000  1
  Ru  Ru16  1  0.569965  0.707913  0.500000  1
  Ru  Ru17  1  0.413191  0.288411  0.500000  1
  Ru  Ru18  1  0.489346  0.989346  0.500000  1
  Ru  Ru19  1  0.005619  0.505619  0.500000  1
