# generated using pymatgen
data_CaHoAlIr2
_symmetry_space_group_name_H-M   'P 1'
_cell_length_a   5.61356995
_cell_length_b   5.61356946
_cell_length_c   5.61356957
_cell_angle_alpha   138.11601388
_cell_angle_beta   117.69811540
_cell_angle_gamma   77.91801228
_symmetry_Int_Tables_number   1
_chemical_formula_structural   CaHoAlIr2
_chemical_formula_sum   'Ca1 Ho1 Al1 Ir2'
_cell_volume   101.73050302
_cell_formula_units_Z   1
loop_
 _symmetry_equiv_pos_site_id
 _symmetry_equiv_pos_as_xyz
  1  'x, y, z'
loop_
 _atom_site_type_symbol
 _atom_site_label
 _atom_site_symmetry_multiplicity
 _atom_site_fract_x
 _atom_site_fract_y
 _atom_site_fract_z
 _atom_site_occupancy
  Ca  Ca0  1  0.295051  0.795050  0.499999  1
  Ho  Ho1  1  0.700762  0.200762  0.500000  1
  Al  Al2  1  0.999809  0.999809  0.000000  1
  Ir  Ir3  1  0.735524  0.502189  0.233335  1
  Ir  Ir4  1  0.268854  0.502188  0.766665  1
