# generated using pymatgen
data_HoEr7Sc12Si15Ge
_symmetry_space_group_name_H-M   'P 1'
_cell_length_a   7.07830684
_cell_length_b   7.36233343
_cell_length_c   13.95885402
_cell_angle_alpha   90.02238022
_cell_angle_beta   89.83147748
_cell_angle_gamma   90.02899858
_symmetry_Int_Tables_number   1
_chemical_formula_structural   HoEr7Sc12Si15Ge
_chemical_formula_sum   'Ho1 Er7 Sc12 Si15 Ge1'
_cell_volume   727.43244169
_cell_formula_units_Z   1
loop_
 _symmetry_equiv_pos_site_id
 _symmetry_equiv_pos_as_xyz
  1  'x, y, z'
loop_
 _atom_site_type_symbol
 _atom_site_label
 _atom_site_symmetry_multiplicity
 _atom_site_fract_x
 _atom_site_fract_y
 _atom_site_fract_z
 _atom_site_occupancy
  Ho  Ho0  1  0.492028  0.677253  0.597137  1
  Er  Er1  1  0.011574  0.175740  0.096604  1
  Er  Er2  1  0.988559  0.824473  0.903457  1
  Er  Er3  1  0.488985  0.675698  0.903398  1
  Er  Er4  1  0.988697  0.824688  0.596806  1
  Er  Er5  1  0.511144  0.324509  0.096786  1
  Er  Er6  1  0.009827  0.175353  0.402768  1
  Er  Er7  1  0.511367  0.323010  0.402381  1
  Sc  Sc8  1  0.162358  0.502757  0.751348  1
  Sc  Sc9  1  0.837377  0.497277  0.250127  1
  Sc  Sc10  1  0.337705  0.002767  0.249974  1
  Sc  Sc11  1  0.662411  0.997236  0.750052  1
  Sc  Sc12  1  0.334678  0.173874  0.626434  1
  Sc  Sc13  1  0.666579  0.824033  0.374012  1
  Sc  Sc14  1  0.165958  0.677222  0.374235  1
  Sc  Sc15  1  0.667707  0.822789  0.125188  1
  Sc  Sc16  1  0.831515  0.323913  0.625168  1
  Sc  Sc17  1  0.331974  0.176684  0.874793  1
  Sc  Sc18  1  0.831925  0.323124  0.874886  1
  Sc  Sc19  1  0.167811  0.677120  0.125211  1
  Si  Si20  1  0.034545  0.116097  0.750152  1
  Si  Si21  1  0.965227  0.884831  0.249487  1
  Si  Si22  1  0.464498  0.615815  0.249591  1
  Si  Si23  1  0.534720  0.384371  0.750438  1
  Si  Si24  1  0.286430  0.871785  0.750427  1
  Si  Si25  1  0.713581  0.127552  0.249459  1
  Si  Si26  1  0.212984  0.372534  0.249862  1
  Si  Si27  1  0.787353  0.627688  0.750240  1
  Si  Si28  1  0.834758  0.536786  0.459718  1
  Si  Si29  1  0.339854  0.964528  0.460651  1
  Si  Si30  1  0.841081  0.534992  0.039490  1
  Si  Si31  1  0.660200  0.035885  0.539112  1
  Si  Si32  1  0.158841  0.464942  0.960759  1
  Si  Si33  1  0.658693  0.035250  0.960709  1
  Si  Si34  1  0.341155  0.964892  0.039407  1
  Ge  Ge35  1  0.165902  0.462532  0.539733  1
