# generated using pymatgen
data_HfZr2Ti2Sn3N
_symmetry_space_group_name_H-M   'P 1'
_cell_length_a   8.27807547
_cell_length_b   8.29599389
_cell_length_c   5.59609100
_cell_angle_alpha   90.00000000
_cell_angle_beta   90.00000000
_cell_angle_gamma   120.07162887
_symmetry_Int_Tables_number   1
_chemical_formula_structural   HfZr2Ti2Sn3N
_chemical_formula_sum   'Hf2 Zr4 Ti4 Sn6 N2'
_cell_volume   332.58241827
_cell_formula_units_Z   2
loop_
 _symmetry_equiv_pos_site_id
 _symmetry_equiv_pos_as_xyz
  1  'x, y, z'
loop_
 _atom_site_type_symbol
 _atom_site_label
 _atom_site_symmetry_multiplicity
 _atom_site_fract_x
 _atom_site_fract_y
 _atom_site_fract_z
 _atom_site_occupancy
  Hf  Hf0  1  0.779526  0.780586  0.750000  1
  Hf  Hf1  1  0.220474  0.001060  0.750000  1
  Zr  Zr2  1  0.000000  0.226425  0.750000  1
  Zr  Zr3  1  0.223778  0.222888  0.250000  1
  Zr  Zr4  1  0.776222  0.999110  0.250000  1
  Zr  Zr5  1  0.000000  0.773844  0.250000  1
  Ti  Ti6  1  0.666483  0.333404  0.999754  1
  Ti  Ti7  1  0.333517  0.666921  0.999754  1
  Ti  Ti8  1  0.333517  0.666921  0.500246  1
  Ti  Ti9  1  0.666483  0.333404  0.500246  1
  Sn  Sn10  1  0.411954  0.411493  0.750000  1
  Sn  Sn11  1  0.588046  0.999539  0.750000  1
  Sn  Sn12  1  0.000000  0.591013  0.750000  1
  Sn  Sn13  1  0.589164  0.589276  0.250000  1
  Sn  Sn14  1  0.410836  0.000112  0.250000  1
  Sn  Sn15  1  0.000000  0.410182  0.250000  1
  N  N16  1  0.000000  0.996911  0.995817  1
  N  N17  1  0.000000  0.996911  0.504183  1
