# generated using pymatgen
data_Ac2ZrSe5
_symmetry_space_group_name_H-M   'P 1'
_cell_length_a   7.93803100
_cell_length_b   8.85611300
_cell_length_c   12.26584900
_cell_angle_alpha   90.00000000
_cell_angle_beta   90.00000000
_cell_angle_gamma   90.00000000
_symmetry_Int_Tables_number   1
_chemical_formula_structural   Ac2ZrSe5
_chemical_formula_sum   'Ac8 Zr4 Se20'
_cell_volume   862.29040556
_cell_formula_units_Z   4
loop_
 _symmetry_equiv_pos_site_id
 _symmetry_equiv_pos_as_xyz
  1  'x, y, z'
loop_
 _atom_site_type_symbol
 _atom_site_label
 _atom_site_symmetry_multiplicity
 _atom_site_fract_x
 _atom_site_fract_y
 _atom_site_fract_z
 _atom_site_occupancy
  Ac  Ac0  1  0.435019  0.500363  0.170983  1
  Ac  Ac1  1  0.064981  0.999637  0.670983  1
  Ac  Ac2  1  0.564981  0.000363  0.829017  1
  Ac  Ac3  1  0.935019  0.499637  0.329017  1
  Ac  Ac4  1  0.564981  0.499637  0.829017  1
  Ac  Ac5  1  0.935019  0.000363  0.329017  1
  Ac  Ac6  1  0.435019  0.999637  0.170983  1
  Ac  Ac7  1  0.064981  0.500363  0.670983  1
  Zr  Zr8  1  0.925127  0.750000  0.010196  1
  Zr  Zr9  1  0.574873  0.750000  0.510196  1
  Zr  Zr10  1  0.074873  0.250000  0.989804  1
  Zr  Zr11  1  0.425127  0.250000  0.489804  1
  Se  Se12  1  0.135590  0.750000  0.191267  1
  Se  Se13  1  0.364410  0.750000  0.691267  1
  Se  Se14  1  0.864410  0.250000  0.808733  1
  Se  Se15  1  0.635590  0.250000  0.308733  1
  Se  Se16  1  0.651465  0.750000  0.293957  1
  Se  Se17  1  0.848535  0.750000  0.793957  1
  Se  Se18  1  0.348535  0.250000  0.706043  1
  Se  Se19  1  0.151465  0.250000  0.206043  1
  Se  Se20  1  0.562213  0.750000  0.007037  1
  Se  Se21  1  0.937787  0.750000  0.507037  1
  Se  Se22  1  0.437787  0.250000  0.992963  1
  Se  Se23  1  0.062213  0.250000  0.492963  1
  Se  Se24  1  0.822123  0.465667  0.068550  1
  Se  Se25  1  0.677877  0.034333  0.568550  1
  Se  Se26  1  0.177877  0.965667  0.931450  1
  Se  Se27  1  0.322123  0.534333  0.431450  1
  Se  Se28  1  0.177877  0.534333  0.931450  1
  Se  Se29  1  0.322123  0.965667  0.431450  1
  Se  Se30  1  0.822123  0.034333  0.068550  1
  Se  Se31  1  0.677877  0.465667  0.568550  1
