# generated using pymatgen
data_LiHo3Tl(AgGe)2
_symmetry_space_group_name_H-M   'P 1'
_cell_length_a   7.33867625
_cell_length_b   7.21162208
_cell_length_c   4.21672400
_cell_angle_alpha   90.00000000
_cell_angle_beta   90.00000000
_cell_angle_gamma   119.42891300
_symmetry_Int_Tables_number   1
_chemical_formula_structural   LiHo3Tl(AgGe)2
_chemical_formula_sum   'Li1 Ho3 Tl1 Ag2 Ge2'
_cell_volume   194.36902423
_cell_formula_units_Z   1
loop_
 _symmetry_equiv_pos_site_id
 _symmetry_equiv_pos_as_xyz
  1  'x, y, z'
loop_
 _atom_site_type_symbol
 _atom_site_label
 _atom_site_symmetry_multiplicity
 _atom_site_fract_x
 _atom_site_fract_y
 _atom_site_fract_z
 _atom_site_occupancy
  Li  Li0  1  0.000000  0.250526  0.500000  1
  Ho  Ho1  1  0.000000  0.573804  0.000000  1
  Ho  Ho2  1  0.565155  0.996565  0.000000  1
  Ho  Ho3  1  0.434845  0.431411  0.000000  1
  Tl  Tl4  1  0.000000  0.020479  0.000000  1
  Ag  Ag5  1  0.262874  0.001577  0.500000  1
  Ag  Ag6  1  0.737126  0.738703  0.500000  1
  Ge  Ge7  1  0.323146  0.655041  0.500000  1
  Ge  Ge8  1  0.676854  0.331894  0.500000  1
