# generated using pymatgen
data_Y6NpFe22
_symmetry_space_group_name_H-M   'P 1'
_cell_length_a   8.53312700
_cell_length_b   8.53312652
_cell_length_c   8.53312700
_cell_angle_alpha   119.99999797
_cell_angle_beta   90.00000000
_cell_angle_gamma   119.99999797
_symmetry_Int_Tables_number   1
_chemical_formula_structural   Y6NpFe22
_chemical_formula_sum   'Y6 Np1 Fe22'
_cell_volume   439.34899031
_cell_formula_units_Z   1
loop_
 _symmetry_equiv_pos_site_id
 _symmetry_equiv_pos_as_xyz
  1  'x, y, z'
loop_
 _atom_site_type_symbol
 _atom_site_label
 _atom_site_symmetry_multiplicity
 _atom_site_fract_x
 _atom_site_fract_y
 _atom_site_fract_z
 _atom_site_occupancy
  Y  Y0  1  0.706167  0.000000  0.293832  1
  Y  Y1  1  0.293833  0.000000  0.293833  1
  Y  Y2  1  0.293833  0.587667  0.293833  1
  Y  Y3  1  0.293832  0.000000  0.706167  1
  Y  Y4  1  0.706167  0.000000  0.706167  1
  Y  Y5  1  0.706167  0.412334  0.706167  1
  Np  Np6  1  0.000000  0.000000  0.000000  1
  Fe  Fe7  1  0.500001  0.000000  0.000000  1
  Fe  Fe8  1  0.000000  0.500001  0.000000  1
  Fe  Fe9  1  0.500001  0.500001  0.000000  1
  Fe  Fe10  1  0.675685  0.351372  0.027058  1
  Fe  Fe11  1  0.876971  0.753942  0.123029  1
  Fe  Fe12  1  0.369086  0.246057  0.123029  1
  Fe  Fe13  1  0.876971  0.246057  0.123029  1
  Fe  Fe14  1  0.675685  0.351372  0.324314  1
  Fe  Fe15  1  0.675685  0.648628  0.324314  1
  Fe  Fe16  1  0.972942  0.648628  0.324314  1
  Fe  Fe17  1  0.123029  0.246057  0.369086  1
  Fe  Fe18  1  0.000000  0.000000  0.500001  1
  Fe  Fe19  1  0.000000  0.500001  0.500001  1
  Fe  Fe20  1  0.500001  0.500001  0.500001  1
  Fe  Fe21  1  0.876971  0.753942  0.630913  1
  Fe  Fe22  1  0.027058  0.351372  0.675685  1
  Fe  Fe23  1  0.324314  0.351372  0.675685  1
  Fe  Fe24  1  0.324314  0.648628  0.675685  1
  Fe  Fe25  1  0.123029  0.246057  0.876971  1
  Fe  Fe26  1  0.123029  0.753942  0.876971  1
  Fe  Fe27  1  0.630913  0.753942  0.876971  1
  Fe  Fe28  1  0.324314  0.648628  0.972942  1
