# generated using pymatgen
data_Lu5Zr3P12Ir13Ru3
_symmetry_space_group_name_H-M   'P 1'
_cell_length_a   12.87129900
_cell_length_b   12.87130019
_cell_length_c   3.97682800
_cell_angle_alpha   90.00000000
_cell_angle_beta   90.00000000
_cell_angle_gamma   119.99999951
_symmetry_Int_Tables_number   1
_chemical_formula_structural   Lu5Zr3P12Ir13Ru3
_chemical_formula_sum   'Lu5 Zr3 P12 Ir13 Ru3'
_cell_volume   570.57434463
_cell_formula_units_Z   1
loop_
 _symmetry_equiv_pos_site_id
 _symmetry_equiv_pos_as_xyz
  1  'x, y, z'
loop_
 _atom_site_type_symbol
 _atom_site_label
 _atom_site_symmetry_multiplicity
 _atom_site_fract_x
 _atom_site_fract_y
 _atom_site_fract_z
 _atom_site_occupancy
  Lu  Lu0  1  0.333333  0.666667  0.500000  1
  Lu  Lu1  1  0.666667  0.333333  0.500000  1
  Lu  Lu2  1  0.000630  0.814299  0.000000  1
  Lu  Lu3  1  0.185701  0.186330  0.000000  1
  Lu  Lu4  1  0.813670  0.999370  0.000000  1
  Zr  Zr5  1  0.997638  0.446436  0.500000  1
  Zr  Zr6  1  0.553564  0.551201  0.500000  1
  Zr  Zr7  1  0.448799  0.002362  0.500000  1
  P  P8  1  0.006373  0.654089  0.500000  1
  P  P9  1  0.345911  0.352285  0.500000  1
  P  P10  1  0.647715  0.993627  0.500000  1
  P  P11  1  0.519918  0.690459  0.000000  1
  P  P12  1  0.309541  0.829459  0.000000  1
  P  P13  1  0.170541  0.480082  0.000000  1
  P  P14  1  0.481521  0.171956  0.000000  1
  P  P15  1  0.690436  0.518479  0.000000  1
  P  P16  1  0.828044  0.309564  0.000000  1
  P  P17  1  0.002694  0.178630  0.500000  1
  P  P18  1  0.821370  0.824064  0.500000  1
  P  P19  1  0.175936  0.997306  0.500000  1
  Ir  Ir20  1  0.508897  0.868608  0.000000  1
  Ir  Ir21  1  0.131392  0.640289  0.000000  1
  Ir  Ir22  1  0.359711  0.491103  0.000000  1
  Ir  Ir23  1  0.497080  0.360264  0.000000  1
  Ir  Ir24  1  0.863185  0.502920  0.000000  1
  Ir  Ir25  1  0.639736  0.136815  0.000000  1
  Ir  Ir26  1  0.997005  0.274083  0.000000  1
  Ir  Ir27  1  0.725917  0.722923  0.000000  1
  Ir  Ir28  1  0.277077  0.002995  0.000000  1
  Ir  Ir29  1  0.369816  0.182225  0.500000  1
  Ir  Ir30  1  0.812409  0.630184  0.500000  1
  Ir  Ir31  1  0.817775  0.187591  0.500000  1
  Ir  Ir32  1  0.000000  0.000000  0.500000  1
  Ru  Ru33  1  0.625461  0.803051  0.500000  1
  Ru  Ru34  1  0.196949  0.822410  0.500000  1
  Ru  Ru35  1  0.177590  0.374539  0.500000  1
