# generated using pymatgen
data_Dy8Cu(Si4Pt)3
_symmetry_space_group_name_H-M   'P 1'
_cell_length_a   8.11470100
_cell_length_b   8.11470143
_cell_length_c   8.14863900
_cell_angle_alpha   90.00000000
_cell_angle_beta   90.00000000
_cell_angle_gamma   119.99999415
_symmetry_Int_Tables_number   1
_chemical_formula_structural   Dy8Cu(Si4Pt)3
_chemical_formula_sum   'Dy8 Cu1 Si12 Pt3'
_cell_volume   464.68729965
_cell_formula_units_Z   1
loop_
 _symmetry_equiv_pos_site_id
 _symmetry_equiv_pos_as_xyz
  1  'x, y, z'
loop_
 _atom_site_type_symbol
 _atom_site_label
 _atom_site_symmetry_multiplicity
 _atom_site_fract_x
 _atom_site_fract_y
 _atom_site_fract_z
 _atom_site_occupancy
  Dy  Dy0  1  0.000000  0.000000  0.251388  1
  Dy  Dy1  1  0.000000  0.000000  0.749048  1
  Dy  Dy2  1  0.003107  0.501553  0.250236  1
  Dy  Dy3  1  0.498447  0.501553  0.250236  1
  Dy  Dy4  1  0.500889  0.001777  0.749891  1
  Dy  Dy5  1  0.498447  0.996893  0.250236  1
  Dy  Dy6  1  0.500889  0.499111  0.749891  1
  Dy  Dy7  1  0.998223  0.499111  0.749891  1
  Cu  Cu8  1  0.666667  0.333333  0.494380  1
  Si  Si9  1  0.165825  0.331649  0.998874  1
  Si  Si10  1  0.668351  0.834175  0.998874  1
  Si  Si11  1  0.165302  0.330604  0.500838  1
  Si  Si12  1  0.331037  0.165519  0.001537  1
  Si  Si13  1  0.165825  0.834175  0.998874  1
  Si  Si14  1  0.669396  0.834698  0.500838  1
  Si  Si15  1  0.834481  0.668963  0.001537  1
  Si  Si16  1  0.338364  0.169182  0.499424  1
  Si  Si17  1  0.165302  0.834698  0.500838  1
  Si  Si18  1  0.830818  0.661636  0.499424  1
  Si  Si19  1  0.834481  0.165519  0.001537  1
  Si  Si20  1  0.830818  0.169182  0.499424  1
  Pt  Pt21  1  0.333333  0.666667  0.997110  1
  Pt  Pt22  1  0.333333  0.666667  0.502761  1
  Pt  Pt23  1  0.666667  0.333333  0.002914  1
