# generated using pymatgen
data_NaLi6Np2N6
_symmetry_space_group_name_H-M   'P 1'
_cell_length_a   5.96681100
_cell_length_b   5.96681303
_cell_length_c   5.41266700
_cell_angle_alpha   90.00000000
_cell_angle_beta   90.00000000
_cell_angle_gamma   120.00000311
_symmetry_Int_Tables_number   1
_chemical_formula_structural   NaLi6Np2N6
_chemical_formula_sum   'Na1 Li6 Np2 N6'
_cell_volume   166.88858721
_cell_formula_units_Z   1
loop_
 _symmetry_equiv_pos_site_id
 _symmetry_equiv_pos_as_xyz
  1  'x, y, z'
loop_
 _atom_site_type_symbol
 _atom_site_label
 _atom_site_symmetry_multiplicity
 _atom_site_fract_x
 _atom_site_fract_y
 _atom_site_fract_z
 _atom_site_occupancy
  Na  Na0  1  0.000000  0.000000  0.000000  1
  Li  Li1  1  0.987250  0.667557  0.613783  1
  Li  Li2  1  0.332443  0.319693  0.613783  1
  Li  Li3  1  0.680307  0.012750  0.613783  1
  Li  Li4  1  0.012750  0.332443  0.386217  1
  Li  Li5  1  0.667557  0.680307  0.386217  1
  Li  Li6  1  0.319693  0.987250  0.386217  1
  Np  Np7  1  0.333333  0.666667  0.994350  1
  Np  Np8  1  0.666667  0.333333  0.005650  1
  N  N9  1  0.000414  0.629705  0.223590  1
  N  N10  1  0.370295  0.370709  0.223590  1
  N  N11  1  0.629291  0.999586  0.223590  1
  N  N12  1  0.999586  0.370295  0.776410  1
  N  N13  1  0.629705  0.629291  0.776410  1
  N  N14  1  0.370709  0.000414  0.776410  1
