# generated using pymatgen
data_Ti4Mn2OsPt
_symmetry_space_group_name_H-M   'P 1'
_cell_length_a   6.13472200
_cell_length_b   4.32408900
_cell_length_c   8.62717200
_cell_angle_alpha   90.00000000
_cell_angle_beta   90.00164811
_cell_angle_gamma   90.00000000
_symmetry_Int_Tables_number   1
_chemical_formula_structural   Ti4Mn2OsPt
_chemical_formula_sum   'Ti8 Mn4 Os2 Pt2'
_cell_volume   228.85371557
_cell_formula_units_Z   2
loop_
 _symmetry_equiv_pos_site_id
 _symmetry_equiv_pos_as_xyz
  1  'x, y, z'
loop_
 _atom_site_type_symbol
 _atom_site_label
 _atom_site_symmetry_multiplicity
 _atom_site_fract_x
 _atom_site_fract_y
 _atom_site_fract_z
 _atom_site_occupancy
  Ti  Ti0  1  0.995732  0.749999  0.119578  1
  Ti  Ti1  1  0.504292  0.749999  0.119547  1
  Ti  Ti2  1  0.004268  0.250000  0.380381  1
  Ti  Ti3  1  0.495766  0.250000  0.380414  1
  Ti  Ti4  1  0.495841  0.749999  0.629865  1
  Ti  Ti5  1  0.004135  0.749999  0.629868  1
  Ti  Ti6  1  0.504094  0.250000  0.870146  1
  Ti  Ti7  1  0.995927  0.250000  0.870153  1
  Mn  Mn8  1  0.750030  0.250000  0.127110  1
  Mn  Mn9  1  0.249992  0.749999  0.372907  1
  Mn  Mn10  1  0.749951  0.250000  0.623039  1
  Mn  Mn11  1  0.249951  0.749999  0.877068  1
  Os  Os12  1  0.250014  0.250000  0.625198  1
  Os  Os13  1  0.749983  0.749999  0.874754  1
  Pt  Pt14  1  0.250047  0.250000  0.124528  1
  Pt  Pt15  1  0.749980  0.749999  0.375443  1
