# generated using pymatgen
data_Tb4Ir2Pb5
_symmetry_space_group_name_H-M   'P 1'
_cell_length_a   8.23810605
_cell_length_b   3.59048800
_cell_length_c   9.91849851
_cell_angle_alpha   90.00000000
_cell_angle_beta   93.79680327
_cell_angle_gamma   90.00000000
_symmetry_Int_Tables_number   1
_chemical_formula_structural   Tb4Ir2Pb5
_chemical_formula_sum   'Tb4 Ir2 Pb5'
_cell_volume   292.73357578
_cell_formula_units_Z   1
loop_
 _symmetry_equiv_pos_site_id
 _symmetry_equiv_pos_as_xyz
  1  'x, y, z'
loop_
 _atom_site_type_symbol
 _atom_site_label
 _atom_site_symmetry_multiplicity
 _atom_site_fract_x
 _atom_site_fract_y
 _atom_site_fract_z
 _atom_site_occupancy
  Tb  Tb0  1  0.805576  0.500001  0.159200  1
  Tb  Tb1  1  0.199773  0.500001  0.434289  1
  Tb  Tb2  1  0.800227  0.500001  0.565711  1
  Tb  Tb3  1  0.194423  0.500001  0.840800  1
  Ir  Ir4  1  0.920844  0.000000  0.363327  1
  Ir  Ir5  1  0.079157  0.000000  0.636674  1
  Pb  Pb6  1  0.500000  0.000000  0.000000  1
  Pb  Pb7  1  0.146504  0.000000  0.137596  1
  Pb  Pb8  1  0.539335  0.000000  0.334644  1
  Pb  Pb9  1  0.460664  0.000000  0.665355  1
  Pb  Pb10  1  0.853495  0.000000  0.862405  1
