# generated using pymatgen
data_La7Tm12LuPt16
_symmetry_space_group_name_H-M   'P 1'
_cell_length_a   7.63630191
_cell_length_b   7.69543413
_cell_length_c   14.63307800
_cell_angle_alpha   90.03946820
_cell_angle_beta   89.88677096
_cell_angle_gamma   90.08917726
_symmetry_Int_Tables_number   1
_chemical_formula_structural   La7Tm12LuPt16
_chemical_formula_sum   'La7 Tm12 Lu1 Pt16'
_cell_volume   859.90490653
_cell_formula_units_Z   1
loop_
 _symmetry_equiv_pos_site_id
 _symmetry_equiv_pos_as_xyz
  1  'x, y, z'
loop_
 _atom_site_type_symbol
 _atom_site_label
 _atom_site_symmetry_multiplicity
 _atom_site_fract_x
 _atom_site_fract_y
 _atom_site_fract_z
 _atom_site_occupancy
  La  La0  1  0.502450  0.678343  0.594610  1
  La  La1  1  0.001729  0.823735  0.903834  1
  La  La2  1  0.497668  0.323843  0.096256  1
  La  La3  1  0.998020  0.172513  0.406439  1
  La  La4  1  0.497152  0.323761  0.403830  1
  La  La5  1  0.997646  0.176708  0.095452  1
  La  La6  1  0.502287  0.676096  0.902708  1
  Tm  Tm7  1  0.661927  0.163859  0.622166  1
  Tm  Tm8  1  0.157206  0.333087  0.874480  1
  Tm  Tm9  1  0.342673  0.833725  0.123892  1
  Tm  Tm10  1  0.845439  0.669226  0.379276  1
  Tm  Tm11  1  0.340611  0.834677  0.376939  1
  Tm  Tm12  1  0.841193  0.665110  0.124424  1
  Tm  Tm13  1  0.658994  0.165693  0.874212  1
  Tm  Tm14  1  0.158622  0.334039  0.623449  1
  Tm  Tm15  1  0.823184  0.505766  0.747849  1
  Tm  Tm16  1  0.320263  0.995790  0.747457  1
  Tm  Tm17  1  0.176403  0.496328  0.250934  1
  Tm  Tm18  1  0.678136  0.003099  0.250801  1
  Lu  Lu19  1  0.004417  0.821561  0.599495  1
  Pt  Pt20  1  0.677005  0.959763  0.457695  1
  Pt  Pt21  1  0.176360  0.536976  0.044802  1
  Pt  Pt22  1  0.324409  0.038491  0.955218  1
  Pt  Pt23  1  0.829174  0.470823  0.547670  1
  Pt  Pt24  1  0.311441  0.030865  0.546156  1
  Pt  Pt25  1  0.823754  0.461662  0.955152  1
  Pt  Pt26  1  0.676804  0.961593  0.044464  1
  Pt  Pt27  1  0.175143  0.542719  0.457970  1
  Pt  Pt28  1  0.454168  0.372561  0.748978  1
  Pt  Pt29  1  0.956708  0.123429  0.747234  1
  Pt  Pt30  1  0.545814  0.629234  0.251304  1
  Pt  Pt31  1  0.045763  0.870864  0.250031  1
  Pt  Pt32  1  0.691087  0.863256  0.747094  1
  Pt  Pt33  1  0.183496  0.640642  0.746053  1
  Pt  Pt34  1  0.311300  0.136150  0.250511  1
  Pt  Pt35  1  0.811555  0.364011  0.251163  1
