# generated using pymatgen
data_Ce2Y(ZnNi)3
_symmetry_space_group_name_H-M   'P 1'
_cell_length_a   7.22600300
_cell_length_b   7.23942148
_cell_length_c   3.76013700
_cell_angle_alpha   90.00000000
_cell_angle_beta   90.00000000
_cell_angle_gamma   119.93870008
_symmetry_Int_Tables_number   1
_chemical_formula_structural   Ce2Y(ZnNi)3
_chemical_formula_sum   'Ce2 Y1 Zn3 Ni3'
_cell_volume   170.45283621
_cell_formula_units_Z   1
loop_
 _symmetry_equiv_pos_site_id
 _symmetry_equiv_pos_as_xyz
  1  'x, y, z'
loop_
 _atom_site_type_symbol
 _atom_site_label
 _atom_site_symmetry_multiplicity
 _atom_site_fract_x
 _atom_site_fract_y
 _atom_site_fract_z
 _atom_site_occupancy
  Ce  Ce0  1  0.587093  0.584626  0.500000  1
  Ce  Ce1  1  0.002467  0.415374  0.500000  1
  Y  Y2  1  0.408958  0.000000  0.500000  1
  Zn  Zn3  1  0.005312  0.766057  0.000000  1
  Zn  Zn4  1  0.751446  0.000000  0.000000  1
  Zn  Zn5  1  0.239254  0.233943  0.000000  1
  Ni  Ni6  1  0.990809  0.000000  0.500000  1
  Ni  Ni7  1  0.683065  0.351469  0.000000  1
  Ni  Ni8  1  0.331595  0.648531  0.000000  1
