# generated using pymatgen
data_AcH6Ir
_symmetry_space_group_name_H-M   'P 1'
_cell_length_a   4.90962032
_cell_length_b   4.90962165
_cell_length_c   4.91497416
_cell_angle_alpha   58.73993744
_cell_angle_beta   58.73994454
_cell_angle_gamma   58.73281461
_symmetry_Int_Tables_number   1
_chemical_formula_structural   AcH6Ir
_chemical_formula_sum   'Ac1 H6 Ir1'
_cell_volume   81.35659518
_cell_formula_units_Z   1
loop_
 _symmetry_equiv_pos_site_id
 _symmetry_equiv_pos_as_xyz
  1  'x, y, z'
loop_
 _atom_site_type_symbol
 _atom_site_label
 _atom_site_symmetry_multiplicity
 _atom_site_fract_x
 _atom_site_fract_y
 _atom_site_fract_z
 _atom_site_occupancy
  Ac  Ac0  1  0.500000  0.500000  0.500000  1
  H  H1  1  0.587457  0.095873  0.095822  1
  H  H2  1  0.095873  0.587457  0.095822  1
  H  H3  1  0.904425  0.904425  0.411851  1
  H  H4  1  0.095575  0.095575  0.588148  1
  H  H5  1  0.904127  0.412542  0.904178  1
  H  H6  1  0.412542  0.904127  0.904178  1
  Ir  Ir7  1  0.000000  0.000000  0.000000  1
