# generated using pymatgen
data_Er3GaP2Ir3
_symmetry_space_group_name_H-M   'P 1'
_cell_length_a   6.63969400
_cell_length_b   6.63969391
_cell_length_c   4.07733400
_cell_angle_alpha   90.00000000
_cell_angle_beta   90.00000000
_cell_angle_gamma   120.00001040
_symmetry_Int_Tables_number   1
_chemical_formula_structural   Er3GaP2Ir3
_chemical_formula_sum   'Er3 Ga1 P2 Ir3'
_cell_volume   155.66930938
_cell_formula_units_Z   1
loop_
 _symmetry_equiv_pos_site_id
 _symmetry_equiv_pos_as_xyz
  1  'x, y, z'
loop_
 _atom_site_type_symbol
 _atom_site_label
 _atom_site_symmetry_multiplicity
 _atom_site_fract_x
 _atom_site_fract_y
 _atom_site_fract_z
 _atom_site_occupancy
  Er  Er0  1  0.000000  0.428201  0.500000  1
  Er  Er1  1  0.571799  0.571799  0.500000  1
  Er  Er2  1  0.428201  0.000000  0.500000  1
  Ga  Ga3  1  0.000000  0.000000  0.500000  1
  P  P4  1  0.666667  0.333333  0.000000  1
  P  P5  1  0.333333  0.666667  0.000000  1
  Ir  Ir6  1  0.000000  0.755178  0.000000  1
  Ir  Ir7  1  0.244822  0.244822  0.000000  1
  Ir  Ir8  1  0.755178  0.000000  0.000000  1
