# generated using pymatgen
data_VTcIr6
_symmetry_space_group_name_H-M   'P 1'
_cell_length_a   5.48951200
_cell_length_b   5.48951213
_cell_length_c   4.38343800
_cell_angle_alpha   90.00000000
_cell_angle_beta   90.00000000
_cell_angle_gamma   119.99999920
_symmetry_Int_Tables_number   1
_chemical_formula_structural   VTcIr6
_chemical_formula_sum   'V1 Tc1 Ir6'
_cell_volume   114.39656697
_cell_formula_units_Z   1
loop_
 _symmetry_equiv_pos_site_id
 _symmetry_equiv_pos_as_xyz
  1  'x, y, z'
loop_
 _atom_site_type_symbol
 _atom_site_label
 _atom_site_symmetry_multiplicity
 _atom_site_fract_x
 _atom_site_fract_y
 _atom_site_fract_z
 _atom_site_occupancy
  V  V0  1  0.666667  0.333333  0.250001  1
  Tc  Tc1  1  0.333334  0.666668  0.749999  1
  Ir  Ir2  1  0.167400  0.334801  0.250001  1
  Ir  Ir3  1  0.665200  0.832601  0.250001  1
  Ir  Ir4  1  0.167400  0.832601  0.250001  1
  Ir  Ir5  1  0.832896  0.665791  0.749999  1
  Ir  Ir6  1  0.334209  0.167106  0.749999  1
  Ir  Ir7  1  0.832897  0.167106  0.749999  1
