# generated using pymatgen
data_Ho4Os5W3
_symmetry_space_group_name_H-M   'P 1'
_cell_length_a   5.43552004
_cell_length_b   5.43551852
_cell_length_c   8.54109500
_cell_angle_alpha   90.00000000
_cell_angle_beta   90.00000000
_cell_angle_gamma   116.90376291
_symmetry_Int_Tables_number   1
_chemical_formula_structural   Ho4Os5W3
_chemical_formula_sum   'Ho4 Os5 W3'
_cell_volume   225.03363059
_cell_formula_units_Z   1
loop_
 _symmetry_equiv_pos_site_id
 _symmetry_equiv_pos_as_xyz
  1  'x, y, z'
loop_
 _atom_site_type_symbol
 _atom_site_label
 _atom_site_symmetry_multiplicity
 _atom_site_fract_x
 _atom_site_fract_y
 _atom_site_fract_z
 _atom_site_occupancy
  Ho  Ho0  1  0.334688  0.665312  0.437914  1
  Ho  Ho1  1  0.664969  0.335031  0.566886  1
  Ho  Ho2  1  0.664969  0.335031  0.933114  1
  Ho  Ho3  1  0.334688  0.665312  0.062086  1
  Os  Os4  1  0.833196  0.664741  0.250000  1
  Os  Os5  1  0.335259  0.166804  0.250000  1
  Os  Os6  1  0.180281  0.819719  0.750000  1
  Os  Os7  1  0.164977  0.339396  0.750000  1
  Os  Os8  1  0.660604  0.835023  0.750000  1
  W  W9  1  0.002307  0.997693  0.504994  1
  W  W10  1  0.002307  0.997693  0.995006  1
  W  W11  1  0.821755  0.178245  0.250000  1
