# generated using pymatgen
data_BaSc2TcH12Ir
_symmetry_space_group_name_H-M   'P 1'
_cell_length_a   4.82893600
_cell_length_b   4.82893802
_cell_length_c   8.37857600
_cell_angle_alpha   90.00000000
_cell_angle_beta   90.00000000
_cell_angle_gamma   119.99999989
_symmetry_Int_Tables_number   1
_chemical_formula_structural   BaSc2TcH12Ir
_chemical_formula_sum   'Ba1 Sc2 Tc1 H12 Ir1'
_cell_volume   169.20138981
_cell_formula_units_Z   1
loop_
 _symmetry_equiv_pos_site_id
 _symmetry_equiv_pos_as_xyz
  1  'x, y, z'
loop_
 _atom_site_type_symbol
 _atom_site_label
 _atom_site_symmetry_multiplicity
 _atom_site_fract_x
 _atom_site_fract_y
 _atom_site_fract_z
 _atom_site_occupancy
  Ba  Ba0  1  0.000000  0.000000  0.981499  1
  Sc  Sc1  1  0.666667  0.333333  0.396097  1
  Sc  Sc2  1  0.333333  0.666667  0.641942  1
  Tc  Tc3  1  0.666667  0.333333  0.710529  1
  H  H4  1  0.163894  0.836106  0.391838  1
  H  H5  1  0.672213  0.836106  0.391838  1
  H  H6  1  0.163894  0.327787  0.391838  1
  H  H7  1  0.842941  0.157059  0.599284  1
  H  H8  1  0.314118  0.157059  0.599284  1
  H  H9  1  0.842941  0.685882  0.599284  1
  H  H10  1  0.493647  0.987292  0.834263  1
  H  H11  1  0.493647  0.506353  0.834263  1
  H  H12  1  0.012708  0.506353  0.834263  1
  H  H13  1  0.496648  0.993297  0.169201  1
  H  H14  1  0.496648  0.503352  0.169201  1
  H  H15  1  0.006703  0.503352  0.169201  1
  Ir  Ir16  1  0.333333  0.666667  0.286177  1
