# generated using pymatgen
data_Nd7SmGaPd24
_symmetry_space_group_name_H-M   'P 1'
_cell_length_a   8.49540810
_cell_length_b   8.49540689
_cell_length_c   8.49540724
_cell_angle_alpha   89.94832239
_cell_angle_beta   90.05167646
_cell_angle_gamma   90.05168172
_symmetry_Int_Tables_number   1
_chemical_formula_structural   Nd7SmGaPd24
_chemical_formula_sum   'Nd7 Sm1 Ga1 Pd24'
_cell_volume   613.12934704
_cell_formula_units_Z   1
loop_
 _symmetry_equiv_pos_site_id
 _symmetry_equiv_pos_as_xyz
  1  'x, y, z'
loop_
 _atom_site_type_symbol
 _atom_site_label
 _atom_site_symmetry_multiplicity
 _atom_site_fract_x
 _atom_site_fract_y
 _atom_site_fract_z
 _atom_site_occupancy
  Nd  Nd0  1  0.250709  0.251803  0.251803  1
  Nd  Nd1  1  0.748612  0.748099  0.748099  1
  Nd  Nd2  1  0.748197  0.749291  0.251803  1
  Nd  Nd3  1  0.748197  0.251803  0.749291  1
  Nd  Nd4  1  0.251901  0.251388  0.748099  1
  Nd  Nd5  1  0.251901  0.748099  0.251388  1
  Nd  Nd6  1  0.251657  0.748343  0.748343  1
  Sm  Sm7  1  0.748241  0.251759  0.251759  1
  Ga  Ga8  1  0.001133  0.998867  0.998867  1
  Pd  Pd9  1  0.261133  0.499543  0.999774  1
  Pd  Pd10  1  0.738671  0.499302  0.002142  1
  Pd  Pd11  1  0.997858  0.261329  0.499302  1
  Pd  Pd12  1  0.500698  0.261329  0.002142  1
  Pd  Pd13  1  0.000226  0.738867  0.499543  1
  Pd  Pd14  1  0.500457  0.738867  0.999774  1
  Pd  Pd15  1  0.500698  0.002142  0.261329  1
  Pd  Pd16  1  0.261133  0.999774  0.499543  1
  Pd  Pd17  1  0.500457  0.999774  0.738867  1
  Pd  Pd18  1  0.738671  0.002142  0.499302  1
  Pd  Pd19  1  0.997858  0.499302  0.261329  1
  Pd  Pd20  1  0.000226  0.499543  0.738867  1
  Pd  Pd21  1  0.253445  0.499895  0.499895  1
  Pd  Pd22  1  0.746037  0.499020  0.499020  1
  Pd  Pd23  1  0.500980  0.253963  0.499020  1
  Pd  Pd24  1  0.500105  0.746555  0.499895  1
  Pd  Pd25  1  0.500980  0.499020  0.253963  1
  Pd  Pd26  1  0.500105  0.499895  0.746555  1
  Pd  Pd27  1  0.295014  0.999794  0.999794  1
  Pd  Pd28  1  0.706932  0.001322  0.001322  1
  Pd  Pd29  1  0.998678  0.293068  0.001322  1
  Pd  Pd30  1  0.000206  0.704986  0.999794  1
  Pd  Pd31  1  0.998678  0.001322  0.293068  1
  Pd  Pd32  1  0.000206  0.999794  0.704986  1
