# generated using pymatgen
data_Tm16TlHg5Pt2
_symmetry_space_group_name_H-M   'P 1'
_cell_length_a   10.14299931
_cell_length_b   10.14299860
_cell_length_c   7.04032700
_cell_angle_alpha   89.77057334
_cell_angle_beta   90.22942100
_cell_angle_gamma   119.99461033
_symmetry_Int_Tables_number   1
_chemical_formula_structural   Tm16TlHg5Pt2
_chemical_formula_sum   'Tm16 Tl1 Hg5 Pt2'
_cell_volume   627.29982423
_cell_formula_units_Z   1
loop_
 _symmetry_equiv_pos_site_id
 _symmetry_equiv_pos_as_xyz
  1  'x, y, z'
loop_
 _atom_site_type_symbol
 _atom_site_label
 _atom_site_symmetry_multiplicity
 _atom_site_fract_x
 _atom_site_fract_y
 _atom_site_fract_z
 _atom_site_occupancy
  Tm  Tm0  1  0.530042  0.067800  0.520110  1
  Tm  Tm1  1  0.932200  0.469958  0.520110  1
  Tm  Tm2  1  0.535121  0.464879  0.523305  1
  Tm  Tm3  1  0.471289  0.932643  0.020031  1
  Tm  Tm4  1  0.067357  0.528711  0.020031  1
  Tm  Tm5  1  0.463516  0.536484  0.018024  1
  Tm  Tm6  1  0.169401  0.341390  0.709845  1
  Tm  Tm7  1  0.658610  0.830599  0.709845  1
  Tm  Tm8  1  0.171371  0.828629  0.726301  1
  Tm  Tm9  1  0.821276  0.653766  0.206956  1
  Tm  Tm10  1  0.346234  0.178724  0.206956  1
  Tm  Tm11  1  0.829357  0.170643  0.218149  1
  Tm  Tm12  1  0.668373  0.331627  0.891779  1
  Tm  Tm13  1  0.335788  0.664212  0.392020  1
  Tm  Tm14  1  0.001630  0.998370  0.490891  1
  Tm  Tm15  1  0.999660  0.000340  0.989958  1
  Tl  Tl16  1  0.164494  0.835506  0.267379  1
  Hg  Hg17  1  0.834102  0.668178  0.771639  1
  Hg  Hg18  1  0.331822  0.165898  0.771639  1
  Hg  Hg19  1  0.833701  0.166299  0.772591  1
  Hg  Hg20  1  0.166297  0.331779  0.273094  1
  Hg  Hg21  1  0.668221  0.833703  0.273094  1
  Pt  Pt22  1  0.667265  0.332735  0.282346  1
  Pt  Pt23  1  0.332874  0.667126  0.781916  1
