# generated using pymatgen
data_Tb3Dy(Ga8Pt3)3
_symmetry_space_group_name_H-M   'P 1'
_cell_length_a   7.53496992
_cell_length_b   7.60051750
_cell_length_c   13.37478211
_cell_angle_alpha   84.75091000
_cell_angle_beta   79.46229025
_cell_angle_gamma   60.14305693
_symmetry_Int_Tables_number   1
_chemical_formula_structural   Tb3Dy(Ga8Pt3)3
_chemical_formula_sum   'Tb3 Dy1 Ga24 Pt9'
_cell_volume   653.09938216
_cell_formula_units_Z   1
loop_
 _symmetry_equiv_pos_site_id
 _symmetry_equiv_pos_as_xyz
  1  'x, y, z'
loop_
 _atom_site_type_symbol
 _atom_site_label
 _atom_site_symmetry_multiplicity
 _atom_site_fract_x
 _atom_site_fract_y
 _atom_site_fract_z
 _atom_site_occupancy
  Tb  Tb0  1  0.607150  0.831086  0.188759  1
  Tb  Tb1  1  0.732451  0.497504  0.811555  1
  Tb  Tb2  1  0.267748  0.502488  0.188461  1
  Dy  Dy3  1  0.393111  0.168947  0.810848  1
  Ga  Ga4  1  0.684940  0.834298  0.938688  1
  Ga  Ga5  1  0.314606  0.166141  0.060840  1
  Ga  Ga6  1  0.146130  0.832704  0.559037  1
  Ga  Ga7  1  0.853891  0.167273  0.441040  1
  Ga  Ga8  1  0.478696  0.166658  0.556189  1
  Ga  Ga9  1  0.521359  0.833327  0.443879  1
  Ga  Ga10  1  0.220462  0.165433  0.324333  1
  Ga  Ga11  1  0.779321  0.834720  0.675867  1
  Ga  Ga12  1  0.437516  0.503718  0.674843  1
  Ga  Ga13  1  0.562455  0.496152  0.325298  1
  Ga  Ga14  1  0.106982  0.163584  0.674506  1
  Ga  Ga15  1  0.893186  0.836374  0.325656  1
  Ga  Ga16  1  0.356908  0.497900  0.938912  1
  Ga  Ga17  1  0.643075  0.501642  0.060928  1
  Ga  Ga18  1  0.019870  0.169297  0.944042  1
  Ga  Ga19  1  0.980530  0.830710  0.055757  1
  Ga  Ga20  1  0.186828  0.499301  0.443140  1
  Ga  Ga21  1  0.813193  0.500703  0.556945  1
  Ga  Ga22  1  0.734640  0.163828  0.182255  1
  Ga  Ga23  1  0.265487  0.836220  0.817789  1
  Ga  Ga24  1  0.060898  0.631338  0.817140  1
  Ga  Ga25  1  0.939173  0.368553  0.182920  1
  Ga  Ga26  1  0.856119  0.040009  0.817045  1
  Ga  Ga27  1  0.143799  0.960145  0.182998  1
  Pt  Pt28  1  0.117827  0.495791  0.638806  1
  Pt  Pt29  1  0.882151  0.504151  0.361352  1
  Pt  Pt30  1  0.660113  0.169876  0.999347  1
  Pt  Pt31  1  0.339764  0.829951  0.000611  1
  Pt  Pt32  1  0.540694  0.166857  0.360629  1
  Pt  Pt33  1  0.459276  0.833170  0.639477  1
  Pt  Pt34  1  0.779694  0.171814  0.637102  1
  Pt  Pt35  1  0.220273  0.828184  0.363026  1
  Pt  Pt36  1  0.999686  0.500155  0.999983  1
