# generated using pymatgen
data_Er7Ta(ReB6)4
_symmetry_space_group_name_H-M   'P 1'
_cell_length_a   3.62951900
_cell_length_b   9.07331422
_cell_length_c   11.44767712
_cell_angle_alpha   90.02093452
_cell_angle_beta   90.00000000
_cell_angle_gamma   90.00000000
_symmetry_Int_Tables_number   1
_chemical_formula_structural   Er7Ta(ReB6)4
_chemical_formula_sum   'Er7 Ta1 Re4 B24'
_cell_volume   376.99220304
_cell_formula_units_Z   1
loop_
 _symmetry_equiv_pos_site_id
 _symmetry_equiv_pos_as_xyz
  1  'x, y, z'
loop_
 _atom_site_type_symbol
 _atom_site_label
 _atom_site_symmetry_multiplicity
 _atom_site_fract_x
 _atom_site_fract_y
 _atom_site_fract_z
 _atom_site_occupancy
  Er  Er0  1  0.000000  0.322988  0.412296  1
  Er  Er1  1  0.000000  0.677543  0.586186  1
  Er  Er2  1  0.000000  0.821855  0.086409  1
  Er  Er3  1  0.000000  0.178076  0.914885  1
  Er  Er4  1  0.000000  0.943697  0.370740  1
  Er  Er5  1  0.000000  0.057435  0.630765  1
  Er  Er6  1  0.000000  0.444760  0.125313  1
  Ta  Ta7  1  0.000000  0.556833  0.870861  1
  Re  Re8  1  0.000000  0.637925  0.318777  1
  Re  Re9  1  0.000000  0.367102  0.685232  1
  Re  Re10  1  0.000000  0.139074  0.177179  1
  Re  Re11  1  0.000000  0.853565  0.822250  1
  B  B12  1  0.500000  0.553382  0.433564  1
  B  B13  1  0.500000  0.447998  0.567050  1
  B  B14  1  0.500000  0.052000  0.065999  1
  B  B15  1  0.500000  0.944364  0.933915  1
  B  B16  1  0.500000  0.749453  0.418952  1
  B  B17  1  0.500000  0.251885  0.582550  1
  B  B18  1  0.500000  0.249347  0.080553  1
  B  B19  1  0.500000  0.745033  0.918702  1
  B  B20  1  0.500000  0.792288  0.264759  1
  B  B21  1  0.500000  0.208829  0.737073  1
  B  B22  1  0.500000  0.292780  0.234284  1
  B  B23  1  0.500000  0.704065  0.765508  1
  B  B24  1  0.500000  0.630507  0.184336  1
  B  B25  1  0.500000  0.373120  0.817339  1
  B  B26  1  0.500000  0.131469  0.314794  1
  B  B27  1  0.500000  0.867355  0.685099  1
  B  B28  1  0.500000  0.982083  0.212093  1
  B  B29  1  0.500000  0.015900  0.788981  1
  B  B30  1  0.500000  0.481190  0.287319  1
  B  B31  1  0.500000  0.520784  0.713818  1
  B  B32  1  0.500000  0.600908  0.022806  1
  B  B33  1  0.500000  0.403486  0.968120  1
  B  B34  1  0.500000  0.102930  0.472868  1
  B  B35  1  0.500000  0.897989  0.528625  1
