# generated using pymatgen
data_CeThCu2(SiH)2
_symmetry_space_group_name_H-M   'P 1'
_cell_length_a   4.11429500
_cell_length_b   4.11429500
_cell_length_c   7.11201600
_cell_angle_alpha   90.00000000
_cell_angle_beta   90.00000000
_cell_angle_gamma   90.00000000
_symmetry_Int_Tables_number   1
_chemical_formula_structural   CeThCu2(SiH)2
_chemical_formula_sum   'Ce1 Th1 Cu2 Si2 H2'
_cell_volume   120.38810568
_cell_formula_units_Z   1
loop_
 _symmetry_equiv_pos_site_id
 _symmetry_equiv_pos_as_xyz
  1  'x, y, z'
loop_
 _atom_site_type_symbol
 _atom_site_label
 _atom_site_symmetry_multiplicity
 _atom_site_fract_x
 _atom_site_fract_y
 _atom_site_fract_z
 _atom_site_occupancy
  Ce  Ce0  1  0.000000  0.500000  0.329577  1
  Th  Th1  1  0.500000  0.000000  0.666736  1
  Cu  Cu2  1  0.000000  0.000000  0.001787  1
  Cu  Cu3  1  0.500000  0.500000  0.001787  1
  Si  Si4  1  0.500000  0.000000  0.192045  1
  Si  Si5  1  0.000000  0.500000  0.814426  1
  H  H6  1  0.000000  0.000000  0.496821  1
  H  H7  1  0.500000  0.500000  0.496821  1
