# generated using pymatgen
data_Rb2Li3FeO4
_symmetry_space_group_name_H-M   'P 1'
_cell_length_a   8.03548912
_cell_length_b   8.03553042
_cell_length_c   8.03553529
_cell_angle_alpha   143.79442872
_cell_angle_beta   103.83831013
_cell_angle_gamma   87.35888000
_symmetry_Int_Tables_number   1
_chemical_formula_structural   Rb2Li3FeO4
_chemical_formula_sum   'Rb4 Li6 Fe2 O8'
_cell_volume   287.65185975
_cell_formula_units_Z   2
loop_
 _symmetry_equiv_pos_site_id
 _symmetry_equiv_pos_as_xyz
  1  'x, y, z'
loop_
 _atom_site_type_symbol
 _atom_site_label
 _atom_site_symmetry_multiplicity
 _atom_site_fract_x
 _atom_site_fract_y
 _atom_site_fract_z
 _atom_site_occupancy
  Rb  Rb0  1  0.128546  0.236439  0.364985  1
  Rb  Rb1  1  0.871454  0.763561  0.635015  1
  Rb  Rb2  1  0.628547  0.263560  0.892109  1
  Rb  Rb3  1  0.371453  0.736440  0.107891  1
  Li  Li4  1  0.490324  0.249999  0.240323  1
  Li  Li5  1  0.509676  0.750001  0.759677  1
  Li  Li6  1  0.009675  0.249999  0.759675  1
  Li  Li7  1  0.990325  0.750001  0.240325  1
  Li  Li8  1  0.249998  0.250001  0.000000  1
  Li  Li9  1  0.750002  0.749999  0.000000  1
  Fe  Fe10  1  0.249990  0.750005  0.500010  1
  Fe  Fe11  1  0.750010  0.249995  0.499990  1
  O  O12  1  0.449341  0.592112  0.382521  1
  O  O13  1  0.550659  0.407888  0.617479  1
  O  O14  1  0.209590  0.066812  0.617472  1
  O  O15  1  0.290412  0.907887  0.857226  1
  O  O16  1  0.790410  0.933188  0.382528  1
  O  O17  1  0.709588  0.092113  0.142774  1
  O  O18  1  0.050658  0.433185  0.142776  1
  O  O19  1  0.949342  0.566815  0.857224  1
