# generated using pymatgen
data_Ho6Cd23Ge
_symmetry_space_group_name_H-M   'P 1'
_cell_length_a   9.95653454
_cell_length_b   9.95653409
_cell_length_c   9.95653400
_cell_angle_alpha   60.00000028
_cell_angle_beta   60.00000179
_cell_angle_gamma   59.99999969
_symmetry_Int_Tables_number   1
_chemical_formula_structural   Ho6Cd23Ge
_chemical_formula_sum   'Ho6 Cd23 Ge1'
_cell_volume   697.92632312
_cell_formula_units_Z   1
loop_
 _symmetry_equiv_pos_site_id
 _symmetry_equiv_pos_as_xyz
  1  'x, y, z'
loop_
 _atom_site_type_symbol
 _atom_site_label
 _atom_site_symmetry_multiplicity
 _atom_site_fract_x
 _atom_site_fract_y
 _atom_site_fract_z
 _atom_site_occupancy
  Ho  Ho0  1  0.796187  0.796187  0.203813  1
  Ho  Ho1  1  0.203813  0.796187  0.203813  1
  Ho  Ho2  1  0.796187  0.203813  0.203813  1
  Ho  Ho3  1  0.203813  0.203813  0.796187  1
  Ho  Ho4  1  0.796187  0.203813  0.796187  1
  Ho  Ho5  1  0.203813  0.796187  0.796187  1
  Cd  Cd6  1  0.836647  0.836647  0.490057  1
  Cd  Cd7  1  0.836647  0.490057  0.836647  1
  Cd  Cd8  1  0.490057  0.836647  0.836647  1
  Cd  Cd9  1  0.836647  0.836647  0.836647  1
  Cd  Cd10  1  0.163353  0.163353  0.509943  1
  Cd  Cd11  1  0.163353  0.509943  0.163353  1
  Cd  Cd12  1  0.509943  0.163353  0.163353  1
  Cd  Cd13  1  0.163353  0.163353  0.163353  1
  Cd  Cd14  1  0.621609  0.621609  0.135174  1
  Cd  Cd15  1  0.621609  0.135174  0.621609  1
  Cd  Cd16  1  0.135174  0.621609  0.621609  1
  Cd  Cd17  1  0.621609  0.621609  0.621609  1
  Cd  Cd18  1  0.378391  0.378391  0.864826  1
  Cd  Cd19  1  0.378391  0.864826  0.378391  1
  Cd  Cd20  1  0.864826  0.378391  0.378391  1
  Cd  Cd21  1  0.378391  0.378391  0.378391  1
  Cd  Cd22  1  0.000000  0.000000  0.500000  1
  Cd  Cd23  1  0.500000  0.000000  0.500000  1
  Cd  Cd24  1  0.000000  0.500000  0.500000  1
  Cd  Cd25  1  0.500000  0.500000  0.000000  1
  Cd  Cd26  1  0.000000  0.500000  0.000000  1
  Cd  Cd27  1  0.500000  0.000000  0.000000  1
  Cd  Cd28  1  0.500000  0.500000  0.500000  1
  Ge  Ge29  1  0.000000  0.000000  0.000000  1
