# generated using pymatgen
data_Cs2KAl6F21
_symmetry_space_group_name_H-M   'P 1'
_cell_length_a   7.11889475
_cell_length_b   7.11889546
_cell_length_c   10.80694493
_cell_angle_alpha   70.87648930
_cell_angle_beta   70.87648946
_cell_angle_gamma   60.06090246
_symmetry_Int_Tables_number   1
_chemical_formula_structural   Cs2KAl6F21
_chemical_formula_sum   'Cs2 K1 Al6 F21'
_cell_volume   439.30647104
_cell_formula_units_Z   1
loop_
 _symmetry_equiv_pos_site_id
 _symmetry_equiv_pos_as_xyz
  1  'x, y, z'
loop_
 _atom_site_type_symbol
 _atom_site_label
 _atom_site_symmetry_multiplicity
 _atom_site_fract_x
 _atom_site_fract_y
 _atom_site_fract_z
 _atom_site_occupancy
  Cs  Cs0  1  0.134836  0.131656  0.600286  1
  Cs  Cs1  1  0.868344  0.865164  0.399714  1
  K  K2  1  0.507276  0.492724  0.500000  1
  Al  Al3  1  0.461106  0.920300  0.181490  1
  Al  Al4  1  0.079700  0.538894  0.818510  1
  Al  Al5  1  0.964285  0.415760  0.181426  1
  Al  Al6  1  0.461921  0.415571  0.181070  1
  Al  Al7  1  0.584429  0.538079  0.818930  1
  Al  Al8  1  0.584240  0.035715  0.818574  1
  F  F9  1  0.675683  0.572220  0.643731  1
  F  F10  1  0.427780  0.324317  0.356269  1
  F  F11  1  0.168856  0.496288  0.189788  1
  F  F12  1  0.503712  0.831144  0.810212  1
  F  F13  1  0.864710  0.451107  0.841292  1
  F  F14  1  0.516446  0.958303  0.000203  1
  F  F15  1  0.755881  0.346243  0.164966  1
  F  F16  1  0.113764  0.595131  0.642914  1
  F  F17  1  0.872385  0.826786  0.826116  1
  F  F18  1  0.752265  0.707151  0.181298  1
  F  F19  1  0.653757  0.244119  0.835034  1
  F  F20  1  0.491411  0.508589  0.000000  1
  F  F21  1  0.901064  0.344851  0.357300  1
  F  F22  1  0.299455  0.619478  0.803243  1
  F  F23  1  0.404869  0.886236  0.357086  1
  F  F24  1  0.292849  0.247735  0.818702  1
  F  F25  1  0.548893  0.135290  0.158708  1
  F  F26  1  0.380522  0.700545  0.196757  1
  F  F27  1  0.173214  0.127615  0.173884  1
  F  F28  1  0.041697  0.483554  0.999797  1
  F  F29  1  0.655149  0.098936  0.642700  1
