# generated using pymatgen
data_Tb4Tm13(ScBi4)3
_symmetry_space_group_name_H-M   'P 1'
_cell_length_a   8.11457995
_cell_length_b   9.39208600
_cell_length_c   11.90741339
_cell_angle_alpha   90.00000000
_cell_angle_beta   90.05544375
_cell_angle_gamma   90.00000000
_symmetry_Int_Tables_number   1
_chemical_formula_structural   Tb4Tm13(ScBi4)3
_chemical_formula_sum   'Tb4 Tm13 Sc3 Bi12'
_cell_volume   907.49728049
_cell_formula_units_Z   1
loop_
 _symmetry_equiv_pos_site_id
 _symmetry_equiv_pos_as_xyz
  1  'x, y, z'
loop_
 _atom_site_type_symbol
 _atom_site_label
 _atom_site_symmetry_multiplicity
 _atom_site_fract_x
 _atom_site_fract_y
 _atom_site_fract_z
 _atom_site_occupancy
  Tb  Tb0  1  0.315645  0.250000  0.217113  1
  Tb  Tb1  1  0.816253  0.250000  0.279895  1
  Tb  Tb2  1  0.683475  0.750000  0.781540  1
  Tb  Tb3  1  0.182169  0.750000  0.719194  1
  Tm  Tm4  1  0.351260  0.750000  0.217575  1
  Tm  Tm5  1  0.853374  0.750000  0.281485  1
  Tm  Tm6  1  0.647921  0.250000  0.782092  1
  Tm  Tm7  1  0.147118  0.250000  0.718582  1
  Tm  Tm8  1  0.694070  0.566043  0.059573  1
  Tm  Tm9  1  0.193157  0.933259  0.439789  1
  Tm  Tm10  1  0.305840  0.065906  0.940565  1
  Tm  Tm11  1  0.808726  0.435324  0.561487  1
  Tm  Tm12  1  0.305840  0.434094  0.940565  1
  Tm  Tm13  1  0.808726  0.064676  0.561487  1
  Tm  Tm14  1  0.694070  0.933957  0.059573  1
  Tm  Tm15  1  0.193157  0.566741  0.439789  1
  Tm  Tm16  1  0.478312  0.250000  0.488160  1
  Sc  Sc17  1  0.978699  0.250000  0.012025  1
  Sc  Sc18  1  0.521220  0.750000  0.511995  1
  Sc  Sc19  1  0.021266  0.750000  0.988144  1
  Bi  Bi20  1  0.399710  0.750000  0.960673  1
  Bi  Bi21  1  0.899099  0.750000  0.539417  1
  Bi  Bi22  1  0.600684  0.250000  0.039306  1
  Bi  Bi23  1  0.096292  0.250000  0.459822  1
  Bi  Bi24  1  0.567226  0.991560  0.329069  1
  Bi  Bi25  1  0.065431  0.505852  0.168449  1
  Bi  Bi26  1  0.434572  0.497092  0.670938  1
  Bi  Bi27  1  0.934729  0.005415  0.831622  1
  Bi  Bi28  1  0.434572  0.002908  0.670938  1
  Bi  Bi29  1  0.934729  0.494585  0.831622  1
  Bi  Bi30  1  0.567226  0.508440  0.329069  1
  Bi  Bi31  1  0.065431  0.994148  0.168449  1
