# generated using pymatgen
data_Er2CuNi9Sn2
_symmetry_space_group_name_H-M   'P 1'
_cell_length_a   4.90902300
_cell_length_b   7.97424815
_cell_length_c   10.20177151
_cell_angle_alpha   89.87016121
_cell_angle_beta   90.00000000
_cell_angle_gamma   90.00000000
_symmetry_Int_Tables_number   1
_chemical_formula_structural   Er2CuNi9Sn2
_chemical_formula_sum   'Er4 Cu2 Ni18 Sn4'
_cell_volume   399.35515094
_cell_formula_units_Z   2
loop_
 _symmetry_equiv_pos_site_id
 _symmetry_equiv_pos_as_xyz
  1  'x, y, z'
loop_
 _atom_site_type_symbol
 _atom_site_label
 _atom_site_symmetry_multiplicity
 _atom_site_fract_x
 _atom_site_fract_y
 _atom_site_fract_z
 _atom_site_occupancy
  Er  Er0  1  0.250000  0.740126  0.057977  1
  Er  Er1  1  0.750000  0.259874  0.942023  1
  Er  Er2  1  0.750000  0.752226  0.556695  1
  Er  Er3  1  0.250000  0.247774  0.443305  1
  Cu  Cu4  1  0.750000  0.941114  0.101050  1
  Cu  Cu5  1  0.250000  0.058886  0.898950  1
  Ni  Ni6  1  0.250000  0.813576  0.746287  1
  Ni  Ni7  1  0.750000  0.186424  0.253713  1
  Ni  Ni8  1  0.750000  0.686595  0.247499  1
  Ni  Ni9  1  0.250000  0.313405  0.752501  1
  Ni  Ni10  1  0.500166  0.565628  0.810206  1
  Ni  Ni11  1  0.499834  0.434372  0.189794  1
  Ni  Ni12  1  0.498089  0.933823  0.312899  1
  Ni  Ni13  1  0.000166  0.434372  0.189794  1
  Ni  Ni14  1  0.501911  0.066177  0.687101  1
  Ni  Ni15  1  0.999834  0.565628  0.810206  1
  Ni  Ni16  1  0.998089  0.066177  0.687101  1
  Ni  Ni17  1  0.001911  0.933823  0.312899  1
  Ni  Ni18  1  0.250000  0.909480  0.519302  1
  Ni  Ni19  1  0.750000  0.090520  0.480698  1
  Ni  Ni20  1  0.750000  0.589891  0.019045  1
  Ni  Ni21  1  0.250000  0.410109  0.980955  1
  Ni  Ni22  1  0.250000  0.553972  0.599787  1
  Ni  Ni23  1  0.750000  0.446028  0.400213  1
  Sn  Sn24  1  0.250000  0.639275  0.359058  1
  Sn  Sn25  1  0.750000  0.360725  0.640942  1
  Sn  Sn26  1  0.750000  0.858394  0.855398  1
  Sn  Sn27  1  0.250000  0.141606  0.144602  1
