# generated using pymatgen
data_Li12Si4Hg
_symmetry_space_group_name_H-M   'P 1'
_cell_length_a   7.98954600
_cell_length_b   14.92669300
_cell_length_c   4.46846300
_cell_angle_alpha   90.00000000
_cell_angle_beta   90.00000000
_cell_angle_gamma   90.00000000
_symmetry_Int_Tables_number   1
_chemical_formula_structural   Li12Si4Hg
_chemical_formula_sum   'Li24 Si8 Hg2'
_cell_volume   532.89772779
_cell_formula_units_Z   2
loop_
 _symmetry_equiv_pos_site_id
 _symmetry_equiv_pos_as_xyz
  1  'x, y, z'
loop_
 _atom_site_type_symbol
 _atom_site_label
 _atom_site_symmetry_multiplicity
 _atom_site_fract_x
 _atom_site_fract_y
 _atom_site_fract_z
 _atom_site_occupancy
  Li  Li0  1  0.148278  0.023504  0.000000  1
  Li  Li1  1  0.767941  0.151568  0.000000  1
  Li  Li2  1  0.094250  0.192296  0.000000  1
  Li  Li3  1  0.594252  0.307705  0.000000  1
  Li  Li4  1  0.267940  0.348432  0.000000  1
  Li  Li5  1  0.648279  0.476495  0.000000  1
  Li  Li6  1  0.351722  0.523504  0.000000  1
  Li  Li7  1  0.732060  0.651569  0.000000  1
  Li  Li8  1  0.405750  0.692296  0.000000  1
  Li  Li9  1  0.905749  0.807705  0.000000  1
  Li  Li10  1  0.232060  0.848432  0.000000  1
  Li  Li11  1  0.851723  0.976495  0.000000  1
  Li  Li12  1  0.260218  0.092935  0.500000  1
  Li  Li13  1  0.598301  0.105874  0.500000  1
  Li  Li14  1  0.906766  0.244982  0.500000  1
  Li  Li15  1  0.406767  0.255018  0.500000  1
  Li  Li16  1  0.098301  0.394126  0.500000  1
  Li  Li17  1  0.760217  0.407065  0.500000  1
  Li  Li18  1  0.239783  0.592935  0.500000  1
  Li  Li19  1  0.901699  0.605874  0.500000  1
  Li  Li20  1  0.593234  0.744982  0.500000  1
  Li  Li21  1  0.093233  0.755018  0.500000  1
  Li  Li22  1  0.401700  0.894126  0.500000  1
  Li  Li23  1  0.739783  0.907065  0.500000  1
  Si  Si24  1  0.414785  0.164573  0.000000  1
  Si  Si25  1  0.914785  0.335427  0.000000  1
  Si  Si26  1  0.085216  0.664573  0.000000  1
  Si  Si27  1  0.585215  0.835427  0.000000  1
  Si  Si28  1  0.926625  0.070565  0.500000  1
  Si  Si29  1  0.426626  0.429436  0.500000  1
  Si  Si30  1  0.573374  0.570564  0.500000  1
  Si  Si31  1  0.073375  0.929436  0.500000  1
  Hg  Hg32  1  0.500000  0.000000  0.000000  1
  Hg  Hg33  1  0.000000  0.500000  0.000000  1
