# generated using pymatgen
data_LiTa5(SiTc)6
_symmetry_space_group_name_H-M   'P 1'
_cell_length_a   7.62222721
_cell_length_b   7.54594076
_cell_length_c   7.62222900
_cell_angle_alpha   125.91592658
_cell_angle_beta   129.62624327
_cell_angle_gamma   77.24911317
_symmetry_Int_Tables_number   1
_chemical_formula_structural   LiTa5(SiTc)6
_chemical_formula_sum   'Li1 Ta5 Si6 Tc6'
_cell_volume   265.07310355
_cell_formula_units_Z   1
loop_
 _symmetry_equiv_pos_site_id
 _symmetry_equiv_pos_as_xyz
  1  'x, y, z'
loop_
 _atom_site_type_symbol
 _atom_site_label
 _atom_site_symmetry_multiplicity
 _atom_site_fract_x
 _atom_site_fract_y
 _atom_site_fract_z
 _atom_site_occupancy
  Li  Li0  1  0.555277  0.106789  0.051496  1
  Ta  Ta1  1  0.447437  0.491368  0.543937  1
  Ta  Ta2  1  0.949600  0.491951  0.042357  1
  Ta  Ta3  1  0.048716  0.092763  0.544052  1
  Ta  Ta4  1  0.754039  0.904002  0.649968  1
  Ta  Ta5  1  0.242050  0.887931  0.145870  1
  Si  Si6  1  0.746191  0.490804  0.244606  1
  Si  Si7  1  0.250383  0.497116  0.746719  1
  Si  Si8  1  0.345289  0.836556  0.518349  1
  Si  Si9  1  0.656831  0.159867  0.476151  1
  Si  Si10  1  0.818213  0.836571  0.991287  1
  Si  Si11  1  0.183736  0.159881  0.003046  1
  Tc  Tc12  1  0.500970  0.239673  0.736698  1
  Tc  Tc13  1  0.002986  0.239673  0.238708  1
  Tc  Tc14  1  0.123818  0.753296  0.620929  1
  Tc  Tc15  1  0.874702  0.500342  0.632947  1
  Tc  Tc16  1  0.632367  0.753277  0.129457  1
  Tc  Tc17  1  0.367389  0.500332  0.125622  1
