# generated using pymatgen
data_Ho16Tm3InIr12
_symmetry_space_group_name_H-M   'P 1'
_cell_length_a   10.82270300
_cell_length_b   10.82270300
_cell_length_c   6.30415000
_cell_angle_alpha   90.00000000
_cell_angle_beta   90.00000000
_cell_angle_gamma   90.00000000
_symmetry_Int_Tables_number   1
_chemical_formula_structural   Ho16Tm3InIr12
_chemical_formula_sum   'Ho16 Tm3 In1 Ir12'
_cell_volume   738.41076466
_cell_formula_units_Z   1
loop_
 _symmetry_equiv_pos_site_id
 _symmetry_equiv_pos_as_xyz
  1  'x, y, z'
loop_
 _atom_site_type_symbol
 _atom_site_label
 _atom_site_symmetry_multiplicity
 _atom_site_fract_x
 _atom_site_fract_y
 _atom_site_fract_z
 _atom_site_occupancy
  Ho  Ho0  1  0.284177  0.084493  0.378408  1
  Ho  Ho1  1  0.291278  0.912070  0.878887  1
  Ho  Ho2  1  0.708722  0.087930  0.878887  1
  Ho  Ho3  1  0.715823  0.915507  0.378408  1
  Ho  Ho4  1  0.587873  0.791562  0.878812  1
  Ho  Ho5  1  0.587365  0.208693  0.375947  1
  Ho  Ho6  1  0.412635  0.791307  0.375947  1
  Ho  Ho7  1  0.412127  0.208438  0.878812  1
  Ho  Ho8  1  0.208693  0.412635  0.624053  1
  Ho  Ho9  1  0.208438  0.587873  0.121188  1
  Ho  Ho10  1  0.791562  0.412127  0.121188  1
  Ho  Ho11  1  0.791307  0.587365  0.624053  1
  Ho  Ho12  1  0.912070  0.708722  0.121113  1
  Ho  Ho13  1  0.915507  0.284177  0.621592  1
  Ho  Ho14  1  0.084493  0.715823  0.621592  1
  Ho  Ho15  1  0.087930  0.291278  0.121113  1
  Tm  Tm16  1  0.000000  0.000000  0.000000  1
  Tm  Tm17  1  0.500000  0.500000  0.000000  1
  Tm  Tm18  1  0.500000  0.500000  0.500000  1
  In  In19  1  0.000000  0.000000  0.500000  1
  Ir  Ir20  1  0.845811  0.156451  0.243743  1
  Ir  Ir21  1  0.843549  0.845811  0.756257  1
  Ir  Ir22  1  0.156451  0.154189  0.756257  1
  Ir  Ir23  1  0.154189  0.843549  0.243743  1
  Ir  Ir24  1  0.653709  0.348155  0.747330  1
  Ir  Ir25  1  0.651845  0.653709  0.252670  1
  Ir  Ir26  1  0.348155  0.346291  0.252670  1
  Ir  Ir27  1  0.346291  0.651845  0.747330  1
  Ir  Ir28  1  0.500000  0.000000  0.125191  1
  Ir  Ir29  1  0.500000  0.000000  0.620415  1
  Ir  Ir30  1  0.000000  0.500000  0.874809  1
  Ir  Ir31  1  0.000000  0.500000  0.379585  1
