# generated using pymatgen
data_Gd5In2Ru3
_symmetry_space_group_name_H-M   'P 1'
_cell_length_a   8.56588294
_cell_length_b   8.56588323
_cell_length_c   8.56588300
_cell_angle_alpha   109.47121774
_cell_angle_beta   109.47121840
_cell_angle_gamma   109.47122889
_symmetry_Int_Tables_number   1
_chemical_formula_structural   Gd5In2Ru3
_chemical_formula_sum   'Gd10 In4 Ru6'
_cell_volume   483.83191854
_cell_formula_units_Z   2
loop_
 _symmetry_equiv_pos_site_id
 _symmetry_equiv_pos_as_xyz
  1  'x, y, z'
loop_
 _atom_site_type_symbol
 _atom_site_label
 _atom_site_symmetry_multiplicity
 _atom_site_fract_x
 _atom_site_fract_y
 _atom_site_fract_z
 _atom_site_occupancy
  Gd  Gd0  1  0.250000  0.681840  0.431840  1
  Gd  Gd1  1  0.750000  0.818160  0.068160  1
  Gd  Gd2  1  0.431840  0.250000  0.681840  1
  Gd  Gd3  1  0.681840  0.431840  0.250000  1
  Gd  Gd4  1  0.068160  0.750000  0.818160  1
  Gd  Gd5  1  0.818160  0.068160  0.750000  1
  Gd  Gd6  1  0.206379  0.206379  0.206379  1
  Gd  Gd7  1  0.500000  0.000000  0.293621  1
  Gd  Gd8  1  0.293621  0.500000  0.000000  1
  Gd  Gd9  1  0.000000  0.293621  0.500000  1
  In  In10  1  0.590904  0.590904  0.590904  1
  In  In11  1  0.500000  0.000000  0.909096  1
  In  In12  1  0.909096  0.500000  0.000000  1
  In  In13  1  0.000000  0.909096  0.500000  1
  Ru  Ru14  1  0.250000  0.135234  0.885234  1
  Ru  Ru15  1  0.750000  0.364766  0.614766  1
  Ru  Ru16  1  0.885233  0.250000  0.135234  1
  Ru  Ru17  1  0.135234  0.885233  0.250000  1
  Ru  Ru18  1  0.614766  0.750000  0.364766  1
  Ru  Ru19  1  0.364766  0.614766  0.750000  1
