# generated using pymatgen
data_Sc2Cr2Co5(P2Ir)3
_symmetry_space_group_name_H-M   'P 1'
_cell_length_a   3.65537100
_cell_length_b   10.50139300
_cell_length_c   12.04741200
_cell_angle_alpha   90.00000000
_cell_angle_beta   90.00000000
_cell_angle_gamma   90.00000000
_symmetry_Int_Tables_number   1
_chemical_formula_structural   Sc2Cr2Co5(P2Ir)3
_chemical_formula_sum   'Sc4 Cr4 Co10 P12 Ir6'
_cell_volume   462.45782932
_cell_formula_units_Z   2
loop_
 _symmetry_equiv_pos_site_id
 _symmetry_equiv_pos_as_xyz
  1  'x, y, z'
loop_
 _atom_site_type_symbol
 _atom_site_label
 _atom_site_symmetry_multiplicity
 _atom_site_fract_x
 _atom_site_fract_y
 _atom_site_fract_z
 _atom_site_occupancy
  Sc  Sc0  1  0.250000  0.588956  0.714582  1
  Sc  Sc1  1  0.250000  0.911044  0.214582  1
  Sc  Sc2  1  0.750000  0.419957  0.287399  1
  Sc  Sc3  1  0.750000  0.080043  0.787399  1
  Cr  Cr4  1  0.250000  0.706371  0.988290  1
  Cr  Cr5  1  0.250000  0.793629  0.488290  1
  Cr  Cr6  1  0.750000  0.293636  0.009369  1
  Cr  Cr7  1  0.750000  0.206364  0.509369  1
  Co  Co8  1  0.750000  0.776464  0.822662  1
  Co  Co9  1  0.750000  0.723536  0.322662  1
  Co  Co10  1  0.250000  0.881771  0.698043  1
  Co  Co11  1  0.250000  0.618229  0.198043  1
  Co  Co12  1  0.750000  0.106926  0.302750  1
  Co  Co13  1  0.750000  0.393074  0.802750  1
  Co  Co14  1  0.250000  0.466148  0.932182  1
  Co  Co15  1  0.250000  0.033852  0.432182  1
  Co  Co16  1  0.750000  0.538221  0.066210  1
  Co  Co17  1  0.750000  0.961779  0.566210  1
  P  P18  1  0.250000  0.430150  0.111981  1
  P  P19  1  0.250000  0.069850  0.611981  1
  P  P20  1  0.750000  0.581904  0.886377  1
  P  P21  1  0.750000  0.918096  0.386377  1
  P  P22  1  0.250000  0.273344  0.868423  1
  P  P23  1  0.250000  0.226656  0.368423  1
  P  P24  1  0.750000  0.727387  0.139074  1
  P  P25  1  0.750000  0.772613  0.639074  1
  P  P26  1  0.250000  0.601126  0.378694  1
  P  P27  1  0.250000  0.898874  0.878694  1
  P  P28  1  0.750000  0.409695  0.618962  1
  P  P29  1  0.750000  0.090305  0.118962  1
  Ir  Ir30  1  0.250000  0.405513  0.476798  1
  Ir  Ir31  1  0.250000  0.094487  0.976798  1
  Ir  Ir32  1  0.750000  0.600976  0.519963  1
  Ir  Ir33  1  0.750000  0.899024  0.019963  1
  Ir  Ir34  1  0.250000  0.226472  0.178241  1
  Ir  Ir35  1  0.250000  0.273529  0.678241  1
