# generated using pymatgen
data_TbYb3Ho4(B6Os)4
_symmetry_space_group_name_H-M   'P 1'
_cell_length_a   3.64446100
_cell_length_b   9.14715873
_cell_length_c   11.53884300
_cell_angle_alpha   89.92011445
_cell_angle_beta   90.00000000
_cell_angle_gamma   90.00000000
_symmetry_Int_Tables_number   1
_chemical_formula_structural   TbYb3Ho4(B6Os)4
_chemical_formula_sum   'Tb1 Yb3 Ho4 B24 Os4'
_cell_volume   384.66384198
_cell_formula_units_Z   1
loop_
 _symmetry_equiv_pos_site_id
 _symmetry_equiv_pos_as_xyz
  1  'x, y, z'
loop_
 _atom_site_type_symbol
 _atom_site_label
 _atom_site_symmetry_multiplicity
 _atom_site_fract_x
 _atom_site_fract_y
 _atom_site_fract_z
 _atom_site_occupancy
  Tb  Tb0  1  0.000000  0.176019  0.914718  1
  Yb  Yb1  1  0.000000  0.324674  0.414397  1
  Yb  Yb2  1  0.000000  0.675458  0.585070  1
  Yb  Yb3  1  0.000000  0.823183  0.086388  1
  Ho  Ho4  1  0.000000  0.941072  0.367626  1
  Ho  Ho5  1  0.000000  0.057983  0.630530  1
  Ho  Ho6  1  0.000000  0.443136  0.132412  1
  Ho  Ho7  1  0.000000  0.558707  0.868477  1
  B  B8  1  0.500000  0.553066  0.433106  1
  B  B9  1  0.500000  0.446486  0.567592  1
  B  B10  1  0.500000  0.053438  0.067219  1
  B  B11  1  0.500000  0.945736  0.933207  1
  B  B12  1  0.500000  0.747900  0.417522  1
  B  B13  1  0.500000  0.251932  0.582369  1
  B  B14  1  0.500000  0.248607  0.082407  1
  B  B15  1  0.500000  0.752077  0.917926  1
  B  B16  1  0.500000  0.790424  0.264447  1
  B  B17  1  0.500000  0.209271  0.735301  1
  B  B18  1  0.500000  0.290728  0.234872  1
  B  B19  1  0.500000  0.710270  0.765068  1
  B  B20  1  0.500000  0.630907  0.186373  1
  B  B21  1  0.500000  0.369349  0.814427  1
  B  B22  1  0.500000  0.130881  0.313382  1
  B  B23  1  0.500000  0.869323  0.685437  1
  B  B24  1  0.500000  0.982745  0.210698  1
  B  B25  1  0.500000  0.016622  0.788382  1
  B  B26  1  0.500000  0.483688  0.289280  1
  B  B27  1  0.500000  0.516368  0.711452  1
  B  B28  1  0.500000  0.599363  0.027651  1
  B  B29  1  0.500000  0.400621  0.972664  1
  B  B30  1  0.500000  0.097222  0.472419  1
  B  B31  1  0.500000  0.902517  0.526510  1
  Os  Os32  1  0.000000  0.638644  0.320968  1
  Os  Os33  1  0.000000  0.360409  0.680340  1
  Os  Os34  1  0.000000  0.138176  0.179104  1
  Os  Os35  1  0.000000  0.862999  0.820260  1
