# generated using pymatgen
data_DyHo9Cd3Ru
_symmetry_space_group_name_H-M   'P 1'
_cell_length_a   9.55914401
_cell_length_b   9.55981556
_cell_length_c   9.81777200
_cell_angle_alpha   90.00000000
_cell_angle_beta   90.00000000
_cell_angle_gamma   120.00232713
_symmetry_Int_Tables_number   1
_chemical_formula_structural   DyHo9Cd3Ru
_chemical_formula_sum   'Dy2 Ho18 Cd6 Ru2'
_cell_volume   776.96580737
_cell_formula_units_Z   2
loop_
 _symmetry_equiv_pos_site_id
 _symmetry_equiv_pos_as_xyz
  1  'x, y, z'
loop_
 _atom_site_type_symbol
 _atom_site_label
 _atom_site_symmetry_multiplicity
 _atom_site_fract_x
 _atom_site_fract_y
 _atom_site_fract_z
 _atom_site_occupancy
  Dy  Dy0  1  0.541146  0.458983  0.250000  1
  Dy  Dy1  1  0.541146  0.082163  0.250000  1
  Ho  Ho2  1  0.999997  0.999999  0.500013  1
  Ho  Ho3  1  0.999997  0.999999  0.999987  1
  Ho  Ho4  1  0.209773  0.790064  0.440402  1
  Ho  Ho5  1  0.209773  0.419710  0.440402  1
  Ho  Ho6  1  0.580306  0.790153  0.440408  1
  Ho  Ho7  1  0.790180  0.209913  0.559738  1
  Ho  Ho8  1  0.790180  0.580266  0.559738  1
  Ho  Ho9  1  0.419724  0.209862  0.559797  1
  Ho  Ho10  1  0.790180  0.209913  0.940262  1
  Ho  Ho11  1  0.790180  0.580266  0.940262  1
  Ho  Ho12  1  0.419724  0.209862  0.940203  1
  Ho  Ho13  1  0.209773  0.790064  0.059598  1
  Ho  Ho14  1  0.209773  0.419710  0.059598  1
  Ho  Ho15  1  0.580306  0.790153  0.059592  1
  Ho  Ho16  1  0.917974  0.458987  0.250000  1
  Ho  Ho17  1  0.458925  0.541086  0.750000  1
  Ho  Ho18  1  0.458925  0.917840  0.750000  1
  Ho  Ho19  1  0.082183  0.541092  0.750000  1
  Cd  Cd20  1  0.885523  0.114589  0.250000  1
  Cd  Cd21  1  0.885523  0.770936  0.250000  1
  Cd  Cd22  1  0.228942  0.114472  0.250000  1
  Cd  Cd23  1  0.114558  0.885399  0.750000  1
  Cd  Cd24  1  0.114558  0.229157  0.750000  1
  Cd  Cd25  1  0.770833  0.885416  0.750000  1
  Ru  Ru26  1  0.333283  0.666642  0.250000  1
  Ru  Ru27  1  0.666613  0.333306  0.750000  1
