# generated using pymatgen
data_Rb2AgAu3Br8
_symmetry_space_group_name_H-M   'P 1'
_cell_length_a   7.42139214
_cell_length_b   7.42139215
_cell_length_c   20.66771755
_cell_angle_alpha   80.16388792
_cell_angle_beta   80.16388820
_cell_angle_gamma   58.51568972
_symmetry_Int_Tables_number   1
_chemical_formula_structural   Rb2AgAu3Br8
_chemical_formula_sum   'Rb4 Ag2 Au6 Br16'
_cell_volume   951.94602521
_cell_formula_units_Z   2
loop_
 _symmetry_equiv_pos_site_id
 _symmetry_equiv_pos_as_xyz
  1  'x, y, z'
loop_
 _atom_site_type_symbol
 _atom_site_label
 _atom_site_symmetry_multiplicity
 _atom_site_fract_x
 _atom_site_fract_y
 _atom_site_fract_z
 _atom_site_occupancy
  Rb  Rb0  1  0.326021  0.267351  0.595300  1
  Rb  Rb1  1  0.267351  0.326021  0.095300  1
  Rb  Rb2  1  0.673979  0.732649  0.404700  1
  Rb  Rb3  1  0.732649  0.673979  0.904700  1
  Ag  Ag4  1  0.984041  0.015959  0.250000  1
  Ag  Ag5  1  0.015959  0.984041  0.750000  1
  Au  Au6  1  0.399353  0.401214  0.802725  1
  Au  Au7  1  0.600647  0.598786  0.197275  1
  Au  Au8  1  0.000000  0.000000  0.000000  1
  Au  Au9  1  0.598786  0.600647  0.697275  1
  Au  Au10  1  0.401214  0.399353  0.302725  1
  Au  Au11  1  0.000000  0.000000  0.500000  1
  Br  Br12  1  0.590678  0.064686  0.250722  1
  Br  Br13  1  0.156964  0.217481  0.440228  1
  Br  Br14  1  0.064686  0.590678  0.750722  1
  Br  Br15  1  0.191932  0.732766  0.354903  1
  Br  Br16  1  0.782519  0.843036  0.059772  1
  Br  Br17  1  0.808068  0.267234  0.645097  1
  Br  Br18  1  0.322524  0.776914  0.561847  1
  Br  Br19  1  0.217481  0.156964  0.940228  1
  Br  Br20  1  0.935314  0.409322  0.249278  1
  Br  Br21  1  0.776914  0.322524  0.061847  1
  Br  Br22  1  0.843036  0.782519  0.559772  1
  Br  Br23  1  0.677476  0.223086  0.438153  1
  Br  Br24  1  0.267234  0.808068  0.145097  1
  Br  Br25  1  0.223086  0.677476  0.938153  1
  Br  Br26  1  0.409322  0.935314  0.749278  1
  Br  Br27  1  0.732766  0.191932  0.854903  1
