# generated using pymatgen
data_RbHf6CCl15
_symmetry_space_group_name_H-M   'P 1'
_cell_length_a   9.86399900
_cell_length_b   14.12539300
_cell_length_c   18.74675700
_cell_angle_alpha   90.00000000
_cell_angle_beta   90.00000000
_cell_angle_gamma   90.00000000
_symmetry_Int_Tables_number   1
_chemical_formula_structural   RbHf6CCl15
_chemical_formula_sum   'Rb4 Hf24 C4 Cl60'
_cell_volume   2612.03931403
_cell_formula_units_Z   4
loop_
 _symmetry_equiv_pos_site_id
 _symmetry_equiv_pos_as_xyz
  1  'x, y, z'
loop_
 _atom_site_type_symbol
 _atom_site_label
 _atom_site_symmetry_multiplicity
 _atom_site_fract_x
 _atom_site_fract_y
 _atom_site_fract_z
 _atom_site_occupancy
  Rb  Rb0  1  0.828504  0.248040  0.750000  1
  Rb  Rb1  1  0.171496  0.751960  0.250000  1
  Rb  Rb2  1  0.828504  0.751960  0.750000  1
  Rb  Rb3  1  0.171496  0.248040  0.250000  1
  Hf  Hf4  1  0.114900  0.500000  0.750000  1
  Hf  Hf5  1  0.885100  0.500000  0.250000  1
  Hf  Hf6  1  0.079000  0.000000  0.111620  1
  Hf  Hf7  1  0.921000  0.000000  0.888380  1
  Hf  Hf8  1  0.079000  0.000000  0.388380  1
  Hf  Hf9  1  0.921000  0.000000  0.611620  1
  Hf  Hf10  1  0.338767  0.386313  0.664531  1
  Hf  Hf11  1  0.661233  0.613687  0.335469  1
  Hf  Hf12  1  0.338767  0.613687  0.835469  1
  Hf  Hf13  1  0.661233  0.386313  0.335469  1
  Hf  Hf14  1  0.661233  0.386313  0.164531  1
  Hf  Hf15  1  0.338767  0.613687  0.664531  1
  Hf  Hf16  1  0.661233  0.613687  0.164531  1
  Hf  Hf17  1  0.338767  0.386313  0.835469  1
  Hf  Hf18  1  0.566341  0.500000  0.750000  1
  Hf  Hf19  1  0.433659  0.500000  0.250000  1
  Hf  Hf20  1  0.152174  0.113461  0.529810  1
  Hf  Hf21  1  0.847826  0.886539  0.470190  1
  Hf  Hf22  1  0.152174  0.886539  0.970190  1
  Hf  Hf23  1  0.847826  0.113461  0.470190  1
  Hf  Hf24  1  0.847826  0.113461  0.029810  1
  Hf  Hf25  1  0.152174  0.886539  0.529810  1
  Hf  Hf26  1  0.847826  0.886539  0.029810  1
  Hf  Hf27  1  0.152174  0.113461  0.970190  1
  C  C28  1  0.000000  0.000000  0.500000  1
  C  C29  1  0.000000  0.000000  0.000000  1
  C  C30  1  0.341163  0.500000  0.750000  1
  C  C31  1  0.658837  0.500000  0.250000  1
  Cl  Cl32  1  0.824424  0.000000  0.750000  1
  Cl  Cl33  1  0.175576  0.000000  0.250000  1
  Cl  Cl34  1  0.839541  0.500000  0.750000  1
  Cl  Cl35  1  0.160459  0.500000  0.250000  1
  Cl  Cl36  1  0.340197  0.500000  0.561333  1
  Cl  Cl37  1  0.659803  0.500000  0.438667  1
  Cl  Cl38  1  0.340197  0.500000  0.938667  1
  Cl  Cl39  1  0.659803  0.500000  0.061333  1
  Cl  Cl40  1  0.000000  0.250365  0.500000  1
  Cl  Cl41  1  0.000000  0.749635  0.500000  1
  Cl  Cl42  1  0.000000  0.749635  0.000000  1
  Cl  Cl43  1  0.000000  0.250365  0.000000  1
  Cl  Cl44  1  0.347380  0.249316  0.750000  1
  Cl  Cl45  1  0.652620  0.750684  0.250000  1
  Cl  Cl46  1  0.347380  0.750684  0.750000  1
  Cl  Cl47  1  0.652620  0.249316  0.250000  1
  Cl  Cl48  1  0.329745  0.249252  0.565877  1
  Cl  Cl49  1  0.670255  0.750748  0.434123  1
  Cl  Cl50  1  0.329745  0.750748  0.934123  1
  Cl  Cl51  1  0.670255  0.249252  0.434123  1
  Cl  Cl52  1  0.670255  0.249252  0.065877  1
  Cl  Cl53  1  0.329745  0.750748  0.565877  1
  Cl  Cl54  1  0.670255  0.750748  0.065877  1
  Cl  Cl55  1  0.329745  0.249252  0.934123  1
  Cl  Cl56  1  0.079624  0.123852  0.658088  1
  Cl  Cl57  1  0.920376  0.876148  0.341912  1
  Cl  Cl58  1  0.079624  0.876148  0.841912  1
  Cl  Cl59  1  0.920376  0.123852  0.341912  1
  Cl  Cl60  1  0.920376  0.123852  0.158088  1
  Cl  Cl61  1  0.079624  0.876148  0.658088  1
  Cl  Cl62  1  0.920376  0.876148  0.158088  1
  Cl  Cl63  1  0.079624  0.123852  0.841912  1
  Cl  Cl64  1  0.084415  0.375855  0.656088  1
  Cl  Cl65  1  0.915585  0.624145  0.343912  1
  Cl  Cl66  1  0.084415  0.624145  0.843912  1
  Cl  Cl67  1  0.915585  0.375855  0.343912  1
  Cl  Cl68  1  0.915585  0.375855  0.156088  1
  Cl  Cl69  1  0.084415  0.624145  0.656088  1
  Cl  Cl70  1  0.915585  0.624145  0.156088  1
  Cl  Cl71  1  0.084415  0.375855  0.843912  1
  Cl  Cl72  1  0.336638  0.000000  0.565194  1
  Cl  Cl73  1  0.663362  0.000000  0.434806  1
  Cl  Cl74  1  0.336638  0.000000  0.934806  1
  Cl  Cl75  1  0.663362  0.000000  0.065194  1
  Cl  Cl76  1  0.594539  0.375214  0.654447  1
  Cl  Cl77  1  0.405461  0.624786  0.345553  1
  Cl  Cl78  1  0.594539  0.624786  0.845553  1
  Cl  Cl79  1  0.405461  0.375214  0.345553  1
  Cl  Cl80  1  0.405461  0.375214  0.154447  1
  Cl  Cl81  1  0.594539  0.624786  0.654447  1
  Cl  Cl82  1  0.405461  0.624786  0.154447  1
  Cl  Cl83  1  0.594539  0.375214  0.845553  1
  Cl  Cl84  1  0.257662  0.125592  0.093206  1
  Cl  Cl85  1  0.742338  0.874408  0.906794  1
  Cl  Cl86  1  0.257662  0.874408  0.406794  1
  Cl  Cl87  1  0.742338  0.125592  0.906794  1
  Cl  Cl88  1  0.742338  0.125592  0.593206  1
  Cl  Cl89  1  0.257662  0.874408  0.093206  1
  Cl  Cl90  1  0.742338  0.874408  0.593206  1
  Cl  Cl91  1  0.257662  0.125592  0.406794  1
