# generated using pymatgen
data_La2Yb14MgCd3Ru4
_symmetry_space_group_name_H-M   'P 1'
_cell_length_a   9.90821180
_cell_length_b   9.90821136
_cell_length_c   9.77611693
_cell_angle_alpha   60.76102468
_cell_angle_beta   60.76102271
_cell_angle_gamma   60.12531104
_symmetry_Int_Tables_number   1
_chemical_formula_structural   La2Yb14MgCd3Ru4
_chemical_formula_sum   'La2 Yb14 Mg1 Cd3 Ru4'
_cell_volume   687.00793524
_cell_formula_units_Z   1
loop_
 _symmetry_equiv_pos_site_id
 _symmetry_equiv_pos_as_xyz
  1  'x, y, z'
loop_
 _atom_site_type_symbol
 _atom_site_label
 _atom_site_symmetry_multiplicity
 _atom_site_fract_x
 _atom_site_fract_y
 _atom_site_fract_z
 _atom_site_occupancy
  La  La0  1  0.063978  0.063978  0.436930  1
  La  La1  1  0.436958  0.436958  0.063559  1
  Yb  Yb2  1  0.796968  0.205833  0.200519  1
  Yb  Yb3  1  0.197613  0.197613  0.802595  1
  Yb  Yb4  1  0.800218  0.800218  0.198011  1
  Yb  Yb5  1  0.205970  0.795516  0.795426  1
  Yb  Yb6  1  0.593050  0.593050  0.222216  1
  Yb  Yb7  1  0.445632  0.054928  0.054299  1
  Yb  Yb8  1  0.054928  0.445632  0.054299  1
  Yb  Yb9  1  0.443402  0.057059  0.444756  1
  Yb  Yb10  1  0.225663  0.589588  0.591581  1
  Yb  Yb11  1  0.057059  0.443402  0.444756  1
  Yb  Yb12  1  0.589588  0.225663  0.591581  1
  Yb  Yb13  1  0.593211  0.593211  0.590040  1
  Yb  Yb14  1  0.205833  0.796968  0.200519  1
  Yb  Yb15  1  0.795516  0.205970  0.795426  1
  Mg  Mg16  1  0.824803  0.824803  0.527832  1
  Cd  Cd17  1  0.832332  0.832332  0.831331  1
  Cd  Cd18  1  0.506875  0.830325  0.829446  1
  Cd  Cd19  1  0.830325  0.506875  0.829446  1
  Ru  Ru20  1  0.857888  0.356755  0.391852  1
  Ru  Ru21  1  0.393751  0.393751  0.356228  1
  Ru  Ru22  1  0.356755  0.857888  0.391852  1
  Ru  Ru23  1  0.391686  0.391686  0.855502  1
