# generated using pymatgen
data_DyTm4Lu3Pt4
_symmetry_space_group_name_H-M   'P 1'
_cell_length_a   4.72359200
_cell_length_b   7.05793027
_cell_length_c   8.63492339
_cell_angle_alpha   90.03295285
_cell_angle_beta   90.00000000
_cell_angle_gamma   90.00000000
_symmetry_Int_Tables_number   1
_chemical_formula_structural   DyTm4Lu3Pt4
_chemical_formula_sum   'Dy1 Tm4 Lu3 Pt4'
_cell_volume   287.87778899
_cell_formula_units_Z   1
loop_
 _symmetry_equiv_pos_site_id
 _symmetry_equiv_pos_as_xyz
  1  'x, y, z'
loop_
 _atom_site_type_symbol
 _atom_site_label
 _atom_site_symmetry_multiplicity
 _atom_site_fract_x
 _atom_site_fract_y
 _atom_site_fract_z
 _atom_site_occupancy
  Dy  Dy0  1  0.250000  0.511304  0.169391  1
  Tm  Tm1  1  0.750000  0.355462  0.421496  1
  Tm  Tm2  1  0.250000  0.009832  0.330682  1
  Tm  Tm3  1  0.750000  0.988326  0.670378  1
  Tm  Tm4  1  0.750000  0.489589  0.830040  1
  Lu  Lu5  1  0.250000  0.143339  0.921402  1
  Lu  Lu6  1  0.250000  0.644378  0.579345  1
  Lu  Lu7  1  0.750000  0.856908  0.078446  1
  Pt  Pt8  1  0.250000  0.242806  0.595168  1
  Pt  Pt9  1  0.250000  0.744696  0.905703  1
  Pt  Pt10  1  0.750000  0.758192  0.406917  1
  Pt  Pt11  1  0.750000  0.255170  0.091030  1
