# generated using pymatgen
data_Tb2Ta3Co9P7
_symmetry_space_group_name_H-M   'P 1'
_cell_length_a   3.68701800
_cell_length_b   9.23243813
_cell_length_c   9.23243800
_cell_angle_alpha   119.99999952
_cell_angle_beta   90.00000000
_cell_angle_gamma   90.00000000
_symmetry_Int_Tables_number   1
_chemical_formula_structural   Tb2Ta3Co9P7
_chemical_formula_sum   'Tb2 Ta3 Co9 P7'
_cell_volume   272.16902502
_cell_formula_units_Z   1
loop_
 _symmetry_equiv_pos_site_id
 _symmetry_equiv_pos_as_xyz
  1  'x, y, z'
loop_
 _atom_site_type_symbol
 _atom_site_label
 _atom_site_symmetry_multiplicity
 _atom_site_fract_x
 _atom_site_fract_y
 _atom_site_fract_z
 _atom_site_occupancy
  Tb  Tb0  1  0.000000  0.666667  0.333333  1
  Tb  Tb1  1  0.500000  0.333333  0.666667  1
  Ta  Ta2  1  0.500000  0.774668  0.897037  1
  Ta  Ta3  1  0.500000  0.122369  0.225332  1
  Ta  Ta4  1  0.500000  0.102963  0.877631  1
  Co  Co5  1  0.000000  0.568361  0.936938  1
  Co  Co6  1  0.000000  0.368577  0.431639  1
  Co  Co7  1  0.000000  0.063062  0.631423  1
  Co  Co8  1  0.000000  0.878406  0.160728  1
  Co  Co9  1  0.000000  0.282323  0.121594  1
  Co  Co10  1  0.000000  0.839272  0.717677  1
  Co  Co11  1  0.500000  0.947311  0.387208  1
  Co  Co12  1  0.500000  0.439896  0.052689  1
  Co  Co13  1  0.500000  0.612792  0.560104  1
  P  P14  1  0.000000  0.000000  0.000000  1
  P  P15  1  0.500000  0.709473  0.123970  1
  P  P16  1  0.500000  0.414497  0.290527  1
  P  P17  1  0.500000  0.876030  0.585503  1
  P  P18  1  0.000000  0.582125  0.690516  1
  P  P19  1  0.000000  0.108391  0.417875  1
  P  P20  1  0.000000  0.309484  0.891609  1
