# generated using pymatgen
data_Ta4NbCu4Si3Ge
_symmetry_space_group_name_H-M   'P 1'
_cell_length_a   7.44715548
_cell_length_b   7.44715378
_cell_length_c   7.45353356
_cell_angle_alpha   93.83525017
_cell_angle_beta   92.99982871
_cell_angle_gamma   151.72417082
_symmetry_Int_Tables_number   1
_chemical_formula_structural   Ta4NbCu4Si3Ge
_chemical_formula_sum   'Ta4 Nb1 Cu4 Si3 Ge1'
_cell_volume   189.89535940
_cell_formula_units_Z   1
loop_
 _symmetry_equiv_pos_site_id
 _symmetry_equiv_pos_as_xyz
  1  'x, y, z'
loop_
 _atom_site_type_symbol
 _atom_site_label
 _atom_site_symmetry_multiplicity
 _atom_site_fract_x
 _atom_site_fract_y
 _atom_site_fract_z
 _atom_site_occupancy
  Ta  Ta0  1  0.502230  0.499597  0.001827  1
  Ta  Ta1  1  0.126240  0.807366  0.933606  1
  Ta  Ta2  1  0.196847  0.129638  0.326485  1
  Ta  Ta3  1  0.805395  0.867189  0.672583  1
  Nb  Nb4  1  0.875698  0.197428  0.073125  1
  Cu  Cu5  1  0.395395  0.917868  0.313261  1
  Cu  Cu6  1  0.598576  0.081926  0.680503  1
  Cu  Cu7  1  0.916375  0.604273  0.520650  1
  Cu  Cu8  1  0.080414  0.393799  0.474213  1
  Si  Si9  1  0.440710  0.248036  0.688745  1
  Si  Si10  1  0.560908  0.752152  0.313060  1
  Si  Si11  1  0.752676  0.440210  0.192885  1
  Ge  Ge12  1  0.248537  0.560520  0.809057  1
