# generated using pymatgen
data_Sr3Sc2IrO9
_symmetry_space_group_name_H-M   'P 1'
_cell_length_a   9.92661354
_cell_length_b   9.92661343
_cell_length_c   5.71533808
_cell_angle_alpha   73.25594828
_cell_angle_beta   73.25594466
_cell_angle_gamma   48.92944360
_symmetry_Int_Tables_number   1
_chemical_formula_structural   Sr3Sc2IrO9
_chemical_formula_sum   'Sr6 Sc4 Ir2 O18'
_cell_volume   402.75039658
_cell_formula_units_Z   2
loop_
 _symmetry_equiv_pos_site_id
 _symmetry_equiv_pos_as_xyz
  1  'x, y, z'
loop_
 _atom_site_type_symbol
 _atom_site_label
 _atom_site_symmetry_multiplicity
 _atom_site_fract_x
 _atom_site_fract_y
 _atom_site_fract_z
 _atom_site_occupancy
  Sr  Sr0  1  0.917777  0.403866  0.843217  1
  Sr  Sr1  1  0.237504  0.762496  0.500000  1
  Sr  Sr2  1  0.596134  0.082223  0.156783  1
  Sr  Sr3  1  0.762496  0.237504  0.500000  1
  Sr  Sr4  1  0.082223  0.596134  0.156783  1
  Sr  Sr5  1  0.403866  0.917777  0.843217  1
  Sc  Sc6  1  0.500000  0.500000  0.000000  1
  Sc  Sc7  1  0.833477  0.833477  0.663123  1
  Sc  Sc8  1  0.166523  0.166523  0.336877  1
  Sc  Sc9  1  0.000000  0.000000  0.000000  1
  Ir  Ir10  1  0.333542  0.333542  0.663819  1
  Ir  Ir11  1  0.666458  0.666458  0.336181  1
  O  O12  1  0.430523  0.907650  0.331239  1
  O  O13  1  0.746203  0.253797  0.000000  1
  O  O14  1  0.092350  0.569477  0.668761  1
  O  O15  1  0.907650  0.430523  0.331239  1
  O  O16  1  0.253797  0.746203  0.000000  1
  O  O17  1  0.569477  0.092350  0.668761  1
  O  O18  1  0.072272  0.072272  0.224303  1
  O  O19  1  0.397079  0.397079  0.886827  1
  O  O20  1  0.726069  0.726069  0.567074  1
  O  O21  1  0.602921  0.602921  0.113173  1
  O  O22  1  0.927728  0.927728  0.775697  1
  O  O23  1  0.273931  0.273931  0.432926  1
  O  O24  1  0.570541  0.570541  0.618088  1
  O  O25  1  0.897638  0.897638  0.308427  1
  O  O26  1  0.238846  0.238846  0.948631  1
  O  O27  1  0.102362  0.102362  0.691573  1
  O  O28  1  0.429459  0.429459  0.381912  1
  O  O29  1  0.761154  0.761154  0.051369  1
