# generated using pymatgen
data_PuZr6(PO4)9
_symmetry_space_group_name_H-M   'P 1'
_cell_length_a   8.94978400
_cell_length_b   8.94978374
_cell_length_c   22.96513200
_cell_angle_alpha   90.00000000
_cell_angle_beta   90.00000000
_cell_angle_gamma   120.00000097
_symmetry_Int_Tables_number   1
_chemical_formula_structural   PuZr6(PO4)9
_chemical_formula_sum   'Pu2 Zr12 P18 O72'
_cell_volume   1593.03261912
_cell_formula_units_Z   2
loop_
 _symmetry_equiv_pos_site_id
 _symmetry_equiv_pos_as_xyz
  1  'x, y, z'
loop_
 _atom_site_type_symbol
 _atom_site_label
 _atom_site_symmetry_multiplicity
 _atom_site_fract_x
 _atom_site_fract_y
 _atom_site_fract_z
 _atom_site_occupancy
  Pu  Pu0  1  0.000000  0.000000  0.500000  1
  Pu  Pu1  1  0.000000  0.000000  0.000000  1
  Zr  Zr2  1  0.333333  0.666667  0.528944  1
  Zr  Zr3  1  0.666667  0.333333  0.471056  1
  Zr  Zr4  1  0.666667  0.333333  0.971056  1
  Zr  Zr5  1  0.333333  0.666667  0.028944  1
  Zr  Zr6  1  0.000000  0.000000  0.649919  1
  Zr  Zr7  1  0.000000  0.000000  0.350081  1
  Zr  Zr8  1  0.000000  0.000000  0.850081  1
  Zr  Zr9  1  0.000000  0.000000  0.149919  1
  Zr  Zr10  1  0.333333  0.666667  0.811876  1
  Zr  Zr11  1  0.666667  0.333333  0.188124  1
  Zr  Zr12  1  0.666667  0.333333  0.688124  1
  Zr  Zr13  1  0.333333  0.666667  0.311876  1
  P  P14  1  0.375817  0.320889  0.579269  1
  P  P15  1  0.624183  0.679111  0.420731  1
  P  P16  1  0.679111  0.054928  0.579269  1
  P  P17  1  0.320889  0.375817  0.920731  1
  P  P18  1  0.320889  0.945072  0.420731  1
  P  P19  1  0.679111  0.624183  0.079269  1
  P  P20  1  0.945072  0.624183  0.579269  1
  P  P21  1  0.054928  0.679111  0.920731  1
  P  P22  1  0.054928  0.375817  0.420731  1
  P  P23  1  0.945072  0.320889  0.079269  1
  P  P24  1  0.624183  0.945072  0.920731  1
  P  P25  1  0.375817  0.054928  0.079269  1
  P  P26  1  0.292323  0.000000  0.750000  1
  P  P27  1  0.707677  0.000000  0.250000  1
  P  P28  1  0.000000  0.292323  0.750000  1
  P  P29  1  0.000000  0.707677  0.250000  1
  P  P30  1  0.707677  0.707677  0.750000  1
  P  P31  1  0.292323  0.292323  0.250000  1
  O  O32  1  0.453765  0.286781  0.524711  1
  O  O33  1  0.546235  0.713219  0.475289  1
  O  O34  1  0.713219  0.166985  0.524711  1
  O  O35  1  0.286781  0.453765  0.975289  1
  O  O36  1  0.286781  0.833015  0.475289  1
  O  O37  1  0.713219  0.546235  0.024711  1
  O  O38  1  0.833015  0.546235  0.524711  1
  O  O39  1  0.166985  0.713219  0.975289  1
  O  O40  1  0.166985  0.453765  0.475289  1
  O  O41  1  0.833015  0.286781  0.024711  1
  O  O42  1  0.546235  0.833015  0.975289  1
  O  O43  1  0.453765  0.166985  0.024711  1
  O  O44  1  0.374498  0.491716  0.575331  1
  O  O45  1  0.625502  0.508284  0.424669  1
  O  O46  1  0.508284  0.882783  0.575331  1
  O  O47  1  0.491716  0.374498  0.924669  1
  O  O48  1  0.491716  0.117217  0.424669  1
  O  O49  1  0.508284  0.625502  0.075331  1
  O  O50  1  0.117217  0.625502  0.575331  1
  O  O51  1  0.882783  0.508284  0.924669  1
  O  O52  1  0.882783  0.374498  0.424669  1
  O  O53  1  0.117217  0.491716  0.075331  1
  O  O54  1  0.625502  0.117217  0.924669  1
  O  O55  1  0.374498  0.882783  0.075331  1
  O  O56  1  0.181059  0.167957  0.581016  1
  O  O57  1  0.818941  0.832043  0.418984  1
  O  O58  1  0.832043  0.013101  0.581016  1
  O  O59  1  0.167957  0.181059  0.918984  1
  O  O60  1  0.167957  0.986899  0.418984  1
  O  O61  1  0.832043  0.818941  0.081016  1
  O  O62  1  0.986899  0.818941  0.581016  1
  O  O63  1  0.013101  0.832043  0.918984  1
  O  O64  1  0.013101  0.181059  0.418984  1
  O  O65  1  0.986899  0.167957  0.081016  1
  O  O66  1  0.818941  0.986899  0.918984  1
  O  O67  1  0.181059  0.013101  0.081016  1
  O  O68  1  0.030323  0.205125  0.696131  1
  O  O69  1  0.969677  0.794875  0.303869  1
  O  O70  1  0.794875  0.825197  0.696131  1
  O  O71  1  0.205125  0.030323  0.803869  1
  O  O72  1  0.205125  0.174803  0.303869  1
  O  O73  1  0.794875  0.969677  0.196131  1
  O  O74  1  0.174803  0.969677  0.696131  1
  O  O75  1  0.825197  0.794875  0.803869  1
  O  O76  1  0.825197  0.030323  0.303869  1
  O  O77  1  0.174803  0.205125  0.196131  1
  O  O78  1  0.969677  0.174803  0.803869  1
  O  O79  1  0.030323  0.825197  0.196131  1
  O  O80  1  0.467188  0.317564  0.634912  1
  O  O81  1  0.532812  0.682436  0.365088  1
  O  O82  1  0.682436  0.149624  0.634912  1
  O  O83  1  0.317564  0.467188  0.865088  1
  O  O84  1  0.317564  0.850376  0.365088  1
  O  O85  1  0.682436  0.532812  0.134912  1
  O  O86  1  0.850376  0.532812  0.634912  1
  O  O87  1  0.149624  0.682436  0.865088  1
  O  O88  1  0.149624  0.467188  0.365088  1
  O  O89  1  0.850376  0.317564  0.134912  1
  O  O90  1  0.532812  0.850376  0.865088  1
  O  O91  1  0.467188  0.149624  0.134912  1
  O  O92  1  0.468604  0.159078  0.740709  1
  O  O93  1  0.531396  0.840922  0.259291  1
  O  O94  1  0.840922  0.309526  0.740709  1
  O  O95  1  0.159078  0.468604  0.759291  1
  O  O96  1  0.159078  0.690474  0.259291  1
  O  O97  1  0.840922  0.531396  0.240709  1
  O  O98  1  0.690474  0.531396  0.740709  1
  O  O99  1  0.309526  0.840922  0.759291  1
  O  O100  1  0.309526  0.468604  0.259291  1
  O  O101  1  0.690474  0.159078  0.240709  1
  O  O102  1  0.531396  0.690474  0.759291  1
  O  O103  1  0.468604  0.309526  0.240709  1
