# generated using pymatgen
data_LaPr9Sn20(IrPd)4
_symmetry_space_group_name_H-M   'P 1'
_cell_length_a   14.27752111
_cell_length_b   14.24918511
_cell_length_c   4.70738700
_cell_angle_alpha   90.00000000
_cell_angle_beta   90.00000000
_cell_angle_gamma   90.01417195
_symmetry_Int_Tables_number   1
_chemical_formula_structural   LaPr9Sn20(IrPd)4
_chemical_formula_sum   'La1 Pr9 Sn20 Ir4 Pd4'
_cell_volume   957.68509801
_cell_formula_units_Z   1
loop_
 _symmetry_equiv_pos_site_id
 _symmetry_equiv_pos_as_xyz
  1  'x, y, z'
loop_
 _atom_site_type_symbol
 _atom_site_label
 _atom_site_symmetry_multiplicity
 _atom_site_fract_x
 _atom_site_fract_y
 _atom_site_fract_z
 _atom_site_occupancy
  La  La0  1  0.500000  0.500000  0.000000  1
  Pr  Pr1  1  0.000000  0.000000  0.000000  1
  Pr  Pr2  1  0.675246  0.181860  0.500000  1
  Pr  Pr3  1  0.324754  0.818140  0.500000  1
  Pr  Pr4  1  0.175296  0.318224  0.500000  1
  Pr  Pr5  1  0.824704  0.681776  0.500000  1
  Pr  Pr6  1  0.892583  0.390367  0.500000  1
  Pr  Pr7  1  0.107417  0.609633  0.500000  1
  Pr  Pr8  1  0.392579  0.109712  0.500000  1
  Pr  Pr9  1  0.607421  0.890288  0.500000  1
  Sn  Sn10  1  0.567822  0.070698  0.000000  1
  Sn  Sn11  1  0.432178  0.929302  0.000000  1
  Sn  Sn12  1  0.067830  0.429271  0.000000  1
  Sn  Sn13  1  0.932170  0.570729  0.000000  1
  Sn  Sn14  1  0.651972  0.703567  0.000000  1
  Sn  Sn15  1  0.348028  0.296433  0.000000  1
  Sn  Sn16  1  0.152064  0.796461  0.000000  1
  Sn  Sn17  1  0.847936  0.203539  0.000000  1
  Sn  Sn18  1  0.300259  0.652262  0.000000  1
  Sn  Sn19  1  0.699741  0.347738  0.000000  1
  Sn  Sn20  1  0.199775  0.152272  0.000000  1
  Sn  Sn21  1  0.800225  0.847728  0.000000  1
  Sn  Sn22  1  0.663899  0.504293  0.500000  1
  Sn  Sn23  1  0.336101  0.495707  0.500000  1
  Sn  Sn24  1  0.163783  0.995730  0.500000  1
  Sn  Sn25  1  0.836217  0.004270  0.500000  1
  Sn  Sn26  1  0.496712  0.662459  0.500000  1
  Sn  Sn27  1  0.503288  0.337541  0.500000  1
  Sn  Sn28  1  0.003223  0.162294  0.500000  1
  Sn  Sn29  1  0.996777  0.837706  0.500000  1
  Ir  Ir30  1  0.467741  0.743303  0.000000  1
  Ir  Ir31  1  0.532259  0.256697  0.000000  1
  Ir  Ir32  1  0.032265  0.243115  0.000000  1
  Ir  Ir33  1  0.967735  0.756885  0.000000  1
  Pd  Pd34  1  0.745262  0.531925  0.000000  1
  Pd  Pd35  1  0.254738  0.468075  0.000000  1
  Pd  Pd36  1  0.245086  0.968104  0.000000  1
  Pd  Pd37  1  0.754914  0.031896  0.000000  1
