# generated using pymatgen
data_Y2Lu6Tc3B24Ru
_symmetry_space_group_name_H-M   'P 1'
_cell_length_a   3.62520400
_cell_length_b   9.06813960
_cell_length_c   11.44155501
_cell_angle_alpha   89.91916462
_cell_angle_beta   90.00000000
_cell_angle_gamma   90.00000000
_symmetry_Int_Tables_number   1
_chemical_formula_structural   Y2Lu6Tc3B24Ru
_chemical_formula_sum   'Y2 Lu6 Tc3 B24 Ru1'
_cell_volume   376.12765669
_cell_formula_units_Z   1
loop_
 _symmetry_equiv_pos_site_id
 _symmetry_equiv_pos_as_xyz
  1  'x, y, z'
loop_
 _atom_site_type_symbol
 _atom_site_label
 _atom_site_symmetry_multiplicity
 _atom_site_fract_x
 _atom_site_fract_y
 _atom_site_fract_z
 _atom_site_occupancy
  Y  Y0  1  0.000000  0.322572  0.413757  1
  Y  Y1  1  0.000000  0.676264  0.584440  1
  Lu  Lu2  1  0.000000  0.822494  0.087272  1
  Lu  Lu3  1  0.000000  0.178665  0.914590  1
  Lu  Lu4  1  0.000000  0.942830  0.369941  1
  Lu  Lu5  1  0.000000  0.057501  0.630735  1
  Lu  Lu6  1  0.000000  0.443324  0.129242  1
  Lu  Lu7  1  0.000000  0.557494  0.870127  1
  Tc  Tc8  1  0.000000  0.639459  0.318942  1
  Tc  Tc9  1  0.000000  0.360525  0.681628  1
  Tc  Tc10  1  0.000000  0.137582  0.177711  1
  B  B11  1  0.500000  0.553476  0.432334  1
  B  B12  1  0.500000  0.446191  0.567425  1
  B  B13  1  0.500000  0.052649  0.065818  1
  B  B14  1  0.500000  0.946361  0.933600  1
  B  B15  1  0.500000  0.750396  0.418094  1
  B  B16  1  0.500000  0.248985  0.582119  1
  B  B17  1  0.500000  0.250371  0.080017  1
  B  B18  1  0.500000  0.750489  0.919546  1
  B  B19  1  0.500000  0.793127  0.264300  1
  B  B20  1  0.500000  0.206920  0.736496  1
  B  B21  1  0.500000  0.292310  0.233927  1
  B  B22  1  0.500000  0.708684  0.765868  1
  B  B23  1  0.500000  0.630890  0.183849  1
  B  B24  1  0.500000  0.369198  0.816763  1
  B  B25  1  0.500000  0.129173  0.314155  1
  B  B26  1  0.500000  0.870145  0.685567  1
  B  B27  1  0.500000  0.980366  0.211379  1
  B  B28  1  0.500000  0.018093  0.788688  1
  B  B29  1  0.500000  0.481700  0.286679  1
  B  B30  1  0.500000  0.518209  0.713081  1
  B  B31  1  0.500000  0.601461  0.027681  1
  B  B32  1  0.500000  0.400359  0.972090  1
  B  B33  1  0.500000  0.098945  0.472792  1
  B  B34  1  0.500000  0.900791  0.527974  1
  Ru  Ru35  1  0.000000  0.862001  0.821372  1
