# generated using pymatgen
data_ScNb5Fe2(BRu2)4
_symmetry_space_group_name_H-M   'P 1'
_cell_length_a   9.31166754
_cell_length_b   9.31166754
_cell_length_c   3.05344800
_cell_angle_alpha   90.00000000
_cell_angle_beta   90.00000000
_cell_angle_gamma   90.06585066
_symmetry_Int_Tables_number   1
_chemical_formula_structural   ScNb5Fe2(BRu2)4
_chemical_formula_sum   'Sc1 Nb5 Fe2 B4 Ru8'
_cell_volume   264.75560600
_cell_formula_units_Z   1
loop_
 _symmetry_equiv_pos_site_id
 _symmetry_equiv_pos_as_xyz
  1  'x, y, z'
loop_
 _atom_site_type_symbol
 _atom_site_label
 _atom_site_symmetry_multiplicity
 _atom_site_fract_x
 _atom_site_fract_y
 _atom_site_fract_z
 _atom_site_occupancy
  Sc  Sc0  1  0.825806  0.674194  0.000000  1
  Nb  Nb1  1  0.171320  0.328680  0.000000  1
  Nb  Nb2  1  0.326929  0.827473  0.000000  1
  Nb  Nb3  1  0.672527  0.173071  0.000000  1
  Nb  Nb4  1  0.502425  0.500765  0.000000  1
  Nb  Nb5  1  0.999235  0.997575  0.000000  1
  Fe  Fe6  1  0.498300  0.001700  0.500000  1
  Fe  Fe7  1  0.006203  0.493797  0.500000  1
  B  B8  1  0.612720  0.887280  0.000000  1
  B  B9  1  0.387590  0.112410  0.000000  1
  B  B10  1  0.112273  0.611537  0.000000  1
  B  B11  1  0.888463  0.387727  0.000000  1
  Ru  Ru12  1  0.560827  0.725966  0.500000  1
  Ru  Ru13  1  0.431147  0.277824  0.500000  1
  Ru  Ru14  1  0.072651  0.777148  0.500000  1
  Ru  Ru15  1  0.933945  0.221423  0.500000  1
  Ru  Ru16  1  0.278577  0.566055  0.500000  1
  Ru  Ru17  1  0.722852  0.427349  0.500000  1
  Ru  Ru18  1  0.222176  0.068853  0.500000  1
  Ru  Ru19  1  0.774034  0.939173  0.500000  1
