# generated using pymatgen
data_SmEr2Cr(Co4P3)2
_symmetry_space_group_name_H-M   'P 1'
_cell_length_a   3.69777700
_cell_length_b   10.53772400
_cell_length_c   12.20832200
_cell_angle_alpha   90.00000000
_cell_angle_beta   90.00000000
_cell_angle_gamma   90.00000000
_symmetry_Int_Tables_number   1
_chemical_formula_structural   SmEr2Cr(Co4P3)2
_chemical_formula_sum   'Sm2 Er4 Cr2 Co16 P12'
_cell_volume   475.71134829
_cell_formula_units_Z   2
loop_
 _symmetry_equiv_pos_site_id
 _symmetry_equiv_pos_as_xyz
  1  'x, y, z'
loop_
 _atom_site_type_symbol
 _atom_site_label
 _atom_site_symmetry_multiplicity
 _atom_site_fract_x
 _atom_site_fract_y
 _atom_site_fract_z
 _atom_site_occupancy
  Sm  Sm0  1  0.000000  0.500000  0.523316  1
  Sm  Sm1  1  0.500000  0.000000  0.476684  1
  Er  Er2  1  0.500000  0.817879  0.204298  1
  Er  Er3  1  0.500000  0.182121  0.204298  1
  Er  Er4  1  0.000000  0.682121  0.795702  1
  Er  Er5  1  0.000000  0.317879  0.795702  1
  Cr  Cr6  1  0.500000  0.500000  0.154659  1
  Cr  Cr7  1  0.000000  0.000000  0.845341  1
  Co  Co8  1  0.500000  0.500000  0.704571  1
  Co  Co9  1  0.000000  0.000000  0.295429  1
  Co  Co10  1  0.000000  0.500000  0.987153  1
  Co  Co11  1  0.500000  0.000000  0.012847  1
  Co  Co12  1  0.500000  0.332436  0.992893  1
  Co  Co13  1  0.500000  0.667564  0.992893  1
  Co  Co14  1  0.000000  0.167564  0.007107  1
  Co  Co15  1  0.000000  0.832436  0.007107  1
  Co  Co16  1  0.500000  0.295692  0.429883  1
  Co  Co17  1  0.500000  0.704308  0.429883  1
  Co  Co18  1  0.000000  0.204308  0.570117  1
  Co  Co19  1  0.000000  0.795692  0.570117  1
  Co  Co20  1  0.500000  0.879379  0.710463  1
  Co  Co21  1  0.500000  0.120621  0.710463  1
  Co  Co22  1  0.000000  0.620621  0.289537  1
  Co  Co23  1  0.000000  0.379379  0.289537  1
  P  P24  1  0.500000  0.500000  0.882642  1
  P  P25  1  0.000000  0.000000  0.117358  1
  P  P26  1  0.500000  0.500000  0.342082  1
  P  P27  1  0.000000  0.000000  0.657918  1
  P  P28  1  0.500000  0.309446  0.617464  1
  P  P29  1  0.500000  0.690554  0.617464  1
  P  P30  1  0.000000  0.190554  0.382536  1
  P  P31  1  0.000000  0.809446  0.382536  1
  P  P32  1  0.500000  0.847224  0.892308  1
  P  P33  1  0.500000  0.152776  0.892308  1
  P  P34  1  0.000000  0.652776  0.107692  1
  P  P35  1  0.000000  0.347224  0.107692  1
