# generated using pymatgen
data_CrCd2Rh3O8
_symmetry_space_group_name_H-M   'P 1'
_cell_length_a   6.21626796
_cell_length_b   6.34441890
_cell_length_c   6.34441900
_cell_angle_alpha   59.99999428
_cell_angle_beta   59.31566597
_cell_angle_gamma   59.31566570
_symmetry_Int_Tables_number   1
_chemical_formula_structural   CrCd2Rh3O8
_chemical_formula_sum   'Cr1 Cd2 Rh3 O8'
_cell_volume   175.07651367
_cell_formula_units_Z   1
loop_
 _symmetry_equiv_pos_site_id
 _symmetry_equiv_pos_as_xyz
  1  'x, y, z'
loop_
 _atom_site_type_symbol
 _atom_site_label
 _atom_site_symmetry_multiplicity
 _atom_site_fract_x
 _atom_site_fract_y
 _atom_site_fract_z
 _atom_site_occupancy
  Cr  Cr0  1  0.000000  0.500000  0.500000  1
  Cd  Cd1  1  0.133444  0.122185  0.122185  1
  Cd  Cd2  1  0.866556  0.877815  0.877815  1
  Rh  Rh3  1  0.500000  0.000000  0.500000  1
  Rh  Rh4  1  0.500000  0.500000  0.000000  1
  Rh  Rh5  1  0.500000  0.500000  0.500000  1
  O  O6  1  0.739056  0.729014  0.729014  1
  O  O7  1  0.260944  0.270986  0.697084  1
  O  O8  1  0.260944  0.697084  0.270986  1
  O  O9  1  0.692797  0.269068  0.269068  1
  O  O10  1  0.739056  0.302916  0.729014  1
  O  O11  1  0.307203  0.730932  0.730932  1
  O  O12  1  0.260944  0.270986  0.270986  1
  O  O13  1  0.739056  0.729014  0.302916  1
