# generated using pymatgen
data_K4InSb7Au8
_symmetry_space_group_name_H-M   'P 1'
_cell_length_a   4.84308800
_cell_length_b   9.02282429
_cell_length_c   12.37593792
_cell_angle_alpha   90.00566989
_cell_angle_beta   90.00000000
_cell_angle_gamma   90.00000000
_symmetry_Int_Tables_number   1
_chemical_formula_structural   K4InSb7Au8
_chemical_formula_sum   'K4 In1 Sb7 Au8'
_cell_volume   540.80784189
_cell_formula_units_Z   1
loop_
 _symmetry_equiv_pos_site_id
 _symmetry_equiv_pos_as_xyz
  1  'x, y, z'
loop_
 _atom_site_type_symbol
 _atom_site_label
 _atom_site_symmetry_multiplicity
 _atom_site_fract_x
 _atom_site_fract_y
 _atom_site_fract_z
 _atom_site_occupancy
  K  K0  1  0.750000  0.744350  0.335440  1
  K  K1  1  0.250000  0.759621  0.837178  1
  K  K2  1  0.250000  0.258122  0.661433  1
  K  K3  1  0.750000  0.238766  0.166082  1
  In  In4  1  0.250000  0.390566  0.951275  1
  Sb  Sb5  1  0.250000  0.398456  0.346193  1
  Sb  Sb6  1  0.250000  0.898000  0.155705  1
  Sb  Sb7  1  0.750000  0.605559  0.046573  1
  Sb  Sb8  1  0.750000  0.604603  0.651618  1
  Sb  Sb9  1  0.750000  0.106546  0.850474  1
  Sb  Sb10  1  0.250000  0.894412  0.549400  1
  Sb  Sb11  1  0.750000  0.109063  0.454903  1
  Au  Au12  1  0.250000  0.078098  0.965868  1
  Au  Au13  1  0.750000  0.431281  0.834861  1
  Au  Au14  1  0.750000  0.928387  0.664008  1
  Au  Au15  1  0.250000  0.564660  0.157096  1
  Au  Au16  1  0.250000  0.071351  0.342236  1
  Au  Au17  1  0.750000  0.912000  0.035851  1
  Au  Au18  1  0.250000  0.586129  0.531587  1
  Au  Au19  1  0.750000  0.420030  0.462217  1
