# generated using pymatgen
data_Y12InFe4Cu
_symmetry_space_group_name_H-M   'P 1'
_cell_length_a   8.39057887
_cell_length_b   8.39057903
_cell_length_c   8.39057887
_cell_angle_alpha   110.74331065
_cell_angle_beta   110.98414181
_cell_angle_gamma   106.72082799
_symmetry_Int_Tables_number   1
_chemical_formula_structural   Y12InFe4Cu
_chemical_formula_sum   'Y12 In1 Fe4 Cu1'
_cell_volume   453.94703468
_cell_formula_units_Z   1
loop_
 _symmetry_equiv_pos_site_id
 _symmetry_equiv_pos_as_xyz
  1  'x, y, z'
loop_
 _atom_site_type_symbol
 _atom_site_label
 _atom_site_symmetry_multiplicity
 _atom_site_fract_x
 _atom_site_fract_y
 _atom_site_fract_z
 _atom_site_occupancy
  Y  Y0  1  0.418540  0.219009  0.199531  1
  Y  Y1  1  0.581460  0.780991  0.800469  1
  Y  Y2  1  0.019479  0.219009  0.800469  1
  Y  Y3  1  0.980521  0.780991  0.199531  1
  Y  Y4  1  0.186731  0.288292  0.475023  1
  Y  Y5  1  0.813269  0.711708  0.524977  1
  Y  Y6  1  0.186731  0.711708  0.898439  1
  Y  Y7  1  0.813269  0.288292  0.101561  1
  Y  Y8  1  0.313483  0.614246  0.300764  1
  Y  Y9  1  0.686517  0.385754  0.699236  1
  Y  Y10  1  0.313483  0.012720  0.699236  1
  Y  Y11  1  0.686517  0.987280  0.300764  1
  In  In12  1  0.500000  0.500000  0.000000  1
  Fe  Fe13  1  0.384973  0.000000  0.384973  1
  Fe  Fe14  1  0.615027  0.000000  0.615027  1
  Fe  Fe15  1  0.106869  0.606869  0.500000  1
  Fe  Fe16  1  0.893131  0.393131  0.500000  1
  Cu  Cu17  1  0.000000  0.000000  0.000000  1
