# generated using pymatgen
data_Er2Si3Ge(PRh4)3
_symmetry_space_group_name_H-M   'P 1'
_cell_length_a   9.72194100
_cell_length_b   9.72194035
_cell_length_c   3.83574700
_cell_angle_alpha   90.00000000
_cell_angle_beta   90.00000000
_cell_angle_gamma   119.99999199
_symmetry_Int_Tables_number   1
_chemical_formula_structural   Er2Si3Ge(PRh4)3
_chemical_formula_sum   'Er2 Si3 Ge1 P3 Rh12'
_cell_volume   313.96884415
_cell_formula_units_Z   1
loop_
 _symmetry_equiv_pos_site_id
 _symmetry_equiv_pos_as_xyz
  1  'x, y, z'
loop_
 _atom_site_type_symbol
 _atom_site_label
 _atom_site_symmetry_multiplicity
 _atom_site_fract_x
 _atom_site_fract_y
 _atom_site_fract_z
 _atom_site_occupancy
  Er  Er0  1  0.333333  0.666667  0.739528  1
  Er  Er1  1  0.666667  0.333333  0.239743  1
  Si  Si2  1  0.401666  0.287927  0.739997  1
  Si  Si3  1  0.712073  0.113739  0.739997  1
  Si  Si4  1  0.886261  0.598334  0.739997  1
  Ge  Ge5  1  0.000000  0.000000  0.703623  1
  P  P6  1  0.597146  0.708936  0.239540  1
  P  P7  1  0.291064  0.888210  0.239540  1
  P  P8  1  0.111790  0.402854  0.239540  1
  Rh  Rh9  1  0.447407  0.067789  0.740035  1
  Rh  Rh10  1  0.932211  0.379617  0.740035  1
  Rh  Rh11  1  0.620383  0.552593  0.740035  1
  Rh  Rh12  1  0.551501  0.936019  0.239616  1
  Rh  Rh13  1  0.063981  0.615483  0.239616  1
  Rh  Rh14  1  0.384517  0.448499  0.239616  1
  Rh  Rh15  1  0.154429  0.284174  0.739832  1
  Rh  Rh16  1  0.715826  0.870256  0.739832  1
  Rh  Rh17  1  0.129744  0.845571  0.739832  1
  Rh  Rh18  1  0.857942  0.745123  0.240014  1
  Rh  Rh19  1  0.254877  0.112817  0.240014  1
  Rh  Rh20  1  0.887183  0.142058  0.240014  1
