# generated using pymatgen
data_La8Tm2GaSn5
_symmetry_space_group_name_H-M   'P 1'
_cell_length_a   9.40857533
_cell_length_b   9.40861146
_cell_length_c   9.40857543
_cell_angle_alpha   96.35454885
_cell_angle_beta   96.35326328
_cell_angle_gamma   141.13783770
_symmetry_Int_Tables_number   1
_chemical_formula_structural   La8Tm2GaSn5
_chemical_formula_sum   'La8 Tm2 Ga1 Sn5'
_cell_volume   492.81477983
_cell_formula_units_Z   1
loop_
 _symmetry_equiv_pos_site_id
 _symmetry_equiv_pos_as_xyz
  1  'x, y, z'
loop_
 _atom_site_type_symbol
 _atom_site_label
 _atom_site_symmetry_multiplicity
 _atom_site_fract_x
 _atom_site_fract_y
 _atom_site_fract_z
 _atom_site_occupancy
  La  La0  1  0.906292  0.216631  0.132207  1
  La  La1  1  0.216615  0.084404  0.310355  1
  La  La2  1  0.774044  0.906275  0.689648  1
  La  La3  1  0.084421  0.774070  0.867762  1
  La  La4  1  0.725951  0.415596  0.132210  1
  La  La5  1  0.283373  0.593725  0.867770  1
  La  La6  1  0.593692  0.725930  0.310351  1
  La  La7  1  0.415577  0.283369  0.689661  1
  Tm  Tm8  1  0.750002  0.250000  0.500002  1
  Tm  Tm9  1  0.249999  0.750000  0.499999  1
  Ga  Ga10  1  0.750008  0.750000  0.000008  1
  Sn  Sn11  1  0.250023  0.250000  0.000023  1
  Sn  Sn12  1  0.846775  0.653209  0.499987  1
  Sn  Sn13  1  0.653246  0.153268  0.806474  1
  Sn  Sn14  1  0.346777  0.846791  0.193565  1
  Sn  Sn15  1  0.153206  0.346732  0.499978  1
