# generated using pymatgen
data_YbHo15(ErIr3)4
_symmetry_space_group_name_H-M   'P 1'
_cell_length_a   10.82459117
_cell_length_b   10.84421003
_cell_length_c   6.36151038
_cell_angle_alpha   89.90476340
_cell_angle_beta   90.14650966
_cell_angle_gamma   89.88690158
_symmetry_Int_Tables_number   1
_chemical_formula_structural   YbHo15(ErIr3)4
_chemical_formula_sum   'Yb1 Ho15 Er4 Ir12'
_cell_volume   746.73549252
_cell_formula_units_Z   1
loop_
 _symmetry_equiv_pos_site_id
 _symmetry_equiv_pos_as_xyz
  1  'x, y, z'
loop_
 _atom_site_type_symbol
 _atom_site_label
 _atom_site_symmetry_multiplicity
 _atom_site_fract_x
 _atom_site_fract_y
 _atom_site_fract_z
 _atom_site_occupancy
  Yb  Yb0  1  0.289700  0.087969  0.375797  1
  Ho  Ho1  1  0.291353  0.912132  0.878396  1
  Ho  Ho2  1  0.708351  0.086672  0.878000  1
  Ho  Ho3  1  0.708658  0.912512  0.378140  1
  Ho  Ho4  1  0.587787  0.792067  0.877826  1
  Ho  Ho5  1  0.586581  0.208536  0.377956  1
  Ho  Ho6  1  0.411862  0.792277  0.377973  1
  Ho  Ho7  1  0.412534  0.208439  0.878502  1
  Ho  Ho8  1  0.208822  0.412496  0.622594  1
  Ho  Ho9  1  0.209407  0.587624  0.122083  1
  Ho  Ho10  1  0.791097  0.411988  0.121836  1
  Ho  Ho11  1  0.791234  0.587662  0.621817  1
  Ho  Ho12  1  0.912532  0.708984  0.122303  1
  Ho  Ho13  1  0.911978  0.290841  0.622573  1
  Ho  Ho14  1  0.087786  0.708885  0.621680  1
  Ho  Ho15  1  0.088383  0.290762  0.121180  1
  Er  Er16  1  0.001166  0.000145  0.499698  1
  Er  Er17  1  0.999635  0.000253  0.999245  1
  Er  Er18  1  0.499932  0.500103  0.999855  1
  Er  Er19  1  0.499816  0.500180  0.499190  1
  Ir  Ir20  1  0.847594  0.153047  0.250359  1
  Ir  Ir21  1  0.847930  0.847059  0.749622  1
  Ir  Ir22  1  0.151328  0.153757  0.755814  1
  Ir  Ir23  1  0.150891  0.843561  0.247634  1
  Ir  Ir24  1  0.652448  0.346993  0.749921  1
  Ir  Ir25  1  0.652653  0.653021  0.250349  1
  Ir  Ir26  1  0.347902  0.350655  0.248325  1
  Ir  Ir27  1  0.346966  0.653259  0.749557  1
  Ir  Ir28  1  0.501333  0.999543  0.122047  1
  Ir  Ir29  1  0.502109  0.999063  0.623844  1
  Ir  Ir30  1  0.000162  0.499891  0.878008  1
  Ir  Ir31  1  0.000069  0.499623  0.377875  1
