# generated using pymatgen
data_Dy15TmZnIn3Rh4
_symmetry_space_group_name_H-M   'P 1'
_cell_length_a   9.61714693
_cell_length_b   9.61954451
_cell_length_c   9.61780452
_cell_angle_alpha   59.96887045
_cell_angle_beta   60.00226175
_cell_angle_gamma   60.00824821
_symmetry_Int_Tables_number   1
_chemical_formula_structural   Dy15TmZnIn3Rh4
_chemical_formula_sum   'Dy15 Tm1 Zn1 In3 Rh4'
_cell_volume   629.06265431
_cell_formula_units_Z   1
loop_
 _symmetry_equiv_pos_site_id
 _symmetry_equiv_pos_as_xyz
  1  'x, y, z'
loop_
 _atom_site_type_symbol
 _atom_site_label
 _atom_site_symmetry_multiplicity
 _atom_site_fract_x
 _atom_site_fract_y
 _atom_site_fract_z
 _atom_site_occupancy
  Dy  Dy0  1  0.688667  0.689086  0.311879  1
  Dy  Dy1  1  0.310368  0.689086  0.311879  1
  Dy  Dy2  1  0.936652  0.937412  0.556877  1
  Dy  Dy3  1  0.150096  0.148988  0.550819  1
  Dy  Dy4  1  0.569059  0.937412  0.556877  1
  Dy  Dy5  1  0.149497  0.148886  0.149972  1
  Dy  Dy6  1  0.310074  0.310739  0.689970  1
  Dy  Dy7  1  0.937441  0.567819  0.557299  1
  Dy  Dy8  1  0.563527  0.562584  0.936159  1
  Dy  Dy9  1  0.563705  0.937643  0.934947  1
  Dy  Dy10  1  0.937730  0.562584  0.936159  1
  Dy  Dy11  1  0.148892  0.553114  0.149100  1
  Dy  Dy12  1  0.310154  0.689647  0.690046  1
  Dy  Dy13  1  0.689218  0.310739  0.689970  1
  Dy  Dy14  1  0.551642  0.148886  0.149972  1
  Tm  Tm15  1  0.689320  0.310688  0.310671  1
  Zn  Zn16  1  0.916106  0.916731  0.251057  1
  In  In17  1  0.244110  0.917128  0.921965  1
  In  In18  1  0.916627  0.244368  0.922378  1
  In  In19  1  0.916796  0.917128  0.921965  1
  Rh  Rh20  1  0.358827  0.357181  0.356607  1
  Rh  Rh21  1  0.927388  0.357181  0.356607  1
  Rh  Rh22  1  0.356679  0.357001  0.929641  1
  Rh  Rh23  1  0.357425  0.927968  0.357184  1
