# generated using pymatgen
data_DyHoZr4(SnRh)6
_symmetry_space_group_name_H-M   'P 1'
_cell_length_a   7.50902885
_cell_length_b   7.51384322
_cell_length_c   7.35766600
_cell_angle_alpha   90.00000000
_cell_angle_beta   90.00000000
_cell_angle_gamma   119.90771921
_symmetry_Int_Tables_number   1
_chemical_formula_structural   DyHoZr4(SnRh)6
_chemical_formula_sum   'Dy1 Ho1 Zr4 Sn6 Rh6'
_cell_volume   359.84849835
_cell_formula_units_Z   1
loop_
 _symmetry_equiv_pos_site_id
 _symmetry_equiv_pos_as_xyz
  1  'x, y, z'
loop_
 _atom_site_type_symbol
 _atom_site_label
 _atom_site_symmetry_multiplicity
 _atom_site_fract_x
 _atom_site_fract_y
 _atom_site_fract_z
 _atom_site_occupancy
  Dy  Dy0  1  0.596377  0.999799  0.250000  1
  Ho  Ho1  1  0.404280  0.401836  0.250000  1
  Zr  Zr2  1  0.608836  0.002586  0.750000  1
  Zr  Zr3  1  0.390299  0.395237  0.750000  1
  Zr  Zr4  1  0.001186  0.603400  0.750000  1
  Zr  Zr5  1  0.001814  0.601328  0.250000  1
  Sn  Sn6  1  0.267178  0.000008  0.992034  1
  Sn  Sn7  1  0.733169  0.731546  0.506926  1
  Sn  Sn8  1  0.999682  0.268288  0.496795  1
  Sn  Sn9  1  0.999682  0.268288  0.003205  1
  Sn  Sn10  1  0.733169  0.731546  0.993074  1
  Sn  Sn11  1  0.267178  0.000008  0.507966  1
  Rh  Rh12  1  0.670118  0.336073  0.973007  1
  Rh  Rh13  1  0.670118  0.336073  0.526993  1
  Rh  Rh14  1  0.328584  0.665634  0.977539  1
  Rh  Rh15  1  0.328584  0.665634  0.522461  1
  Rh  Rh16  1  0.999291  0.003908  0.750000  1
  Rh  Rh17  1  0.000457  0.988808  0.250000  1
