# generated using pymatgen
data_Ca2ScTcO6
_symmetry_space_group_name_H-M   'P 1'
_cell_length_a   5.67343600
_cell_length_b   5.49016323
_cell_length_c   9.59528335
_cell_angle_alpha   54.95169804
_cell_angle_beta   90.00000000
_cell_angle_gamma   90.00000000
_symmetry_Int_Tables_number   1
_chemical_formula_structural   Ca2ScTcO6
_chemical_formula_sum   'Ca4 Sc2 Tc2 O12'
_cell_volume   244.67925454
_cell_formula_units_Z   2
loop_
 _symmetry_equiv_pos_site_id
 _symmetry_equiv_pos_as_xyz
  1  'x, y, z'
loop_
 _atom_site_type_symbol
 _atom_site_label
 _atom_site_symmetry_multiplicity
 _atom_site_fract_x
 _atom_site_fract_y
 _atom_site_fract_z
 _atom_site_occupancy
  Ca  Ca0  1  0.446184  0.235306  0.750941  1
  Ca  Ca1  1  0.553816  0.764694  0.249059  1
  Ca  Ca2  1  0.946184  0.764694  0.749059  1
  Ca  Ca3  1  0.053816  0.235306  0.250941  1
  Sc  Sc4  1  0.000000  0.000000  0.000000  1
  Sc  Sc5  1  0.500000  0.000000  0.500000  1
  Tc  Tc6  1  0.000000  0.500000  0.500000  1
  Tc  Tc7  1  0.500000  0.500000  0.000000  1
  O  O8  1  0.031963  0.353778  0.742115  1
  O  O9  1  0.968037  0.646222  0.257885  1
  O  O10  1  0.531963  0.646222  0.757885  1
  O  O11  1  0.468037  0.353778  0.242115  1
  O  O12  1  0.697326  0.839592  0.950728  1
  O  O13  1  0.302674  0.160408  0.049272  1
  O  O14  1  0.197326  0.160408  0.549272  1
  O  O15  1  0.802674  0.839592  0.450728  1
  O  O16  1  0.212010  0.745290  0.947528  1
  O  O17  1  0.787990  0.254710  0.052472  1
  O  O18  1  0.712010  0.254710  0.552472  1
  O  O19  1  0.287990  0.745290  0.447528  1
