# generated using pymatgen
data_Tm16CdCo4Hg3
_symmetry_space_group_name_H-M   'P 1'
_cell_length_a   9.35815751
_cell_length_b   9.36222280
_cell_length_c   9.35815700
_cell_angle_alpha   60.01436121
_cell_angle_beta   59.99999828
_cell_angle_gamma   60.01436382
_symmetry_Int_Tables_number   1
_chemical_formula_structural   Tm16CdCo4Hg3
_chemical_formula_sum   'Tm16 Cd1 Co4 Hg3'
_cell_volume   579.88101880
_cell_formula_units_Z   1
loop_
 _symmetry_equiv_pos_site_id
 _symmetry_equiv_pos_as_xyz
  1  'x, y, z'
loop_
 _atom_site_type_symbol
 _atom_site_label
 _atom_site_symmetry_multiplicity
 _atom_site_fract_x
 _atom_site_fract_y
 _atom_site_fract_z
 _atom_site_occupancy
  Tm  Tm0  1  0.438016  0.437249  0.062367  1
  Tm  Tm1  1  0.596916  0.597408  0.596916  1
  Tm  Tm2  1  0.188531  0.811094  0.811843  1
  Tm  Tm3  1  0.061693  0.061347  0.438480  1
  Tm  Tm4  1  0.438480  0.061347  0.061693  1
  Tm  Tm5  1  0.811763  0.187479  0.811763  1
  Tm  Tm6  1  0.438480  0.061347  0.438480  1
  Tm  Tm7  1  0.597917  0.206250  0.597917  1
  Tm  Tm8  1  0.811843  0.811094  0.188531  1
  Tm  Tm9  1  0.208760  0.597408  0.596916  1
  Tm  Tm10  1  0.811763  0.187479  0.188996  1
  Tm  Tm11  1  0.062367  0.437249  0.438016  1
  Tm  Tm12  1  0.188531  0.811094  0.188531  1
  Tm  Tm13  1  0.596916  0.597408  0.208760  1
  Tm  Tm14  1  0.188996  0.187479  0.811763  1
  Tm  Tm15  1  0.062367  0.437249  0.062367  1
  Cd  Cd16  1  0.829516  0.511451  0.829516  1
  Co  Co17  1  0.391480  0.390921  0.391480  1
  Co  Co18  1  0.826120  0.390921  0.391480  1
  Co  Co19  1  0.391332  0.826006  0.391332  1
  Co  Co20  1  0.391480  0.390921  0.826120  1
  Hg  Hg21  1  0.834589  0.833265  0.497556  1
  Hg  Hg22  1  0.834589  0.833265  0.834589  1
  Hg  Hg23  1  0.497556  0.833265  0.834589  1
