# generated using pymatgen
data_Sr6BiIO12
_symmetry_space_group_name_H-M   'P 1'
_cell_length_a   7.03158031
_cell_length_b   7.03158132
_cell_length_c   7.03158075
_cell_angle_alpha   91.84601475
_cell_angle_beta   91.84600540
_cell_angle_gamma   91.84600626
_symmetry_Int_Tables_number   1
_chemical_formula_structural   Sr6BiIO12
_chemical_formula_sum   'Sr6 Bi1 I1 O12'
_cell_volume   347.11013496
_cell_formula_units_Z   1
loop_
 _symmetry_equiv_pos_site_id
 _symmetry_equiv_pos_as_xyz
  1  'x, y, z'
loop_
 _atom_site_type_symbol
 _atom_site_label
 _atom_site_symmetry_multiplicity
 _atom_site_fract_x
 _atom_site_fract_y
 _atom_site_fract_z
 _atom_site_occupancy
  Sr  Sr0  1  0.057686  0.251591  0.564948  1
  Sr  Sr1  1  0.435052  0.942314  0.748409  1
  Sr  Sr2  1  0.748409  0.435052  0.942314  1
  Sr  Sr3  1  0.251591  0.564948  0.057686  1
  Sr  Sr4  1  0.564948  0.057686  0.251591  1
  Sr  Sr5  1  0.942314  0.748409  0.435052  1
  Bi  Bi6  1  0.000000  0.000000  0.000000  1
  I  I7  1  0.500000  0.500000  0.500000  1
  O  O8  1  0.066320  0.292378  0.928360  1
  O  O9  1  0.071640  0.933680  0.707622  1
  O  O10  1  0.456179  0.571272  0.760561  1
  O  O11  1  0.707622  0.071640  0.933680  1
  O  O12  1  0.239439  0.543821  0.428728  1
  O  O13  1  0.428728  0.239439  0.543821  1
  O  O14  1  0.571272  0.760561  0.456179  1
  O  O15  1  0.760561  0.456179  0.571272  1
  O  O16  1  0.292378  0.928360  0.066320  1
  O  O17  1  0.543821  0.428728  0.239439  1
  O  O18  1  0.928360  0.066320  0.292378  1
  O  O19  1  0.933680  0.707622  0.071640  1
