# generated using pymatgen
data_Hf4In2CoCu3
_symmetry_space_group_name_H-M   'P 1'
_cell_length_a   7.18679800
_cell_length_b   7.18679800
_cell_length_c   6.76803410
_cell_angle_alpha   90.09070169
_cell_angle_beta   90.09070169
_cell_angle_gamma   90.55775098
_symmetry_Int_Tables_number   1
_chemical_formula_structural   Hf4In2CoCu3
_chemical_formula_sum   'Hf8 In4 Co2 Cu6'
_cell_volume   349.55195678
_cell_formula_units_Z   2
loop_
 _symmetry_equiv_pos_site_id
 _symmetry_equiv_pos_as_xyz
  1  'x, y, z'
loop_
 _atom_site_type_symbol
 _atom_site_label
 _atom_site_symmetry_multiplicity
 _atom_site_fract_x
 _atom_site_fract_y
 _atom_site_fract_z
 _atom_site_occupancy
  Hf  Hf0  1  0.155734  0.155734  0.009896  1
  Hf  Hf1  1  0.844266  0.844266  0.990104  1
  Hf  Hf2  1  0.648026  0.351974  0.500000  1
  Hf  Hf3  1  0.351974  0.648026  0.500000  1
  Hf  Hf4  1  0.676125  0.323875  0.000000  1
  Hf  Hf5  1  0.323875  0.676125  0.000000  1
  Hf  Hf6  1  0.806018  0.806018  0.509362  1
  Hf  Hf7  1  0.193982  0.193982  0.490638  1
  In  In8  1  0.502012  0.003024  0.248397  1
  In  In9  1  0.497988  0.996976  0.751603  1
  In  In10  1  0.003024  0.502012  0.248397  1
  In  In11  1  0.996976  0.497988  0.751603  1
  Co  Co12  1  0.376732  0.376732  0.225656  1
  Co  Co13  1  0.623268  0.623268  0.774344  1
  Cu  Cu14  1  0.629198  0.629198  0.209000  1
  Cu  Cu15  1  0.877954  0.125537  0.709993  1
  Cu  Cu16  1  0.874463  0.122046  0.290007  1
  Cu  Cu17  1  0.370802  0.370802  0.791000  1
  Cu  Cu18  1  0.122046  0.874463  0.290007  1
  Cu  Cu19  1  0.125537  0.877954  0.709993  1
