# generated using pymatgen
data_Pr5Ho5(InSb)4
_symmetry_space_group_name_H-M   'P 1'
_cell_length_a   9.18367817
_cell_length_b   8.54154686
_cell_length_c   8.19206900
_cell_angle_alpha   90.20104266
_cell_angle_beta   90.40388287
_cell_angle_gamma   125.42524671
_symmetry_Int_Tables_number   1
_chemical_formula_structural   Pr5Ho5(InSb)4
_chemical_formula_sum   'Pr5 Ho5 In4 Sb4'
_cell_volume   523.60860199
_cell_formula_units_Z   1
loop_
 _symmetry_equiv_pos_site_id
 _symmetry_equiv_pos_as_xyz
  1  'x, y, z'
loop_
 _atom_site_type_symbol
 _atom_site_label
 _atom_site_symmetry_multiplicity
 _atom_site_fract_x
 _atom_site_fract_y
 _atom_site_fract_z
 _atom_site_occupancy
  Pr  Pr0  1  0.052172  0.352834  0.321439  1
  Pr  Pr1  1  0.946533  0.646775  0.678882  1
  Pr  Pr2  1  0.447469  0.148133  0.819094  1
  Pr  Pr3  1  0.783883  0.516440  0.164129  1
  Pr  Pr4  1  0.554769  0.855665  0.180595  1
  Ho  Ho5  1  0.220507  0.484954  0.837955  1
  Ho  Ho6  1  0.719312  0.981021  0.660845  1
  Ho  Ho7  1  0.276005  0.013760  0.338739  1
  Ho  Ho8  1  0.002526  0.001239  0.998176  1
  Ho  Ho9  1  0.497069  0.498748  0.501183  1
  In  In10  1  0.369569  0.375541  0.128347  1
  In  In11  1  0.625587  0.625388  0.870123  1
  In  In12  1  0.127557  0.125737  0.628722  1
  In  In13  1  0.873175  0.878967  0.373513  1
  Sb  Sb14  1  0.824963  0.228151  0.963054  1
  Sb  Sb15  1  0.185443  0.773798  0.029157  1
  Sb  Sb16  1  0.671876  0.260119  0.472317  1
  Sb  Sb17  1  0.321588  0.732731  0.533731  1
