# generated using pymatgen
data_Zr2Tl(H6Ru)2
_symmetry_space_group_name_H-M   'P 1'
_cell_length_a   4.59446900
_cell_length_b   4.59447023
_cell_length_c   9.22948500
_cell_angle_alpha   90.00000000
_cell_angle_beta   90.00000000
_cell_angle_gamma   119.99999836
_symmetry_Int_Tables_number   1
_chemical_formula_structural   Zr2Tl(H6Ru)2
_chemical_formula_sum   'Zr2 Tl1 H12 Ru2'
_cell_volume   168.72478151
_cell_formula_units_Z   1
loop_
 _symmetry_equiv_pos_site_id
 _symmetry_equiv_pos_as_xyz
  1  'x, y, z'
loop_
 _atom_site_type_symbol
 _atom_site_label
 _atom_site_symmetry_multiplicity
 _atom_site_fract_x
 _atom_site_fract_y
 _atom_site_fract_z
 _atom_site_occupancy
  Zr  Zr0  1  0.666667  0.333333  0.376711  1
  Zr  Zr1  1  0.333333  0.666667  0.623289  1
  Tl  Tl2  1  0.000000  0.000000  0.000000  1
  H  H3  1  0.156083  0.843917  0.403938  1
  H  H4  1  0.687833  0.843917  0.403938  1
  H  H5  1  0.156083  0.312167  0.403938  1
  H  H6  1  0.843917  0.156083  0.596062  1
  H  H7  1  0.312167  0.156083  0.596062  1
  H  H8  1  0.843917  0.687833  0.596062  1
  H  H9  1  0.493097  0.986194  0.810669  1
  H  H10  1  0.493097  0.506903  0.810669  1
  H  H11  1  0.013806  0.506903  0.810669  1
  H  H12  1  0.506903  0.013806  0.189331  1
  H  H13  1  0.506903  0.493097  0.189331  1
  H  H14  1  0.986194  0.493097  0.189331  1
  Ru  Ru15  1  0.666667  0.333333  0.701149  1
  Ru  Ru16  1  0.333333  0.666667  0.298851  1
