# generated using pymatgen
data_La5SmIn8HgCl
_symmetry_space_group_name_H-M   'P 1'
_cell_length_a   8.61644015
_cell_length_b   8.61644123
_cell_length_c   8.61644135
_cell_angle_alpha   119.47179031
_cell_angle_beta   119.47179369
_cell_angle_gamma   90.91735712
_symmetry_Int_Tables_number   1
_chemical_formula_structural   La5SmIn8HgCl
_chemical_formula_sum   'La5 Sm1 In8 Hg1 Cl1'
_cell_volume   455.89204811
_cell_formula_units_Z   1
loop_
 _symmetry_equiv_pos_site_id
 _symmetry_equiv_pos_as_xyz
  1  'x, y, z'
loop_
 _atom_site_type_symbol
 _atom_site_label
 _atom_site_symmetry_multiplicity
 _atom_site_fract_x
 _atom_site_fract_y
 _atom_site_fract_z
 _atom_site_occupancy
  La  La0  1  0.236666  0.236666  0.000000  1
  La  La1  1  0.329894  0.847827  0.179334  1
  La  La2  1  0.668492  0.150559  0.820666  1
  La  La3  1  0.847827  0.668492  0.517932  1
  La  La4  1  0.150559  0.329894  0.482068  1
  Sm  Sm5  1  0.765589  0.765589  0.000000  1
  In  In6  1  0.967490  0.452499  0.789305  1
  In  In7  1  0.663193  0.178185  0.210695  1
  In  In8  1  0.452499  0.663193  0.485010  1
  In  In9  1  0.178185  0.967490  0.514990  1
  In  In10  1  0.028171  0.548107  0.208190  1
  In  In11  1  0.339917  0.819981  0.791810  1
  In  In12  1  0.548107  0.339917  0.519935  1
  In  In13  1  0.819981  0.028171  0.480065  1
  Hg  Hg14  1  0.506293  0.506293  0.000000  1
  Cl  Cl15  1  0.997141  0.997141  0.000000  1
