# generated using pymatgen
data_NdGeF7
_symmetry_space_group_name_H-M   'P 1'
_cell_length_a   5.55186900
_cell_length_b   8.96255701
_cell_length_c   11.96254636
_cell_angle_alpha   61.99812007
_cell_angle_beta   90.00000000
_cell_angle_gamma   90.00000000
_symmetry_Int_Tables_number   1
_chemical_formula_structural   NdGeF7
_chemical_formula_sum   'Nd4 Ge4 F28'
_cell_volume   525.55978362
_cell_formula_units_Z   4
loop_
 _symmetry_equiv_pos_site_id
 _symmetry_equiv_pos_as_xyz
  1  'x, y, z'
loop_
 _atom_site_type_symbol
 _atom_site_label
 _atom_site_symmetry_multiplicity
 _atom_site_fract_x
 _atom_site_fract_y
 _atom_site_fract_z
 _atom_site_occupancy
  Nd  Nd0  1  0.759482  0.807561  0.764795  1
  Nd  Nd1  1  0.259482  0.192439  0.735205  1
  Nd  Nd2  1  0.240518  0.192439  0.235205  1
  Nd  Nd3  1  0.740518  0.807561  0.264795  1
  Ge  Ge4  1  0.757390  0.273715  0.957275  1
  Ge  Ge5  1  0.257390  0.726285  0.542725  1
  Ge  Ge6  1  0.242610  0.726285  0.042725  1
  Ge  Ge7  1  0.742610  0.273715  0.457275  1
  F  F8  1  0.426583  0.706466  0.923980  1
  F  F9  1  0.926583  0.293534  0.576020  1
  F  F10  1  0.573417  0.293534  0.076020  1
  F  F11  1  0.073417  0.706466  0.423980  1
  F  F12  1  0.462317  0.280994  0.536834  1
  F  F13  1  0.962317  0.719006  0.963166  1
  F  F14  1  0.537683  0.719006  0.463166  1
  F  F15  1  0.037683  0.280994  0.036834  1
  F  F16  1  0.772661  0.503871  0.865551  1
  F  F17  1  0.272661  0.496129  0.634449  1
  F  F18  1  0.227339  0.496129  0.134449  1
  F  F19  1  0.727339  0.503871  0.365551  1
  F  F20  1  0.758762  0.043733  0.045206  1
  F  F21  1  0.258762  0.956267  0.454794  1
  F  F22  1  0.241238  0.956267  0.954794  1
  F  F23  1  0.741238  0.043733  0.545206  1
  F  F24  1  0.986321  0.726582  0.629596  1
  F  F25  1  0.486321  0.273418  0.870404  1
  F  F26  1  0.013679  0.273418  0.370404  1
  F  F27  1  0.513679  0.726582  0.129596  1
  F  F28  1  0.061698  0.740129  0.166444  1
  F  F29  1  0.561698  0.259871  0.333556  1
  F  F30  1  0.938302  0.259871  0.833556  1
  F  F31  1  0.438302  0.740129  0.666444  1
  F  F32  1  0.400984  0.966713  0.226619  1
  F  F33  1  0.900984  0.033287  0.273381  1
  F  F34  1  0.599016  0.033287  0.773381  1
  F  F35  1  0.099016  0.966713  0.726619  1
