# generated using pymatgen
data_Ti2Tc4Ge2B
_symmetry_space_group_name_H-M   'P 1'
_cell_length_a   6.72826989
_cell_length_b   6.86754847
_cell_length_c   3.12565500
_cell_angle_alpha   90.00000000
_cell_angle_beta   90.00000000
_cell_angle_gamma   120.68717091
_symmetry_Int_Tables_number   1
_chemical_formula_structural   Ti2Tc4Ge2B
_chemical_formula_sum   'Ti2 Tc4 Ge2 B1'
_cell_volume   124.20175835
_cell_formula_units_Z   1
loop_
 _symmetry_equiv_pos_site_id
 _symmetry_equiv_pos_as_xyz
  1  'x, y, z'
loop_
 _atom_site_type_symbol
 _atom_site_label
 _atom_site_symmetry_multiplicity
 _atom_site_fract_x
 _atom_site_fract_y
 _atom_site_fract_z
 _atom_site_occupancy
  Ti  Ti0  1  0.624800  0.613850  0.500000  1
  Ti  Ti1  1  0.375200  0.989049  0.500000  1
  Tc  Tc2  1  0.000000  0.760043  0.000000  1
  Tc  Tc3  1  0.242128  0.239989  0.000000  1
  Tc  Tc4  1  0.757872  0.997861  0.000000  1
  Tc  Tc5  1  0.000000  0.405472  0.500000  1
  Ge  Ge6  1  0.334431  0.660459  0.000000  1
  Ge  Ge7  1  0.665569  0.326027  0.000000  1
  B  B8  1  0.000000  0.007251  0.500000  1
