# generated using pymatgen
data_HoLu3Hf3O12
_symmetry_space_group_name_H-M   'P 1'
_cell_length_a   6.26185692
_cell_length_b   6.30178165
_cell_length_c   6.47899835
_cell_angle_alpha   99.86899882
_cell_angle_beta   98.73095041
_cell_angle_gamma   99.49678900
_symmetry_Int_Tables_number   1
_chemical_formula_structural   HoLu3Hf3O12
_chemical_formula_sum   'Ho1 Lu3 Hf3 O12'
_cell_volume   244.12821436
_cell_formula_units_Z   1
loop_
 _symmetry_equiv_pos_site_id
 _symmetry_equiv_pos_as_xyz
  1  'x, y, z'
loop_
 _atom_site_type_symbol
 _atom_site_label
 _atom_site_symmetry_multiplicity
 _atom_site_fract_x
 _atom_site_fract_y
 _atom_site_fract_z
 _atom_site_occupancy
  Ho  Ho0  1  0.305022  0.134575  0.611755  1
  Lu  Lu1  1  0.388565  0.700015  0.867114  1
  Lu  Lu2  1  0.693455  0.864744  0.388132  1
  Lu  Lu3  1  0.612796  0.302089  0.134193  1
  Hf  Hf4  1  0.998452  0.998924  0.999409  1
  Hf  Hf5  1  0.848459  0.397438  0.668484  1
  Hf  Hf6  1  0.151240  0.603185  0.329279  1
  O  O7  1  0.028629  0.678567  0.883161  1
  O  O8  1  0.683378  0.929526  0.059207  1
  O  O9  1  0.917105  0.082935  0.693098  1
  O  O10  1  0.972116  0.321184  0.117407  1
  O  O11  1  0.316822  0.069663  0.945669  1
  O  O12  1  0.078985  0.913711  0.305202  1
  O  O13  1  0.589055  0.187633  0.429811  1
  O  O14  1  0.171373  0.430787  0.575455  1
  O  O15  1  0.414386  0.582472  0.177312  1
  O  O16  1  0.417200  0.808983  0.568056  1
  O  O17  1  0.825335  0.573456  0.424128  1
  O  O18  1  0.587629  0.420115  0.823128  1
