# generated using pymatgen
data_Li8Ac7HoSi8
_symmetry_space_group_name_H-M   'P 1'
_cell_length_a   9.24748000
_cell_length_b   9.24747948
_cell_length_c   7.87624200
_cell_angle_alpha   90.00000000
_cell_angle_beta   90.00000000
_cell_angle_gamma   120.00000186
_symmetry_Int_Tables_number   1
_chemical_formula_structural   Li8Ac7HoSi8
_chemical_formula_sum   'Li8 Ac7 Ho1 Si8'
_cell_volume   583.30601122
_cell_formula_units_Z   1
loop_
 _symmetry_equiv_pos_site_id
 _symmetry_equiv_pos_as_xyz
  1  'x, y, z'
loop_
 _atom_site_type_symbol
 _atom_site_label
 _atom_site_symmetry_multiplicity
 _atom_site_fract_x
 _atom_site_fract_y
 _atom_site_fract_z
 _atom_site_occupancy
  Li  Li0  1  0.164896  0.329794  0.277367  1
  Li  Li1  1  0.164896  0.835104  0.277367  1
  Li  Li2  1  0.670206  0.835104  0.277367  1
  Li  Li3  1  0.836796  0.673590  0.797965  1
  Li  Li4  1  0.836796  0.163204  0.797965  1
  Li  Li5  1  0.326410  0.163204  0.797965  1
  Li  Li6  1  0.333333  0.666667  0.671252  1
  Li  Li7  1  0.666667  0.333333  0.161548  1
  Ac  Ac8  1  0.512796  0.025591  0.496660  1
  Ac  Ac9  1  0.512796  0.487204  0.496660  1
  Ac  Ac10  1  0.974409  0.487204  0.496660  1
  Ac  Ac11  1  0.486502  0.973005  0.995643  1
  Ac  Ac12  1  0.486502  0.513498  0.995643  1
  Ac  Ac13  1  0.026995  0.513498  0.995643  1
  Ac  Ac14  1  0.000000  0.000000  0.505537  1
  Ho  Ho15  1  0.000000  0.000000  0.011979  1
  Si  Si16  1  0.164857  0.329715  0.730054  1
  Si  Si17  1  0.164857  0.835143  0.730054  1
  Si  Si18  1  0.670285  0.835143  0.730054  1
  Si  Si19  1  0.838241  0.676482  0.211516  1
  Si  Si20  1  0.838241  0.161759  0.211516  1
  Si  Si21  1  0.323518  0.161759  0.211516  1
  Si  Si22  1  0.333333  0.666667  0.286290  1
  Si  Si23  1  0.666667  0.333333  0.777752  1
