# generated using pymatgen
data_Cs3LuSb2
_symmetry_space_group_name_H-M   'P 1'
_cell_length_a   10.50447711
_cell_length_b   10.50447755
_cell_length_c   10.50447807
_cell_angle_alpha   127.50896812
_cell_angle_beta   70.29743213
_cell_angle_gamma   136.74003895
_symmetry_Int_Tables_number   1
_chemical_formula_structural   Cs3LuSb2
_chemical_formula_sum   'Cs6 Lu2 Sb4'
_cell_volume   617.96177321
_cell_formula_units_Z   2
loop_
 _symmetry_equiv_pos_site_id
 _symmetry_equiv_pos_as_xyz
  1  'x, y, z'
loop_
 _atom_site_type_symbol
 _atom_site_label
 _atom_site_symmetry_multiplicity
 _atom_site_fract_x
 _atom_site_fract_y
 _atom_site_fract_z
 _atom_site_occupancy
  Cs  Cs0  1  0.813977  0.198869  0.012846  1
  Cs  Cs1  1  0.686023  0.698869  0.384892  1
  Cs  Cs2  1  0.750000  0.250000  0.500000  1
  Cs  Cs3  1  0.250000  0.750000  0.500000  1
  Cs  Cs4  1  0.313977  0.301131  0.615108  1
  Cs  Cs5  1  0.186023  0.801131  0.987154  1
  Lu  Lu6  1  0.250000  0.250000  0.000000  1
  Lu  Lu7  1  0.750000  0.750000  0.000000  1
  Sb  Sb8  1  0.407406  0.682756  0.090161  1
  Sb  Sb9  1  0.092594  0.182756  0.275349  1
  Sb  Sb10  1  0.907406  0.817244  0.724651  1
  Sb  Sb11  1  0.592594  0.317244  0.909839  1
