# generated using pymatgen
data_TaFeOsF12
_symmetry_space_group_name_H-M   'P 1'
_cell_length_a   5.30817018
_cell_length_b   5.67652112
_cell_length_c   9.28327654
_cell_angle_alpha   105.26597155
_cell_angle_beta   90.59467671
_cell_angle_gamma   118.77790935
_symmetry_Int_Tables_number   1
_chemical_formula_structural   TaFeOsF12
_chemical_formula_sum   'Ta1 Fe1 Os1 F12'
_cell_volume   233.39253667
_cell_formula_units_Z   1
loop_
 _symmetry_equiv_pos_site_id
 _symmetry_equiv_pos_as_xyz
  1  'x, y, z'
loop_
 _atom_site_type_symbol
 _atom_site_label
 _atom_site_symmetry_multiplicity
 _atom_site_fract_x
 _atom_site_fract_y
 _atom_site_fract_z
 _atom_site_occupancy
  Ta  Ta0  1  0.223818  0.493781  0.737159  1
  Fe  Fe1  1  0.005678  0.000357  0.000840  1
  Os  Os2  1  0.773448  0.499297  0.253797  1
  F  F3  1  0.817679  0.265073  0.704923  1
  F  F4  1  0.179397  0.731559  0.300793  1
  F  F5  1  0.180900  0.749662  0.923726  1
  F  F6  1  0.712517  0.723957  0.420038  1
  F  F7  1  0.295743  0.276498  0.573367  1
  F  F8  1  0.777607  0.268197  0.364353  1
  F  F9  1  0.221049  0.737416  0.636169  1
  F  F10  1  0.350203  0.252928  0.187618  1
  F  F11  1  0.644007  0.743916  0.821861  1
  F  F12  1  0.764345  0.727445  0.128974  1
  F  F13  1  0.231111  0.276588  0.873191  1
  F  F14  1  0.822498  0.253325  0.073191  1
