# generated using pymatgen
data_Er6Al2Ga(FeOs2)3
_symmetry_space_group_name_H-M   'P 1'
_cell_length_a   5.25434363
_cell_length_b   5.28573553
_cell_length_c   13.02963039
_cell_angle_alpha   90.26205617
_cell_angle_beta   90.12300713
_cell_angle_gamma   119.85941181
_symmetry_Int_Tables_number   1
_chemical_formula_structural   Er6Al2Ga(FeOs2)3
_chemical_formula_sum   'Er6 Al2 Ga1 Fe3 Os6'
_cell_volume   313.82673748
_cell_formula_units_Z   1
loop_
 _symmetry_equiv_pos_site_id
 _symmetry_equiv_pos_as_xyz
  1  'x, y, z'
loop_
 _atom_site_type_symbol
 _atom_site_label
 _atom_site_symmetry_multiplicity
 _atom_site_fract_x
 _atom_site_fract_y
 _atom_site_fract_z
 _atom_site_occupancy
  Er  Er0  1  0.334235  0.668838  0.919369  1
  Er  Er1  1  0.997129  0.995550  0.250560  1
  Er  Er2  1  0.675319  0.339967  0.584675  1
  Er  Er3  1  0.324681  0.660033  0.665325  1
  Er  Er4  1  0.002871  0.004450  0.999440  1
  Er  Er5  1  0.665765  0.331162  0.330631  1
  Al  Al6  1  0.670210  0.836724  0.458092  1
  Al  Al7  1  0.329790  0.163276  0.791908  1
  Ga  Ga8  1  0.500000  0.000000  0.125000  1
  Fe  Fe9  1  0.500000  0.500000  0.125000  1
  Fe  Fe10  1  0.169783  0.839635  0.458637  1
  Fe  Fe11  1  0.830217  0.160365  0.791363  1
  Os  Os12  1  0.171032  0.337332  0.455890  1
  Os  Os13  1  0.828968  0.662668  0.794110  1
  Os  Os14  1  0.332599  0.665365  0.292724  1
  Os  Os15  1  0.000000  0.000000  0.625000  1
  Os  Os16  1  0.667401  0.334635  0.957276  1
  Os  Os17  1  0.000000  0.500000  0.125000  1
