# generated using pymatgen
data_Zr10Si2Sn3Bi
_symmetry_space_group_name_H-M   'P 1'
_cell_length_a   8.39776788
_cell_length_b   8.39780557
_cell_length_c   8.41216480
_cell_angle_alpha   96.13068911
_cell_angle_beta   96.12799113
_cell_angle_gamma   141.82083420
_symmetry_Int_Tables_number   1
_chemical_formula_structural   Zr10Si2Sn3Bi
_chemical_formula_sum   'Zr10 Si2 Sn3 Bi1'
_cell_volume   346.60757363
_cell_formula_units_Z   1
loop_
 _symmetry_equiv_pos_site_id
 _symmetry_equiv_pos_as_xyz
  1  'x, y, z'
loop_
 _atom_site_type_symbol
 _atom_site_label
 _atom_site_symmetry_multiplicity
 _atom_site_fract_x
 _atom_site_fract_y
 _atom_site_fract_z
 _atom_site_occupancy
  Zr  Zr0  1  0.428000  0.292368  0.720356  1
  Zr  Zr1  1  0.207660  0.071983  0.279637  1
  Zr  Zr2  1  0.573181  0.705112  0.278305  1
  Zr  Zr3  1  0.248951  0.753762  0.500008  1
  Zr  Zr4  1  0.295171  0.576164  0.871334  1
  Zr  Zr5  1  0.707208  0.425423  0.132632  1
  Zr  Zr6  1  0.746236  0.251057  0.499997  1
  Zr  Zr7  1  0.923801  0.204804  0.128617  1
  Zr  Zr8  1  0.794862  0.926833  0.721699  1
  Zr  Zr9  1  0.074602  0.792809  0.867399  1
  Si  Si10  1  0.250410  0.249582  0.999998  1
  Si  Si11  1  0.750416  0.749588  0.999997  1
  Sn  Sn12  1  0.664152  0.163759  0.827905  1
  Sn  Sn13  1  0.834488  0.665564  0.500036  1
  Sn  Sn14  1  0.336274  0.835822  0.172104  1
  Bi  Bi15  1  0.164587  0.335370  0.499974  1
