# generated using pymatgen
data_Er4HfIr3
_symmetry_space_group_name_H-M   'P 1'
_cell_length_a   10.76763000
_cell_length_b   10.76763000
_cell_length_c   6.21501600
_cell_angle_alpha   90.00000000
_cell_angle_beta   90.00000000
_cell_angle_gamma   90.00000000
_symmetry_Int_Tables_number   1
_chemical_formula_structural   Er4HfIr3
_chemical_formula_sum   'Er16 Hf4 Ir12'
_cell_volume   720.58048897
_cell_formula_units_Z   4
loop_
 _symmetry_equiv_pos_site_id
 _symmetry_equiv_pos_as_xyz
  1  'x, y, z'
loop_
 _atom_site_type_symbol
 _atom_site_label
 _atom_site_symmetry_multiplicity
 _atom_site_fract_x
 _atom_site_fract_y
 _atom_site_fract_z
 _atom_site_occupancy
  Er  Er0  1  0.289751  0.086521  0.374857  1
  Er  Er1  1  0.289751  0.913479  0.874857  1
  Er  Er2  1  0.710249  0.086521  0.874857  1
  Er  Er3  1  0.710249  0.913479  0.374857  1
  Er  Er4  1  0.586521  0.789751  0.874857  1
  Er  Er5  1  0.586521  0.210249  0.374857  1
  Er  Er6  1  0.413479  0.789751  0.374857  1
  Er  Er7  1  0.413479  0.210249  0.874857  1
  Er  Er8  1  0.210249  0.413479  0.625143  1
  Er  Er9  1  0.210249  0.586521  0.125143  1
  Er  Er10  1  0.789751  0.413479  0.125143  1
  Er  Er11  1  0.789751  0.586521  0.625143  1
  Er  Er12  1  0.913479  0.710249  0.125143  1
  Er  Er13  1  0.913479  0.289751  0.625143  1
  Er  Er14  1  0.086521  0.710249  0.625143  1
  Er  Er15  1  0.086521  0.289751  0.125143  1
  Hf  Hf16  1  0.000000  0.000000  0.500000  1
  Hf  Hf17  1  0.000000  0.000000  0.000000  1
  Hf  Hf18  1  0.500000  0.500000  0.000000  1
  Hf  Hf19  1  0.500000  0.500000  0.500000  1
  Ir  Ir20  1  0.855320  0.144680  0.250000  1
  Ir  Ir21  1  0.855320  0.855320  0.750000  1
  Ir  Ir22  1  0.144680  0.144680  0.750000  1
  Ir  Ir23  1  0.144680  0.855320  0.250000  1
  Ir  Ir24  1  0.644680  0.355320  0.750000  1
  Ir  Ir25  1  0.644680  0.644680  0.250000  1
  Ir  Ir26  1  0.355320  0.355320  0.250000  1
  Ir  Ir27  1  0.355320  0.644680  0.750000  1
  Ir  Ir28  1  0.500000  0.000000  0.122718  1
  Ir  Ir29  1  0.500000  0.000000  0.622718  1
  Ir  Ir30  1  0.000000  0.500000  0.877282  1
  Ir  Ir31  1  0.000000  0.500000  0.377282  1
