# generated using pymatgen
data_Sm5Bi3(AuO5)4
_symmetry_space_group_name_H-M   'P 1'
_cell_length_a   8.66171959
_cell_length_b   8.63909953
_cell_length_c   5.86189667
_cell_angle_alpha   89.24322643
_cell_angle_beta   91.26845639
_cell_angle_gamma   89.82097328
_symmetry_Int_Tables_number   1
_chemical_formula_structural   Sm5Bi3(AuO5)4
_chemical_formula_sum   'Sm5 Bi3 Au4 O20'
_cell_volume   438.49424479
_cell_formula_units_Z   1
loop_
 _symmetry_equiv_pos_site_id
 _symmetry_equiv_pos_as_xyz
  1  'x, y, z'
loop_
 _atom_site_type_symbol
 _atom_site_label
 _atom_site_symmetry_multiplicity
 _atom_site_fract_x
 _atom_site_fract_y
 _atom_site_fract_z
 _atom_site_occupancy
  Sm  Sm0  1  0.352082  0.653189  0.250808  1
  Sm  Sm1  1  0.846366  0.150274  0.746284  1
  Sm  Sm2  1  0.651487  0.649488  0.749438  1
  Sm  Sm3  1  0.652660  0.352992  0.251486  1
  Sm  Sm4  1  0.845822  0.849248  0.249150  1
  Bi  Bi5  1  0.144720  0.846891  0.758942  1
  Bi  Bi6  1  0.358856  0.356809  0.750357  1
  Bi  Bi7  1  0.146582  0.144875  0.253214  1
  Au  Au8  1  0.495752  0.000004  0.403791  1
  Au  Au9  1  0.500959  0.004439  0.905256  1
  Au  Au10  1  0.999442  0.493101  0.093422  1
  Au  Au11  1  0.004940  0.500355  0.592576  1
  O  O12  1  0.100387  0.288972  0.591824  1
  O  O13  1  0.913031  0.278677  0.117115  1
  O  O14  1  0.914670  0.715159  0.613090  1
  O  O15  1  0.716355  0.911915  0.890462  1
  O  O16  1  0.217620  0.589614  0.618571  1
  O  O17  1  0.409414  0.791908  0.897792  1
  O  O18  1  0.393690  0.208394  0.395126  1
  O  O19  1  0.785497  0.588486  0.107224  1
  O  O20  1  0.280567  0.916604  0.379325  1
  O  O21  1  0.587724  0.219664  0.885032  1
  O  O22  1  0.489408  0.501844  0.996187  1
  O  O23  1  0.497603  0.491540  0.503339  1
  O  O24  1  0.790804  0.409925  0.603875  1
  O  O25  1  0.090261  0.708548  0.100223  1
  O  O26  1  0.290731  0.100876  0.898829  1
  O  O27  1  0.589574  0.784899  0.392148  1
  O  O28  1  0.207535  0.390773  0.106298  1
  O  O29  1  0.009684  0.003044  0.006667  1
  O  O30  1  0.005150  0.006529  0.496737  1
  O  O31  1  0.710625  0.090962  0.395413  1
