# generated using pymatgen
data_YHo2Co4P6Ru5
_symmetry_space_group_name_H-M   'P 1'
_cell_length_a   3.84961000
_cell_length_b   10.65566100
_cell_length_c   12.54546900
_cell_angle_alpha   90.00000000
_cell_angle_beta   90.00000000
_cell_angle_gamma   90.00000000
_symmetry_Int_Tables_number   1
_chemical_formula_structural   YHo2Co4P6Ru5
_chemical_formula_sum   'Y2 Ho4 Co8 P12 Ru10'
_cell_volume   514.61688398
_cell_formula_units_Z   2
loop_
 _symmetry_equiv_pos_site_id
 _symmetry_equiv_pos_as_xyz
  1  'x, y, z'
loop_
 _atom_site_type_symbol
 _atom_site_label
 _atom_site_symmetry_multiplicity
 _atom_site_fract_x
 _atom_site_fract_y
 _atom_site_fract_z
 _atom_site_occupancy
  Y  Y0  1  0.000000  0.500000  0.527154  1
  Y  Y1  1  0.500000  0.000000  0.472846  1
  Ho  Ho2  1  0.500000  0.821451  0.200409  1
  Ho  Ho3  1  0.500000  0.178549  0.200409  1
  Ho  Ho4  1  0.000000  0.678549  0.799591  1
  Ho  Ho5  1  0.000000  0.321451  0.799591  1
  Co  Co6  1  0.000000  0.500000  0.983991  1
  Co  Co7  1  0.500000  0.000000  0.016009  1
  Co  Co8  1  0.500000  0.332353  0.989041  1
  Co  Co9  1  0.500000  0.667647  0.989041  1
  Co  Co10  1  0.000000  0.167647  0.010959  1
  Co  Co11  1  0.000000  0.832353  0.010959  1
  Co  Co12  1  0.500000  0.500000  0.703053  1
  Co  Co13  1  0.000000  0.000000  0.296947  1
  P  P14  1  0.500000  0.314168  0.618214  1
  P  P15  1  0.500000  0.685832  0.618214  1
  P  P16  1  0.000000  0.185832  0.381786  1
  P  P17  1  0.000000  0.814168  0.381786  1
  P  P18  1  0.500000  0.500000  0.881316  1
  P  P19  1  0.000000  0.000000  0.118684  1
  P  P20  1  0.500000  0.845847  0.900835  1
  P  P21  1  0.500000  0.154153  0.900835  1
  P  P22  1  0.000000  0.654153  0.099165  1
  P  P23  1  0.000000  0.345847  0.099165  1
  P  P24  1  0.500000  0.500000  0.336425  1
  P  P25  1  0.000000  0.000000  0.663575  1
  Ru  Ru26  1  0.500000  0.298007  0.427441  1
  Ru  Ru27  1  0.500000  0.701993  0.427441  1
  Ru  Ru28  1  0.000000  0.201993  0.572559  1
  Ru  Ru29  1  0.000000  0.798007  0.572559  1
  Ru  Ru30  1  0.500000  0.874760  0.719135  1
  Ru  Ru31  1  0.500000  0.125240  0.719135  1
  Ru  Ru32  1  0.000000  0.625240  0.280865  1
  Ru  Ru33  1  0.000000  0.374760  0.280865  1
  Ru  Ru34  1  0.500000  0.500000  0.146402  1
  Ru  Ru35  1  0.000000  0.000000  0.853598  1
