# generated using pymatgen
data_Tm3Sc2In2Pb
_symmetry_space_group_name_H-M   'P 1'
_cell_length_a   6.30479200
_cell_length_b   8.80659001
_cell_length_c   8.80170098
_cell_angle_alpha   120.19619411
_cell_angle_beta   89.99983360
_cell_angle_gamma   90.00006441
_symmetry_Int_Tables_number   1
_chemical_formula_structural   Tm3Sc2In2Pb
_chemical_formula_sum   'Tm6 Sc4 In4 Pb2'
_cell_volume   422.39015947
_cell_formula_units_Z   2
loop_
 _symmetry_equiv_pos_site_id
 _symmetry_equiv_pos_as_xyz
  1  'x, y, z'
loop_
 _atom_site_type_symbol
 _atom_site_label
 _atom_site_symmetry_multiplicity
 _atom_site_fract_x
 _atom_site_fract_y
 _atom_site_fract_z
 _atom_site_occupancy
  Tm  Tm0  1  0.750002  0.232011  0.997332  1
  Tm  Tm1  1  0.749991  0.769023  0.766566  1
  Tm  Tm2  1  0.749993  0.999644  0.235554  1
  Tm  Tm3  1  0.250000  0.764976  0.999319  1
  Tm  Tm4  1  0.249990  0.233559  0.232715  1
  Tm  Tm5  1  0.249989  0.000442  0.765483  1
  Sc  Sc6  1  0.494809  0.332112  0.666411  1
  Sc  Sc7  1  0.494767  0.668258  0.335168  1
  Sc  Sc8  1  0.005234  0.668244  0.335162  1
  Sc  Sc9  1  0.005197  0.332106  0.666413  1
  In  In10  1  0.750017  0.999358  0.592360  1
  In  In11  1  0.250000  0.404767  0.001315  1
  In  In12  1  0.250002  0.594887  0.595595  1
  In  In13  1  0.250000  0.000490  0.406758  1
  Pb  Pb14  1  0.750001  0.595662  0.999503  1
  Pb  Pb15  1  0.750006  0.404462  0.404346  1
