# generated using pymatgen
data_TmLu3Ga18(PtRh2)2
_symmetry_space_group_name_H-M   'P 1'
_cell_length_a   7.58723801
_cell_length_b   7.58712215
_cell_length_c   9.44040100
_cell_angle_alpha   90.00000000
_cell_angle_beta   90.00000000
_cell_angle_gamma   119.88718580
_symmetry_Int_Tables_number   1
_chemical_formula_structural   TmLu3Ga18(PtRh2)2
_chemical_formula_sum   'Tm1 Lu3 Ga18 Pt2 Rh4'
_cell_volume   471.16653705
_cell_formula_units_Z   1
loop_
 _symmetry_equiv_pos_site_id
 _symmetry_equiv_pos_as_xyz
  1  'x, y, z'
loop_
 _atom_site_type_symbol
 _atom_site_label
 _atom_site_symmetry_multiplicity
 _atom_site_fract_x
 _atom_site_fract_y
 _atom_site_fract_z
 _atom_site_occupancy
  Tm  Tm0  1  0.996729  0.673465  0.250000  1
  Lu  Lu1  1  0.003267  0.326527  0.750000  1
  Lu  Lu2  1  0.673458  0.996734  0.250000  1
  Lu  Lu3  1  0.326543  0.003282  0.750000  1
  Ga  Ga4  1  0.336195  0.550503  0.250000  1
  Ga  Ga5  1  0.663848  0.449477  0.750000  1
  Ga  Ga6  1  0.550419  0.336065  0.250000  1
  Ga  Ga7  1  0.449477  0.663844  0.750000  1
  Ga  Ga8  1  0.997624  0.339074  0.082340  1
  Ga  Ga9  1  0.002364  0.660806  0.917534  1
  Ga  Ga10  1  0.002364  0.660806  0.582466  1
  Ga  Ga11  1  0.339315  0.997748  0.417654  1
  Ga  Ga12  1  0.997624  0.339074  0.417660  1
  Ga  Ga13  1  0.660812  0.002372  0.582401  1
  Ga  Ga14  1  0.660812  0.002372  0.917599  1
  Ga  Ga15  1  0.339315  0.997748  0.082346  1
  Ga  Ga16  1  0.336045  0.336046  0.570445  1
  Ga  Ga17  1  0.663844  0.663949  0.429616  1
  Ga  Ga18  1  0.663844  0.663949  0.070384  1
  Ga  Ga19  1  0.336045  0.336046  0.929555  1
  Ga  Ga20  1  0.135877  0.135920  0.250000  1
  Ga  Ga21  1  0.864158  0.864168  0.750000  1
  Pt  Pt22  1  0.000005  0.000042  0.999958  1
  Pt  Pt23  1  0.000005  0.000042  0.500042  1
  Rh  Rh24  1  0.671192  0.328758  0.999960  1
  Rh  Rh25  1  0.328813  0.671212  0.999959  1
  Rh  Rh26  1  0.328813  0.671212  0.500041  1
  Rh  Rh27  1  0.671192  0.328758  0.500040  1
