# generated using pymatgen
data_CsSrTi2F9
_symmetry_space_group_name_H-M   'P 1'
_cell_length_a   8.05127005
_cell_length_b   8.05127037
_cell_length_c   25.19871400
_cell_angle_alpha   90.00624817
_cell_angle_beta   90.00624105
_cell_angle_gamma   119.96000388
_symmetry_Int_Tables_number   1
_chemical_formula_structural   CsSrTi2F9
_chemical_formula_sum   'Cs6 Sr6 Ti12 F54'
_cell_volume   1415.18329934
_cell_formula_units_Z   6
loop_
 _symmetry_equiv_pos_site_id
 _symmetry_equiv_pos_as_xyz
  1  'x, y, z'
loop_
 _atom_site_type_symbol
 _atom_site_label
 _atom_site_symmetry_multiplicity
 _atom_site_fract_x
 _atom_site_fract_y
 _atom_site_fract_z
 _atom_site_occupancy
  Cs  Cs0  1  0.971062  0.008856  0.083018  1
  Cs  Cs1  1  0.990178  0.009822  0.750000  1
  Cs  Cs2  1  0.009783  0.971682  0.916989  1
  Cs  Cs3  1  0.991144  0.028938  0.416982  1
  Cs  Cs4  1  0.028318  0.990217  0.583011  1
  Cs  Cs5  1  0.009732  0.990268  0.250000  1
  Sr  Sr6  1  0.501994  0.991198  0.833132  1
  Sr  Sr7  1  0.512249  0.512254  0.499911  1
  Sr  Sr8  1  0.991220  0.501909  0.166562  1
  Sr  Sr9  1  0.487746  0.487751  0.000089  1
  Sr  Sr10  1  0.008802  0.498006  0.666868  1
  Sr  Sr11  1  0.498091  0.008780  0.333438  1
  Ti  Ti12  1  0.000698  0.485335  0.836762  1
  Ti  Ti13  1  0.515577  0.012218  0.503423  1
  Ti  Ti14  1  0.987782  0.484423  0.996577  1
  Ti  Ti15  1  0.485354  0.000828  0.163350  1
  Ti  Ti16  1  0.498046  0.511644  0.329777  1
  Ti  Ti17  1  0.999172  0.514646  0.336650  1
  Ti  Ti18  1  0.484295  0.987805  0.003350  1
  Ti  Ti19  1  0.012195  0.515705  0.496650  1
  Ti  Ti20  1  0.488356  0.501954  0.170223  1
  Ti  Ti21  1  0.511708  0.497966  0.670074  1
  Ti  Ti22  1  0.502034  0.488292  0.829926  1
  Ti  Ti23  1  0.514665  0.999302  0.663238  1
  F  F24  1  0.469330  0.508523  0.093876  1
  F  F25  1  0.226801  0.360822  0.666259  1
  F  F26  1  0.795965  0.637433  0.677057  1
  F  F27  1  0.508732  0.468882  0.906280  1
  F  F28  1  0.236464  0.734137  0.005554  1
  F  F29  1  0.444135  0.983624  0.927021  1
  F  F30  1  0.495510  0.504490  0.750000  1
  F  F31  1  0.864797  0.651958  0.488119  1
  F  F32  1  0.491477  0.530670  0.406124  1
  F  F33  1  0.204426  0.362413  0.177110  1
  F  F34  1  0.795828  0.147588  0.651724  1
  F  F35  1  0.531118  0.491268  0.593720  1
  F  F36  1  0.763429  0.265878  0.505737  1
  F  F37  1  0.623865  0.842735  0.997734  1
  F  F38  1  0.251872  0.486503  0.837924  1
  F  F39  1  0.001624  0.480586  0.416724  1
  F  F40  1  0.748202  0.513434  0.337744  1
  F  F41  1  0.555258  0.016054  0.427153  1
  F  F42  1  0.232257  0.851762  0.671462  1
  F  F43  1  0.504314  0.495686  0.250000  1
  F  F44  1  0.486566  0.251798  0.162256  1
  F  F45  1  0.651848  0.865234  0.511973  1
  F  F46  1  0.148238  0.767743  0.828538  1
  F  F47  1  0.003765  0.560071  0.260441  1
  F  F48  1  0.753034  0.488861  0.828552  1
  F  F49  1  0.852412  0.204172  0.848276  1
  F  F50  1  0.513497  0.748128  0.662076  1
  F  F51  1  0.637587  0.795574  0.322890  1
  F  F52  1  0.773086  0.639457  0.166318  1
  F  F53  1  0.851505  0.232282  0.328539  1
  F  F54  1  0.511139  0.246966  0.671448  1
  F  F55  1  0.265863  0.763536  0.494446  1
  F  F56  1  0.734122  0.236571  0.994263  1
  F  F57  1  0.148016  0.795778  0.348144  1
  F  F58  1  0.983946  0.444742  0.072847  1
  F  F59  1  0.998174  0.519494  0.916635  1
  F  F60  1  0.348042  0.135203  0.011881  1
  F  F61  1  0.480506  0.001826  0.583365  1
  F  F62  1  0.016376  0.555865  0.572979  1
  F  F63  1  0.996022  0.439957  0.760587  1
  F  F64  1  0.767718  0.148495  0.171461  1
  F  F65  1  0.639178  0.773199  0.833741  1
  F  F66  1  0.375888  0.156745  0.497730  1
  F  F67  1  0.360543  0.226914  0.333682  1
  F  F68  1  0.843255  0.624112  0.002270  1
  F  F69  1  0.489000  0.753137  0.171532  1
  F  F70  1  0.362567  0.204035  0.822943  1
  F  F71  1  0.134766  0.348152  0.988027  1
  F  F72  1  0.157265  0.376135  0.502266  1
  F  F73  1  0.204222  0.851984  0.151856  1
  F  F74  1  0.439929  0.996235  0.239559  1
  F  F75  1  0.560043  0.003978  0.739413  1
  F  F76  1  0.519414  0.998376  0.083276  1
  F  F77  1  0.246863  0.511000  0.328468  1
