# generated using pymatgen
data_Er8Ga12OsAu3
_symmetry_space_group_name_H-M   'P 1'
_cell_length_a   7.12392502
_cell_length_b   8.89128273
_cell_length_c   8.89073006
_cell_angle_alpha   120.00829004
_cell_angle_beta   90.00841295
_cell_angle_gamma   89.99608845
_symmetry_Int_Tables_number   1
_chemical_formula_structural   Er8Ga12OsAu3
_chemical_formula_sum   'Er8 Ga12 Os1 Au3'
_cell_volume   487.65819465
_cell_formula_units_Z   1
loop_
 _symmetry_equiv_pos_site_id
 _symmetry_equiv_pos_as_xyz
  1  'x, y, z'
loop_
 _atom_site_type_symbol
 _atom_site_label
 _atom_site_symmetry_multiplicity
 _atom_site_fract_x
 _atom_site_fract_y
 _atom_site_fract_z
 _atom_site_occupancy
  Er  Er0  1  0.743316  0.999980  0.999995  1
  Er  Er1  1  0.252656  0.999958  0.999954  1
  Er  Er2  1  0.746484  0.488255  0.511718  1
  Er  Er3  1  0.258835  0.523283  0.476679  1
  Er  Er4  1  0.746493  0.023460  0.511730  1
  Er  Er5  1  0.258846  0.953411  0.476700  1
  Er  Er6  1  0.746491  0.488265  0.976553  1
  Er  Er7  1  0.258812  0.523281  0.046576  1
  Ga  Ga8  1  0.955753  0.837836  0.162134  1
  Ga  Ga9  1  0.048866  0.164845  0.835095  1
  Ga  Ga10  1  0.955821  0.324318  0.162157  1
  Ga  Ga11  1  0.458348  0.163704  0.836254  1
  Ga  Ga12  1  0.048895  0.670215  0.835087  1
  Ga  Ga13  1  0.541573  0.830972  0.168978  1
  Ga  Ga14  1  0.955834  0.837847  0.675710  1
  Ga  Ga15  1  0.458311  0.672480  0.836228  1
  Ga  Ga16  1  0.048859  0.164893  0.329785  1
  Ga  Ga17  1  0.541637  0.337984  0.168987  1
  Ga  Ga18  1  0.458215  0.163732  0.327498  1
  Ga  Ga19  1  0.541563  0.830961  0.661949  1
  Os  Os20  1  0.515154  0.666744  0.333353  1
  Au  Au21  1  0.954658  0.666588  0.333289  1
  Au  Au22  1  0.029620  0.333680  0.666880  1
  Au  Au23  1  0.474966  0.333310  0.666713  1
