# generated using pymatgen
data_HfScFe4(MoP2)2
_symmetry_space_group_name_H-M   'P 1'
_cell_length_a   3.71684100
_cell_length_b   6.08216642
_cell_length_c   6.85672433
_cell_angle_alpha   90.65588081
_cell_angle_beta   90.00000000
_cell_angle_gamma   90.00000000
_symmetry_Int_Tables_number   1
_chemical_formula_structural   HfScFe4(MoP2)2
_chemical_formula_sum   'Hf1 Sc1 Fe4 Mo2 P4'
_cell_volume   154.99600914
_cell_formula_units_Z   1
loop_
 _symmetry_equiv_pos_site_id
 _symmetry_equiv_pos_as_xyz
  1  'x, y, z'
loop_
 _atom_site_type_symbol
 _atom_site_label
 _atom_site_symmetry_multiplicity
 _atom_site_fract_x
 _atom_site_fract_y
 _atom_site_fract_z
 _atom_site_occupancy
  Hf  Hf0  1  0.750000  0.978249  0.186983  1
  Sc  Sc1  1  0.250000  0.021120  0.810443  1
  Fe  Fe2  1  0.750000  0.853235  0.562766  1
  Fe  Fe3  1  0.250000  0.147756  0.434379  1
  Fe  Fe4  1  0.750000  0.355777  0.945577  1
  Fe  Fe5  1  0.250000  0.645424  0.057334  1
  Mo  Mo6  1  0.250000  0.520260  0.670810  1
  Mo  Mo7  1  0.750000  0.478563  0.330458  1
  P  P8  1  0.250000  0.289585  0.124049  1
  P  P9  1  0.750000  0.711410  0.873196  1
  P  P10  1  0.250000  0.767690  0.389339  1
  P  P11  1  0.750000  0.230932  0.614665  1
