# generated using pymatgen
data_Rb2Tm5LuSe10
_symmetry_space_group_name_H-M   'P 1'
_cell_length_a   4.09410300
_cell_length_b   12.23842438
_cell_length_c   21.88233002
_cell_angle_alpha   90.08510816
_cell_angle_beta   90.00000000
_cell_angle_gamma   90.00000000
_symmetry_Int_Tables_number   1
_chemical_formula_structural   Rb2Tm5LuSe10
_chemical_formula_sum   'Rb4 Tm10 Lu2 Se20'
_cell_volume   1096.42103220
_cell_formula_units_Z   2
loop_
 _symmetry_equiv_pos_site_id
 _symmetry_equiv_pos_as_xyz
  1  'x, y, z'
loop_
 _atom_site_type_symbol
 _atom_site_label
 _atom_site_symmetry_multiplicity
 _atom_site_fract_x
 _atom_site_fract_y
 _atom_site_fract_z
 _atom_site_occupancy
  Rb  Rb0  1  0.250000  0.852319  0.093114  1
  Rb  Rb1  1  0.750000  0.147681  0.906886  1
  Rb  Rb2  1  0.750000  0.352111  0.406942  1
  Rb  Rb3  1  0.250000  0.647889  0.593058  1
  Tm  Tm4  1  0.750000  0.798333  0.825818  1
  Tm  Tm5  1  0.250000  0.201667  0.174182  1
  Tm  Tm6  1  0.250000  0.298184  0.674080  1
  Tm  Tm7  1  0.750000  0.701816  0.325920  1
  Tm  Tm8  1  0.250000  0.956309  0.697904  1
  Tm  Tm9  1  0.750000  0.043691  0.302096  1
  Tm  Tm10  1  0.750000  0.456268  0.801896  1
  Tm  Tm11  1  0.250000  0.543732  0.198104  1
  Tm  Tm12  1  0.750000  0.391124  0.053850  1
  Tm  Tm13  1  0.250000  0.608876  0.946150  1
  Lu  Lu14  1  0.250000  0.891579  0.446140  1
  Lu  Lu15  1  0.750000  0.108421  0.553860  1
  Se  Se16  1  0.250000  0.948103  0.568737  1
  Se  Se17  1  0.750000  0.051897  0.431263  1
  Se  Se18  1  0.750000  0.447151  0.930750  1
  Se  Se19  1  0.250000  0.552849  0.069250  1
  Se  Se20  1  0.750000  0.766600  0.953824  1
  Se  Se21  1  0.250000  0.233400  0.046176  1
  Se  Se22  1  0.250000  0.264814  0.546148  1
  Se  Se23  1  0.750000  0.735186  0.453852  1
  Se  Se24  1  0.250000  0.952783  0.826636  1
  Se  Se25  1  0.750000  0.047217  0.173364  1
  Se  Se26  1  0.750000  0.452670  0.673275  1
  Se  Se27  1  0.250000  0.547330  0.326725  1
  Se  Se28  1  0.750000  0.126287  0.684370  1
  Se  Se29  1  0.250000  0.873713  0.315630  1
  Se  Se30  1  0.250000  0.626352  0.815084  1
  Se  Se31  1  0.750000  0.373648  0.184916  1
  Se  Se32  1  0.750000  0.696379  0.197300  1
  Se  Se33  1  0.250000  0.303621  0.802700  1
  Se  Se34  1  0.250000  0.196335  0.302826  1
  Se  Se35  1  0.750000  0.803665  0.697174  1
