# generated using pymatgen
data_BaNd(Sn2Rh)2
_symmetry_space_group_name_H-M   'P 1'
_cell_length_a   9.09665889
_cell_length_b   9.09665886
_cell_length_c   9.79758733
_cell_angle_alpha   89.99736437
_cell_angle_beta   90.00263083
_cell_angle_gamma   149.36222759
_symmetry_Int_Tables_number   1
_chemical_formula_structural   BaNd(Sn2Rh)2
_chemical_formula_sum   'Ba2 Nd2 Sn8 Rh4'
_cell_volume   413.16149331
_cell_formula_units_Z   2
loop_
 _symmetry_equiv_pos_site_id
 _symmetry_equiv_pos_as_xyz
  1  'x, y, z'
loop_
 _atom_site_type_symbol
 _atom_site_label
 _atom_site_symmetry_multiplicity
 _atom_site_fract_x
 _atom_site_fract_y
 _atom_site_fract_z
 _atom_site_occupancy
  Ba  Ba0  1  0.500000  0.500000  0.500000  1
  Ba  Ba1  1  0.500000  0.500000  0.000000  1
  Nd  Nd2  1  0.705241  0.294759  0.749992  1
  Nd  Nd3  1  0.294759  0.705241  0.250008  1
  Sn  Sn4  1  0.698267  0.301733  0.409967  1
  Sn  Sn5  1  0.301733  0.698267  0.590033  1
  Sn  Sn6  1  0.301727  0.698273  0.909969  1
  Sn  Sn7  1  0.698273  0.301727  0.090031  1
  Sn  Sn8  1  0.904781  0.095219  0.749968  1
  Sn  Sn9  1  0.095219  0.904781  0.250032  1
  Sn  Sn10  1  0.081963  0.918037  0.750032  1
  Sn  Sn11  1  0.918037  0.081963  0.249968  1
  Rh  Rh12  1  0.846227  0.153773  0.498508  1
  Rh  Rh13  1  0.153773  0.846227  0.501492  1
  Rh  Rh14  1  0.153779  0.846221  0.998504  1
  Rh  Rh15  1  0.846221  0.153779  0.001496  1
