# generated using pymatgen
data_Cs2K(CO3)2
_symmetry_space_group_name_H-M   'P 1'
_cell_length_a   7.60511793
_cell_length_b   7.60512396
_cell_length_c   7.60512646
_cell_angle_alpha   47.46377989
_cell_angle_beta   47.46326952
_cell_angle_gamma   47.46345428
_symmetry_Int_Tables_number   1
_chemical_formula_structural   Cs2K(CO3)2
_chemical_formula_sum   'Cs2 K1 C2 O6'
_cell_volume   218.53113100
_cell_formula_units_Z   1
loop_
 _symmetry_equiv_pos_site_id
 _symmetry_equiv_pos_as_xyz
  1  'x, y, z'
loop_
 _atom_site_type_symbol
 _atom_site_label
 _atom_site_symmetry_multiplicity
 _atom_site_fract_x
 _atom_site_fract_y
 _atom_site_fract_z
 _atom_site_occupancy
  Cs  Cs0  1  0.217645  0.217647  0.217646  1
  Cs  Cs1  1  0.782355  0.782353  0.782354  1
  K  K2  1  0.000000  0.000000  0.000000  1
  C  C3  1  0.412032  0.412025  0.412023  1
  C  C4  1  0.587968  0.587975  0.587977  1
  O  O5  1  0.656110  0.289885  0.289883  1
  O  O6  1  0.289886  0.656111  0.289881  1
  O  O7  1  0.710116  0.710119  0.343889  1
  O  O8  1  0.289884  0.289881  0.656111  1
  O  O9  1  0.710114  0.343889  0.710119  1
  O  O10  1  0.343890  0.710115  0.710117  1
