# generated using pymatgen
data_Sm4BeSi5
_symmetry_space_group_name_H-M   'P 1'
_cell_length_a   3.90767800
_cell_length_b   4.31712901
_cell_length_c   12.44482483
_cell_angle_alpha   99.98851819
_cell_angle_beta   90.00000000
_cell_angle_gamma   90.00000000
_symmetry_Int_Tables_number   1
_chemical_formula_structural   Sm4BeSi5
_chemical_formula_sum   'Sm4 Be1 Si5'
_cell_volume   206.76136025
_cell_formula_units_Z   1
loop_
 _symmetry_equiv_pos_site_id
 _symmetry_equiv_pos_as_xyz
  1  'x, y, z'
loop_
 _atom_site_type_symbol
 _atom_site_label
 _atom_site_symmetry_multiplicity
 _atom_site_fract_x
 _atom_site_fract_y
 _atom_site_fract_z
 _atom_site_occupancy
  Sm  Sm0  1  0.750000  0.430871  0.861741  1
  Sm  Sm1  1  0.250000  0.569856  0.139711  1
  Sm  Sm2  1  0.750000  0.702127  0.404257  1
  Sm  Sm3  1  0.250000  0.297916  0.595829  1
  Be  Be4  1  0.750000  0.022480  0.044960  1
  Si  Si5  1  0.250000  0.981017  0.962033  1
  Si  Si6  1  0.750000  0.112857  0.225714  1
  Si  Si7  1  0.250000  0.884473  0.768944  1
  Si  Si8  1  0.750000  0.825605  0.651209  1
  Si  Si9  1  0.250000  0.172800  0.345599  1
