# generated using pymatgen
data_Y3ErAl13Ga11Pt9
_symmetry_space_group_name_H-M   'P 1'
_cell_length_a   7.49254290
_cell_length_b   7.51974276
_cell_length_c   13.31855180
_cell_angle_alpha   84.66343262
_cell_angle_beta   100.65755297
_cell_angle_gamma   119.70768074
_symmetry_Int_Tables_number   1
_chemical_formula_structural   Y3ErAl13Ga11Pt9
_chemical_formula_sum   'Y3 Er1 Al13 Ga11 Pt9'
_cell_volume   640.52212276
_cell_formula_units_Z   1
loop_
 _symmetry_equiv_pos_site_id
 _symmetry_equiv_pos_as_xyz
  1  'x, y, z'
loop_
 _atom_site_type_symbol
 _atom_site_label
 _atom_site_symmetry_multiplicity
 _atom_site_fract_x
 _atom_site_fract_y
 _atom_site_fract_z
 _atom_site_occupancy
  Y  Y0  1  0.735095  0.001973  0.191798  1
  Y  Y1  1  0.264776  0.999437  0.807583  1
  Y  Y2  1  0.063080  0.664249  0.190122  1
  Er  Er3  1  0.938095  0.336237  0.808588  1
  Al  Al4  1  0.771000  0.661124  0.331902  1
  Al  Al5  1  0.853514  0.331932  0.557384  1
  Al  Al6  1  0.186806  0.999683  0.557344  1
  Al  Al7  1  0.812103  0.998844  0.441426  1
  Al  Al8  1  0.352523  0.000816  0.054039  1
  Al  Al9  1  0.648367  0.000892  0.945705  1
  Al  Al10  1  0.556999  0.995253  0.669302  1
  Al  Al11  1  0.442880  0.004382  0.331296  1
  Al  Al12  1  0.519727  0.666145  0.559815  1
  Al  Al13  1  0.478178  0.332023  0.440087  1
  Al  Al14  1  0.685457  0.667478  0.049036  1
  Al  Al15  1  0.316041  0.334763  0.951380  1
  Al  Al16  1  0.145108  0.667226  0.441807  1
  Ga  Ga17  1  0.803507  0.874458  0.814635  1
  Ga  Ga18  1  0.195900  0.125918  0.185219  1
  Ga  Ga19  1  0.980727  0.666683  0.939290  1
  Ga  Ga20  1  0.020608  0.333653  0.060280  1
  Ga  Ga21  1  0.399453  0.664758  0.816232  1
  Ga  Ga22  1  0.600924  0.336895  0.184142  1
  Ga  Ga23  1  0.884383  0.665226  0.671264  1
  Ga  Ga24  1  0.115407  0.333800  0.329470  1
  Ga  Ga25  1  0.601153  0.459443  0.814721  1
  Ga  Ga26  1  0.402602  0.542295  0.185693  1
  Ga  Ga27  1  0.227701  0.336268  0.672175  1
  Pt  Pt28  1  0.335907  0.674166  0.001144  1
  Pt  Pt29  1  0.545999  0.323213  0.634159  1
  Pt  Pt30  1  0.456288  0.675603  0.366142  1
  Pt  Pt31  1  0.881874  0.005722  0.634649  1
  Pt  Pt32  1  0.112684  0.989426  0.364136  1
  Pt  Pt33  1  0.665006  0.326696  0.998974  1
  Pt  Pt34  1  0.209170  0.669480  0.635535  1
  Pt  Pt35  1  0.790435  0.332754  0.364232  1
  Pt  Pt36  1  0.000524  0.001084  0.999289  1
