# generated using pymatgen
data_Ba12Er(ScAs4)3
_symmetry_space_group_name_H-M   'P 1'
_cell_length_a   4.71356800
_cell_length_b   13.89996844
_cell_length_c   15.07451194
_cell_angle_alpha   89.84783935
_cell_angle_beta   90.00000000
_cell_angle_gamma   90.00000000
_symmetry_Int_Tables_number   1
_chemical_formula_structural   Ba12Er(ScAs4)3
_chemical_formula_sum   'Ba12 Er1 Sc3 As12'
_cell_volume   987.65512045
_cell_formula_units_Z   1
loop_
 _symmetry_equiv_pos_site_id
 _symmetry_equiv_pos_as_xyz
  1  'x, y, z'
loop_
 _atom_site_type_symbol
 _atom_site_label
 _atom_site_symmetry_multiplicity
 _atom_site_fract_x
 _atom_site_fract_y
 _atom_site_fract_z
 _atom_site_occupancy
  Ba  Ba0  1  0.250000  0.418966  0.101491  1
  Ba  Ba1  1  0.250000  0.143111  0.003013  1
  Ba  Ba2  1  0.250000  0.226487  0.296661  1
  Ba  Ba3  1  0.750000  0.275758  0.795610  1
  Ba  Ba4  1  0.750000  0.360359  0.501309  1
  Ba  Ba5  1  0.250000  0.918387  0.396285  1
  Ba  Ba6  1  0.750000  0.769167  0.702216  1
  Ba  Ba7  1  0.750000  0.859538  0.000625  1
  Ba  Ba8  1  0.250000  0.725256  0.202918  1
  Ba  Ba9  1  0.750000  0.080618  0.597738  1
  Ba  Ba10  1  0.750000  0.580766  0.900657  1
  Ba  Ba11  1  0.250000  0.640374  0.497363  1
  Er  Er12  1  0.250000  0.953573  0.794670  1
  Sc  Sc13  1  0.750000  0.548443  0.294694  1
  Sc  Sc14  1  0.750000  0.049116  0.205436  1
  Sc  Sc15  1  0.250000  0.451633  0.705752  1
  As  As16  1  0.750000  0.225790  0.133884  1
  As  As17  1  0.750000  0.724591  0.366436  1
  As  As18  1  0.750000  0.586450  0.121714  1
  As  As19  1  0.250000  0.274898  0.632267  1
  As  As20  1  0.250000  0.769704  0.869942  1
  As  As21  1  0.750000  0.087308  0.378424  1
  As  As22  1  0.250000  0.908707  0.615586  1
  As  As23  1  0.250000  0.413110  0.878982  1
  As  As24  1  0.750000  0.043699  0.853579  1
  As  As25  1  0.250000  0.464788  0.346546  1
  As  As26  1  0.250000  0.965079  0.153273  1
  As  As27  1  0.750000  0.534326  0.652930  1
