# generated using pymatgen
data_Na4Ac11La5Sn16
_symmetry_space_group_name_H-M   'P 1'
_cell_length_a   8.27419344
_cell_length_b   8.82727530
_cell_length_c   16.72349800
_cell_angle_alpha   90.02845552
_cell_angle_beta   89.89671900
_cell_angle_gamma   90.04892020
_symmetry_Int_Tables_number   1
_chemical_formula_structural   Na4Ac11La5Sn16
_chemical_formula_sum   'Na4 Ac11 La5 Sn16'
_cell_volume   1221.45802403
_cell_formula_units_Z   1
loop_
 _symmetry_equiv_pos_site_id
 _symmetry_equiv_pos_as_xyz
  1  'x, y, z'
loop_
 _atom_site_type_symbol
 _atom_site_label
 _atom_site_symmetry_multiplicity
 _atom_site_fract_x
 _atom_site_fract_y
 _atom_site_fract_z
 _atom_site_occupancy
  Na  Na0  1  0.838502  0.507254  0.748259  1
  Na  Na1  1  0.339177  0.992144  0.749113  1
  Na  Na2  1  0.161581  0.495496  0.252475  1
  Na  Na3  1  0.661321  0.004656  0.252858  1
  Ac  Ac4  1  0.832408  0.674108  0.126699  1
  Ac  Ac5  1  0.668126  0.172876  0.874195  1
  Ac  Ac6  1  0.168446  0.326809  0.623812  1
  Ac  Ac7  1  0.509637  0.685950  0.596937  1
  Ac  Ac8  1  0.010954  0.813384  0.900219  1
  Ac  Ac9  1  0.488387  0.313779  0.101495  1
  Ac  Ac10  1  0.989309  0.186720  0.400920  1
  Ac  Ac11  1  0.490119  0.314724  0.402269  1
  Ac  Ac12  1  0.991059  0.186293  0.099859  1
  Ac  Ac13  1  0.509443  0.685810  0.902512  1
  Ac  Ac14  1  0.009237  0.813226  0.596551  1
  La  La15  1  0.669272  0.171731  0.625181  1
  La  La16  1  0.169214  0.326297  0.872370  1
  La  La17  1  0.330665  0.827342  0.128302  1
  La  La18  1  0.830051  0.673272  0.373482  1
  La  La19  1  0.332939  0.828092  0.373897  1
  Sn  Sn20  1  0.668579  0.961978  0.461662  1
  Sn  Sn21  1  0.174201  0.537391  0.035777  1
  Sn  Sn22  1  0.325554  0.037810  0.965351  1
  Sn  Sn23  1  0.826676  0.463131  0.534917  1
  Sn  Sn24  1  0.337676  0.033189  0.535931  1
  Sn  Sn25  1  0.840938  0.464688  0.960978  1
  Sn  Sn26  1  0.659825  0.965759  0.040502  1
  Sn  Sn27  1  0.164319  0.540710  0.458373  1
  Sn  Sn28  1  0.474305  0.403235  0.749575  1
  Sn  Sn29  1  0.973978  0.094656  0.748053  1
  Sn  Sn30  1  0.524055  0.599951  0.252935  1
  Sn  Sn31  1  0.030517  0.900626  0.253213  1
  Sn  Sn32  1  0.714570  0.864083  0.748223  1
  Sn  Sn33  1  0.216913  0.634387  0.750145  1
  Sn  Sn34  1  0.285146  0.131998  0.251259  1
  Sn  Sn35  1  0.782903  0.366444  0.251706  1
