# generated using pymatgen
data_Tm12Co3NiBiRu
_symmetry_space_group_name_H-M   'P 1'
_cell_length_a   8.20957941
_cell_length_b   8.21015028
_cell_length_c   8.20957832
_cell_angle_alpha   110.22952734
_cell_angle_beta   111.38043067
_cell_angle_gamma   106.83491464
_symmetry_Int_Tables_number   1
_chemical_formula_structural   Tm12Co3NiBiRu
_chemical_formula_sum   'Tm12 Co3 Ni1 Bi1 Ru1'
_cell_volume   425.25920902
_cell_formula_units_Z   1
loop_
 _symmetry_equiv_pos_site_id
 _symmetry_equiv_pos_as_xyz
  1  'x, y, z'
loop_
 _atom_site_type_symbol
 _atom_site_label
 _atom_site_symmetry_multiplicity
 _atom_site_fract_x
 _atom_site_fract_y
 _atom_site_fract_z
 _atom_site_occupancy
  Tm  Tm0  1  0.283604  0.178914  0.462460  1
  Tm  Tm1  1  0.719341  0.818461  0.537776  1
  Tm  Tm2  1  0.280687  0.818461  0.099120  1
  Tm  Tm3  1  0.716453  0.178914  0.895311  1
  Tm  Tm4  1  0.628495  0.318496  0.314409  1
  Tm  Tm5  1  0.371529  0.685935  0.689979  1
  Tm  Tm6  1  0.004088  0.318496  0.690000  1
  Tm  Tm7  1  0.995956  0.685935  0.314405  1
  Tm  Tm8  1  0.217933  0.411469  0.193537  1
  Tm  Tm9  1  0.783602  0.590349  0.806744  1
  Tm  Tm10  1  0.216407  0.023160  0.806753  1
  Tm  Tm11  1  0.782105  0.975617  0.193512  1
  Co  Co12  1  0.000013  0.642397  0.642383  1
  Co  Co13  1  0.387015  0.885223  0.498207  1
  Co  Co14  1  0.613003  0.111281  0.498278  1
  Ni  Ni15  1  0.999730  0.357062  0.357332  1
  Bi  Bi16  1  0.500018  0.499029  0.999011  1
  Ru  Ru17  1  0.000020  0.000802  0.000783  1
