# generated using pymatgen
data_Ho8Hf11Si16W
_symmetry_space_group_name_H-M   'P 1'
_cell_length_a   7.23128558
_cell_length_b   7.23128644
_cell_length_c   13.27279309
_cell_angle_alpha   89.94779265
_cell_angle_beta   90.05220718
_cell_angle_gamma   90.05262001
_symmetry_Int_Tables_number   1
_chemical_formula_structural   Ho8Hf11Si16W
_chemical_formula_sum   'Ho8 Hf11 Si16 W1'
_cell_volume   694.05335681
_cell_formula_units_Z   1
loop_
 _symmetry_equiv_pos_site_id
 _symmetry_equiv_pos_as_xyz
  1  'x, y, z'
loop_
 _atom_site_type_symbol
 _atom_site_label
 _atom_site_symmetry_multiplicity
 _atom_site_fract_x
 _atom_site_fract_y
 _atom_site_fract_z
 _atom_site_occupancy
  Ho  Ho0  1  0.998369  0.343568  0.212556  1
  Ho  Ho1  1  0.004442  0.656573  0.716888  1
  Ho  Ho2  1  0.156338  0.495370  0.465319  1
  Ho  Ho3  1  0.501873  0.845516  0.034165  1
  Ho  Ho4  1  0.845516  0.501873  0.965835  1
  Ho  Ho5  1  0.495370  0.156338  0.534681  1
  Ho  Ho6  1  0.343568  0.998369  0.787444  1
  Ho  Ho7  1  0.656573  0.004442  0.283112  1
  Hf  Hf8  1  0.825575  0.825575  0.500000  1
  Hf  Hf9  1  0.324430  0.674504  0.248687  1
  Hf  Hf10  1  0.674504  0.324430  0.751313  1
  Hf  Hf11  1  0.147557  0.997369  0.373399  1
  Hf  Hf12  1  0.853589  0.004651  0.877768  1
  Hf  Hf13  1  0.503852  0.648078  0.624804  1
  Hf  Hf14  1  0.349703  0.493532  0.877219  1
  Hf  Hf15  1  0.493532  0.349703  0.122781  1
  Hf  Hf16  1  0.648078  0.503852  0.375196  1
  Hf  Hf17  1  0.997369  0.147557  0.626601  1
  Hf  Hf18  1  0.004651  0.853589  0.122232  1
  Si  Si19  1  0.361414  0.295531  0.316383  1
  Si  Si20  1  0.638189  0.704494  0.818121  1
  Si  Si21  1  0.204726  0.861618  0.567413  1
  Si  Si22  1  0.139188  0.797585  0.932798  1
  Si  Si23  1  0.797585  0.139188  0.067202  1
  Si  Si24  1  0.861618  0.204726  0.432587  1
  Si  Si25  1  0.295531  0.361414  0.683617  1
  Si  Si26  1  0.704494  0.638189  0.181879  1
  Si  Si27  1  0.295034  0.050894  0.182194  1
  Si  Si28  1  0.703154  0.951723  0.686358  1
  Si  Si29  1  0.450704  0.796600  0.434935  1
  Si  Si30  1  0.202763  0.546006  0.063958  1
  Si  Si31  1  0.546006  0.202763  0.936042  1
  Si  Si32  1  0.796600  0.450704  0.565065  1
  Si  Si33  1  0.050894  0.295034  0.817806  1
  Si  Si34  1  0.951723  0.703154  0.313642  1
  W  W35  1  0.175484  0.175484  0.000000  1
