# generated using pymatgen
data_Y8Si16(MoW3)3
_symmetry_space_group_name_H-M   'P 1'
_cell_length_a   6.78409183
_cell_length_b   6.95701175
_cell_length_c   12.92329605
_cell_angle_alpha   89.96685453
_cell_angle_beta   90.02385898
_cell_angle_gamma   90.06494490
_symmetry_Int_Tables_number   1
_chemical_formula_structural   Y8Si16(MoW3)3
_chemical_formula_sum   'Y8 Si16 Mo3 W9'
_cell_volume   609.94034211
_cell_formula_units_Z   1
loop_
 _symmetry_equiv_pos_site_id
 _symmetry_equiv_pos_as_xyz
  1  'x, y, z'
loop_
 _atom_site_type_symbol
 _atom_site_label
 _atom_site_symmetry_multiplicity
 _atom_site_fract_x
 _atom_site_fract_y
 _atom_site_fract_z
 _atom_site_occupancy
  Y  Y0  1  0.496647  0.332491  0.093531  1
  Y  Y1  1  0.996201  0.167550  0.406488  1
  Y  Y2  1  0.503481  0.667597  0.593449  1
  Y  Y3  1  0.003493  0.832548  0.906290  1
  Y  Y4  1  0.502993  0.667541  0.906380  1
  Y  Y5  1  0.002925  0.832214  0.593300  1
  Y  Y6  1  0.496340  0.332586  0.406555  1
  Y  Y7  1  0.997043  0.167739  0.093531  1
  Si  Si8  1  0.660130  0.042199  0.547200  1
  Si  Si9  1  0.159642  0.457821  0.952651  1
  Si  Si10  1  0.340263  0.958034  0.047469  1
  Si  Si11  1  0.839537  0.542185  0.453249  1
  Si  Si12  1  0.338889  0.957722  0.452796  1
  Si  Si13  1  0.840129  0.542614  0.047625  1
  Si  Si14  1  0.660254  0.042523  0.952300  1
  Si  Si15  1  0.160993  0.457193  0.547222  1
  Si  Si16  1  0.534928  0.369159  0.749336  1
  Si  Si17  1  0.034892  0.131035  0.750794  1
  Si  Si18  1  0.465676  0.630489  0.249303  1
  Si  Si19  1  0.964531  0.869725  0.250067  1
  Si  Si20  1  0.802127  0.631590  0.750367  1
  Si  Si21  1  0.301979  0.868316  0.749588  1
  Si  Si22  1  0.198296  0.367724  0.250261  1
  Si  Si23  1  0.697787  0.131762  0.249867  1
  Mo  Mo24  1  0.669772  0.835974  0.125219  1
  Mo  Mo25  1  0.829853  0.336756  0.875310  1
  Mo  Mo26  1  0.330387  0.163277  0.624939  1
  W  W27  1  0.831922  0.335470  0.626702  1
  W  W28  1  0.331873  0.164870  0.873537  1
  W  W29  1  0.169100  0.663850  0.125756  1
  W  W30  1  0.667986  0.835494  0.373680  1
  W  W31  1  0.169491  0.663381  0.374455  1
  W  W32  1  0.665089  0.000555  0.749844  1
  W  W33  1  0.164946  0.499477  0.749683  1
  W  W34  1  0.334594  0.999357  0.250411  1
  W  W35  1  0.835814  0.501187  0.250846  1
