# generated using pymatgen
data_Er3LuGa18Ir5Pt
_symmetry_space_group_name_H-M   'P 1'
_cell_length_a   7.59076385
_cell_length_b   7.58981173
_cell_length_c   9.46474400
_cell_angle_alpha   89.97102413
_cell_angle_beta   89.97377203
_cell_angle_gamma   119.91088180
_symmetry_Int_Tables_number   1
_chemical_formula_structural   Er3LuGa18Ir5Pt
_chemical_formula_sum   'Er3 Lu1 Ga18 Ir5 Pt1'
_cell_volume   472.65590613
_cell_formula_units_Z   1
loop_
 _symmetry_equiv_pos_site_id
 _symmetry_equiv_pos_as_xyz
  1  'x, y, z'
loop_
 _atom_site_type_symbol
 _atom_site_label
 _atom_site_symmetry_multiplicity
 _atom_site_fract_x
 _atom_site_fract_y
 _atom_site_fract_z
 _atom_site_occupancy
  Er  Er0  1  0.002291  0.329861  0.248672  1
  Er  Er1  1  0.670156  0.997444  0.751277  1
  Er  Er2  1  0.331213  0.004222  0.248659  1
  Lu  Lu3  1  0.995950  0.669513  0.751831  1
  Ga  Ga4  1  0.128481  0.127182  0.750162  1
  Ga  Ga5  1  0.872906  0.871480  0.249506  1
  Ga  Ga6  1  0.001937  0.335161  0.582725  1
  Ga  Ga7  1  0.004991  0.668418  0.418608  1
  Ga  Ga8  1  0.001972  0.665524  0.079858  1
  Ga  Ga9  1  0.334247  0.997436  0.919122  1
  Ga  Ga10  1  0.998440  0.335216  0.918581  1
  Ga  Ga11  1  0.665697  0.001418  0.080833  1
  Ga  Ga12  1  0.665411  0.997681  0.417817  1
  Ga  Ga13  1  0.330633  0.994507  0.582815  1
  Ga  Ga14  1  0.331539  0.331801  0.065576  1
  Ga  Ga15  1  0.668748  0.668476  0.933533  1
  Ga  Ga16  1  0.668966  0.671204  0.570555  1
  Ga  Ga17  1  0.328471  0.331626  0.430673  1
  Ga  Ga18  1  0.340009  0.548669  0.750736  1
  Ga  Ga19  1  0.660461  0.455577  0.247482  1
  Ga  Ga20  1  0.545313  0.339532  0.752081  1
  Ga  Ga21  1  0.451237  0.659775  0.249281  1
  Ir  Ir22  1  0.329025  0.671048  0.500256  1
  Ir  Ir23  1  0.328424  0.671672  0.999784  1
  Ir  Ir24  1  0.671969  0.328276  0.999687  1
  Ir  Ir25  1  0.000177  0.999668  0.500293  1
  Ir  Ir26  1  0.999770  0.999864  0.999642  1
  Pt  Pt27  1  0.671562  0.327749  0.499958  1
