# generated using pymatgen
data_DyHo3Mg2(CuNi)2
_symmetry_space_group_name_H-M   'P 1'
_cell_length_a   7.53387262
_cell_length_b   7.53387202
_cell_length_c   3.64170700
_cell_angle_alpha   90.00000000
_cell_angle_beta   90.00000000
_cell_angle_gamma   88.68880566
_symmetry_Int_Tables_number   1
_chemical_formula_structural   DyHo3Mg2(CuNi)2
_chemical_formula_sum   'Dy1 Ho3 Mg2 Cu2 Ni2'
_cell_volume   206.64636997
_cell_formula_units_Z   1
loop_
 _symmetry_equiv_pos_site_id
 _symmetry_equiv_pos_as_xyz
  1  'x, y, z'
loop_
 _atom_site_type_symbol
 _atom_site_label
 _atom_site_symmetry_multiplicity
 _atom_site_fract_x
 _atom_site_fract_y
 _atom_site_fract_z
 _atom_site_occupancy
  Dy  Dy0  1  0.181508  0.318492  0.500000  1
  Ho  Ho1  1  0.663292  0.162647  0.500000  1
  Ho  Ho2  1  0.337353  0.836708  0.500000  1
  Ho  Ho3  1  0.818330  0.681670  0.500000  1
  Mg  Mg4  1  0.999936  0.999553  0.000000  1
  Mg  Mg5  1  0.500447  0.500064  0.000000  1
  Cu  Cu6  1  0.120491  0.622062  0.000000  1
  Cu  Cu7  1  0.877938  0.379509  0.000000  1
  Ni  Ni8  1  0.621124  0.878876  0.000000  1
  Ni  Ni9  1  0.379582  0.120418  0.000000  1
