# generated using pymatgen
data_MgZn2SiRh4
_symmetry_space_group_name_H-M   'P 1'
_cell_length_a   7.37573432
_cell_length_b   7.37573434
_cell_length_c   7.37573700
_cell_angle_alpha   33.53915281
_cell_angle_beta   33.53913844
_cell_angle_gamma   33.53916057
_symmetry_Int_Tables_number   1
_chemical_formula_structural   MgZn2SiRh4
_chemical_formula_sum   'Mg1 Zn2 Si1 Rh4'
_cell_volume   109.09904464
_cell_formula_units_Z   1
loop_
 _symmetry_equiv_pos_site_id
 _symmetry_equiv_pos_as_xyz
  1  'x, y, z'
loop_
 _atom_site_type_symbol
 _atom_site_label
 _atom_site_symmetry_multiplicity
 _atom_site_fract_x
 _atom_site_fract_y
 _atom_site_fract_z
 _atom_site_occupancy
  Mg  Mg0  1  0.000000  0.000000  0.000000  1
  Zn  Zn1  1  0.255379  0.255379  0.255379  1
  Zn  Zn2  1  0.744621  0.744621  0.744621  1
  Si  Si3  1  0.500000  0.500000  0.500000  1
  Rh  Rh4  1  0.382425  0.382425  0.382425  1
  Rh  Rh5  1  0.869305  0.869305  0.869305  1
  Rh  Rh6  1  0.617575  0.617575  0.617575  1
  Rh  Rh7  1  0.130695  0.130695  0.130695  1
