# generated using pymatgen
data_Tb10InBiPb4
_symmetry_space_group_name_H-M   'P 1'
_cell_length_a   6.64302711
_cell_length_b   9.07903067
_cell_length_c   9.11677900
_cell_angle_alpha   119.89945781
_cell_angle_beta   89.98939994
_cell_angle_gamma   90.00535333
_symmetry_Int_Tables_number   1
_chemical_formula_structural   Tb10InBiPb4
_chemical_formula_sum   'Tb10 In1 Bi1 Pb4'
_cell_volume   476.66873310
_cell_formula_units_Z   1
loop_
 _symmetry_equiv_pos_site_id
 _symmetry_equiv_pos_as_xyz
  1  'x, y, z'
loop_
 _atom_site_type_symbol
 _atom_site_label
 _atom_site_symmetry_multiplicity
 _atom_site_fract_x
 _atom_site_fract_y
 _atom_site_fract_z
 _atom_site_occupancy
  Tb  Tb0  1  0.749996  0.235461  0.995624  1
  Tb  Tb1  1  0.750109  0.761824  0.767486  1
  Tb  Tb2  1  0.750113  0.990450  0.233067  1
  Tb  Tb3  1  0.250030  0.763826  0.000671  1
  Tb  Tb4  1  0.250135  0.238222  0.237080  1
  Tb  Tb5  1  0.250086  0.001658  0.763292  1
  Tb  Tb6  1  0.499846  0.336488  0.672814  1
  Tb  Tb7  1  0.499866  0.669199  0.329233  1
  Tb  Tb8  1  0.000112  0.669536  0.329432  1
  Tb  Tb9  1  0.000087  0.336304  0.672663  1
  In  In10  1  0.749815  0.599870  0.999203  1
  Bi  Bi11  1  0.750080  0.391924  0.392388  1
  Pb  Pb12  1  0.749770  0.998576  0.604930  1
  Pb  Pb13  1  0.249734  0.396561  0.001928  1
  Pb  Pb14  1  0.249998  0.605888  0.603704  1
  Pb  Pb15  1  0.250223  0.004212  0.396482  1
