# generated using pymatgen
data_Tb12Si12TcIr3
_symmetry_space_group_name_H-M   'P 1'
_cell_length_a   4.24115300
_cell_length_b   10.73487056
_cell_length_c   12.40197267
_cell_angle_alpha   90.06132625
_cell_angle_beta   90.00000000
_cell_angle_gamma   90.00000000
_symmetry_Int_Tables_number   1
_chemical_formula_structural   Tb12Si12TcIr3
_chemical_formula_sum   'Tb12 Si12 Tc1 Ir3'
_cell_volume   564.63952165
_cell_formula_units_Z   1
loop_
 _symmetry_equiv_pos_site_id
 _symmetry_equiv_pos_as_xyz
  1  'x, y, z'
loop_
 _atom_site_type_symbol
 _atom_site_label
 _atom_site_symmetry_multiplicity
 _atom_site_fract_x
 _atom_site_fract_y
 _atom_site_fract_z
 _atom_site_occupancy
  Tb  Tb0  1  0.250000  0.879558  0.020613  1
  Tb  Tb1  1  0.250000  0.620084  0.521547  1
  Tb  Tb2  1  0.750000  0.118249  0.979812  1
  Tb  Tb3  1  0.750000  0.379592  0.479315  1
  Tb  Tb4  1  0.250000  0.920970  0.603961  1
  Tb  Tb5  1  0.250000  0.580610  0.105866  1
  Tb  Tb6  1  0.750000  0.079949  0.394357  1
  Tb  Tb7  1  0.750000  0.420096  0.896420  1
  Tb  Tb8  1  0.250000  0.663621  0.799629  1
  Tb  Tb9  1  0.250000  0.840007  0.300771  1
  Tb  Tb10  1  0.750000  0.341038  0.198191  1
  Tb  Tb11  1  0.750000  0.158848  0.699181  1
  Si  Si12  1  0.250000  0.009444  0.821597  1
  Si  Si13  1  0.250000  0.489556  0.322186  1
  Si  Si14  1  0.750000  0.990105  0.178592  1
  Si  Si15  1  0.750000  0.509229  0.680182  1
  Si  Si16  1  0.250000  0.247668  0.841948  1
  Si  Si17  1  0.250000  0.251974  0.339938  1
  Si  Si18  1  0.750000  0.752854  0.159179  1
  Si  Si19  1  0.750000  0.750220  0.658072  1
  Si  Si20  1  0.250000  0.201302  0.541489  1
  Si  Si21  1  0.250000  0.295739  0.043675  1
  Si  Si22  1  0.750000  0.798616  0.456540  1
  Si  Si23  1  0.750000  0.700418  0.956952  1
  Tc  Tc24  1  0.250000  0.390763  0.680731  1
  Ir  Ir25  1  0.250000  0.109470  0.180830  1
  Ir  Ir26  1  0.750000  0.611160  0.318889  1
  Ir  Ir27  1  0.750000  0.888857  0.819534  1
