# generated using pymatgen
data_Ho2GaSi13Ir6
_symmetry_space_group_name_H-M   'P 1'
_cell_length_a   8.02800861
_cell_length_b   8.02800862
_cell_length_c   8.02800874
_cell_angle_alpha   57.05634412
_cell_angle_beta   57.05634102
_cell_angle_gamma   57.05633583
_symmetry_Int_Tables_number   1
_chemical_formula_structural   Ho2GaSi13Ir6
_chemical_formula_sum   'Ho2 Ga1 Si13 Ir6'
_cell_volume   341.02949442
_cell_formula_units_Z   1
loop_
 _symmetry_equiv_pos_site_id
 _symmetry_equiv_pos_as_xyz
  1  'x, y, z'
loop_
 _atom_site_type_symbol
 _atom_site_label
 _atom_site_symmetry_multiplicity
 _atom_site_fract_x
 _atom_site_fract_y
 _atom_site_fract_z
 _atom_site_occupancy
  Ho  Ho0  1  0.999342  0.999342  0.999342  1
  Ho  Ho1  1  0.500658  0.500658  0.500658  1
  Ga  Ga2  1  0.750000  0.750000  0.750000  1
  Si  Si3  1  0.250000  0.250000  0.250000  1
  Si  Si4  1  0.850154  0.065986  0.670770  1
  Si  Si5  1  0.670770  0.850154  0.065986  1
  Si  Si6  1  0.065986  0.670770  0.850154  1
  Si  Si7  1  0.649846  0.829230  0.434014  1
  Si  Si8  1  0.434014  0.649846  0.829230  1
  Si  Si9  1  0.829230  0.434014  0.649846  1
  Si  Si10  1  0.171286  0.560858  0.355072  1
  Si  Si11  1  0.560858  0.355072  0.171286  1
  Si  Si12  1  0.355072  0.171286  0.560858  1
  Si  Si13  1  0.939142  0.328714  0.144928  1
  Si  Si14  1  0.328714  0.144928  0.939142  1
  Si  Si15  1  0.144928  0.939142  0.328714  1
  Ir  Ir16  1  0.082611  0.417389  0.750000  1
  Ir  Ir17  1  0.250000  0.928895  0.571105  1
  Ir  Ir18  1  0.571105  0.250000  0.928895  1
  Ir  Ir19  1  0.928895  0.571105  0.250000  1
  Ir  Ir20  1  0.417389  0.750000  0.082611  1
  Ir  Ir21  1  0.750000  0.082611  0.417389  1
