# generated using pymatgen
data_BaSr2AgP2H
_symmetry_space_group_name_H-M   'P 1'
_cell_length_a   4.45738800
_cell_length_b   12.27414700
_cell_length_c   13.01170900
_cell_angle_alpha   90.00000000
_cell_angle_beta   90.00000000
_cell_angle_gamma   90.00000000
_symmetry_Int_Tables_number   1
_chemical_formula_structural   BaSr2AgP2H
_chemical_formula_sum   'Ba4 Sr8 Ag4 P8 H4'
_cell_volume   711.87886896
_cell_formula_units_Z   4
loop_
 _symmetry_equiv_pos_site_id
 _symmetry_equiv_pos_as_xyz
  1  'x, y, z'
loop_
 _atom_site_type_symbol
 _atom_site_label
 _atom_site_symmetry_multiplicity
 _atom_site_fract_x
 _atom_site_fract_y
 _atom_site_fract_z
 _atom_site_occupancy
  Ba  Ba0  1  0.250000  0.064355  0.623521  1
  Ba  Ba1  1  0.250000  0.564355  0.876479  1
  Ba  Ba2  1  0.750000  0.935645  0.376479  1
  Ba  Ba3  1  0.750000  0.435645  0.123521  1
  Sr  Sr4  1  0.250000  0.208224  0.299426  1
  Sr  Sr5  1  0.250000  0.708224  0.200574  1
  Sr  Sr6  1  0.750000  0.791776  0.700574  1
  Sr  Sr7  1  0.750000  0.291776  0.799426  1
  Sr  Sr8  1  0.250000  0.369694  0.556783  1
  Sr  Sr9  1  0.250000  0.869694  0.943217  1
  Sr  Sr10  1  0.750000  0.630306  0.443217  1
  Sr  Sr11  1  0.750000  0.130306  0.056783  1
  Ag  Ag12  1  0.250000  0.121694  0.875058  1
  Ag  Ag13  1  0.250000  0.621694  0.624942  1
  Ag  Ag14  1  0.750000  0.878306  0.124942  1
  Ag  Ag15  1  0.750000  0.378306  0.375058  1
  P  P16  1  0.250000  0.305811  0.982030  1
  P  P17  1  0.250000  0.805811  0.517970  1
  P  P18  1  0.750000  0.694189  0.017970  1
  P  P19  1  0.750000  0.194189  0.482030  1
  P  P20  1  0.250000  0.476065  0.323025  1
  P  P21  1  0.250000  0.976065  0.176975  1
  P  P22  1  0.750000  0.523935  0.676975  1
  P  P23  1  0.750000  0.023935  0.823025  1
  H  H24  1  0.250000  0.262217  0.713808  1
  H  H25  1  0.250000  0.762217  0.786192  1
  H  H26  1  0.750000  0.737783  0.286192  1
  H  H27  1  0.750000  0.237783  0.213808  1
