# generated using pymatgen
data_TbLu7(Sc3Sn4)4
_symmetry_space_group_name_H-M   'P 1'
_cell_length_a   7.69301026
_cell_length_b   7.92124328
_cell_length_c   14.83527500
_cell_angle_alpha   89.99734542
_cell_angle_beta   89.93973263
_cell_angle_gamma   90.03251757
_symmetry_Int_Tables_number   1
_chemical_formula_structural   TbLu7(Sc3Sn4)4
_chemical_formula_sum   'Tb1 Lu7 Sc12 Sn16'
_cell_volume   904.03439473
_cell_formula_units_Z   1
loop_
 _symmetry_equiv_pos_site_id
 _symmetry_equiv_pos_as_xyz
  1  'x, y, z'
loop_
 _atom_site_type_symbol
 _atom_site_label
 _atom_site_symmetry_multiplicity
 _atom_site_fract_x
 _atom_site_fract_y
 _atom_site_fract_z
 _atom_site_occupancy
  Tb  Tb0  1  0.990316  0.177261  0.093601  1
  Lu  Lu1  1  0.010449  0.821421  0.905704  1
  Lu  Lu2  1  0.511530  0.677548  0.905588  1
  Lu  Lu3  1  0.011358  0.821988  0.593790  1
  Lu  Lu4  1  0.488825  0.322321  0.093672  1
  Lu  Lu5  1  0.988025  0.178447  0.405786  1
  Lu  Lu6  1  0.488953  0.322049  0.406915  1
  Lu  Lu7  1  0.511026  0.678486  0.593795  1
  Sc  Sc8  1  0.174876  0.495356  0.749695  1
  Sc  Sc9  1  0.825392  0.504906  0.250404  1
  Sc  Sc10  1  0.325594  0.994775  0.250372  1
  Sc  Sc11  1  0.674471  0.004786  0.749672  1
  Sc  Sc12  1  0.345593  0.160738  0.627042  1
  Sc  Sc13  1  0.653920  0.839700  0.373121  1
  Sc  Sc14  1  0.154255  0.660663  0.373523  1
  Sc  Sc15  1  0.654710  0.838822  0.127531  1
  Sc  Sc16  1  0.845955  0.339420  0.626891  1
  Sc  Sc17  1  0.344978  0.160941  0.872768  1
  Sc  Sc18  1  0.844752  0.339866  0.872957  1
  Sc  Sc19  1  0.154659  0.660304  0.127039  1
  Sn  Sn20  1  0.037469  0.123106  0.750154  1
  Sn  Sn21  1  0.962127  0.875917  0.250032  1
  Sn  Sn22  1  0.461998  0.622616  0.250170  1
  Sn  Sn23  1  0.537731  0.377183  0.749755  1
  Sn  Sn24  1  0.316439  0.847224  0.750004  1
  Sn  Sn25  1  0.682192  0.152884  0.250557  1
  Sn  Sn26  1  0.185017  0.348404  0.251365  1
  Sn  Sn27  1  0.816737  0.652805  0.749810  1
  Sn  Sn28  1  0.189325  0.457582  0.542147  1
  Sn  Sn29  1  0.810825  0.542652  0.458033  1
  Sn  Sn30  1  0.310152  0.958355  0.458010  1
  Sn  Sn31  1  0.810436  0.543565  0.041806  1
  Sn  Sn32  1  0.689375  0.042395  0.542063  1
  Sn  Sn33  1  0.189360  0.458512  0.957589  1
  Sn  Sn34  1  0.686670  0.041485  0.957135  1
  Sn  Sn35  1  0.314507  0.955519  0.041503  1
