# generated using pymatgen
data_ScMnAsO6
_symmetry_space_group_name_H-M   'P 1'
_cell_length_a   4.90192466
_cell_length_b   4.90192033
_cell_length_c   4.60258773
_cell_angle_alpha   90.01479161
_cell_angle_beta   90.01475310
_cell_angle_gamma   119.97930701
_symmetry_Int_Tables_number   1
_chemical_formula_structural   ScMnAsO6
_chemical_formula_sum   'Sc1 Mn1 As1 O6'
_cell_volume   95.79791327
_cell_formula_units_Z   1
loop_
 _symmetry_equiv_pos_site_id
 _symmetry_equiv_pos_as_xyz
  1  'x, y, z'
loop_
 _atom_site_type_symbol
 _atom_site_label
 _atom_site_symmetry_multiplicity
 _atom_site_fract_x
 _atom_site_fract_y
 _atom_site_fract_z
 _atom_site_occupancy
  Sc  Sc0  1  0.481452  0.518551  0.499999  1
  Mn  Mn1  1  0.814967  0.185035  0.999999  1
  As  As2  1  0.148247  0.851756  0.999999  1
  O  O3  1  0.128896  0.156698  0.224914  1
  O  O4  1  0.843880  0.528112  0.225128  1
  O  O5  1  0.472476  0.871572  0.225053  1
  O  O6  1  0.128430  0.527526  0.774943  1
  O  O7  1  0.471890  0.156122  0.774869  1
  O  O8  1  0.843305  0.871106  0.775082  1
