# generated using pymatgen
data_Sr2Zr3Si7Pt9
_symmetry_space_group_name_H-M   'P 1'
_cell_length_a   10.15314400
_cell_length_b   10.15314345
_cell_length_c   4.04070400
_cell_angle_alpha   90.00000000
_cell_angle_beta   90.00000000
_cell_angle_gamma   120.00000178
_symmetry_Int_Tables_number   1
_chemical_formula_structural   Sr2Zr3Si7Pt9
_chemical_formula_sum   'Sr2 Zr3 Si7 Pt9'
_cell_volume   360.73537220
_cell_formula_units_Z   1
loop_
 _symmetry_equiv_pos_site_id
 _symmetry_equiv_pos_as_xyz
  1  'x, y, z'
loop_
 _atom_site_type_symbol
 _atom_site_label
 _atom_site_symmetry_multiplicity
 _atom_site_fract_x
 _atom_site_fract_y
 _atom_site_fract_z
 _atom_site_occupancy
  Sr  Sr0  1  0.000000  0.000000  0.000000  1
  Sr  Sr1  1  0.333333  0.666667  0.500000  1
  Zr  Zr2  1  0.893524  0.456223  0.500000  1
  Zr  Zr3  1  0.562700  0.106476  0.500000  1
  Zr  Zr4  1  0.543777  0.437300  0.500000  1
  Si  Si5  1  0.247944  0.200285  0.500000  1
  Si  Si6  1  0.799715  0.047660  0.500000  1
  Si  Si7  1  0.952340  0.752056  0.500000  1
  Si  Si8  1  0.559368  0.647816  0.000000  1
  Si  Si9  1  0.352184  0.911550  0.000000  1
  Si  Si10  1  0.088450  0.440632  0.000000  1
  Si  Si11  1  0.666667  0.333333  0.000000  1
  Pt  Pt12  1  0.223496  0.939678  0.500000  1
  Pt  Pt13  1  0.060322  0.283819  0.500000  1
  Pt  Pt14  1  0.716181  0.776504  0.500000  1
  Pt  Pt15  1  0.311020  0.405529  0.000000  1
  Pt  Pt16  1  0.594471  0.905491  0.000000  1
  Pt  Pt17  1  0.094509  0.688980  0.000000  1
  Pt  Pt18  1  0.389972  0.173846  0.000000  1
  Pt  Pt19  1  0.826154  0.216126  0.000000  1
  Pt  Pt20  1  0.783874  0.610028  0.000000  1
