# generated using pymatgen
data_Ac2Nd2Zn3Ir11
_symmetry_space_group_name_H-M   'P 1'
_cell_length_a   13.06494116
_cell_length_b   13.06494130
_cell_length_c   13.06494195
_cell_angle_alpha   24.39609151
_cell_angle_beta   24.39609165
_cell_angle_gamma   24.39609179
_symmetry_Int_Tables_number   1
_chemical_formula_structural   Ac2Nd2Zn3Ir11
_chemical_formula_sum   'Ac2 Nd2 Zn3 Ir11'
_cell_volume   334.46481793
_cell_formula_units_Z   1
loop_
 _symmetry_equiv_pos_site_id
 _symmetry_equiv_pos_as_xyz
  1  'x, y, z'
loop_
 _atom_site_type_symbol
 _atom_site_label
 _atom_site_symmetry_multiplicity
 _atom_site_fract_x
 _atom_site_fract_y
 _atom_site_fract_z
 _atom_site_occupancy
  Ac  Ac0  1  0.950094  0.950094  0.950094  1
  Ac  Ac1  1  0.052782  0.052782  0.052782  1
  Nd  Nd2  1  0.852752  0.852752  0.852752  1
  Nd  Nd3  1  0.148939  0.148939  0.148939  1
  Zn  Zn4  1  0.721624  0.721624  0.721624  1
  Zn  Zn5  1  0.278381  0.278381  0.278381  1
  Zn  Zn6  1  0.609606  0.609606  0.609606  1
  Ir  Ir7  1  0.500577  0.500577  0.500577  1
  Ir  Ir8  1  0.387411  0.387411  0.387411  1
  Ir  Ir9  1  0.501400  0.501400  0.996136  1
  Ir  Ir10  1  0.996136  0.501400  0.501400  1
  Ir  Ir11  1  0.501400  0.996136  0.501400  1
  Ir  Ir12  1  0.385896  0.894867  0.385896  1
  Ir  Ir13  1  0.385896  0.385896  0.894867  1
  Ir  Ir14  1  0.894867  0.385896  0.385896  1
  Ir  Ir15  1  0.612431  0.107378  0.612431  1
  Ir  Ir16  1  0.612431  0.612431  0.107378  1
  Ir  Ir17  1  0.107378  0.612431  0.612431  1
