# generated using pymatgen
data_Tb2YSi5
_symmetry_space_group_name_H-M   'P 1'
_cell_length_a   6.69121519
_cell_length_b   6.69121393
_cell_length_c   8.31569100
_cell_angle_alpha   90.00000000
_cell_angle_beta   90.00000000
_cell_angle_gamma   120.02723984
_symmetry_Int_Tables_number   1
_chemical_formula_structural   Tb2YSi5
_chemical_formula_sum   'Tb4 Y2 Si10'
_cell_volume   322.34401708
_cell_formula_units_Z   2
loop_
 _symmetry_equiv_pos_site_id
 _symmetry_equiv_pos_as_xyz
  1  'x, y, z'
loop_
 _atom_site_type_symbol
 _atom_site_label
 _atom_site_symmetry_multiplicity
 _atom_site_fract_x
 _atom_site_fract_y
 _atom_site_fract_z
 _atom_site_occupancy
  Tb  Tb0  1  0.330728  0.999979  0.999995  1
  Tb  Tb1  1  0.330728  0.999979  0.500005  1
  Tb  Tb2  1  0.999979  0.330728  0.499995  1
  Tb  Tb3  1  0.999979  0.330728  0.000005  1
  Y  Y4  1  0.669262  0.669262  0.000000  1
  Y  Y5  1  0.669262  0.669262  0.500000  1
  Si  Si6  1  0.380294  0.331453  0.250000  1
  Si  Si7  1  0.668727  0.048915  0.250000  1
  Si  Si8  1  0.951027  0.619862  0.250000  1
  Si  Si9  1  0.619862  0.951027  0.750000  1
  Si  Si10  1  0.999906  0.999897  0.250000  1
  Si  Si11  1  0.666628  0.333353  0.750000  1
  Si  Si12  1  0.048915  0.668727  0.750000  1
  Si  Si13  1  0.331453  0.380294  0.750000  1
  Si  Si14  1  0.333353  0.666628  0.250000  1
  Si  Si15  1  0.999897  0.999906  0.750000  1
