# generated using pymatgen
data_Zr6Al7Ni16
_symmetry_space_group_name_H-M   'P 1'
_cell_length_a   8.26678538
_cell_length_b   8.26678538
_cell_length_c   8.26678538
_cell_angle_alpha   60.00000000
_cell_angle_beta   60.00000000
_cell_angle_gamma   60.00000000
_symmetry_Int_Tables_number   1
_chemical_formula_structural   Zr6Al7Ni16
_chemical_formula_sum   'Zr6 Al7 Ni16'
_cell_volume   399.47995309
_cell_formula_units_Z   1
loop_
 _symmetry_equiv_pos_site_id
 _symmetry_equiv_pos_as_xyz
  1  'x, y, z'
loop_
 _atom_site_type_symbol
 _atom_site_label
 _atom_site_symmetry_multiplicity
 _atom_site_fract_x
 _atom_site_fract_y
 _atom_site_fract_z
 _atom_site_occupancy
  Zr  Zr0  1  0.706846  0.706846  0.293154  1
  Zr  Zr1  1  0.293154  0.706846  0.293154  1
  Zr  Zr2  1  0.706846  0.293154  0.293154  1
  Zr  Zr3  1  0.293154  0.293154  0.706846  1
  Zr  Zr4  1  0.706846  0.293154  0.706846  1
  Zr  Zr5  1  0.293154  0.706846  0.706846  1
  Al  Al6  1  0.000000  0.000000  0.000000  1
  Al  Al7  1  0.000000  0.000000  0.500000  1
  Al  Al8  1  0.500000  0.000000  0.500000  1
  Al  Al9  1  0.000000  0.500000  0.500000  1
  Al  Al10  1  0.500000  0.500000  0.000000  1
  Al  Al11  1  0.000000  0.500000  0.000000  1
  Al  Al12  1  0.500000  0.000000  0.000000  1
  Ni  Ni13  1  0.879628  0.879628  0.361117  1
  Ni  Ni14  1  0.879628  0.361117  0.879628  1
  Ni  Ni15  1  0.361117  0.879628  0.879628  1
  Ni  Ni16  1  0.879628  0.879628  0.879628  1
  Ni  Ni17  1  0.120372  0.120372  0.638883  1
  Ni  Ni18  1  0.120372  0.638883  0.120372  1
  Ni  Ni19  1  0.638883  0.120372  0.120372  1
  Ni  Ni20  1  0.120372  0.120372  0.120372  1
  Ni  Ni21  1  0.669423  0.669423  0.991730  1
  Ni  Ni22  1  0.669423  0.991730  0.669423  1
  Ni  Ni23  1  0.991730  0.669423  0.669423  1
  Ni  Ni24  1  0.669423  0.669423  0.669423  1
  Ni  Ni25  1  0.330577  0.330577  0.008270  1
  Ni  Ni26  1  0.330577  0.008270  0.330577  1
  Ni  Ni27  1  0.008270  0.330577  0.330577  1
  Ni  Ni28  1  0.330577  0.330577  0.330577  1
