# generated using pymatgen
data_Zr2UF11
_symmetry_space_group_name_H-M   'P 1'
_cell_length_a   8.51388055
_cell_length_b   8.51388037
_cell_length_c   8.51388008
_cell_angle_alpha   124.66791578
_cell_angle_beta   106.42195267
_cell_angle_gamma   98.53838601
_symmetry_Int_Tables_number   1
_chemical_formula_structural   Zr2UF11
_chemical_formula_sum   'Zr4 U2 F22'
_cell_volume   447.89330136
_cell_formula_units_Z   2
loop_
 _symmetry_equiv_pos_site_id
 _symmetry_equiv_pos_as_xyz
  1  'x, y, z'
loop_
 _atom_site_type_symbol
 _atom_site_label
 _atom_site_symmetry_multiplicity
 _atom_site_fract_x
 _atom_site_fract_y
 _atom_site_fract_z
 _atom_site_occupancy
  Zr  Zr0  1  0.180778  0.134301  0.315079  1
  Zr  Zr1  1  0.819222  0.865699  0.684921  1
  Zr  Zr2  1  0.680778  0.365699  0.046477  1
  Zr  Zr3  1  0.319222  0.634301  0.953523  1
  U  U4  1  0.250000  0.750000  0.500000  1
  U  U5  1  0.750000  0.250000  0.500000  1
  F  F6  1  0.206519  0.396259  0.341540  1
  F  F7  1  0.793481  0.603741  0.658460  1
  F  F8  1  0.054720  0.864980  0.658460  1
  F  F9  1  0.445280  0.103741  0.810260  1
  F  F10  1  0.945280  0.135020  0.341540  1
  F  F11  1  0.554720  0.896259  0.189740  1
  F  F12  1  0.293481  0.635020  0.189740  1
  F  F13  1  0.706519  0.364980  0.810260  1
  F  F14  1  0.000000  0.000000  0.000000  1
  F  F15  1  0.500000  0.500000  0.000000  1
  F  F16  1  0.280549  0.370410  0.650959  1
  F  F17  1  0.719451  0.629590  0.349041  1
  F  F18  1  0.780549  0.129590  0.910140  1
  F  F19  1  0.219451  0.870410  0.089860  1
  F  F20  1  0.453712  0.238627  0.417832  1
  F  F21  1  0.546288  0.761373  0.582168  1
  F  F22  1  0.820796  0.035880  0.582168  1
  F  F23  1  0.679204  0.261373  0.215084  1
  F  F24  1  0.179204  0.964120  0.417832  1
  F  F25  1  0.320796  0.738627  0.784916  1
  F  F26  1  0.046288  0.464120  0.784916  1
  F  F27  1  0.953712  0.535880  0.215084  1
