# generated using pymatgen
data_InTc6As13
_symmetry_space_group_name_H-M   'P 1'
_cell_length_a   7.66402025
_cell_length_b   7.66411659
_cell_length_c   7.66401978
_cell_angle_alpha   110.51456556
_cell_angle_beta   107.40421424
_cell_angle_gamma   110.51457702
_symmetry_Int_Tables_number   1
_chemical_formula_structural   InTc6As13
_chemical_formula_sum   'In1 Tc6 As13'
_cell_volume   346.20276475
_cell_formula_units_Z   1
loop_
 _symmetry_equiv_pos_site_id
 _symmetry_equiv_pos_as_xyz
  1  'x, y, z'
loop_
 _atom_site_type_symbol
 _atom_site_label
 _atom_site_symmetry_multiplicity
 _atom_site_fract_x
 _atom_site_fract_y
 _atom_site_fract_z
 _atom_site_occupancy
  In  In0  1  0.750000  0.500000  0.250000  1
  Tc  Tc1  1  0.343154  0.000000  0.343155  1
  Tc  Tc2  1  0.011830  0.335088  0.346917  1
  Tc  Tc3  1  0.011831  0.664915  0.676748  1
  Tc  Tc4  1  0.323252  0.335085  0.988169  1
  Tc  Tc5  1  0.653083  0.664912  0.988170  1
  Tc  Tc6  1  0.656845  0.000000  0.656846  1
  As  As7  1  0.495970  0.747826  0.243795  1
  As  As8  1  0.495970  0.252175  0.748145  1
  As  As9  1  0.756205  0.252174  0.504030  1
  As  As10  1  0.251855  0.747825  0.504030  1
  As  As11  1  0.250000  0.500000  0.750000  1
  As  As12  1  0.997071  0.992200  0.326374  1
  As  As13  1  0.673626  0.007800  0.002929  1
  As  As14  1  0.997070  0.670696  0.004866  1
  As  As15  1  0.334173  0.329304  0.326372  1
  As  As16  1  0.995134  0.329304  0.002930  1
  As  As17  1  0.673628  0.670696  0.665827  1
  As  As18  1  0.334172  0.007798  0.004868  1
  As  As19  1  0.995132  0.992202  0.665828  1
