# generated using pymatgen
data_Er6Tm3Lu(CoSb2)2
_symmetry_space_group_name_H-M   'P 1'
_cell_length_a   7.76076300
_cell_length_b   8.74058425
_cell_length_c   12.07941234
_cell_angle_alpha   90.02742026
_cell_angle_beta   90.00000000
_cell_angle_gamma   90.00000000
_symmetry_Int_Tables_number   1
_chemical_formula_structural   Er6Tm3Lu(CoSb2)2
_chemical_formula_sum   'Er12 Tm6 Lu2 Co4 Sb8'
_cell_volume   819.38996587
_cell_formula_units_Z   2
loop_
 _symmetry_equiv_pos_site_id
 _symmetry_equiv_pos_as_xyz
  1  'x, y, z'
loop_
 _atom_site_type_symbol
 _atom_site_label
 _atom_site_symmetry_multiplicity
 _atom_site_fract_x
 _atom_site_fract_y
 _atom_site_fract_z
 _atom_site_occupancy
  Er  Er0  1  0.156726  0.750140  0.204484  1
  Er  Er1  1  0.656726  0.249860  0.295516  1
  Er  Er2  1  0.843124  0.249967  0.795581  1
  Er  Er3  1  0.343124  0.750033  0.704419  1
  Er  Er4  1  0.451232  0.750119  0.998030  1
  Er  Er5  1  0.951232  0.249881  0.501970  1
  Er  Er6  1  0.549204  0.249806  0.002000  1
  Er  Er7  1  0.049204  0.750194  0.498000  1
  Er  Er8  1  0.622736  0.750067  0.308514  1
  Er  Er9  1  0.122736  0.249933  0.191486  1
  Er  Er10  1  0.377025  0.249833  0.691463  1
  Er  Er11  1  0.877025  0.750167  0.808537  1
  Tm  Tm12  1  0.176284  0.463268  0.934387  1
  Tm  Tm13  1  0.676284  0.536732  0.565613  1
  Tm  Tm14  1  0.176031  0.036737  0.934461  1
  Tm  Tm15  1  0.676031  0.963263  0.565539  1
  Tm  Tm16  1  0.823734  0.536818  0.065664  1
  Tm  Tm17  1  0.323734  0.463182  0.434336  1
  Lu  Lu18  1  0.824640  0.963135  0.065562  1
  Lu  Lu19  1  0.324640  0.036865  0.434438  1
  Co  Co20  1  0.432446  0.750260  0.491074  1
  Co  Co21  1  0.932446  0.249740  0.008926  1
  Co  Co22  1  0.566782  0.249692  0.508753  1
  Co  Co23  1  0.066782  0.750308  0.991247  1
  Sb  Sb24  1  0.931293  0.991748  0.327291  1
  Sb  Sb25  1  0.431293  0.008252  0.172709  1
  Sb  Sb26  1  0.068883  0.491678  0.672728  1
  Sb  Sb27  1  0.568883  0.508322  0.827272  1
  Sb  Sb28  1  0.068795  0.008307  0.672725  1
  Sb  Sb29  1  0.568795  0.991693  0.827275  1
  Sb  Sb30  1  0.931065  0.508318  0.327312  1
  Sb  Sb31  1  0.431065  0.491682  0.172688  1
