# generated using pymatgen
data_CaAc11Zn24
_symmetry_space_group_name_H-M   'P 1'
_cell_length_a   4.75744500
_cell_length_b   7.99996012
_cell_length_c   23.20330018
_cell_angle_alpha   89.98309549
_cell_angle_beta   90.00000000
_cell_angle_gamma   90.00000000
_symmetry_Int_Tables_number   1
_chemical_formula_structural   CaAc11Zn24
_chemical_formula_sum   'Ca1 Ac11 Zn24'
_cell_volume   883.10295433
_cell_formula_units_Z   1
loop_
 _symmetry_equiv_pos_site_id
 _symmetry_equiv_pos_as_xyz
  1  'x, y, z'
loop_
 _atom_site_type_symbol
 _atom_site_label
 _atom_site_symmetry_multiplicity
 _atom_site_fract_x
 _atom_site_fract_y
 _atom_site_fract_z
 _atom_site_occupancy
  Ca  Ca0  1  0.250000  0.783819  0.833453  1
  Ac  Ac1  1  0.250000  0.713429  0.998780  1
  Ac  Ac2  1  0.750000  0.284405  0.997899  1
  Ac  Ac3  1  0.750000  0.214163  0.500626  1
  Ac  Ac4  1  0.250000  0.784296  0.500509  1
  Ac  Ac5  1  0.250000  0.783878  0.166189  1
  Ac  Ac6  1  0.750000  0.211074  0.833362  1
  Ac  Ac7  1  0.750000  0.285006  0.333214  1
  Ac  Ac8  1  0.250000  0.713768  0.668066  1
  Ac  Ac9  1  0.250000  0.715775  0.333330  1
  Ac  Ac10  1  0.750000  0.284909  0.668822  1
  Ac  Ac11  1  0.750000  0.213861  0.165779  1
  Zn  Zn12  1  0.250000  0.416321  0.101150  1
  Zn  Zn13  1  0.750000  0.592485  0.897447  1
  Zn  Zn14  1  0.750000  0.917693  0.398564  1
  Zn  Zn15  1  0.250000  0.081787  0.603070  1
  Zn  Zn16  1  0.250000  0.416741  0.231200  1
  Zn  Zn17  1  0.750000  0.592641  0.769260  1
  Zn  Zn18  1  0.750000  0.917609  0.268084  1
  Zn  Zn19  1  0.250000  0.079189  0.734487  1
  Zn  Zn20  1  0.250000  0.416947  0.435459  1
  Zn  Zn21  1  0.750000  0.580702  0.564876  1
  Zn  Zn22  1  0.750000  0.915351  0.064551  1
  Zn  Zn23  1  0.250000  0.078785  0.932119  1
  Zn  Zn24  1  0.250000  0.081177  0.063637  1
  Zn  Zn25  1  0.750000  0.915684  0.932401  1
  Zn  Zn26  1  0.750000  0.581986  0.435663  1
  Zn  Zn27  1  0.250000  0.416695  0.565427  1
  Zn  Zn28  1  0.250000  0.082228  0.268401  1
  Zn  Zn29  1  0.750000  0.915953  0.734237  1
  Zn  Zn30  1  0.750000  0.581705  0.231046  1
  Zn  Zn31  1  0.250000  0.425766  0.772019  1
  Zn  Zn32  1  0.250000  0.082353  0.398143  1
  Zn  Zn33  1  0.750000  0.915922  0.602237  1
  Zn  Zn34  1  0.750000  0.580264  0.101802  1
  Zn  Zn35  1  0.250000  0.425637  0.894689  1
