# generated using pymatgen
data_Li4HoEr3(SnSb)2
_symmetry_space_group_name_H-M   'P 1'
_cell_length_a   9.37246136
_cell_length_b   9.37995010
_cell_length_c   7.08668702
_cell_angle_alpha   89.99608941
_cell_angle_beta   89.99541733
_cell_angle_gamma   120.03549595
_symmetry_Int_Tables_number   1
_chemical_formula_structural   Li4HoEr3(SnSb)2
_chemical_formula_sum   'Li8 Ho2 Er6 Sn4 Sb4'
_cell_volume   539.35240085
_cell_formula_units_Z   2
loop_
 _symmetry_equiv_pos_site_id
 _symmetry_equiv_pos_as_xyz
  1  'x, y, z'
loop_
 _atom_site_type_symbol
 _atom_site_label
 _atom_site_symmetry_multiplicity
 _atom_site_fract_x
 _atom_site_fract_y
 _atom_site_fract_z
 _atom_site_occupancy
  Li  Li0  1  0.166894  0.333725  0.214601  1
  Li  Li1  1  0.166640  0.833084  0.214864  1
  Li  Li2  1  0.666479  0.833074  0.214820  1
  Li  Li3  1  0.666746  0.333499  0.324881  1
  Li  Li4  1  0.833027  0.666237  0.715325  1
  Li  Li5  1  0.333570  0.166903  0.715387  1
  Li  Li6  1  0.833160  0.166891  0.715391  1
  Li  Li7  1  0.333132  0.666437  0.823648  1
  Ho  Ho8  1  0.999825  0.999909  0.994950  1
  Ho  Ho9  1  0.511195  0.022602  0.003976  1
  Er  Er10  1  0.511173  0.488653  0.003687  1
  Er  Er11  1  0.977080  0.488601  0.003677  1
  Er  Er12  1  0.999717  0.999827  0.501456  1
  Er  Er13  1  0.488373  0.977113  0.511018  1
  Er  Er14  1  0.022588  0.511449  0.511049  1
  Er  Er15  1  0.488650  0.511382  0.511022  1
  Sn  Sn16  1  0.667003  0.333724  0.740017  1
  Sn  Sn17  1  0.167312  0.334363  0.765973  1
  Sn  Sn18  1  0.166963  0.832749  0.765486  1
  Sn  Sn19  1  0.666096  0.832770  0.765374  1
  Sb  Sb20  1  0.333594  0.666724  0.242091  1
  Sb  Sb21  1  0.833343  0.666271  0.266238  1
  Sb  Sb22  1  0.333975  0.167010  0.266530  1
  Sb  Sb23  1  0.833464  0.167000  0.266523  1
