# generated using pymatgen
data_Hf13Sc3(Si4W)4
_symmetry_space_group_name_H-M   'P 1'
_cell_length_a   6.96562406
_cell_length_b   6.97224041
_cell_length_c   12.72292086
_cell_angle_alpha   90.03935325
_cell_angle_beta   90.01446020
_cell_angle_gamma   89.99686509
_symmetry_Int_Tables_number   1
_chemical_formula_structural   Hf13Sc3(Si4W)4
_chemical_formula_sum   'Hf13 Sc3 Si16 W4'
_cell_volume   617.90127853
_cell_formula_units_Z   1
loop_
 _symmetry_equiv_pos_site_id
 _symmetry_equiv_pos_as_xyz
  1  'x, y, z'
loop_
 _atom_site_type_symbol
 _atom_site_label
 _atom_site_symmetry_multiplicity
 _atom_site_fract_x
 _atom_site_fract_y
 _atom_site_fract_z
 _atom_site_occupancy
  Hf  Hf0  1  0.344308  0.996366  0.781423  1
  Hf  Hf1  1  0.845214  0.501760  0.968648  1
  Hf  Hf2  1  0.154864  0.497704  0.469619  1
  Hf  Hf3  1  0.003530  0.655016  0.719384  1
  Hf  Hf4  1  0.997640  0.345845  0.219286  1
  Hf  Hf5  1  0.496155  0.356014  0.125139  1
  Hf  Hf6  1  0.503456  0.644093  0.625571  1
  Hf  Hf7  1  0.855754  0.003594  0.874821  1
  Hf  Hf8  1  0.144306  0.996501  0.375769  1
  Hf  Hf9  1  0.644280  0.503080  0.374775  1
  Hf  Hf10  1  0.354781  0.496958  0.874287  1
  Hf  Hf11  1  0.003731  0.855448  0.124777  1
  Hf  Hf12  1  0.997625  0.144109  0.625304  1
  Sc  Sc13  1  0.496597  0.155299  0.531212  1
  Sc  Sc14  1  0.503678  0.844443  0.031017  1
  Sc  Sc15  1  0.655765  0.003477  0.281424  1
  Si  Si16  1  0.799121  0.147781  0.070530  1
  Si  Si17  1  0.201924  0.852281  0.571383  1
  Si  Si18  1  0.647723  0.702032  0.820866  1
  Si  Si19  1  0.351543  0.299063  0.320515  1
  Si  Si20  1  0.852953  0.202728  0.428360  1
  Si  Si21  1  0.146286  0.797352  0.928524  1
  Si  Si22  1  0.702426  0.646981  0.178706  1
  Si  Si23  1  0.297819  0.352766  0.678395  1
  Si  Si24  1  0.546156  0.196521  0.933529  1
  Si  Si25  1  0.454245  0.804297  0.433205  1
  Si  Si26  1  0.695707  0.954219  0.683076  1
  Si  Si27  1  0.304516  0.045859  0.183485  1
  Si  Si28  1  0.804104  0.453006  0.566584  1
  Si  Si29  1  0.196001  0.546473  0.066422  1
  Si  Si30  1  0.953479  0.696268  0.316700  1
  Si  Si31  1  0.046355  0.304183  0.816334  1
  W  W32  1  0.675073  0.325981  0.750091  1
  W  W33  1  0.323094  0.672648  0.250284  1
  W  W34  1  0.826571  0.823593  0.500791  1
  W  W35  1  0.173219  0.176262  0.999765  1
