# generated using pymatgen
data_TbEr2Fe8Co
_symmetry_space_group_name_H-M   'P 1'
_cell_length_a   8.61294800
_cell_length_b   8.61294798
_cell_length_c   8.61294573
_cell_angle_alpha   34.41035733
_cell_angle_beta   34.41035445
_cell_angle_gamma   34.41035143
_symmetry_Int_Tables_number   1
_chemical_formula_structural   TbEr2Fe8Co
_chemical_formula_sum   'Tb1 Er2 Fe8 Co1'
_cell_volume   182.00778186
_cell_formula_units_Z   1
loop_
 _symmetry_equiv_pos_site_id
 _symmetry_equiv_pos_as_xyz
  1  'x, y, z'
loop_
 _atom_site_type_symbol
 _atom_site_label
 _atom_site_symmetry_multiplicity
 _atom_site_fract_x
 _atom_site_fract_y
 _atom_site_fract_z
 _atom_site_occupancy
  Tb  Tb0  1  0.000000  0.000000  0.000000  1
  Er  Er1  1  0.141990  0.141990  0.141990  1
  Er  Er2  1  0.858010  0.858010  0.858010  1
  Fe  Fe3  1  0.418019  0.418019  0.917948  1
  Fe  Fe4  1  0.917948  0.418019  0.418019  1
  Fe  Fe5  1  0.581981  0.082052  0.581981  1
  Fe  Fe6  1  0.581981  0.581981  0.082052  1
  Fe  Fe7  1  0.418019  0.917948  0.418019  1
  Fe  Fe8  1  0.082052  0.581981  0.581981  1
  Fe  Fe9  1  0.332761  0.332761  0.332761  1
  Fe  Fe10  1  0.667239  0.667239  0.667239  1
  Co  Co11  1  0.500000  0.500000  0.500000  1
