# generated using pymatgen
data_CrRuI18
_symmetry_space_group_name_H-M   'P 1'
_cell_length_a   10.03113676
_cell_length_b   10.03113423
_cell_length_c   10.03113449
_cell_angle_alpha   90.86127349
_cell_angle_beta   90.86126455
_cell_angle_gamma   90.86126938
_symmetry_Int_Tables_number   1
_chemical_formula_structural   CrRuI18
_chemical_formula_sum   'Cr1 Ru1 I18'
_cell_volume   1009.02408187
_cell_formula_units_Z   1
loop_
 _symmetry_equiv_pos_site_id
 _symmetry_equiv_pos_as_xyz
  1  'x, y, z'
loop_
 _atom_site_type_symbol
 _atom_site_label
 _atom_site_symmetry_multiplicity
 _atom_site_fract_x
 _atom_site_fract_y
 _atom_site_fract_z
 _atom_site_occupancy
  Cr  Cr0  1  0.000000  0.000000  0.000000  1
  Ru  Ru1  1  0.500000  0.500000  0.500000  1
  I  I2  1  0.272025  0.994322  0.023806  1
  I  I3  1  0.023806  0.272025  0.994322  1
  I  I4  1  0.994322  0.023806  0.272025  1
  I  I5  1  0.727975  0.005678  0.976194  1
  I  I6  1  0.976194  0.727975  0.005678  1
  I  I7  1  0.005678  0.976194  0.727975  1
  I  I8  1  0.626760  0.243951  0.119749  1
  I  I9  1  0.119749  0.626760  0.243951  1
  I  I10  1  0.243951  0.119749  0.626760  1
  I  I11  1  0.373240  0.756049  0.880251  1
  I  I12  1  0.880251  0.373240  0.756049  1
  I  I13  1  0.756049  0.880251  0.373240  1
  I  I14  1  0.489717  0.231484  0.515866  1
  I  I15  1  0.515866  0.489717  0.231484  1
  I  I16  1  0.231484  0.515866  0.489717  1
  I  I17  1  0.510283  0.768516  0.484134  1
  I  I18  1  0.484134  0.510283  0.768516  1
  I  I19  1  0.768516  0.484134  0.510283  1
