# generated using pymatgen
data_Y3Tm2(SiBi)2
_symmetry_space_group_name_H-M   'P 1'
_cell_length_a   8.60202545
_cell_length_b   8.63950610
_cell_length_c   7.89663074
_cell_angle_alpha   90.22091740
_cell_angle_beta   90.20975542
_cell_angle_gamma   125.57440602
_symmetry_Int_Tables_number   1
_chemical_formula_structural   Y3Tm2(SiBi)2
_chemical_formula_sum   'Y6 Tm4 Si4 Bi4'
_cell_volume   477.30940358
_cell_formula_units_Z   2
loop_
 _symmetry_equiv_pos_site_id
 _symmetry_equiv_pos_as_xyz
  1  'x, y, z'
loop_
 _atom_site_type_symbol
 _atom_site_label
 _atom_site_symmetry_multiplicity
 _atom_site_fract_x
 _atom_site_fract_y
 _atom_site_fract_z
 _atom_site_occupancy
  Y  Y0  1  0.458496  0.213782  0.835576  1
  Y  Y1  1  0.788128  0.543159  0.165017  1
  Y  Y2  1  0.541504  0.786218  0.164424  1
  Y  Y3  1  0.211872  0.456841  0.834983  1
  Y  Y4  1  0.711695  0.957578  0.664243  1
  Y  Y5  1  0.288305  0.042422  0.335757  1
  Tm  Tm6  1  0.042385  0.281773  0.337488  1
  Tm  Tm7  1  0.957615  0.718227  0.662512  1
  Tm  Tm8  1  0.000000  0.000000  0.000000  1
  Tm  Tm9  1  0.500000  0.500000  0.500000  1
  Si  Si10  1  0.362168  0.363183  0.136358  1
  Si  Si11  1  0.637832  0.636817  0.863642  1
  Si  Si12  1  0.134807  0.134754  0.633095  1
  Si  Si13  1  0.865193  0.865246  0.366905  1
  Bi  Bi14  1  0.794112  0.206494  0.003820  1
  Bi  Bi15  1  0.205888  0.793506  0.996180  1
  Bi  Bi16  1  0.712611  0.297043  0.501945  1
  Bi  Bi17  1  0.287389  0.702957  0.498055  1
