# generated using pymatgen
data_Ho8Al2IrPd
_symmetry_space_group_name_H-M   'P 1'
_cell_length_a   9.53636476
_cell_length_b   9.53636565
_cell_length_c   9.49351200
_cell_angle_alpha   60.14853968
_cell_angle_beta   60.14853664
_cell_angle_gamma   60.41767523
_symmetry_Int_Tables_number   1
_chemical_formula_structural   Ho8Al2IrPd
_chemical_formula_sum   'Ho16 Al4 Ir2 Pd2'
_cell_volume   613.77246446
_cell_formula_units_Z   2
loop_
 _symmetry_equiv_pos_site_id
 _symmetry_equiv_pos_as_xyz
  1  'x, y, z'
loop_
 _atom_site_type_symbol
 _atom_site_label
 _atom_site_symmetry_multiplicity
 _atom_site_fract_x
 _atom_site_fract_y
 _atom_site_fract_z
 _atom_site_occupancy
  Ho  Ho0  1  0.604310  0.604310  0.598371  1
  Ho  Ho1  1  0.604310  0.604310  0.193010  1
  Ho  Ho2  1  0.609824  0.182980  0.603598  1
  Ho  Ho3  1  0.182980  0.609824  0.603598  1
  Ho  Ho4  1  0.053031  0.444122  0.441819  1
  Ho  Ho5  1  0.444122  0.053031  0.061029  1
  Ho  Ho6  1  0.444122  0.053031  0.441819  1
  Ho  Ho7  1  0.053031  0.444122  0.061029  1
  Ho  Ho8  1  0.444119  0.444119  0.055881  1
  Ho  Ho9  1  0.058201  0.058201  0.441799  1
  Ho  Ho10  1  0.187357  0.816545  0.810156  1
  Ho  Ho11  1  0.816545  0.187357  0.185941  1
  Ho  Ho12  1  0.816545  0.187357  0.810156  1
  Ho  Ho13  1  0.187357  0.816545  0.185941  1
  Ho  Ho14  1  0.813540  0.813540  0.186460  1
  Ho  Ho15  1  0.186040  0.186040  0.813960  1
  Al  Al16  1  0.827432  0.827432  0.828712  1
  Al  Al17  1  0.827432  0.827432  0.516423  1
  Al  Al18  1  0.826567  0.517166  0.828133  1
  Al  Al19  1  0.517166  0.826567  0.828133  1
  Ir  Ir20  1  0.389797  0.821198  0.394504  1
  Ir  Ir21  1  0.821198  0.389797  0.394504  1
  Pd  Pd22  1  0.392488  0.392488  0.397029  1
  Pd  Pd23  1  0.392488  0.392488  0.817995  1
