# generated using pymatgen
data_Ca4CuSi6Ni
_symmetry_space_group_name_H-M   'P 1'
_cell_length_a   8.20009511
_cell_length_b   8.04167285
_cell_length_c   5.90982317
_cell_angle_alpha   70.10000699
_cell_angle_beta   67.23835003
_cell_angle_gamma   42.66163605
_symmetry_Int_Tables_number   1
_chemical_formula_structural   Ca4CuSi6Ni
_chemical_formula_sum   'Ca4 Cu1 Si6 Ni1'
_cell_volume   242.55060791
_cell_formula_units_Z   1
loop_
 _symmetry_equiv_pos_site_id
 _symmetry_equiv_pos_as_xyz
  1  'x, y, z'
loop_
 _atom_site_type_symbol
 _atom_site_label
 _atom_site_symmetry_multiplicity
 _atom_site_fract_x
 _atom_site_fract_y
 _atom_site_fract_z
 _atom_site_occupancy
  Ca  Ca0  1  0.748795  0.748795  0.751205  1
  Ca  Ca1  1  0.751810  0.250660  0.749340  1
  Ca  Ca2  1  0.248795  0.248795  0.251205  1
  Ca  Ca3  1  0.250660  0.751810  0.248190  1
  Cu  Cu4  1  0.333365  0.333365  0.666635  1
  Si  Si5  1  0.827149  0.344719  0.172851  1
  Si  Si6  1  0.665790  0.167555  0.334210  1
  Si  Si7  1  0.167555  0.665790  0.832445  1
  Si  Si8  1  0.344719  0.827149  0.655281  1
  Si  Si9  1  0.166751  0.166751  0.833249  1
  Si  Si10  1  0.827958  0.827958  0.172042  1
  Ni  Ni11  1  0.666654  0.666654  0.333346  1
