# generated using pymatgen
data_Ho4Er4Mn(B8Ru)3
_symmetry_space_group_name_H-M   'P 1'
_cell_length_a   3.61942800
_cell_length_b   9.09284321
_cell_length_c   11.47283300
_cell_angle_alpha   89.98842538
_cell_angle_beta   90.00000000
_cell_angle_gamma   90.00000000
_symmetry_Int_Tables_number   1
_chemical_formula_structural   Ho4Er4Mn(B8Ru)3
_chemical_formula_sum   'Ho4 Er4 Mn1 B24 Ru3'
_cell_volume   377.58115204
_cell_formula_units_Z   1
loop_
 _symmetry_equiv_pos_site_id
 _symmetry_equiv_pos_as_xyz
  1  'x, y, z'
loop_
 _atom_site_type_symbol
 _atom_site_label
 _atom_site_symmetry_multiplicity
 _atom_site_fract_x
 _atom_site_fract_y
 _atom_site_fract_z
 _atom_site_occupancy
  Ho  Ho0  1  0.000000  0.325809  0.412741  1
  Ho  Ho1  1  0.000000  0.676329  0.581959  1
  Ho  Ho2  1  0.000000  0.820386  0.088557  1
  Ho  Ho3  1  0.000000  0.177341  0.915156  1
  Er  Er4  1  0.000000  0.940667  0.371537  1
  Er  Er5  1  0.000000  0.056685  0.627659  1
  Er  Er6  1  0.000000  0.445948  0.130311  1
  Er  Er7  1  0.000000  0.556632  0.871789  1
  Mn  Mn8  1  0.000000  0.638093  0.320796  1
  B  B9  1  0.500000  0.554243  0.431663  1
  B  B10  1  0.500000  0.446612  0.566457  1
  B  B11  1  0.500000  0.053755  0.067332  1
  B  B12  1  0.500000  0.946252  0.933296  1
  B  B13  1  0.500000  0.746491  0.417758  1
  B  B14  1  0.500000  0.251748  0.579961  1
  B  B15  1  0.500000  0.249086  0.080842  1
  B  B16  1  0.500000  0.751549  0.919936  1
  B  B17  1  0.500000  0.789804  0.266575  1
  B  B18  1  0.500000  0.208643  0.733973  1
  B  B19  1  0.500000  0.291957  0.234194  1
  B  B20  1  0.500000  0.708705  0.765767  1
  B  B21  1  0.500000  0.631850  0.186869  1
  B  B22  1  0.500000  0.368288  0.815039  1
  B  B23  1  0.500000  0.131435  0.314756  1
  B  B24  1  0.500000  0.868148  0.684742  1
  B  B25  1  0.500000  0.982573  0.212895  1
  B  B26  1  0.500000  0.016893  0.787478  1
  B  B27  1  0.500000  0.485482  0.288211  1
  B  B28  1  0.500000  0.516941  0.712375  1
  B  B29  1  0.500000  0.606877  0.029790  1
  B  B30  1  0.500000  0.393448  0.970890  1
  B  B31  1  0.500000  0.106748  0.470203  1
  B  B32  1  0.500000  0.892873  0.529213  1
  Ru  Ru33  1  0.000000  0.361554  0.679481  1
  Ru  Ru34  1  0.000000  0.138159  0.178868  1
  Ru  Ru35  1  0.000000  0.861996  0.820935  1
