# generated using pymatgen
data_Pu2PbF9
_symmetry_space_group_name_H-M   'P 1'
_cell_length_a   6.94716700
_cell_length_b   8.71016400
_cell_length_c   11.52578100
_cell_angle_alpha   90.00000000
_cell_angle_beta   90.00000000
_cell_angle_gamma   90.00000000
_symmetry_Int_Tables_number   1
_chemical_formula_structural   Pu2PbF9
_chemical_formula_sum   'Pu8 Pb4 F36'
_cell_volume   697.43611807
_cell_formula_units_Z   4
loop_
 _symmetry_equiv_pos_site_id
 _symmetry_equiv_pos_as_xyz
  1  'x, y, z'
loop_
 _atom_site_type_symbol
 _atom_site_label
 _atom_site_symmetry_multiplicity
 _atom_site_fract_x
 _atom_site_fract_y
 _atom_site_fract_z
 _atom_site_occupancy
  Pu  Pu0  1  0.162389  0.170467  0.053110  1
  Pu  Pu1  1  0.837611  0.829533  0.946890  1
  Pu  Pu2  1  0.662389  0.329533  0.946890  1
  Pu  Pu3  1  0.837611  0.829533  0.553110  1
  Pu  Pu4  1  0.337611  0.670467  0.053110  1
  Pu  Pu5  1  0.162389  0.170467  0.446890  1
  Pu  Pu6  1  0.337611  0.670467  0.446890  1
  Pu  Pu7  1  0.662389  0.329533  0.553110  1
  Pb  Pb8  1  0.646326  0.023080  0.250000  1
  Pb  Pb9  1  0.353674  0.976920  0.750000  1
  Pb  Pb10  1  0.146326  0.476920  0.750000  1
  Pb  Pb11  1  0.853674  0.523080  0.250000  1
  F  F12  1  0.202596  0.432472  0.084176  1
  F  F13  1  0.797404  0.567528  0.915824  1
  F  F14  1  0.702596  0.067528  0.915824  1
  F  F15  1  0.797404  0.567528  0.584176  1
  F  F16  1  0.297404  0.932472  0.084176  1
  F  F17  1  0.202596  0.432472  0.415824  1
  F  F18  1  0.297404  0.932472  0.415824  1
  F  F19  1  0.702596  0.067528  0.584176  1
  F  F20  1  0.089333  0.999959  0.604434  1
  F  F21  1  0.910667  0.000041  0.395566  1
  F  F22  1  0.589333  0.500041  0.395566  1
  F  F23  1  0.910667  0.000041  0.104434  1
  F  F24  1  0.410667  0.499959  0.604434  1
  F  F25  1  0.089333  0.999959  0.895566  1
  F  F26  1  0.410667  0.499959  0.895566  1
  F  F27  1  0.589333  0.500041  0.104434  1
  F  F28  1  0.487993  0.204823  0.096786  1
  F  F29  1  0.512007  0.795177  0.903214  1
  F  F30  1  0.987993  0.295177  0.903214  1
  F  F31  1  0.512007  0.795177  0.596786  1
  F  F32  1  0.012007  0.704823  0.096786  1
  F  F33  1  0.487993  0.204823  0.403214  1
  F  F34  1  0.012007  0.704823  0.403214  1
  F  F35  1  0.987993  0.295177  0.596786  1
  F  F36  1  0.182025  0.173210  0.250000  1
  F  F37  1  0.817975  0.826790  0.750000  1
  F  F38  1  0.682025  0.326790  0.750000  1
  F  F39  1  0.317975  0.673210  0.250000  1
  F  F40  1  0.365430  0.205559  0.617614  1
  F  F41  1  0.634570  0.794441  0.382386  1
  F  F42  1  0.865430  0.294441  0.382386  1
  F  F43  1  0.634570  0.794441  0.117614  1
  F  F44  1  0.134570  0.705559  0.617614  1
  F  F45  1  0.365430  0.205559  0.882386  1
  F  F46  1  0.134570  0.705559  0.882386  1
  F  F47  1  0.865430  0.294441  0.117614  1
