# generated using pymatgen
data_TiNb2(Rh6W)3
_symmetry_space_group_name_H-M   'P 1'
_cell_length_a   5.51110900
_cell_length_b   5.51109848
_cell_length_c   13.35601400
_cell_angle_alpha   90.00008517
_cell_angle_beta   89.99997673
_cell_angle_gamma   119.99989156
_symmetry_Int_Tables_number   1
_chemical_formula_structural   TiNb2(Rh6W)3
_chemical_formula_sum   'Ti1 Nb2 Rh18 W3'
_cell_volume   351.30565771
_cell_formula_units_Z   1
loop_
 _symmetry_equiv_pos_site_id
 _symmetry_equiv_pos_as_xyz
  1  'x, y, z'
loop_
 _atom_site_type_symbol
 _atom_site_label
 _atom_site_symmetry_multiplicity
 _atom_site_fract_x
 _atom_site_fract_y
 _atom_site_fract_z
 _atom_site_occupancy
  Ti  Ti0  1  0.999999  0.000001  0.248934  1
  Nb  Nb1  1  0.999999  0.999999  0.750153  1
  Nb  Nb2  1  0.333333  0.666666  0.090649  1
  Rh  Rh3  1  0.502673  0.497329  0.251702  1
  Rh  Rh4  1  0.502677  0.005348  0.251701  1
  Rh  Rh5  1  0.994652  0.497325  0.251703  1
  Rh  Rh6  1  0.498558  0.501443  0.749701  1
  Rh  Rh7  1  0.498557  0.997112  0.749700  1
  Rh  Rh8  1  0.002889  0.501445  0.749702  1
  Rh  Rh9  1  0.165687  0.331377  0.916722  1
  Rh  Rh10  1  0.668624  0.834312  0.916723  1
  Rh  Rh11  1  0.165684  0.834309  0.916723  1
  Rh  Rh12  1  0.833476  0.666957  0.082286  1
  Rh  Rh13  1  0.333045  0.166523  0.082289  1
  Rh  Rh14  1  0.833477  0.166522  0.082287  1
  Rh  Rh15  1  0.833689  0.667380  0.418417  1
  Rh  Rh16  1  0.332622  0.166309  0.418417  1
  Rh  Rh17  1  0.833690  0.166308  0.418417  1
  Rh  Rh18  1  0.166850  0.333702  0.581454  1
  Rh  Rh19  1  0.666296  0.833147  0.581452  1
  Rh  Rh20  1  0.166852  0.833149  0.581453  1
  W  W21  1  0.333334  0.666668  0.407310  1
  W  W22  1  0.666670  0.333332  0.589222  1
  W  W23  1  0.666668  0.333335  0.912881  1
