# generated using pymatgen
data_La16MgHg3Ru4
_symmetry_space_group_name_H-M   'P 1'
_cell_length_a   10.06832002
_cell_length_b   10.06832025
_cell_length_c   10.02234437
_cell_angle_alpha   59.84813637
_cell_angle_beta   59.84813510
_cell_angle_gamma   59.99999483
_symmetry_Int_Tables_number   1
_chemical_formula_structural   La16MgHg3Ru4
_chemical_formula_sum   'La16 Mg1 Hg3 Ru4'
_cell_volume   716.74987150
_cell_formula_units_Z   1
loop_
 _symmetry_equiv_pos_site_id
 _symmetry_equiv_pos_as_xyz
  1  'x, y, z'
loop_
 _atom_site_type_symbol
 _atom_site_label
 _atom_site_symmetry_multiplicity
 _atom_site_fract_x
 _atom_site_fract_y
 _atom_site_fract_z
 _atom_site_occupancy
  La  La0  1  0.058716  0.440709  0.441859  1
  La  La1  1  0.190267  0.809303  0.191127  1
  La  La2  1  0.653757  0.653757  0.653711  1
  La  La3  1  0.439871  0.439871  0.060052  1
  La  La4  1  0.060206  0.439871  0.060052  1
  La  La5  1  0.439871  0.060206  0.060052  1
  La  La6  1  0.058716  0.058716  0.441859  1
  La  La7  1  0.650927  0.650927  0.047218  1
  La  La8  1  0.653757  0.038775  0.653711  1
  La  La9  1  0.187686  0.812014  0.812613  1
  La  La10  1  0.440709  0.058716  0.441859  1
  La  La11  1  0.187686  0.187686  0.812613  1
  La  La12  1  0.038775  0.653757  0.653711  1
  La  La13  1  0.809303  0.809303  0.191127  1
  La  La14  1  0.809303  0.190267  0.191127  1
  La  La15  1  0.812014  0.187686  0.812613  1
  Mg  Mg16  1  0.429974  0.429974  0.710079  1
  Hg  Hg17  1  0.414458  0.414458  0.419839  1
  Hg  Hg18  1  0.414458  0.751245  0.419839  1
  Hg  Hg19  1  0.751245  0.414458  0.419839  1
  Ru  Ru20  1  0.862456  0.862456  0.864106  1
  Ru  Ru21  1  0.410983  0.862456  0.864106  1
  Ru  Ru22  1  0.862456  0.410983  0.864106  1
  Ru  Ru23  1  0.862405  0.862405  0.412784  1
