# generated using pymatgen
data_Nb3Cr2B4W
_symmetry_space_group_name_H-M   'P 1'
_cell_length_a   5.91603171
_cell_length_b   5.91603171
_cell_length_c   3.23764900
_cell_angle_alpha   90.00000000
_cell_angle_beta   90.00000000
_cell_angle_gamma   90.44550344
_symmetry_Int_Tables_number   1
_chemical_formula_structural   Nb3Cr2B4W
_chemical_formula_sum   'Nb3 Cr2 B4 W1'
_cell_volume   113.31244794
_cell_formula_units_Z   1
loop_
 _symmetry_equiv_pos_site_id
 _symmetry_equiv_pos_as_xyz
  1  'x, y, z'
loop_
 _atom_site_type_symbol
 _atom_site_label
 _atom_site_symmetry_multiplicity
 _atom_site_fract_x
 _atom_site_fract_y
 _atom_site_fract_z
 _atom_site_occupancy
  Nb  Nb0  1  0.320918  0.820918  0.500000  1
  Nb  Nb1  1  0.179634  0.318358  0.500000  1
  Nb  Nb2  1  0.818358  0.679634  0.500000  1
  Cr  Cr3  1  0.500463  0.497523  0.000000  1
  Cr  Cr4  1  0.997523  0.000463  0.000000  1
  B  B5  1  0.110315  0.610315  0.000000  1
  B  B6  1  0.884367  0.384367  0.000000  1
  B  B7  1  0.614340  0.894483  0.000000  1
  B  B8  1  0.394483  0.114340  0.000000  1
  W  W9  1  0.679599  0.179599  0.500000  1
