# generated using pymatgen
data_Hg4TeSeO6
_symmetry_space_group_name_H-M   'P 1'
_cell_length_a   3.87384761
_cell_length_b   6.06734420
_cell_length_c   11.55036900
_cell_angle_alpha   90.00000000
_cell_angle_beta   90.00000000
_cell_angle_gamma   89.02287200
_symmetry_Int_Tables_number   1
_chemical_formula_structural   Hg4TeSeO6
_chemical_formula_sum   'Hg4 Te1 Se1 O6'
_cell_volume   271.44001173
_cell_formula_units_Z   1
loop_
 _symmetry_equiv_pos_site_id
 _symmetry_equiv_pos_as_xyz
  1  'x, y, z'
loop_
 _atom_site_type_symbol
 _atom_site_label
 _atom_site_symmetry_multiplicity
 _atom_site_fract_x
 _atom_site_fract_y
 _atom_site_fract_z
 _atom_site_occupancy
  Hg  Hg0  1  0.060641  0.188444  0.942441  1
  Hg  Hg1  1  0.054888  0.814718  0.053096  1
  Hg  Hg2  1  0.060641  0.188444  0.557559  1
  Hg  Hg3  1  0.054888  0.814718  0.446904  1
  Te  Te4  1  0.431351  0.468791  0.250000  1
  Se  Se5  1  0.413982  0.514356  0.750000  1
  O  O6  1  0.533957  0.767672  0.250000  1
  O  O7  1  0.540071  0.244090  0.750000  1
  O  O8  1  0.131476  0.517627  0.630181  1
  O  O9  1  0.131476  0.517627  0.869819  1
  O  O10  1  0.100213  0.481757  0.124479  1
  O  O11  1  0.100213  0.481757  0.375521  1
