# generated using pymatgen
data_Dy4Lu6InSb5
_symmetry_space_group_name_H-M   'P 1'
_cell_length_a   6.29929600
_cell_length_b   8.88211082
_cell_length_c   8.86109677
_cell_angle_alpha   120.07849322
_cell_angle_beta   90.00001819
_cell_angle_gamma   89.99997155
_symmetry_Int_Tables_number   1
_chemical_formula_structural   Dy4Lu6InSb5
_chemical_formula_sum   'Dy4 Lu6 In1 Sb5'
_cell_volume   429.02467012
_cell_formula_units_Z   1
loop_
 _symmetry_equiv_pos_site_id
 _symmetry_equiv_pos_as_xyz
  1  'x, y, z'
loop_
 _atom_site_type_symbol
 _atom_site_label
 _atom_site_symmetry_multiplicity
 _atom_site_fract_x
 _atom_site_fract_y
 _atom_site_fract_z
 _atom_site_occupancy
  Dy  Dy0  1  0.750001  0.754065  0.759252  1
  Dy  Dy1  1  0.750001  0.994813  0.240748  1
  Dy  Dy2  1  0.250001  0.246019  0.242837  1
  Dy  Dy3  1  0.250001  0.003182  0.757163  1
  Lu  Lu4  1  0.499527  0.334711  0.668114  1
  Lu  Lu5  1  0.499527  0.666598  0.331886  1
  Lu  Lu6  1  0.000472  0.666599  0.331886  1
  Lu  Lu7  1  0.000472  0.334712  0.668114  1
  Lu  Lu8  1  0.750001  0.244702  0.000000  1
  Lu  Lu9  1  0.249999  0.756273  0.000000  1
  In  In10  1  0.749999  0.601394  0.000000  1
  Sb  Sb11  1  0.750001  0.389669  0.388775  1
  Sb  Sb12  1  0.750001  0.000893  0.611225  1
  Sb  Sb13  1  0.250000  0.396015  0.000000  1
  Sb  Sb14  1  0.250000  0.610429  0.610506  1
  Sb  Sb15  1  0.250000  0.999924  0.389494  1
