# generated using pymatgen
data_La6Re(MoC4)3
_symmetry_space_group_name_H-M   'P 1'
_cell_length_a   8.57298500
_cell_length_b   8.57298443
_cell_length_c   5.37529000
_cell_angle_alpha   90.00000000
_cell_angle_beta   90.00000000
_cell_angle_gamma   119.99999064
_symmetry_Int_Tables_number   1
_chemical_formula_structural   La6Re(MoC4)3
_chemical_formula_sum   'La6 Re1 Mo3 C12'
_cell_volume   342.13434354
_cell_formula_units_Z   1
loop_
 _symmetry_equiv_pos_site_id
 _symmetry_equiv_pos_as_xyz
  1  'x, y, z'
loop_
 _atom_site_type_symbol
 _atom_site_label
 _atom_site_symmetry_multiplicity
 _atom_site_fract_x
 _atom_site_fract_y
 _atom_site_fract_z
 _atom_site_occupancy
  La  La0  1  0.617119  0.693872  0.750000  1
  La  La1  1  0.923516  0.614949  0.250000  1
  La  La2  1  0.691434  0.076484  0.250000  1
  La  La3  1  0.306128  0.923246  0.750000  1
  La  La4  1  0.076754  0.382881  0.750000  1
  La  La5  1  0.385051  0.308566  0.250000  1
  Re  Re6  1  0.333333  0.666667  0.250000  1
  Mo  Mo7  1  0.000000  0.000000  0.499868  1
  Mo  Mo8  1  0.000000  0.000000  0.000132  1
  Mo  Mo9  1  0.666667  0.333333  0.750000  1
  C  C10  1  0.954832  0.773090  0.750000  1
  C  C11  1  0.187057  0.954452  0.250000  1
  C  C12  1  0.767394  0.812943  0.250000  1
  C  C13  1  0.226910  0.181742  0.750000  1
  C  C14  1  0.818258  0.045168  0.750000  1
  C  C15  1  0.045548  0.232606  0.250000  1
  C  C16  1  0.863220  0.587815  0.750000  1
  C  C17  1  0.274994  0.858541  0.250000  1
  C  C18  1  0.583546  0.725006  0.250000  1
  C  C19  1  0.412185  0.275404  0.750000  1
  C  C20  1  0.141459  0.416454  0.250000  1
  C  C21  1  0.724596  0.136780  0.750000  1
