# generated using pymatgen
data_La6HfScBi10
_symmetry_space_group_name_H-M   'P 1'
_cell_length_a   9.84255400
_cell_length_b   9.84255417
_cell_length_c   6.60898000
_cell_angle_alpha   90.00000000
_cell_angle_beta   90.00000000
_cell_angle_gamma   119.99999942
_symmetry_Int_Tables_number   1
_chemical_formula_structural   La6HfScBi10
_chemical_formula_sum   'La6 Hf1 Sc1 Bi10'
_cell_volume   554.47336854
_cell_formula_units_Z   1
loop_
 _symmetry_equiv_pos_site_id
 _symmetry_equiv_pos_as_xyz
  1  'x, y, z'
loop_
 _atom_site_type_symbol
 _atom_site_label
 _atom_site_symmetry_multiplicity
 _atom_site_fract_x
 _atom_site_fract_y
 _atom_site_fract_z
 _atom_site_occupancy
  La  La0  1  0.000000  0.618951  0.249859  1
  La  La1  1  0.381049  0.381049  0.249859  1
  La  La2  1  0.381049  0.000000  0.750141  1
  La  La3  1  0.618951  0.618951  0.750141  1
  La  La4  1  0.618951  0.000000  0.249859  1
  La  La5  1  0.000000  0.381049  0.750141  1
  Hf  Hf6  1  0.000000  0.000000  0.000000  1
  Sc  Sc7  1  0.000000  0.000000  0.500000  1
  Bi  Bi8  1  0.000000  0.259992  0.248603  1
  Bi  Bi9  1  0.333333  0.666667  0.500000  1
  Bi  Bi10  1  0.666667  0.333333  0.000000  1
  Bi  Bi11  1  0.333333  0.666667  0.000000  1
  Bi  Bi12  1  0.259992  0.259992  0.751397  1
  Bi  Bi13  1  0.740008  0.000000  0.751397  1
  Bi  Bi14  1  0.000000  0.740008  0.751397  1
  Bi  Bi15  1  0.740008  0.740008  0.248603  1
  Bi  Bi16  1  0.259992  0.000000  0.248603  1
  Bi  Bi17  1  0.666667  0.333333  0.500000  1
