# generated using pymatgen
data_YbY7Ir3WO24
_symmetry_space_group_name_H-M   'P 1'
_cell_length_a   5.29192173
_cell_length_b   9.18555577
_cell_length_c   9.92980377
_cell_angle_alpha   89.88499165
_cell_angle_beta   89.82397632
_cell_angle_gamma   90.04838919
_symmetry_Int_Tables_number   1
_chemical_formula_structural   YbY7Ir3WO24
_chemical_formula_sum   'Yb1 Y7 Ir3 W1 O24'
_cell_volume   482.67681066
_cell_formula_units_Z   1
loop_
 _symmetry_equiv_pos_site_id
 _symmetry_equiv_pos_as_xyz
  1  'x, y, z'
loop_
 _atom_site_type_symbol
 _atom_site_label
 _atom_site_symmetry_multiplicity
 _atom_site_fract_x
 _atom_site_fract_y
 _atom_site_fract_z
 _atom_site_occupancy
  Yb  Yb0  1  0.981370  0.599306  0.532387  1
  Y  Y1  1  0.483652  0.895075  0.468433  1
  Y  Y2  1  0.020491  0.103233  0.962312  1
  Y  Y3  1  0.518260  0.399737  0.035283  1
  Y  Y4  1  0.461497  0.782274  0.871271  1
  Y  Y5  1  0.960157  0.718380  0.130458  1
  Y  Y6  1  0.041675  0.220146  0.369463  1
  Y  Y7  1  0.541646  0.282168  0.627834  1
  Ir  Ir8  1  0.959258  0.995509  0.646679  1
  Ir  Ir9  1  0.456176  0.504292  0.354468  1
  Ir  Ir10  1  0.042643  0.498088  0.849155  1
  W  W11  1  0.540025  0.005210  0.151677  1
  O  O12  1  0.753111  0.088338  0.502224  1
  O  O13  1  0.251287  0.407817  0.495537  1
  O  O14  1  0.247809  0.589271  0.997068  1
  O  O15  1  0.746778  0.911556  0.004666  1
  O  O16  1  0.234940  0.115775  0.571220  1
  O  O17  1  0.729944  0.382061  0.428227  1
  O  O18  1  0.766316  0.614304  0.929570  1
  O  O19  1  0.267993  0.886687  0.068179  1
  O  O20  1  0.081705  0.845314  0.529310  1
  O  O21  1  0.573769  0.652743  0.473904  1
  O  O22  1  0.918668  0.345836  0.971134  1
  O  O23  1  0.413640  0.157846  0.029884  1
  O  O24  1  0.691516  0.859363  0.265511  1
  O  O25  1  0.189942  0.642903  0.737442  1
  O  O26  1  0.313298  0.358150  0.236746  1
  O  O27  1  0.813729  0.143092  0.762377  1
  O  O28  1  0.328359  0.048284  0.300287  1
  O  O29  1  0.835450  0.443839  0.703938  1
  O  O30  1  0.672206  0.867066  0.683148  1
  O  O31  1  0.163888  0.943988  0.797262  1
  O  O32  1  0.822098  0.137016  0.178730  1
  O  O33  1  0.325898  0.367043  0.817182  1
  O  O34  1  0.182328  0.634594  0.312960  1
  O  O35  1  0.668478  0.553693  0.204074  1
