# generated using pymatgen
data_Ac8Y9Tm3Sn16
_symmetry_space_group_name_H-M   'P 1'
_cell_length_a   8.25597400
_cell_length_b   8.54910216
_cell_length_c   16.12281700
_cell_angle_alpha   90.00000000
_cell_angle_beta   90.00000000
_cell_angle_gamma   89.93706854
_symmetry_Int_Tables_number   1
_chemical_formula_structural   Ac8Y9Tm3Sn16
_chemical_formula_sum   'Ac8 Y9 Tm3 Sn16'
_cell_volume   1137.96652262
_cell_formula_units_Z   1
loop_
 _symmetry_equiv_pos_site_id
 _symmetry_equiv_pos_as_xyz
  1  'x, y, z'
loop_
 _atom_site_type_symbol
 _atom_site_label
 _atom_site_symmetry_multiplicity
 _atom_site_fract_x
 _atom_site_fract_y
 _atom_site_fract_z
 _atom_site_occupancy
  Ac  Ac0  1  0.497905  0.673722  0.595998  1
  Ac  Ac1  1  0.999535  0.827631  0.904247  1
  Ac  Ac2  1  0.501268  0.326474  0.096357  1
  Ac  Ac3  1  0.000387  0.173241  0.403875  1
  Ac  Ac4  1  0.501268  0.326474  0.403643  1
  Ac  Ac5  1  0.000387  0.173241  0.096125  1
  Ac  Ac6  1  0.497905  0.673722  0.904002  1
  Ac  Ac7  1  0.999535  0.827631  0.595753  1
  Y  Y8  1  0.663855  0.165828  0.625733  1
  Y  Y9  1  0.165370  0.334097  0.874847  1
  Y  Y10  1  0.335603  0.833109  0.125451  1
  Y  Y11  1  0.835618  0.665506  0.375086  1
  Y  Y12  1  0.335603  0.833109  0.374549  1
  Y  Y13  1  0.835618  0.665506  0.124914  1
  Y  Y14  1  0.663855  0.165828  0.874267  1
  Y  Y15  1  0.165370  0.334097  0.625153  1
  Y  Y16  1  0.831515  0.498082  0.750000  1
  Tm  Tm17  1  0.331486  0.003517  0.750000  1
  Tm  Tm18  1  0.168618  0.502620  0.250000  1
  Tm  Tm19  1  0.668385  0.996221  0.250000  1
  Sn  Sn20  1  0.672879  0.957428  0.457091  1
  Sn  Sn21  1  0.173486  0.541451  0.043307  1
  Sn  Sn22  1  0.327532  0.042533  0.957002  1
  Sn  Sn23  1  0.827067  0.458578  0.543737  1
  Sn  Sn24  1  0.327532  0.042533  0.542998  1
  Sn  Sn25  1  0.827067  0.458578  0.956263  1
  Sn  Sn26  1  0.672879  0.957428  0.042909  1
  Sn  Sn27  1  0.173486  0.541451  0.456693  1
  Sn  Sn28  1  0.468535  0.366745  0.750000  1
  Sn  Sn29  1  0.970638  0.133808  0.750000  1
  Sn  Sn30  1  0.530217  0.633216  0.250000  1
  Sn  Sn31  1  0.029443  0.865789  0.250000  1
  Sn  Sn32  1  0.694190  0.863688  0.750000  1
  Sn  Sn33  1  0.193516  0.637965  0.750000  1
  Sn  Sn34  1  0.305860  0.136172  0.250000  1
  Sn  Sn35  1  0.806592  0.362985  0.250000  1
