# generated using pymatgen
data_PrNd3ReTc5B12
_symmetry_space_group_name_H-M   'P 1'
_cell_length_a   6.30251714
_cell_length_b   6.30823670
_cell_length_c   7.64141592
_cell_angle_alpha   90.64183136
_cell_angle_beta   90.57097638
_cell_angle_gamma   114.56785222
_symmetry_Int_Tables_number   1
_chemical_formula_structural   PrNd3ReTc5B12
_chemical_formula_sum   'Pr1 Nd3 Re1 Tc5 B12'
_cell_volume   276.24893509
_cell_formula_units_Z   1
loop_
 _symmetry_equiv_pos_site_id
 _symmetry_equiv_pos_as_xyz
  1  'x, y, z'
loop_
 _atom_site_type_symbol
 _atom_site_label
 _atom_site_symmetry_multiplicity
 _atom_site_fract_x
 _atom_site_fract_y
 _atom_site_fract_z
 _atom_site_occupancy
  Pr  Pr0  1  0.092439  0.439976  0.326485  1
  Nd  Nd1  1  0.560643  0.906219  0.173296  1
  Nd  Nd2  1  0.905987  0.556963  0.674432  1
  Nd  Nd3  1  0.437406  0.093422  0.826328  1
  Re  Re4  1  0.803672  0.988593  0.589370  1
  Tc  Tc5  1  0.583307  0.416091  0.249050  1
  Tc  Tc6  1  0.416552  0.583556  0.749437  1
  Tc  Tc7  1  0.989288  0.803554  0.088197  1
  Tc  Tc8  1  0.197389  0.010940  0.412035  1
  Tc  Tc9  1  0.010775  0.197854  0.912095  1
  B  B10  1  0.241076  0.151531  0.130996  1
  B  B11  1  0.847224  0.761196  0.370209  1
  B  B12  1  0.761041  0.848529  0.867081  1
  B  B13  1  0.152306  0.242453  0.631287  1
  B  B14  1  0.583004  0.156010  0.483039  1
  B  B15  1  0.842294  0.418395  0.017973  1
  B  B16  1  0.417589  0.842844  0.518203  1
  B  B17  1  0.157280  0.582550  0.981450  1
  B  B18  1  0.440646  0.349038  0.532420  1
  B  B19  1  0.650320  0.559855  0.967298  1
  B  B20  1  0.559623  0.649670  0.467399  1
  B  B21  1  0.350142  0.440761  0.031922  1
