# generated using pymatgen
data_TmU2Pa5H24
_symmetry_space_group_name_H-M   'P 1'
_cell_length_a   6.58878300
_cell_length_b   6.56636800
_cell_length_c   6.57017000
_cell_angle_alpha   90.00000000
_cell_angle_beta   90.00000000
_cell_angle_gamma   90.00000000
_symmetry_Int_Tables_number   1
_chemical_formula_structural   TmU2Pa5H24
_chemical_formula_sum   'Tm1 U2 Pa5 H24'
_cell_volume   284.25429114
_cell_formula_units_Z   1
loop_
 _symmetry_equiv_pos_site_id
 _symmetry_equiv_pos_as_xyz
  1  'x, y, z'
loop_
 _atom_site_type_symbol
 _atom_site_label
 _atom_site_symmetry_multiplicity
 _atom_site_fract_x
 _atom_site_fract_y
 _atom_site_fract_z
 _atom_site_occupancy
  Tm  Tm0  1  0.001162  0.000000  0.000000  1
  U  U1  1  0.499563  0.500000  0.500000  1
  U  U2  1  0.249442  0.000000  0.500000  1
  Pa  Pa3  1  0.750724  0.000000  0.500000  1
  Pa  Pa4  1  0.999747  0.500000  0.249484  1
  Pa  Pa5  1  0.999747  0.500000  0.750516  1
  Pa  Pa6  1  0.499936  0.752437  0.000000  1
  Pa  Pa7  1  0.499936  0.247563  0.000000  1
  H  H8  1  0.999638  0.154309  0.304777  1
  H  H9  1  0.500261  0.194431  0.655299  1
  H  H10  1  0.500261  0.805569  0.344701  1
  H  H11  1  0.805102  0.655184  0.500000  1
  H  H12  1  0.195563  0.655559  0.500000  1
  H  H13  1  0.344174  0.500000  0.805153  1
  H  H14  1  0.655333  0.500000  0.805043  1
  H  H15  1  0.303812  0.000000  0.154486  1
  H  H16  1  0.154785  0.304230  0.000000  1
  H  H17  1  0.845613  0.695698  0.000000  1
  H  H18  1  0.303812  0.000000  0.845514  1
  H  H19  1  0.845613  0.304302  0.000000  1
  H  H20  1  0.695692  0.000000  0.154252  1
  H  H21  1  0.695692  0.000000  0.845748  1
  H  H22  1  0.154785  0.695770  0.000000  1
  H  H23  1  0.999638  0.845691  0.695223  1
  H  H24  1  0.999638  0.154309  0.695223  1
  H  H25  1  0.999638  0.845691  0.304777  1
  H  H26  1  0.655333  0.500000  0.194957  1
  H  H27  1  0.344174  0.500000  0.194847  1
  H  H28  1  0.805102  0.344816  0.500000  1
  H  H29  1  0.195563  0.344441  0.500000  1
  H  H30  1  0.500261  0.805569  0.655299  1
  H  H31  1  0.500261  0.194431  0.344701  1
