# generated using pymatgen
data_PrYCo9Mo3As7
_symmetry_space_group_name_H-M   'P 1'
_cell_length_a   3.87216100
_cell_length_b   9.43670453
_cell_length_c   9.43670500
_cell_angle_alpha   119.99999815
_cell_angle_beta   90.00000000
_cell_angle_gamma   90.00000000
_symmetry_Int_Tables_number   1
_chemical_formula_structural   PrYCo9Mo3As7
_chemical_formula_sum   'Pr1 Y1 Co9 Mo3 As7'
_cell_volume   298.62405065
_cell_formula_units_Z   1
loop_
 _symmetry_equiv_pos_site_id
 _symmetry_equiv_pos_as_xyz
  1  'x, y, z'
loop_
 _atom_site_type_symbol
 _atom_site_label
 _atom_site_symmetry_multiplicity
 _atom_site_fract_x
 _atom_site_fract_y
 _atom_site_fract_z
 _atom_site_occupancy
  Pr  Pr0  1  0.500000  0.333333  0.666667  1
  Y  Y1  1  0.000000  0.666667  0.333333  1
  Co  Co2  1  0.000000  0.572030  0.943092  1
  Co  Co3  1  0.000000  0.371062  0.427970  1
  Co  Co4  1  0.000000  0.056908  0.628938  1
  Co  Co5  1  0.000000  0.875514  0.156360  1
  Co  Co6  1  0.000000  0.280846  0.124486  1
  Co  Co7  1  0.000000  0.843640  0.719154  1
  Co  Co8  1  0.500000  0.947107  0.380336  1
  Co  Co9  1  0.500000  0.433228  0.052893  1
  Co  Co10  1  0.500000  0.619664  0.566772  1
  Mo  Mo11  1  0.500000  0.782585  0.902949  1
  Mo  Mo12  1  0.500000  0.120365  0.217415  1
  Mo  Mo13  1  0.500000  0.097051  0.879635  1
  As  As14  1  0.000000  0.000000  0.000000  1
  As  As15  1  0.500000  0.706439  0.118538  1
  As  As16  1  0.500000  0.412100  0.293561  1
  As  As17  1  0.500000  0.881462  0.587900  1
  As  As18  1  0.000000  0.589828  0.699388  1
  As  As19  1  0.000000  0.109560  0.410172  1
  As  As20  1  0.000000  0.300612  0.890440  1
