# generated using pymatgen
data_MnCdMoO4
_symmetry_space_group_name_H-M   'P 1'
_cell_length_a   6.47489854
_cell_length_b   6.48070613
_cell_length_c   6.48233975
_cell_angle_alpha   59.21825633
_cell_angle_beta   60.02271137
_cell_angle_gamma   60.04735880
_symmetry_Int_Tables_number   1
_chemical_formula_structural   MnCdMoO4
_chemical_formula_sum   'Mn2 Cd2 Mo2 O8'
_cell_volume   191.27908219
_cell_formula_units_Z   2
loop_
 _symmetry_equiv_pos_site_id
 _symmetry_equiv_pos_as_xyz
  1  'x, y, z'
loop_
 _atom_site_type_symbol
 _atom_site_label
 _atom_site_symmetry_multiplicity
 _atom_site_fract_x
 _atom_site_fract_y
 _atom_site_fract_z
 _atom_site_occupancy
  Mn  Mn0  1  0.499877  0.499987  0.000265  1
  Mn  Mn1  1  0.499957  0.000100  0.500015  1
  Cd  Cd2  1  0.888156  0.861884  0.861885  1
  Cd  Cd3  1  0.111906  0.138098  0.138061  1
  Mo  Mo4  1  0.499981  0.500019  0.500057  1
  Mo  Mo5  1  0.999937  0.500039  0.500040  1
  O  O6  1  0.754064  0.720638  0.719969  1
  O  O7  1  0.253334  0.281178  0.712777  1
  O  O8  1  0.252655  0.712833  0.281186  1
  O  O9  1  0.694855  0.279902  0.279271  1
  O  O10  1  0.747349  0.287315  0.718679  1
  O  O11  1  0.305425  0.719881  0.720583  1
  O  O12  1  0.245893  0.279340  0.279952  1
  O  O13  1  0.746615  0.718780  0.287259  1
