# generated using pymatgen
data_Lu4Ga24PdPt8
_symmetry_space_group_name_H-M   'P 1'
_cell_length_a   7.49418122
_cell_length_b   7.56735968
_cell_length_c   13.35327600
_cell_angle_alpha   84.78018192
_cell_angle_beta   79.53675335
_cell_angle_gamma   60.23943406
_symmetry_Int_Tables_number   1
_chemical_formula_structural   Lu4Ga24PdPt8
_chemical_formula_sum   'Lu4 Ga24 Pd1 Pt8'
_cell_volume   646.46833001
_cell_formula_units_Z   1
loop_
 _symmetry_equiv_pos_site_id
 _symmetry_equiv_pos_as_xyz
  1  'x, y, z'
loop_
 _atom_site_type_symbol
 _atom_site_label
 _atom_site_symmetry_multiplicity
 _atom_site_fract_x
 _atom_site_fract_y
 _atom_site_fract_z
 _atom_site_occupancy
  Lu  Lu0  1  0.393104  0.169331  0.811023  1
  Lu  Lu1  1  0.606896  0.830669  0.188977  1
  Lu  Lu2  1  0.732628  0.497494  0.811315  1
  Lu  Lu3  1  0.267372  0.502506  0.188685  1
  Ga  Ga4  1  0.685780  0.832967  0.937514  1
  Ga  Ga5  1  0.314220  0.167033  0.062486  1
  Ga  Ga6  1  0.145122  0.833097  0.559167  1
  Ga  Ga7  1  0.854878  0.166903  0.440833  1
  Ga  Ga8  1  0.477791  0.166882  0.555913  1
  Ga  Ga9  1  0.522209  0.833118  0.444087  1
  Ga  Ga10  1  0.221457  0.165318  0.322212  1
  Ga  Ga11  1  0.778543  0.834682  0.677788  1
  Ga  Ga12  1  0.437383  0.503342  0.677135  1
  Ga  Ga13  1  0.562617  0.496658  0.322865  1
  Ga  Ga14  1  0.106276  0.164300  0.676451  1
  Ga  Ga15  1  0.893724  0.835700  0.323549  1
  Ga  Ga16  1  0.358169  0.497095  0.937506  1
  Ga  Ga17  1  0.641831  0.502905  0.062494  1
  Ga  Ga18  1  0.020623  0.171739  0.941552  1
  Ga  Ga19  1  0.979377  0.828261  0.058448  1
  Ga  Ga20  1  0.187331  0.499165  0.443217  1
  Ga  Ga21  1  0.812669  0.500835  0.556783  1
  Ga  Ga22  1  0.733576  0.163788  0.181714  1
  Ga  Ga23  1  0.266424  0.836212  0.818286  1
  Ga  Ga24  1  0.060377  0.628604  0.817949  1
  Ga  Ga25  1  0.939623  0.371396  0.182051  1
  Ga  Ga26  1  0.855049  0.040448  0.817414  1
  Ga  Ga27  1  0.144951  0.959552  0.182586  1
  Pd  Pd28  1  0.000000  0.500000  0.000000  1
  Pt  Pt29  1  0.117583  0.494827  0.639457  1
  Pt  Pt30  1  0.882417  0.505173  0.360543  1
  Pt  Pt31  1  0.659775  0.170009  0.999294  1
  Pt  Pt32  1  0.340225  0.829991  0.000706  1
  Pt  Pt33  1  0.540450  0.166500  0.359448  1
  Pt  Pt34  1  0.459550  0.833500  0.640552  1
  Pt  Pt35  1  0.778504  0.173059  0.637900  1
  Pt  Pt36  1  0.221496  0.826941  0.362100  1
