# generated using pymatgen
data_SrNp2F12
_symmetry_space_group_name_H-M   'P 1'
_cell_length_a   5.76482755
_cell_length_b   6.32694608
_cell_length_c   9.65933748
_cell_angle_alpha   104.78100612
_cell_angle_beta   91.48640303
_cell_angle_gamma   115.43677732
_symmetry_Int_Tables_number   1
_chemical_formula_structural   SrNp2F12
_chemical_formula_sum   'Sr1 Np2 F12'
_cell_volume   303.90284474
_cell_formula_units_Z   1
loop_
 _symmetry_equiv_pos_site_id
 _symmetry_equiv_pos_as_xyz
  1  'x, y, z'
loop_
 _atom_site_type_symbol
 _atom_site_label
 _atom_site_symmetry_multiplicity
 _atom_site_fract_x
 _atom_site_fract_y
 _atom_site_fract_z
 _atom_site_occupancy
  Sr  Sr0  1  0.500000  0.500000  0.500000  1
  Np  Np1  1  0.261900  0.013198  0.764882  1
  Np  Np2  1  0.738100  0.986802  0.235118  1
  F  F3  1  0.772509  0.771159  0.363698  1
  F  F4  1  0.227491  0.228841  0.636302  1
  F  F5  1  0.346383  0.773673  0.212319  1
  F  F6  1  0.309650  0.793702  0.870441  1
  F  F7  1  0.690350  0.206298  0.129559  1
  F  F8  1  0.853955  0.772975  0.700902  1
  F  F9  1  0.146045  0.227025  0.299098  1
  F  F10  1  0.300247  0.774075  0.573308  1
  F  F11  1  0.699753  0.225925  0.426692  1
  F  F12  1  0.214367  0.232196  0.943833  1
  F  F13  1  0.785633  0.767804  0.056167  1
  F  F14  1  0.653617  0.226327  0.787681  1
