# generated using pymatgen
data_Nd7Th(InOs)2
_symmetry_space_group_name_H-M   'P 1'
_cell_length_a   9.96164070
_cell_length_b   9.96164019
_cell_length_c   10.04012000
_cell_angle_alpha   59.73904052
_cell_angle_beta   59.73904224
_cell_angle_gamma   59.67669443
_symmetry_Int_Tables_number   1
_chemical_formula_structural   Nd7Th(InOs)2
_chemical_formula_sum   'Nd14 Th2 In4 Os4'
_cell_volume   699.99881704
_cell_formula_units_Z   2
loop_
 _symmetry_equiv_pos_site_id
 _symmetry_equiv_pos_as_xyz
  1  'x, y, z'
loop_
 _atom_site_type_symbol
 _atom_site_label
 _atom_site_symmetry_multiplicity
 _atom_site_fract_x
 _atom_site_fract_y
 _atom_site_fract_z
 _atom_site_occupancy
  Nd  Nd0  1  0.349932  0.953564  0.348252  1
  Nd  Nd1  1  0.953564  0.349932  0.348252  1
  Nd  Nd2  1  0.809171  0.191015  0.192806  1
  Nd  Nd3  1  0.191015  0.809171  0.807008  1
  Nd  Nd4  1  0.191015  0.809171  0.192806  1
  Nd  Nd5  1  0.809171  0.191015  0.807008  1
  Nd  Nd6  1  0.191904  0.191904  0.808096  1
  Nd  Nd7  1  0.806716  0.806716  0.193284  1
  Nd  Nd8  1  0.943309  0.558252  0.557619  1
  Nd  Nd9  1  0.558252  0.943309  0.940820  1
  Nd  Nd10  1  0.558252  0.943309  0.557619  1
  Nd  Nd11  1  0.943309  0.558252  0.940820  1
  Nd  Nd12  1  0.558389  0.558389  0.941611  1
  Nd  Nd13  1  0.942936  0.942936  0.557064  1
  Th  Th14  1  0.343194  0.343194  0.344277  1
  Th  Th15  1  0.343194  0.343194  0.969336  1
  In  In16  1  0.579984  0.579984  0.583659  1
  In  In17  1  0.579984  0.579984  0.256373  1
  In  In18  1  0.578801  0.256926  0.582136  1
  In  In19  1  0.256926  0.578801  0.582136  1
  Os  Os20  1  0.143839  0.143839  0.135248  1
  Os  Os21  1  0.143839  0.143839  0.577074  1
  Os  Os22  1  0.148282  0.575023  0.138348  1
  Os  Os23  1  0.575023  0.148282  0.138348  1
