# generated using pymatgen
data_Pr8Nd2Si5Hg
_symmetry_space_group_name_H-M   'P 1'
_cell_length_a   7.86383231
_cell_length_b   7.86383230
_cell_length_c   9.09292010
_cell_angle_alpha   115.62092489
_cell_angle_beta   115.62092225
_cell_angle_gamma   90.00000218
_symmetry_Int_Tables_number   1
_chemical_formula_structural   Pr8Nd2Si5Hg
_chemical_formula_sum   'Pr8 Nd2 Si5 Hg1'
_cell_volume   444.90877329
_cell_formula_units_Z   1
loop_
 _symmetry_equiv_pos_site_id
 _symmetry_equiv_pos_as_xyz
  1  'x, y, z'
loop_
 _atom_site_type_symbol
 _atom_site_label
 _atom_site_symmetry_multiplicity
 _atom_site_fract_x
 _atom_site_fract_y
 _atom_site_fract_z
 _atom_site_occupancy
  Pr  Pr0  1  0.969549  0.825026  0.286293  1
  Pr  Pr1  1  0.316744  0.461266  0.286293  1
  Pr  Pr2  1  0.825026  0.316744  0.286293  1
  Pr  Pr3  1  0.461266  0.969549  0.286293  1
  Pr  Pr4  1  0.038734  0.183256  0.713707  1
  Pr  Pr5  1  0.674974  0.530451  0.713707  1
  Pr  Pr6  1  0.183256  0.674974  0.713707  1
  Pr  Pr7  1  0.530451  0.038734  0.713707  1
  Nd  Nd8  1  0.496616  0.496616  0.993231  1
  Nd  Nd9  1  0.003384  0.003384  0.006769  1
  Si  Si10  1  0.250000  0.250000  0.500000  1
  Si  Si11  1  0.614215  0.885785  0.000000  1
  Si  Si12  1  0.385785  0.114215  0.000000  1
  Si  Si13  1  0.885785  0.385785  0.000000  1
  Si  Si14  1  0.114215  0.614215  0.000000  1
  Hg  Hg15  1  0.750000  0.750000  0.500000  1
