# generated using pymatgen
data_VSn3WO10
_symmetry_space_group_name_H-M   'P 1'
_cell_length_a   4.76314332
_cell_length_b   5.76596189
_cell_length_c   13.54733564
_cell_angle_alpha   79.58363319
_cell_angle_beta   89.52783036
_cell_angle_gamma   89.66252913
_symmetry_Int_Tables_number   1
_chemical_formula_structural   VSn3WO10
_chemical_formula_sum   'V2 Sn6 W2 O20'
_cell_volume   365.91764292
_cell_formula_units_Z   2
loop_
 _symmetry_equiv_pos_site_id
 _symmetry_equiv_pos_as_xyz
  1  'x, y, z'
loop_
 _atom_site_type_symbol
 _atom_site_label
 _atom_site_symmetry_multiplicity
 _atom_site_fract_x
 _atom_site_fract_y
 _atom_site_fract_z
 _atom_site_occupancy
  V  V0  1  0.500646  0.599944  0.198524  1
  V  V1  1  0.499354  0.400056  0.801476  1
  Sn  Sn2  1  0.500000  0.000000  0.000000  1
  Sn  Sn3  1  0.500261  0.202242  0.398904  1
  Sn  Sn4  1  0.499739  0.797758  0.601096  1
  Sn  Sn5  1  0.999497  0.305272  0.602872  1
  Sn  Sn6  1  0.000000  0.500000  0.000000  1
  Sn  Sn7  1  0.000503  0.694728  0.397128  1
  W  W8  1  0.000840  0.100282  0.199639  1
  W  W9  1  0.999160  0.899718  0.800361  1
  O  O10  1  0.810432  0.179526  0.063405  1
  O  O11  1  0.808043  0.981060  0.664833  1
  O  O12  1  0.804613  0.589949  0.859155  1
  O  O13  1  0.804472  0.790725  0.257208  1
  O  O14  1  0.809175  0.380749  0.461331  1
  O  O15  1  0.708303  0.078119  0.859616  1
  O  O16  1  0.709037  0.278366  0.258002  1
  O  O17  1  0.683529  0.481363  0.665432  1
  O  O18  1  0.693881  0.883470  0.460120  1
  O  O19  1  0.684868  0.682000  0.062821  1
  O  O20  1  0.291697  0.921881  0.140384  1
  O  O21  1  0.306119  0.116530  0.539880  1
  O  O22  1  0.315132  0.318000  0.937179  1
  O  O23  1  0.290963  0.721634  0.741998  1
  O  O24  1  0.316471  0.518637  0.334568  1
  O  O25  1  0.189568  0.820474  0.936595  1
  O  O26  1  0.195528  0.209275  0.742792  1
  O  O27  1  0.191957  0.018940  0.335167  1
  O  O28  1  0.195387  0.410051  0.140845  1
  O  O29  1  0.190825  0.619251  0.538669  1
