# generated using pymatgen
data_MnAl2Zn2NiO8
_symmetry_space_group_name_H-M   'P 1'
_cell_length_a   5.88966433
_cell_length_b   5.92400226
_cell_length_c   5.88966584
_cell_angle_alpha   59.39762725
_cell_angle_beta   59.11855895
_cell_angle_gamma   59.39762748
_symmetry_Int_Tables_number   1
_chemical_formula_structural   MnAl2Zn2NiO8
_chemical_formula_sum   'Mn1 Al2 Zn2 Ni1 O8'
_cell_volume   143.00224973
_cell_formula_units_Z   1
loop_
 _symmetry_equiv_pos_site_id
 _symmetry_equiv_pos_as_xyz
  1  'x, y, z'
loop_
 _atom_site_type_symbol
 _atom_site_label
 _atom_site_symmetry_multiplicity
 _atom_site_fract_x
 _atom_site_fract_y
 _atom_site_fract_z
 _atom_site_occupancy
  Mn  Mn0  1  0.125000  0.625000  0.125000  1
  Al  Al1  1  0.625000  0.125000  0.125000  1
  Al  Al2  1  0.125000  0.125000  0.625000  1
  Zn  Zn3  1  0.496709  0.519031  0.496709  1
  Zn  Zn4  1  0.753291  0.730969  0.753291  1
  Ni  Ni5  1  0.125000  0.125000  0.125000  1
  O  O6  1  0.887215  0.883934  0.887215  1
  O  O7  1  0.913400  0.370456  0.374230  1
  O  O8  1  0.369647  0.924452  0.369647  1
  O  O9  1  0.374230  0.370456  0.913400  1
  O  O10  1  0.880353  0.325548  0.880353  1
  O  O11  1  0.875770  0.879544  0.336600  1
  O  O12  1  0.336600  0.879544  0.875770  1
  O  O13  1  0.362785  0.366066  0.362785  1
