# generated using pymatgen
data_GdUReB6
_symmetry_space_group_name_H-M   'P 1'
_cell_length_a   3.65263100
_cell_length_b   9.32763300
_cell_length_c   11.44062800
_cell_angle_alpha   90.00000000
_cell_angle_beta   90.00000000
_cell_angle_gamma   90.00000000
_symmetry_Int_Tables_number   1
_chemical_formula_structural   GdUReB6
_chemical_formula_sum   'Gd4 U4 Re4 B24'
_cell_volume   389.78678883
_cell_formula_units_Z   4
loop_
 _symmetry_equiv_pos_site_id
 _symmetry_equiv_pos_as_xyz
  1  'x, y, z'
loop_
 _atom_site_type_symbol
 _atom_site_label
 _atom_site_symmetry_multiplicity
 _atom_site_fract_x
 _atom_site_fract_y
 _atom_site_fract_z
 _atom_site_occupancy
  Gd  Gd0  1  0.000000  0.336455  0.407796  1
  Gd  Gd1  1  0.000000  0.663545  0.592204  1
  Gd  Gd2  1  0.000000  0.836455  0.092204  1
  Gd  Gd3  1  0.000000  0.163545  0.907796  1
  U  U4  1  0.000000  0.956490  0.396313  1
  U  U5  1  0.000000  0.043510  0.603687  1
  U  U6  1  0.000000  0.456490  0.103687  1
  U  U7  1  0.000000  0.543510  0.896313  1
  Re  Re8  1  0.000000  0.645653  0.318173  1
  Re  Re9  1  0.000000  0.354347  0.681827  1
  Re  Re10  1  0.000000  0.145653  0.181827  1
  Re  Re11  1  0.000000  0.854347  0.818173  1
  B  B12  1  0.500000  0.552400  0.430439  1
  B  B13  1  0.500000  0.447600  0.569561  1
  B  B14  1  0.500000  0.052400  0.069561  1
  B  B15  1  0.500000  0.947600  0.930439  1
  B  B16  1  0.500000  0.743193  0.422706  1
  B  B17  1  0.500000  0.256807  0.577294  1
  B  B18  1  0.500000  0.243193  0.077294  1
  B  B19  1  0.500000  0.756807  0.922706  1
  B  B20  1  0.500000  0.801510  0.275128  1
  B  B21  1  0.500000  0.198490  0.724872  1
  B  B22  1  0.500000  0.301510  0.224872  1
  B  B23  1  0.500000  0.698490  0.775128  1
  B  B24  1  0.500000  0.643613  0.188514  1
  B  B25  1  0.500000  0.356387  0.811486  1
  B  B26  1  0.500000  0.143613  0.311486  1
  B  B27  1  0.500000  0.856387  0.688514  1
  B  B28  1  0.500000  0.989262  0.219736  1
  B  B29  1  0.500000  0.010738  0.780264  1
  B  B30  1  0.500000  0.489262  0.280264  1
  B  B31  1  0.500000  0.510738  0.719736  1
  B  B32  1  0.500000  0.639204  0.038480  1
  B  B33  1  0.500000  0.360796  0.961520  1
  B  B34  1  0.500000  0.139204  0.461520  1
  B  B35  1  0.500000  0.860796  0.538480  1
