# generated using pymatgen
data_Ba7LaLuUSe12
_symmetry_space_group_name_H-M   'P 1'
_cell_length_a   8.99849543
_cell_length_b   8.99849590
_cell_length_c   8.99849733
_cell_angle_alpha   90.57508597
_cell_angle_beta   90.57508685
_cell_angle_gamma   90.57509215
_symmetry_Int_Tables_number   1
_chemical_formula_structural   Ba7LaLuUSe12
_chemical_formula_sum   'Ba7 La1 Lu1 U1 Se12'
_cell_volume   728.52379164
_cell_formula_units_Z   1
loop_
 _symmetry_equiv_pos_site_id
 _symmetry_equiv_pos_as_xyz
  1  'x, y, z'
loop_
 _atom_site_type_symbol
 _atom_site_label
 _atom_site_symmetry_multiplicity
 _atom_site_fract_x
 _atom_site_fract_y
 _atom_site_fract_z
 _atom_site_occupancy
  Ba  Ba0  1  0.871983  0.623195  0.256741  1
  Ba  Ba1  1  0.256741  0.871983  0.623195  1
  Ba  Ba2  1  0.623195  0.256741  0.871983  1
  Ba  Ba3  1  0.743891  0.126341  0.377329  1
  Ba  Ba4  1  0.377329  0.743891  0.126341  1
  Ba  Ba5  1  0.126341  0.377329  0.743891  1
  Ba  Ba6  1  0.746525  0.746525  0.746525  1
  La  La7  1  0.253408  0.253408  0.253408  1
  Lu  Lu8  1  0.500618  0.500618  0.500618  1
  U  U9  1  0.000326  0.000326  0.000326  1
  Se  Se10  1  0.200734  0.547814  0.409478  1
  Se  Se11  1  0.409478  0.200734  0.547814  1
  Se  Se12  1  0.547814  0.409478  0.200734  1
  Se  Se13  1  0.925586  0.059071  0.702206  1
  Se  Se14  1  0.702206  0.925586  0.059071  1
  Se  Se15  1  0.059071  0.702206  0.925586  1
  Se  Se16  1  0.795902  0.436094  0.576825  1
  Se  Se17  1  0.576825  0.795902  0.436094  1
  Se  Se18  1  0.436094  0.576825  0.795902  1
  Se  Se19  1  0.088051  0.955664  0.302216  1
  Se  Se20  1  0.302216  0.088051  0.955664  1
  Se  Se21  1  0.955664  0.302216  0.088051  1
