# generated using pymatgen
data_Sm2Al7Zn2Pd3
_symmetry_space_group_name_H-M   'P 1'
_cell_length_a   7.63226600
_cell_length_b   7.66784259
_cell_length_c   9.54227300
_cell_angle_alpha   90.00000000
_cell_angle_beta   90.00000000
_cell_angle_gamma   119.34917197
_symmetry_Int_Tables_number   1
_chemical_formula_structural   Sm2Al7Zn2Pd3
_chemical_formula_sum   'Sm4 Al14 Zn4 Pd6'
_cell_volume   486.76589197
_cell_formula_units_Z   2
loop_
 _symmetry_equiv_pos_site_id
 _symmetry_equiv_pos_as_xyz
  1  'x, y, z'
loop_
 _atom_site_type_symbol
 _atom_site_label
 _atom_site_symmetry_multiplicity
 _atom_site_fract_x
 _atom_site_fract_y
 _atom_site_fract_z
 _atom_site_occupancy
  Sm  Sm0  1  0.995647  0.672162  0.250000  1
  Sm  Sm1  1  0.004353  0.327838  0.750000  1
  Sm  Sm2  1  0.671875  0.995436  0.250000  1
  Sm  Sm3  1  0.328125  0.004564  0.750000  1
  Al  Al4  1  0.009908  0.336567  0.080425  1
  Al  Al5  1  0.990092  0.663433  0.919575  1
  Al  Al6  1  0.990092  0.663433  0.580425  1
  Al  Al7  1  0.333425  0.004060  0.421167  1
  Al  Al8  1  0.009908  0.336567  0.419575  1
  Al  Al9  1  0.666575  0.995940  0.578833  1
  Al  Al10  1  0.666575  0.995940  0.921167  1
  Al  Al11  1  0.333425  0.004060  0.078833  1
  Al  Al12  1  0.337007  0.334884  0.552928  1
  Al  Al13  1  0.662993  0.665116  0.447072  1
  Al  Al14  1  0.662993  0.665116  0.052928  1
  Al  Al15  1  0.337007  0.334884  0.947072  1
  Al  Al16  1  0.542962  0.342876  0.250000  1
  Al  Al17  1  0.457038  0.657124  0.750000  1
  Zn  Zn18  1  0.140410  0.140455  0.250000  1
  Zn  Zn19  1  0.859590  0.859545  0.750000  1
  Zn  Zn20  1  0.342568  0.544134  0.250000  1
  Zn  Zn21  1  0.657432  0.455866  0.750000  1
  Pd  Pd22  1  0.674052  0.324915  0.005508  1
  Pd  Pd23  1  0.325948  0.675085  0.994492  1
  Pd  Pd24  1  0.325948  0.675085  0.505508  1
  Pd  Pd25  1  0.674052  0.324915  0.494492  1
  Pd  Pd26  1  0.000000  0.000000  0.000000  1
  Pd  Pd27  1  0.000000  0.000000  0.500000  1
