# generated using pymatgen
data_Na2Tm3Ga3P9Ir19
_symmetry_space_group_name_H-M   'P 1'
_cell_length_a   12.84171727
_cell_length_b   12.86186167
_cell_length_c   3.93408300
_cell_angle_alpha   90.00000000
_cell_angle_beta   90.00000000
_cell_angle_gamma   120.05189790
_symmetry_Int_Tables_number   1
_chemical_formula_structural   Na2Tm3Ga3P9Ir19
_chemical_formula_sum   'Na2 Tm3 Ga3 P9 Ir19'
_cell_volume   562.43680565
_cell_formula_units_Z   1
loop_
 _symmetry_equiv_pos_site_id
 _symmetry_equiv_pos_as_xyz
  1  'x, y, z'
loop_
 _atom_site_type_symbol
 _atom_site_label
 _atom_site_symmetry_multiplicity
 _atom_site_fract_x
 _atom_site_fract_y
 _atom_site_fract_z
 _atom_site_occupancy
  Na  Na0  1  0.180044  0.181100  0.000000  1
  Na  Na1  1  0.819956  0.001055  0.000000  1
  Tm  Tm2  1  0.332298  0.666770  0.500000  1
  Tm  Tm3  1  0.667702  0.334471  0.500000  1
  Tm  Tm4  1  0.000000  0.824588  0.000000  1
  Ga  Ga5  1  0.352697  0.352463  0.500000  1
  Ga  Ga6  1  0.647303  0.999767  0.500000  1
  Ga  Ga7  1  0.000000  0.644763  0.500000  1
  P  P8  1  0.309566  0.827113  0.000000  1
  P  P9  1  0.173565  0.482149  0.000000  1
  P  P10  1  0.516762  0.690966  0.000000  1
  P  P11  1  0.826435  0.308584  0.000000  1
  P  P12  1  0.483238  0.174204  0.000000  1
  P  P13  1  0.690434  0.517547  0.000000  1
  P  P14  1  0.818763  0.821638  0.500000  1
  P  P15  1  0.181237  0.002875  0.500000  1
  P  P16  1  0.000000  0.178765  0.500000  1
  Ir  Ir17  1  0.205204  0.824997  0.500000  1
  Ir  Ir18  1  0.177087  0.385630  0.500000  1
  Ir  Ir19  1  0.613484  0.789836  0.500000  1
  Ir  Ir20  1  0.822913  0.208544  0.500000  1
  Ir  Ir21  1  0.386516  0.176351  0.500000  1
  Ir  Ir22  1  0.794796  0.619793  0.500000  1
  Ir  Ir23  1  0.134108  0.636362  0.000000  1
  Ir  Ir24  1  0.365525  0.497653  0.000000  1
  Ir  Ir25  1  0.502789  0.866143  0.000000  1
  Ir  Ir26  1  0.634475  0.132128  0.000000  1
  Ir  Ir27  1  0.497211  0.363354  0.000000  1
  Ir  Ir28  1  0.865892  0.502255  0.000000  1
  Ir  Ir29  1  0.549675  0.545400  0.500000  1
  Ir  Ir30  1  0.450325  0.995725  0.500000  1
  Ir  Ir31  1  0.000000  0.452850  0.500000  1
  Ir  Ir32  1  0.715292  0.713977  0.000000  1
  Ir  Ir33  1  0.284708  0.998685  0.000000  1
  Ir  Ir34  1  0.000000  0.286135  0.000000  1
  Ir  Ir35  1  0.000000  0.995363  0.500000  1
