# generated using pymatgen
data_Sr3Mn4(NiP3)2
_symmetry_space_group_name_H-M   'P 1'
_cell_length_a   8.35336838
_cell_length_b   8.35336931
_cell_length_c   8.35336833
_cell_angle_alpha   153.41646940
_cell_angle_beta   92.70014979
_cell_angle_gamma   93.35992028
_symmetry_Int_Tables_number   1
_chemical_formula_structural   Sr3Mn4(NiP3)2
_chemical_formula_sum   'Sr3 Mn4 Ni2 P6'
_cell_volume   253.85129784
_cell_formula_units_Z   1
loop_
 _symmetry_equiv_pos_site_id
 _symmetry_equiv_pos_as_xyz
  1  'x, y, z'
loop_
 _atom_site_type_symbol
 _atom_site_label
 _atom_site_symmetry_multiplicity
 _atom_site_fract_x
 _atom_site_fract_y
 _atom_site_fract_z
 _atom_site_occupancy
  Sr  Sr0  1  0.331863  0.331863  0.000000  1
  Sr  Sr1  1  0.667410  0.667410  0.000000  1
  Sr  Sr2  1  0.000702  0.000702  0.000000  1
  Mn  Mn3  1  0.580969  0.831057  0.749911  1
  Mn  Mn4  1  0.254097  0.502427  0.751670  1
  Mn  Mn5  1  0.750756  0.502427  0.248330  1
  Mn  Mn6  1  0.081146  0.831057  0.250089  1
  Ni  Ni7  1  0.417721  0.166496  0.251226  1
  Ni  Ni8  1  0.915270  0.166496  0.748774  1
  P  P9  1  0.316437  0.666230  0.650207  1
  P  P10  1  0.686633  0.337916  0.348717  1
  P  P11  1  0.989200  0.337916  0.651283  1
  P  P12  1  0.346174  0.995887  0.350287  1
  P  P13  1  0.016023  0.666230  0.349793  1
  P  P14  1  0.645599  0.995887  0.649713  1
