# generated using pymatgen
data_Ba6YLu3U2O18
_symmetry_space_group_name_H-M   'P 1'
_cell_length_a   6.14507527
_cell_length_b   8.73705507
_cell_length_c   10.67677315
_cell_angle_alpha   65.84631003
_cell_angle_beta   73.27429489
_cell_angle_gamma   90.00020654
_symmetry_Int_Tables_number   1
_chemical_formula_structural   Ba6YLu3U2O18
_chemical_formula_sum   'Ba6 Y1 Lu3 U2 O18'
_cell_volume   496.35056010
_cell_formula_units_Z   1
loop_
 _symmetry_equiv_pos_site_id
 _symmetry_equiv_pos_as_xyz
  1  'x, y, z'
loop_
 _atom_site_type_symbol
 _atom_site_label
 _atom_site_symmetry_multiplicity
 _atom_site_fract_x
 _atom_site_fract_y
 _atom_site_fract_z
 _atom_site_occupancy
  Ba  Ba0  1  0.499990  0.274509  0.000014  1
  Ba  Ba1  1  0.843128  0.578567  0.313747  1
  Ba  Ba2  1  0.156868  0.892320  0.686253  1
  Ba  Ba3  1  0.500009  0.725487  0.999992  1
  Ba  Ba4  1  0.843138  0.107688  0.313740  1
  Ba  Ba5  1  0.156885  0.421430  0.686249  1
  Y  Y6  1  0.999999  0.000004  0.000001  1
  Lu  Lu7  1  0.333202  0.333190  0.333614  1
  Lu  Lu8  1  0.666792  0.666800  0.666387  1
  Lu  Lu9  1  0.999995  0.500036  0.999999  1
  U  U10  1  0.332285  0.832289  0.335410  1
  U  U11  1  0.667714  0.167703  0.664593  1
  O  O12  1  0.000010  0.251109  0.000003  1
  O  O13  1  0.332384  0.589184  0.335241  1
  O  O14  1  0.667618  0.924412  0.664753  1
  O  O15  1  0.164331  0.413696  0.172586  1
  O  O16  1  0.493371  0.753018  0.493927  1
  O  O17  1  0.828860  0.088147  0.823720  1
  O  O18  1  0.336863  0.586307  0.827405  1
  O  O19  1  0.652514  0.911850  0.176274  1
  O  O20  1  0.987283  0.246983  0.506064  1
  O  O21  1  0.999994  0.748897  0.999995  1
  O  O22  1  0.332374  0.075581  0.335250  1
  O  O23  1  0.667619  0.410819  0.664756  1
  O  O24  1  0.835673  0.586306  0.827411  1
  O  O25  1  0.171153  0.911848  0.176277  1
  O  O26  1  0.506624  0.246971  0.506079  1
  O  O27  1  0.663135  0.413694  0.172597  1
  O  O28  1  0.012712  0.753014  0.493936  1
  O  O29  1  0.347479  0.088143  0.823725  1
