# generated using pymatgen
data_Ho2Th(GaPt)3
_symmetry_space_group_name_H-M   'P 1'
_cell_length_a   7.37914371
_cell_length_b   7.36324059
_cell_length_c   3.88445700
_cell_angle_alpha   90.00000000
_cell_angle_beta   90.00000000
_cell_angle_gamma   119.92874321
_symmetry_Int_Tables_number   1
_chemical_formula_structural   Ho2Th(GaPt)3
_chemical_formula_sum   'Ho2 Th1 Ga3 Pt3'
_cell_volume   182.91414802
_cell_formula_units_Z   1
loop_
 _symmetry_equiv_pos_site_id
 _symmetry_equiv_pos_as_xyz
  1  'x, y, z'
loop_
 _atom_site_type_symbol
 _atom_site_label
 _atom_site_symmetry_multiplicity
 _atom_site_fract_x
 _atom_site_fract_y
 _atom_site_fract_z
 _atom_site_occupancy
  Ho  Ho0  1  0.406438  0.407237  0.500000  1
  Ho  Ho1  1  0.593562  0.000799  0.500000  1
  Th  Th2  1  0.000000  0.588985  0.500000  1
  Ga  Ga3  1  0.739109  0.751075  0.000000  1
  Ga  Ga4  1  0.260891  0.011966  0.000000  1
  Ga  Ga5  1  0.000000  0.241408  0.000000  1
  Pt  Pt6  1  0.668777  0.335085  0.000000  1
  Pt  Pt7  1  0.331223  0.666310  0.000000  1
  Pt  Pt8  1  0.000000  0.997135  0.500000  1
