# generated using pymatgen
data_Ho3Tm2InGa2
_symmetry_space_group_name_H-M   'P 1'
_cell_length_a   7.67620998
_cell_length_b   7.67788000
_cell_length_c   14.22407465
_cell_angle_alpha   89.92061785
_cell_angle_beta   90.09826085
_cell_angle_gamma   89.93721580
_symmetry_Int_Tables_number   1
_chemical_formula_structural   Ho3Tm2InGa2
_chemical_formula_sum   'Ho12 Tm8 In4 Ga8'
_cell_volume   838.32201530
_cell_formula_units_Z   4
loop_
 _symmetry_equiv_pos_site_id
 _symmetry_equiv_pos_as_xyz
  1  'x, y, z'
loop_
 _atom_site_type_symbol
 _atom_site_label
 _atom_site_symmetry_multiplicity
 _atom_site_fract_x
 _atom_site_fract_y
 _atom_site_fract_z
 _atom_site_occupancy
  Ho  Ho0  1  0.328262  0.338020  0.606145  1
  Ho  Ho1  1  0.328201  0.661958  0.106202  1
  Ho  Ho2  1  0.171808  0.162101  0.393996  1
  Ho  Ho3  1  0.827859  0.161920  0.893756  1
  Ho  Ho4  1  0.662003  0.327638  0.393718  1
  Ho  Ho5  1  0.338096  0.327281  0.893592  1
  Ho  Ho6  1  0.161863  0.828008  0.606310  1
  Ho  Ho7  1  0.838300  0.827608  0.106418  1
  Ho  Ho8  1  0.338379  0.671766  0.393530  1
  Ho  Ho9  1  0.661647  0.671947  0.893446  1
  Ho  Ho10  1  0.838146  0.172251  0.606478  1
  Ho  Ho11  1  0.161745  0.172181  0.106440  1
  Tm  Tm12  1  0.000123  0.500794  0.757033  1
  Tm  Tm13  1  0.999522  0.500185  0.257304  1
  Tm  Tm14  1  0.500091  0.999936  0.242929  1
  Tm  Tm15  1  0.500296  0.999729  0.742683  1
  Tm  Tm16  1  0.671692  0.661601  0.606967  1
  Tm  Tm17  1  0.672064  0.338620  0.107021  1
  Tm  Tm18  1  0.828399  0.838532  0.392975  1
  Tm  Tm19  1  0.171732  0.838620  0.892898  1
  In  In20  1  0.997991  0.501916  0.496543  1
  In  In21  1  0.000021  0.500143  0.996235  1
  In  In22  1  0.502128  0.997960  0.503404  1
  In  In23  1  0.499552  0.999381  0.003995  1
  Ga  Ga24  1  0.874675  0.874314  0.750109  1
  Ga  Ga25  1  0.873978  0.125573  0.250355  1
  Ga  Ga26  1  0.625948  0.625522  0.249868  1
  Ga  Ga27  1  0.374574  0.625788  0.749751  1
  Ga  Ga28  1  0.125618  0.125250  0.750100  1
  Ga  Ga29  1  0.125078  0.874230  0.250332  1
  Ga  Ga30  1  0.374744  0.374293  0.249815  1
  Ga  Ga31  1  0.625463  0.374937  0.749652  1
