# generated using pymatgen
data_AuI13
_symmetry_space_group_name_H-M   'P 1'
_cell_length_a   11.50408383
_cell_length_b   13.94229926
_cell_length_c   17.12527551
_cell_angle_alpha   135.37771942
_cell_angle_beta   77.63925512
_cell_angle_gamma   112.59143943
_symmetry_Int_Tables_number   1
_chemical_formula_structural   AuI13
_chemical_formula_sum   'Au2 I26'
_cell_volume   1773.89450132
_cell_formula_units_Z   2
loop_
 _symmetry_equiv_pos_site_id
 _symmetry_equiv_pos_as_xyz
  1  'x, y, z'
loop_
 _atom_site_type_symbol
 _atom_site_label
 _atom_site_symmetry_multiplicity
 _atom_site_fract_x
 _atom_site_fract_y
 _atom_site_fract_z
 _atom_site_occupancy
  Au  Au0  1  0.325674  0.862036  0.923038  1
  Au  Au1  1  0.674326  0.137964  0.076962  1
  I  I2  1  0.286221  0.531274  0.909296  1
  I  I3  1  0.713779  0.468726  0.090704  1
  I  I4  1  0.504442  0.752944  0.397880  1
  I  I5  1  0.495558  0.247056  0.602120  1
  I  I6  1  0.756524  0.711431  0.022654  1
  I  I7  1  0.243476  0.288569  0.977346  1
  I  I8  1  0.710782  0.969759  0.156069  1
  I  I9  1  0.289218  0.030241  0.843931  1
  I  I10  1  0.429981  0.109611  0.132794  1
  I  I11  1  0.570019  0.890389  0.867206  1
  I  I12  1  0.235822  0.623392  0.709097  1
  I  I13  1  0.764178  0.376608  0.290903  1
  I  I14  1  0.087867  0.820869  0.982261  1
  I  I15  1  0.912133  0.179131  0.017739  1
  I  I16  1  0.108585  0.121942  0.222146  1
  I  I17  1  0.891415  0.878058  0.777854  1
  I  I18  1  0.295205  0.940823  0.463720  1
  I  I19  1  0.704795  0.059177  0.536280  1
  I  I20  1  0.367971  0.423011  0.655397  1
  I  I21  1  0.632029  0.576989  0.344603  1
  I  I22  1  0.877370  0.346501  0.672415  1
  I  I23  1  0.122630  0.653499  0.327585  1
  I  I24  1  0.903213  0.610362  0.569322  1
  I  I25  1  0.096787  0.389638  0.430678  1
  I  I26  1  0.210745  0.584951  0.100514  1
  I  I27  1  0.789255  0.415049  0.899486  1
