# generated using pymatgen
data_DyHo7(OsBr4)2
_symmetry_space_group_name_H-M   'P 1'
_cell_length_a   8.97647352
_cell_length_b   8.97122415
_cell_length_c   6.53198673
_cell_angle_alpha   89.63826733
_cell_angle_beta   89.60165655
_cell_angle_gamma   89.39696072
_symmetry_Int_Tables_number   1
_chemical_formula_structural   DyHo7(OsBr4)2
_chemical_formula_sum   'Dy1 Ho7 Os2 Br8'
_cell_volume   525.96851443
_cell_formula_units_Z   1
loop_
 _symmetry_equiv_pos_site_id
 _symmetry_equiv_pos_as_xyz
  1  'x, y, z'
loop_
 _atom_site_type_symbol
 _atom_site_label
 _atom_site_symmetry_multiplicity
 _atom_site_fract_x
 _atom_site_fract_y
 _atom_site_fract_z
 _atom_site_occupancy
  Dy  Dy0  1  0.248655  0.901781  0.010450  1
  Ho  Ho1  1  0.752295  0.097867  0.989313  1
  Ho  Ho2  1  0.097716  0.752346  0.489295  1
  Ho  Ho3  1  0.902106  0.247698  0.510733  1
  Ho  Ho4  1  0.753077  0.903363  0.507032  1
  Ho  Ho5  1  0.246790  0.096729  0.492963  1
  Ho  Ho6  1  0.096498  0.247028  0.992916  1
  Ho  Ho7  1  0.903144  0.753106  0.007003  1
  Os  Os8  1  0.995365  0.004571  0.250024  1
  Os  Os9  1  0.004274  0.995569  0.749818  1
  Br  Br10  1  0.417348  0.818360  0.410015  1
  Br  Br11  1  0.582626  0.181614  0.590428  1
  Br  Br12  1  0.181458  0.582441  0.090428  1
  Br  Br13  1  0.818401  0.417372  0.909593  1
  Br  Br14  1  0.412602  0.189488  0.093050  1
  Br  Br15  1  0.587657  0.810639  0.906950  1
  Br  Br16  1  0.810728  0.587419  0.406960  1
  Br  Br17  1  0.189260  0.412607  0.593032  1
