# generated using pymatgen
data_Al3Cu(IrS4)2
_symmetry_space_group_name_H-M   'P 1'
_cell_length_a   7.04566044
_cell_length_b   7.04566098
_cell_length_c   6.97830700
_cell_angle_alpha   60.31573436
_cell_angle_beta   60.31573188
_cell_angle_gamma   61.02499427
_symmetry_Int_Tables_number   1
_chemical_formula_structural   Al3Cu(IrS4)2
_chemical_formula_sum   'Al3 Cu1 Ir2 S8'
_cell_volume   247.98117252
_cell_formula_units_Z   1
loop_
 _symmetry_equiv_pos_site_id
 _symmetry_equiv_pos_as_xyz
  1  'x, y, z'
loop_
 _atom_site_type_symbol
 _atom_site_label
 _atom_site_symmetry_multiplicity
 _atom_site_fract_x
 _atom_site_fract_y
 _atom_site_fract_z
 _atom_site_occupancy
  Al  Al0  1  0.870713  0.870713  0.391543  1
  Al  Al1  1  0.870713  0.870713  0.867031  1
  Al  Al2  1  0.253411  0.253411  0.246589  1
  Cu  Cu3  1  0.499279  0.499279  0.500721  1
  Ir  Ir4  1  0.873440  0.380986  0.872786  1
  Ir  Ir5  1  0.380986  0.873440  0.872786  1
  S  S6  1  0.634047  0.634047  0.638949  1
  S  S7  1  0.634047  0.634047  0.092956  1
  S  S8  1  0.101875  0.630390  0.633867  1
  S  S9  1  0.630390  0.101875  0.633867  1
  S  S10  1  0.118062  0.652392  0.114773  1
  S  S11  1  0.652392  0.118062  0.114773  1
  S  S12  1  0.115322  0.115322  0.657318  1
  S  S13  1  0.115322  0.115322  0.112039  1
