# generated using pymatgen
data_ErW11F36
_symmetry_space_group_name_H-M   'P 1'
_cell_length_a   4.24759200
_cell_length_b   8.25766700
_cell_length_c   28.59710400
_cell_angle_alpha   90.00000000
_cell_angle_beta   90.00000000
_cell_angle_gamma   90.00000000
_symmetry_Int_Tables_number   1
_chemical_formula_structural   ErW11F36
_chemical_formula_sum   'Er1 W11 F36'
_cell_volume   1003.04915045
_cell_formula_units_Z   1
loop_
 _symmetry_equiv_pos_site_id
 _symmetry_equiv_pos_as_xyz
  1  'x, y, z'
loop_
 _atom_site_type_symbol
 _atom_site_label
 _atom_site_symmetry_multiplicity
 _atom_site_fract_x
 _atom_site_fract_y
 _atom_site_fract_z
 _atom_site_occupancy
  Er  Er0  1  0.000000  0.000000  0.500000  1
  W  W1  1  0.000000  0.500000  0.248898  1
  W  W2  1  0.000000  0.500000  0.751102  1
  W  W3  1  0.000000  0.250456  0.124223  1
  W  W4  1  0.000000  0.749544  0.875777  1
  W  W5  1  0.000000  0.749544  0.124223  1
  W  W6  1  0.000000  0.250456  0.875777  1
  W  W7  1  0.000000  0.000000  0.000000  1
  W  W8  1  0.000000  0.250820  0.373717  1
  W  W9  1  0.000000  0.749180  0.626283  1
  W  W10  1  0.000000  0.749180  0.373717  1
  W  W11  1  0.000000  0.250820  0.626283  1
  F  F12  1  0.000000  0.500000  0.105638  1
  F  F13  1  0.000000  0.500000  0.894362  1
  F  F14  1  0.000000  0.000000  0.142070  1
  F  F15  1  0.000000  0.000000  0.857930  1
  F  F16  1  0.000000  0.319948  0.195807  1
  F  F17  1  0.000000  0.680052  0.804193  1
  F  F18  1  0.000000  0.680052  0.195807  1
  F  F19  1  0.000000  0.319948  0.804193  1
  F  F20  1  0.000000  0.180334  0.444771  1
  F  F21  1  0.000000  0.819666  0.555229  1
  F  F22  1  0.000000  0.819666  0.444771  1
  F  F23  1  0.000000  0.180334  0.555229  1
  F  F24  1  0.500000  0.000000  0.000000  1
  F  F25  1  0.000000  0.500000  0.392826  1
  F  F26  1  0.000000  0.500000  0.607174  1
  F  F27  1  0.000000  0.000000  0.355794  1
  F  F28  1  0.000000  0.000000  0.644206  1
  F  F29  1  0.000000  0.320413  0.302079  1
  F  F30  1  0.000000  0.679587  0.697921  1
  F  F31  1  0.000000  0.679587  0.302079  1
  F  F32  1  0.000000  0.320413  0.697921  1
  F  F33  1  0.000000  0.181480  0.052659  1
  F  F34  1  0.000000  0.818520  0.947341  1
  F  F35  1  0.000000  0.818520  0.052659  1
  F  F36  1  0.000000  0.181480  0.947341  1
  F  F37  1  0.500000  0.249789  0.373815  1
  F  F38  1  0.500000  0.750211  0.626185  1
  F  F39  1  0.500000  0.750211  0.373815  1
  F  F40  1  0.500000  0.249789  0.626185  1
  F  F41  1  0.500000  0.500000  0.248742  1
  F  F42  1  0.500000  0.500000  0.751258  1
  F  F43  1  0.500000  0.250894  0.124301  1
  F  F44  1  0.500000  0.749106  0.875699  1
  F  F45  1  0.500000  0.749106  0.124301  1
  F  F46  1  0.500000  0.250894  0.875699  1
  F  F47  1  0.500000  0.000000  0.500000  1
