# generated using pymatgen
data_Pr5Th5(Sn3C)2
_symmetry_space_group_name_H-M   'P 1'
_cell_length_a   9.44067100
_cell_length_b   9.39862032
_cell_length_c   6.61962300
_cell_angle_alpha   90.00000000
_cell_angle_beta   90.00000000
_cell_angle_gamma   120.14811031
_symmetry_Int_Tables_number   1
_chemical_formula_structural   Pr5Th5(Sn3C)2
_chemical_formula_sum   'Pr5 Th5 Sn6 C2'
_cell_volume   507.90297162
_cell_formula_units_Z   1
loop_
 _symmetry_equiv_pos_site_id
 _symmetry_equiv_pos_as_xyz
  1  'x, y, z'
loop_
 _atom_site_type_symbol
 _atom_site_label
 _atom_site_symmetry_multiplicity
 _atom_site_fract_x
 _atom_site_fract_y
 _atom_site_fract_z
 _atom_site_occupancy
  Pr  Pr0  1  0.333451  0.665919  0.500521  1
  Pr  Pr1  1  0.667533  0.334081  0.500521  1
  Pr  Pr2  1  0.667533  0.334081  0.999479  1
  Pr  Pr3  1  0.333451  0.665919  0.999479  1
  Pr  Pr4  1  0.227584  0.000000  0.750000  1
  Th  Th5  1  0.781604  0.000000  0.250000  1
  Th  Th6  1  0.002205  0.215775  0.750000  1
  Th  Th7  1  0.999525  0.783080  0.250000  1
  Th  Th8  1  0.786430  0.784225  0.750000  1
  Th  Th9  1  0.216446  0.216920  0.250000  1
  Sn  Sn10  1  0.600975  0.000000  0.750000  1
  Sn  Sn11  1  0.399311  0.000000  0.250000  1
  Sn  Sn12  1  0.999644  0.599434  0.750000  1
  Sn  Sn13  1  0.999700  0.400924  0.250000  1
  Sn  Sn14  1  0.400210  0.400566  0.750000  1
  Sn  Sn15  1  0.598775  0.599076  0.250000  1
  C  C16  1  0.992811  0.000000  0.495538  1
  C  C17  1  0.992811  0.000000  0.004462  1
