# generated using pymatgen
data_Nd4YHo3(ReB6)4
_symmetry_space_group_name_H-M   'P 1'
_cell_length_a   3.72838900
_cell_length_b   9.25083301
_cell_length_c   11.70894702
_cell_angle_alpha   90.00620536
_cell_angle_beta   90.00000000
_cell_angle_gamma   90.00000000
_symmetry_Int_Tables_number   1
_chemical_formula_structural   Nd4YHo3(ReB6)4
_chemical_formula_sum   'Nd4 Y1 Ho3 Re4 B24'
_cell_volume   403.84982392
_cell_formula_units_Z   1
loop_
 _symmetry_equiv_pos_site_id
 _symmetry_equiv_pos_as_xyz
  1  'x, y, z'
loop_
 _atom_site_type_symbol
 _atom_site_label
 _atom_site_symmetry_multiplicity
 _atom_site_fract_x
 _atom_site_fract_y
 _atom_site_fract_z
 _atom_site_occupancy
  Nd  Nd0  1  0.000000  0.322906  0.414249  1
  Nd  Nd1  1  0.000000  0.677093  0.585874  1
  Nd  Nd2  1  0.000000  0.822745  0.085690  1
  Nd  Nd3  1  0.000000  0.177247  0.914187  1
  Y  Y4  1  0.000000  0.943078  0.369656  1
  Ho  Ho5  1  0.000000  0.057121  0.630823  1
  Ho  Ho6  1  0.000000  0.442962  0.130486  1
  Ho  Ho7  1  0.000000  0.557039  0.869410  1
  Re  Re8  1  0.000000  0.638926  0.319201  1
  Re  Re9  1  0.000000  0.360554  0.680809  1
  Re  Re10  1  0.000000  0.139823  0.180361  1
  Re  Re11  1  0.000000  0.860473  0.819296  1
  B  B12  1  0.500000  0.554903  0.430539  1
  B  B13  1  0.500000  0.444914  0.569536  1
  B  B14  1  0.500000  0.055077  0.069371  1
  B  B15  1  0.500000  0.944958  0.930483  1
  B  B16  1  0.500000  0.749343  0.415990  1
  B  B17  1  0.500000  0.250186  0.584114  1
  B  B18  1  0.500000  0.249915  0.084009  1
  B  B19  1  0.500000  0.750167  0.915930  1
  B  B20  1  0.500000  0.791060  0.265960  1
  B  B21  1  0.500000  0.208585  0.733863  1
  B  B22  1  0.500000  0.291633  0.233793  1
  B  B23  1  0.500000  0.708532  0.766175  1
  B  B24  1  0.500000  0.629520  0.186351  1
  B  B25  1  0.500000  0.370371  0.813561  1
  B  B26  1  0.500000  0.130081  0.313360  1
  B  B27  1  0.500000  0.870342  0.686511  1
  B  B28  1  0.500000  0.984177  0.212755  1
  B  B29  1  0.500000  0.015983  0.786915  1
  B  B30  1  0.500000  0.483888  0.286838  1
  B  B31  1  0.500000  0.516000  0.713125  1
  B  B32  1  0.500000  0.596200  0.026639  1
  B  B33  1  0.500000  0.403797  0.973316  1
  B  B34  1  0.500000  0.096783  0.473684  1
  B  B35  1  0.500000  0.903619  0.527144  1
