# generated using pymatgen
data_Nd2Fe5Co3B8
_symmetry_space_group_name_H-M   'P 1'
_cell_length_a   7.06860150
_cell_length_b   7.06276155
_cell_length_c   3.81040432
_cell_angle_alpha   90.09131305
_cell_angle_beta   89.97227577
_cell_angle_gamma   89.80438890
_symmetry_Int_Tables_number   1
_chemical_formula_structural   Nd2Fe5Co3B8
_chemical_formula_sum   'Nd2 Fe5 Co3 B8'
_cell_volume   190.22866879
_cell_formula_units_Z   1
loop_
 _symmetry_equiv_pos_site_id
 _symmetry_equiv_pos_as_xyz
  1  'x, y, z'
loop_
 _atom_site_type_symbol
 _atom_site_label
 _atom_site_symmetry_multiplicity
 _atom_site_fract_x
 _atom_site_fract_y
 _atom_site_fract_z
 _atom_site_occupancy
  Nd  Nd0  1  0.000025  0.999407  0.000012  1
  Nd  Nd1  1  0.500811  0.500747  0.500399  1
  Fe  Fe2  1  0.113810  0.633381  0.393223  1
  Fe  Fe3  1  0.367429  0.113526  0.605189  1
  Fe  Fe4  1  0.633581  0.887340  0.605666  1
  Fe  Fe5  1  0.613362  0.133566  0.105597  1
  Fe  Fe6  1  0.387563  0.867992  0.104934  1
  Co  Co7  1  0.136390  0.385145  0.893094  1
  Co  Co8  1  0.862007  0.612247  0.892797  1
  Co  Co9  1  0.886023  0.362731  0.392892  1
  B  B10  1  0.664320  0.799970  0.106279  1
  B  B11  1  0.334995  0.198159  0.106029  1
  B  B12  1  0.297380  0.834563  0.604252  1
  B  B13  1  0.699130  0.164054  0.605899  1
  B  B14  1  0.838746  0.706252  0.396449  1
  B  B15  1  0.165947  0.299606  0.395811  1
  B  B16  1  0.203058  0.666212  0.894886  1
  B  B17  1  0.795422  0.335101  0.896594  1
