# generated using pymatgen
data_Ta6Si6Mo3RuW2
_symmetry_space_group_name_H-M   'P 1'
_cell_length_a   7.67066414
_cell_length_b   7.68448727
_cell_length_c   7.67169334
_cell_angle_alpha   126.46748194
_cell_angle_beta   128.23747301
_cell_angle_gamma   77.64409348
_symmetry_Int_Tables_number   1
_chemical_formula_structural   Ta6Si6Mo3RuW2
_chemical_formula_sum   'Ta6 Si6 Mo3 Ru1 W2'
_cell_volume   277.03456866
_cell_formula_units_Z   1
loop_
 _symmetry_equiv_pos_site_id
 _symmetry_equiv_pos_as_xyz
  1  'x, y, z'
loop_
 _atom_site_type_symbol
 _atom_site_label
 _atom_site_symmetry_multiplicity
 _atom_site_fract_x
 _atom_site_fract_y
 _atom_site_fract_z
 _atom_site_occupancy
  Ta  Ta0  1  0.950514  0.914967  0.466139  1
  Ta  Ta1  1  0.056879  0.503462  0.950598  1
  Ta  Ta2  1  0.552030  0.505058  0.448340  1
  Ta  Ta3  1  0.449041  0.914233  0.962558  1
  Ta  Ta4  1  0.746305  0.090522  0.848430  1
  Ta  Ta5  1  0.242658  0.091810  0.343965  1
  Si  Si6  1  0.752848  0.500939  0.247063  1
  Si  Si7  1  0.255698  0.500881  0.747580  1
  Si  Si8  1  0.665452  0.178849  0.512804  1
  Si  Si9  1  0.329503  0.834080  0.501814  1
  Si  Si10  1  0.165787  0.173691  0.007559  1
  Si  Si11  1  0.828367  0.828575  0.002018  1
  Mo  Mo12  1  0.871117  0.245174  0.374782  1
  Mo  Mo13  1  0.129929  0.503413  0.371375  1
  Mo  Mo14  1  0.372049  0.246971  0.875015  1
  Ru  Ru15  1  0.631382  0.503956  0.876382  1
  W  W16  1  0.501214  0.761730  0.260155  1
  W  W17  1  0.999226  0.759488  0.761223  1
