# generated using pymatgen
data_Hf8Mn7Si14W
_symmetry_space_group_name_H-M   'P 1'
_cell_length_a   9.52363511
_cell_length_b   9.51107706
_cell_length_c   9.52085700
_cell_angle_alpha   94.11781268
_cell_angle_beta   94.18363517
_cell_angle_gamma   148.77792218
_symmetry_Int_Tables_number   1
_chemical_formula_structural   Hf8Mn7Si14W
_chemical_formula_sum   'Hf8 Mn7 Si14 W1'
_cell_volume   430.55702803
_cell_formula_units_Z   1
loop_
 _symmetry_equiv_pos_site_id
 _symmetry_equiv_pos_as_xyz
  1  'x, y, z'
loop_
 _atom_site_type_symbol
 _atom_site_label
 _atom_site_symmetry_multiplicity
 _atom_site_fract_x
 _atom_site_fract_y
 _atom_site_fract_z
 _atom_site_occupancy
  Hf  Hf0  1  0.137179  0.137168  0.274373  1
  Hf  Hf1  1  0.860301  0.860304  0.720599  1
  Hf  Hf2  1  0.134301  0.857890  0.998795  1
  Hf  Hf3  1  0.864497  0.140906  0.998791  1
  Hf  Hf4  1  0.307983  0.502468  0.802256  1
  Hf  Hf5  1  0.700925  0.506633  0.195546  1
  Hf  Hf6  1  0.494607  0.688903  0.195549  1
  Hf  Hf7  1  0.494265  0.299789  0.802251  1
  Mn  Mn8  1  0.394185  0.894185  0.788333  1
  Mn  Mn9  1  0.903313  0.100510  0.503603  1
  Mn  Mn10  1  0.600291  0.403083  0.503614  1
  Mn  Mn11  1  0.601155  0.101150  0.202305  1
  Mn  Mn12  1  0.902162  0.402164  0.804339  1
  Mn  Mn13  1  0.104548  0.893630  0.496676  1
  Mn  Mn14  1  0.392126  0.603056  0.496672  1
  Si  Si15  1  0.290167  0.290186  0.580319  1
  Si  Si16  1  0.708798  0.708800  0.417691  1
  Si  Si17  1  0.308492  0.722799  0.995450  1
  Si  Si18  1  0.686963  0.272649  0.995408  1
  Si  Si19  1  0.072016  0.479015  0.592761  1
  Si  Si20  1  0.865891  0.460693  0.417180  1
  Si  Si21  1  0.551277  0.956480  0.417167  1
  Si  Si22  1  0.520756  0.113739  0.592789  1
  Si  Si23  1  0.249198  0.249894  0.997970  1
  Si  Si24  1  0.748755  0.748063  0.997973  1
  Si  Si25  1  0.320712  0.032592  0.296786  1
  Si  Si26  1  0.712994  0.010153  0.703037  1
  Si  Si27  1  0.990051  0.692909  0.703032  1
  Si  Si28  1  0.976093  0.264196  0.296797  1
  W  W29  1  0.106001  0.605991  0.211937  1
