# generated using pymatgen
data_Th2BeCoSi3Ge
_symmetry_space_group_name_H-M   'P 1'
_cell_length_a   8.45562178
_cell_length_b   8.45562086
_cell_length_c   4.14370200
_cell_angle_alpha   90.00000000
_cell_angle_beta   90.00000000
_cell_angle_gamma   151.50932314
_symmetry_Int_Tables_number   1
_chemical_formula_structural   Th2BeCoSi3Ge
_chemical_formula_sum   'Th2 Be1 Co1 Si3 Ge1'
_cell_volume   141.32281744
_cell_formula_units_Z   1
loop_
 _symmetry_equiv_pos_site_id
 _symmetry_equiv_pos_as_xyz
  1  'x, y, z'
loop_
 _atom_site_type_symbol
 _atom_site_label
 _atom_site_symmetry_multiplicity
 _atom_site_fract_x
 _atom_site_fract_y
 _atom_site_fract_z
 _atom_site_occupancy
  Th  Th0  1  0.605343  0.394657  0.750000  1
  Th  Th1  1  0.388406  0.611594  0.250000  1
  Be  Be2  1  0.821751  0.178249  0.750000  1
  Co  Co3  1  0.182845  0.817155  0.250000  1
  Si  Si4  1  0.043275  0.956725  0.250000  1
  Si  Si5  1  0.249311  0.750689  0.750000  1
  Si  Si6  1  0.748265  0.251735  0.250000  1
  Ge  Ge7  1  0.960805  0.039195  0.750000  1
