# generated using pymatgen
data_Dy3Ta(ZnRh2)4
_symmetry_space_group_name_H-M   'P 1'
_cell_length_a   6.08511900
_cell_length_b   6.08901400
_cell_length_c   7.04308000
_cell_angle_alpha   90.00034531
_cell_angle_beta   90.00075212
_cell_angle_gamma   90.00248541
_symmetry_Int_Tables_number   1
_chemical_formula_structural   Dy3Ta(ZnRh2)4
_chemical_formula_sum   'Dy3 Ta1 Zn4 Rh8'
_cell_volume   260.96283969
_cell_formula_units_Z   1
loop_
 _symmetry_equiv_pos_site_id
 _symmetry_equiv_pos_as_xyz
  1  'x, y, z'
loop_
 _atom_site_type_symbol
 _atom_site_label
 _atom_site_symmetry_multiplicity
 _atom_site_fract_x
 _atom_site_fract_y
 _atom_site_fract_z
 _atom_site_occupancy
  Dy  Dy0  1  0.749994  0.250006  0.999982  1
  Dy  Dy1  1  0.250005  0.749992  0.999968  1
  Dy  Dy2  1  0.750004  0.250002  0.500007  1
  Ta  Ta3  1  0.250009  0.750012  0.500039  1
  Zn  Zn4  1  0.249999  0.249992  0.000018  1
  Zn  Zn5  1  0.750003  0.750004  0.000036  1
  Zn  Zn6  1  0.749998  0.750002  0.500004  1
  Zn  Zn7  1  0.250005  0.249997  0.500018  1
  Rh  Rh8  1  0.492948  0.992997  0.261351  1
  Rh  Rh9  1  0.007037  0.993004  0.261335  1
  Rh  Rh10  1  0.492955  0.506982  0.261351  1
  Rh  Rh11  1  0.007029  0.506999  0.261337  1
  Rh  Rh12  1  0.492933  0.992950  0.738632  1
  Rh  Rh13  1  0.007083  0.992962  0.738633  1
  Rh  Rh14  1  0.492920  0.507059  0.738637  1
  Rh  Rh15  1  0.007079  0.507039  0.738648  1
