# generated using pymatgen
data_NaCo3Sb12Ru
_symmetry_space_group_name_H-M   'P 1'
_cell_length_a   8.00504574
_cell_length_b   7.94120983
_cell_length_c   8.00504454
_cell_angle_alpha   109.30976322
_cell_angle_beta   109.63219928
_cell_angle_gamma   109.30975463
_symmetry_Int_Tables_number   1
_chemical_formula_structural   NaCo3Sb12Ru
_chemical_formula_sum   'Na1 Co3 Sb12 Ru1'
_cell_volume   392.51284080
_cell_formula_units_Z   1
loop_
 _symmetry_equiv_pos_site_id
 _symmetry_equiv_pos_as_xyz
  1  'x, y, z'
loop_
 _atom_site_type_symbol
 _atom_site_label
 _atom_site_symmetry_multiplicity
 _atom_site_fract_x
 _atom_site_fract_y
 _atom_site_fract_z
 _atom_site_occupancy
  Na  Na0  1  0.000000  0.000000  0.000000  1
  Co  Co1  1  0.500000  0.500000  0.500000  1
  Co  Co2  1  0.000000  0.000000  0.500000  1
  Co  Co3  1  0.500000  0.000000  0.000000  1
  Sb  Sb4  1  0.663993  0.839812  0.503699  1
  Sb  Sb5  1  0.336007  0.160188  0.496301  1
  Sb  Sb6  1  0.839706  0.175819  0.336007  1
  Sb  Sb7  1  0.821335  0.667746  0.163939  1
  Sb  Sb8  1  0.836061  0.503807  0.657396  1
  Sb  Sb9  1  0.178665  0.332254  0.836061  1
  Sb  Sb10  1  0.160294  0.824181  0.663993  1
  Sb  Sb11  1  0.503699  0.663887  0.839706  1
  Sb  Sb12  1  0.496301  0.336113  0.160294  1
  Sb  Sb13  1  0.163939  0.496193  0.342604  1
  Sb  Sb14  1  0.342604  0.846411  0.178665  1
  Sb  Sb15  1  0.657396  0.153589  0.821335  1
  Ru  Ru16  1  0.000000  0.500000  0.000000  1
