# generated using pymatgen
data_Er2TmCd3IrAu2
_symmetry_space_group_name_H-M   'P 1'
_cell_length_a   3.74948700
_cell_length_b   7.85848048
_cell_length_c   7.85397318
_cell_angle_alpha   120.00544148
_cell_angle_beta   90.00000000
_cell_angle_gamma   90.00000000
_symmetry_Int_Tables_number   1
_chemical_formula_structural   Er2TmCd3IrAu2
_chemical_formula_sum   'Er2 Tm1 Cd3 Ir1 Au2'
_cell_volume   200.40412696
_cell_formula_units_Z   1
loop_
 _symmetry_equiv_pos_site_id
 _symmetry_equiv_pos_as_xyz
  1  'x, y, z'
loop_
 _atom_site_type_symbol
 _atom_site_label
 _atom_site_symmetry_multiplicity
 _atom_site_fract_x
 _atom_site_fract_y
 _atom_site_fract_z
 _atom_site_occupancy
  Er  Er0  1  0.000000  0.416507  0.388147  1
  Er  Er1  1  0.000000  0.971534  0.583367  1
  Tm  Tm2  1  0.000000  0.612086  0.028726  1
  Cd  Cd3  1  0.500000  0.727705  0.731717  1
  Cd  Cd4  1  0.500000  0.003708  0.272086  1
  Cd  Cd5  1  0.500000  0.268452  0.996088  1
  Ir  Ir6  1  0.500000  0.666616  0.332888  1
  Au  Au7  1  0.500000  0.333587  0.666987  1
  Au  Au8  1  0.000000  0.999804  0.999996  1
