# generated using pymatgen
data_Ca4Ir3Rh5
_symmetry_space_group_name_H-M   'P 1'
_cell_length_a   5.34927400
_cell_length_b   5.32932046
_cell_length_c   8.81659700
_cell_angle_alpha   90.00000000
_cell_angle_beta   90.00000000
_cell_angle_gamma   120.12391906
_symmetry_Int_Tables_number   1
_chemical_formula_structural   Ca4Ir3Rh5
_chemical_formula_sum   'Ca4 Ir3 Rh5'
_cell_volume   217.39755060
_cell_formula_units_Z   1
loop_
 _symmetry_equiv_pos_site_id
 _symmetry_equiv_pos_as_xyz
  1  'x, y, z'
loop_
 _atom_site_type_symbol
 _atom_site_label
 _atom_site_symmetry_multiplicity
 _atom_site_fract_x
 _atom_site_fract_y
 _atom_site_fract_z
 _atom_site_occupancy
  Ca  Ca0  1  0.332808  0.665617  0.067061  1
  Ca  Ca1  1  0.666216  0.332431  0.567157  1
  Ca  Ca2  1  0.666216  0.332431  0.932843  1
  Ca  Ca3  1  0.332808  0.665617  0.432939  1
  Ir  Ir4  1  0.997687  0.995374  0.000487  1
  Ir  Ir5  1  0.997687  0.995374  0.499513  1
  Ir  Ir6  1  0.832366  0.664732  0.250000  1
  Rh  Rh7  1  0.168294  0.831202  0.750000  1
  Rh  Rh8  1  0.662908  0.831202  0.750000  1
  Rh  Rh9  1  0.341393  0.173753  0.250000  1
  Rh  Rh10  1  0.832360  0.173753  0.250000  1
  Rh  Rh11  1  0.169258  0.338517  0.750000  1
