# generated using pymatgen
data_Tm8Ti12Si15Sb
_symmetry_space_group_name_H-M   'P 1'
_cell_length_a   6.85788239
_cell_length_b   7.01578715
_cell_length_c   13.30563673
_cell_angle_alpha   90.02949214
_cell_angle_beta   89.55435894
_cell_angle_gamma   90.09602635
_symmetry_Int_Tables_number   1
_chemical_formula_structural   Tm8Ti12Si15Sb
_chemical_formula_sum   'Tm8 Ti12 Si15 Sb1'
_cell_volume   640.15965364
_cell_formula_units_Z   1
loop_
 _symmetry_equiv_pos_site_id
 _symmetry_equiv_pos_as_xyz
  1  'x, y, z'
loop_
 _atom_site_type_symbol
 _atom_site_label
 _atom_site_symmetry_multiplicity
 _atom_site_fract_x
 _atom_site_fract_y
 _atom_site_fract_z
 _atom_site_occupancy
  Tm  Tm0  1  0.005679  0.173727  0.095238  1
  Tm  Tm1  1  0.993868  0.827790  0.905614  1
  Tm  Tm2  1  0.494978  0.672207  0.905486  1
  Tm  Tm3  1  0.994568  0.832932  0.597611  1
  Tm  Tm4  1  0.504616  0.327887  0.095903  1
  Tm  Tm5  1  0.998715  0.168234  0.400161  1
  Tm  Tm6  1  0.507286  0.322839  0.399524  1
  Tm  Tm7  1  0.509773  0.681550  0.599980  1
  Ti  Ti8  1  0.162069  0.490320  0.756367  1
  Ti  Ti9  1  0.837817  0.509577  0.249978  1
  Ti  Ti10  1  0.337090  0.990817  0.249694  1
  Ti  Ti11  1  0.662418  0.008216  0.750836  1
  Ti  Ti12  1  0.347641  0.159538  0.632456  1
  Ti  Ti13  1  0.662445  0.827873  0.370614  1
  Ti  Ti14  1  0.158895  0.681293  0.367698  1
  Ti  Ti15  1  0.664892  0.825038  0.125326  1
  Ti  Ti16  1  0.826352  0.323649  0.628111  1
  Ti  Ti17  1  0.332162  0.175302  0.874228  1
  Ti  Ti18  1  0.835252  0.325881  0.874125  1
  Ti  Ti19  1  0.166571  0.674284  0.126424  1
  Si  Si20  1  0.037117  0.125492  0.750564  1
  Si  Si21  1  0.960121  0.876330  0.246579  1
  Si  Si22  1  0.462002  0.625226  0.248804  1
  Si  Si23  1  0.537355  0.375911  0.752329  1
  Si  Si24  1  0.294014  0.870188  0.752666  1
  Si  Si25  1  0.704106  0.124742  0.247021  1
  Si  Si26  1  0.204095  0.374970  0.249164  1
  Si  Si27  1  0.798622  0.625290  0.751622  1
  Si  Si28  1  0.824267  0.542939  0.455412  1
  Si  Si29  1  0.338388  0.960672  0.458572  1
  Si  Si30  1  0.840651  0.537699  0.042380  1
  Si  Si31  1  0.663431  0.040571  0.538728  1
  Si  Si32  1  0.158913  0.462839  0.959518  1
  Si  Si33  1  0.657672  0.038193  0.958097  1
  Si  Si34  1  0.341046  0.962383  0.042047  1
  Sb  Sb35  1  0.175114  0.457597  0.541125  1
