# generated using pymatgen
data_NaMnFe2Sb12Ir
_symmetry_space_group_name_H-M   'P 1'
_cell_length_a   8.05789057
_cell_length_b   8.02096716
_cell_length_c   8.08818924
_cell_angle_alpha   109.31485955
_cell_angle_beta   109.49154753
_cell_angle_gamma   109.42156890
_symmetry_Int_Tables_number   1
_chemical_formula_structural   NaMnFe2Sb12Ir
_chemical_formula_sum   'Na1 Mn1 Fe2 Sb12 Ir1'
_cell_volume   403.33693024
_cell_formula_units_Z   1
loop_
 _symmetry_equiv_pos_site_id
 _symmetry_equiv_pos_as_xyz
  1  'x, y, z'
loop_
 _atom_site_type_symbol
 _atom_site_label
 _atom_site_symmetry_multiplicity
 _atom_site_fract_x
 _atom_site_fract_y
 _atom_site_fract_z
 _atom_site_occupancy
  Na  Na0  1  0.000000  0.000000  0.000000  1
  Mn  Mn1  1  0.000000  0.500000  0.000000  1
  Fe  Fe2  1  0.000000  0.000000  0.500000  1
  Fe  Fe3  1  0.500000  0.500000  0.500000  1
  Sb  Sb4  1  0.671246  0.821554  0.165624  1
  Sb  Sb5  1  0.845775  0.345513  0.191534  1
  Sb  Sb6  1  0.504412  0.834352  0.655884  1
  Sb  Sb7  1  0.837813  0.670078  0.508530  1
  Sb  Sb8  1  0.495588  0.165648  0.344116  1
  Sb  Sb9  1  0.154225  0.654487  0.808466  1
  Sb  Sb10  1  0.819906  0.149898  0.652888  1
  Sb  Sb11  1  0.180094  0.850102  0.347112  1
  Sb  Sb12  1  0.162187  0.329922  0.491470  1
  Sb  Sb13  1  0.653263  0.504005  0.833382  1
  Sb  Sb14  1  0.346737  0.495995  0.166618  1
  Sb  Sb15  1  0.328754  0.178446  0.834376  1
  Ir  Ir16  1  0.500000  0.000000  0.000000  1
