# generated using pymatgen
data_Ho19ErSn9Pb7
_symmetry_space_group_name_H-M   'P 1'
_cell_length_a   8.11038868
_cell_length_b   8.16453669
_cell_length_c   15.49290283
_cell_angle_alpha   89.97695164
_cell_angle_beta   89.95496326
_cell_angle_gamma   89.99528348
_symmetry_Int_Tables_number   1
_chemical_formula_structural   Ho19ErSn9Pb7
_chemical_formula_sum   'Ho19 Er1 Sn9 Pb7'
_cell_volume   1025.90191194
_cell_formula_units_Z   1
loop_
 _symmetry_equiv_pos_site_id
 _symmetry_equiv_pos_as_xyz
  1  'x, y, z'
loop_
 _atom_site_type_symbol
 _atom_site_label
 _atom_site_symmetry_multiplicity
 _atom_site_fract_x
 _atom_site_fract_y
 _atom_site_fract_z
 _atom_site_occupancy
  Ho  Ho0  1  0.380094  0.839732  0.878336  1
  Ho  Ho1  1  0.880464  0.660926  0.623210  1
  Ho  Ho2  1  0.618745  0.161426  0.376776  1
  Ho  Ho3  1  0.120600  0.335790  0.122460  1
  Ho  Ho4  1  0.617204  0.161456  0.122556  1
  Ho  Ho5  1  0.119046  0.338502  0.376818  1
  Ho  Ho6  1  0.380391  0.838551  0.622930  1
  Ho  Ho7  1  0.880075  0.661159  0.876925  1
  Ho  Ho8  1  0.535992  0.323454  0.897086  1
  Ho  Ho9  1  0.037410  0.175484  0.603728  1
  Ho  Ho10  1  0.461863  0.675743  0.395768  1
  Ho  Ho11  1  0.966241  0.826661  0.102861  1
  Ho  Ho12  1  0.461870  0.678408  0.103292  1
  Ho  Ho13  1  0.962309  0.824517  0.395871  1
  Ho  Ho14  1  0.538037  0.324965  0.603985  1
  Ho  Ho15  1  0.039603  0.173924  0.897618  1
  Ho  Ho16  1  0.210862  0.503554  0.750077  1
  Ho  Ho17  1  0.710896  0.996157  0.750079  1
  Ho  Ho18  1  0.789173  0.496213  0.249616  1
  Er  Er19  1  0.288733  0.003754  0.248588  1
  Sn  Sn20  1  0.282176  0.031628  0.042410  1
  Sn  Sn21  1  0.576363  0.622636  0.750406  1
  Sn  Sn22  1  0.076953  0.877563  0.750156  1
  Sn  Sn23  1  0.422878  0.378184  0.249960  1
  Sn  Sn24  1  0.922747  0.122044  0.249985  1
  Sn  Sn25  1  0.345336  0.148541  0.750104  1
  Sn  Sn26  1  0.845672  0.350617  0.750709  1
  Sn  Sn27  1  0.655134  0.851652  0.249681  1
  Sn  Sn28  1  0.154696  0.648578  0.249605  1
  Pb  Pb29  1  0.780065  0.468281  0.458459  1
  Pb  Pb30  1  0.719325  0.967737  0.541243  1
  Pb  Pb31  1  0.218585  0.532719  0.958830  1
  Pb  Pb32  1  0.719825  0.967552  0.958929  1
  Pb  Pb33  1  0.219439  0.532001  0.541311  1
  Pb  Pb34  1  0.280343  0.031909  0.458135  1
  Pb  Pb35  1  0.780853  0.467977  0.041498  1
