# generated using pymatgen
data_Sc6Ti2Al15Os2Rh5
_symmetry_space_group_name_H-M   'P 1'
_cell_length_a   8.82417488
_cell_length_b   8.83846604
_cell_length_c   8.82417453
_cell_angle_alpha   119.94050563
_cell_angle_beta   119.79979782
_cell_angle_gamma   90.17863454
_symmetry_Int_Tables_number   1
_chemical_formula_structural   Sc6Ti2Al15Os2Rh5
_chemical_formula_sum   'Sc6 Ti2 Al15 Os2 Rh5'
_cell_volume   487.79079743
_cell_formula_units_Z   1
loop_
 _symmetry_equiv_pos_site_id
 _symmetry_equiv_pos_as_xyz
  1  'x, y, z'
loop_
 _atom_site_type_symbol
 _atom_site_label
 _atom_site_symmetry_multiplicity
 _atom_site_fract_x
 _atom_site_fract_y
 _atom_site_fract_z
 _atom_site_occupancy
  Sc  Sc0  1  0.779849  0.276473  0.059419  1
  Sc  Sc1  1  0.217055  0.276473  0.496625  1
  Sc  Sc2  1  0.213321  0.722077  0.508756  1
  Sc  Sc3  1  0.225126  0.730064  0.939862  1
  Sc  Sc4  1  0.790202  0.730067  0.504938  1
  Sc  Sc5  1  0.774392  0.265964  0.491571  1
  Ti  Ti6  1  0.375919  0.120387  0.744468  1
  Ti  Ti7  1  0.378704  0.636076  0.257372  1
  Al  Al8  1  0.992991  0.493879  0.500887  1
  Al  Al9  1  0.158491  0.342833  0.184344  1
  Al  Al10  1  0.161823  0.988068  0.826247  1
  Al  Al11  1  0.156776  0.345157  0.815852  1
  Al  Al12  1  0.529303  0.345159  0.188383  1
  Al  Al13  1  0.842598  0.653624  0.811026  1
  Al  Al14  1  0.839691  0.017479  0.177790  1
  Al  Al15  1  0.838463  0.657462  0.177133  1
  Al  Al16  1  0.480329  0.657463  0.819000  1
  Al  Al17  1  0.379977  0.125376  0.258213  1
  Al  Al18  1  0.867163  0.125378  0.745401  1
  Al  Al19  1  0.621129  0.872722  0.251592  1
  Al  Al20  1  0.620637  0.364490  0.743853  1
  Al  Al21  1  0.618317  0.875132  0.740535  1
  Al  Al22  1  0.134598  0.875133  0.256816  1
  Os  Os23  1  0.004040  0.001303  0.502253  1
  Os  Os24  1  0.499050  0.001306  0.997265  1
  Rh  Rh25  1  0.498534  0.499129  0.000596  1
  Rh  Rh26  1  0.498842  0.501308  0.498371  1
  Rh  Rh27  1  0.002929  0.501290  0.002456  1
  Rh  Rh28  1  0.001024  0.001996  0.000973  1
  Rh  Rh29  1  0.498720  0.996730  0.498008  1
