# generated using pymatgen
data_Ho3ErOs7W
_symmetry_space_group_name_H-M   'P 1'
_cell_length_a   5.29691145
_cell_length_b   5.29691058
_cell_length_c   8.86526400
_cell_angle_alpha   89.99827000
_cell_angle_beta   90.00173117
_cell_angle_gamma   118.14827352
_symmetry_Int_Tables_number   1
_chemical_formula_structural   Ho3ErOs7W
_chemical_formula_sum   'Ho3 Er1 Os7 W1'
_cell_volume   219.31710384
_cell_formula_units_Z   1
loop_
 _symmetry_equiv_pos_site_id
 _symmetry_equiv_pos_as_xyz
  1  'x, y, z'
loop_
 _atom_site_type_symbol
 _atom_site_label
 _atom_site_symmetry_multiplicity
 _atom_site_fract_x
 _atom_site_fract_y
 _atom_site_fract_z
 _atom_site_occupancy
  Ho  Ho0  1  0.328714  0.671286  0.437547  1
  Ho  Ho1  1  0.666644  0.333356  0.566307  1
  Ho  Ho2  1  0.666646  0.333354  0.933720  1
  Er  Er3  1  0.328691  0.671309  0.062439  1
  Os  Os4  1  0.992221  0.007779  0.502542  1
  Os  Os5  1  0.992237  0.007763  0.997487  1
  Os  Os6  1  0.825142  0.649812  0.249928  1
  Os  Os7  1  0.350188  0.174858  0.249928  1
  Os  Os8  1  0.178032  0.821968  0.750059  1
  Os  Os9  1  0.173667  0.338398  0.750047  1
  Os  Os10  1  0.661602  0.826333  0.750047  1
  W  W11  1  0.836213  0.163787  0.249948  1
